MODEL 1
REMARK minimizedAffinity -1.91383612
REMARK minimizedRMSD -1
REMARK  1 active torsions:
REMARK  status: ('A' for Active; 'I' for Inactive)
REMARK    1  A    between atoms: C3_4  and  O_7 
ROOT
ATOM      1  C   UNL d   1       5.996  -0.745   5.962  0.00  0.00    -0.033 A 
ATOM      2  C1  UNL d   1       5.995   0.651   5.928  0.00  0.00     0.039 A 
ATOM      3  C2  UNL d   1       5.995   1.321   4.702  0.00  0.00    -0.080 A 
ATOM      4  C3  UNL d   1       5.995   0.584   3.521  0.00  0.00     0.150 A 
ATOM      5  C4  UNL d   1       5.992  -0.807   3.548  0.00  0.00    -0.007 A 
ATOM      6  C5  UNL d   1       5.993  -1.474   4.772  0.00  0.00     0.039 A 
ENDROOT
BRANCH   4   7
ATOM      7  O   UNL d   1       6.000   1.193   2.302  0.00  0.00    -0.526 OA
ATOM      8  H5  UNL d   1       6.031   2.155   2.438  0.00  0.00     0.418 HD
ENDBRANCH   4   7
TORSDOF 1
ENDMDL
