MODEL 1
REMARK minimizedAffinity -1.11076415
REMARK minimizedRMSD -1
REMARK  1 active torsions:
REMARK  status: ('A' for Active; 'I' for Inactive)
REMARK    1  A    between atoms: C3_4  and  O_7 
ROOT
ATOM      1  C   UNL d   1       6.000   2.168   3.409  0.00  0.00    -0.033 A 
ATOM      2  C1  UNL d   1       5.999   2.195   4.805  0.00  0.00     0.039 A 
ATOM      3  C2  UNL d   1       5.993   1.001   5.529  0.00  0.00    -0.080 A 
ATOM      4  C3  UNL d   1       5.990  -0.212   4.846  0.00  0.00     0.150 A 
ATOM      5  C4  UNL d   1       5.995  -0.247   3.455  0.00  0.00    -0.007 A 
ATOM      6  C5  UNL d   1       6.000   0.947   2.734  0.00  0.00     0.039 A 
ENDROOT
BRANCH   4   7
ATOM      7  O   UNL d   1       5.980  -1.403   5.509  0.00  0.00    -0.526 OA
ATOM      8  H5  UNL d   1       5.948  -1.224   6.463  0.00  0.00     0.418 HD
ENDBRANCH   4   7
TORSDOF 1
ENDMDL
