MODEL 1
REMARK minimizedAffinity 7.85180092
REMARK minimizedRMSD -1
REMARK  1 active torsions:
REMARK  status: ('A' for Active; 'I' for Inactive)
REMARK    1  A    between atoms: C3_4  and  O_7 
ROOT
ATOM      1  C   UNL d   1       6.000   3.265   2.161  0.00  0.00    -0.033 A 
ATOM      2  C1  UNL d   1       5.986   1.938   1.725  0.00  0.00     0.039 A 
ATOM      3  C2  UNL d   1       5.345   0.959   2.486  0.00  0.00    -0.080 A 
ATOM      4  C3  UNL d   1       4.721   1.318   3.677  0.00  0.00     0.150 A 
ATOM      5  C4  UNL d   1       4.727   2.638   4.115  0.00  0.00    -0.007 A 
ATOM      6  C5  UNL d   1       5.369   3.615   3.355  0.00  0.00     0.039 A 
ENDROOT
BRANCH   4   7
ATOM      7  O   UNL d   1       4.086   0.396   4.456  0.00  0.00    -0.526 OA
ATOM      8  H5  UNL d   1       4.188  -0.477   4.043  0.00  0.00     0.418 HD
ENDBRANCH   4   7
TORSDOF 1
ENDMDL
