MODEL 1
REMARK minimizedAffinity -2.76303697
REMARK minimizedRMSD -1
REMARK  1 active torsions:
REMARK  status: ('A' for Active; 'I' for Inactive)
REMARK    1  A    between atoms: C3_4  and  O_7 
ROOT
ATOM      1  C   UNL d   1       5.257   2.990   3.379  0.00  0.00    -0.033 A 
ATOM      2  C1  UNL d   1       5.991   2.053   2.649  0.00  0.00     0.039 A 
ATOM      3  C2  UNL d   1       6.000   0.713   3.040  0.00  0.00    -0.080 A 
ATOM      4  C3  UNL d   1       5.272   0.323   4.161  0.00  0.00     0.150 A 
ATOM      5  C4  UNL d   1       4.536   1.251   4.891  0.00  0.00    -0.007 A 
ATOM      6  C5  UNL d   1       4.529   2.589   4.499  0.00  0.00     0.039 A 
ENDROOT
BRANCH   4   7
ATOM      7  O   UNL d   1       5.254  -0.972   4.585  0.00  0.00    -0.526 OA
ATOM      8  H5  UNL d   1       5.830  -1.495   4.001  0.00  0.00     0.418 HD
ENDBRANCH   4   7
TORSDOF 1
ENDMDL
