MODEL 1
REMARK minimizedAffinity -0.380640447
REMARK minimizedRMSD -1
REMARK  1 active torsions:
REMARK  status: ('A' for Active; 'I' for Inactive)
REMARK    1  A    between atoms: C3_4  and  O_7 
ROOT
ATOM      1  C   UNL d   1       5.963   1.282   4.197  0.00  0.00    -0.033 A 
ATOM      2  C1  UNL d   1       5.958   0.697   5.465  0.00  0.00     0.039 A 
ATOM      3  C2  UNL d   1       5.972  -0.693   5.594  0.00  0.00    -0.080 A 
ATOM      4  C3  UNL d   1       5.991  -1.486   4.450  0.00  0.00     0.150 A 
ATOM      5  C4  UNL d   1       6.000  -0.910   3.184  0.00  0.00    -0.007 A 
ATOM      6  C5  UNL d   1       5.986   0.479   3.056  0.00  0.00     0.039 A 
ENDROOT
BRANCH   4   7
ATOM      7  O   UNL d   1       5.999  -2.847   4.526  0.00  0.00    -0.526 OA
ATOM      8  H5  UNL d   1       5.962  -3.103   5.463  0.00  0.00     0.418 HD
ENDBRANCH   4   7
TORSDOF 1
ENDMDL
