MODEL 1
REMARK minimizedAffinity -4.00512886
REMARK minimizedRMSD -1
REMARK  1 active torsions:
REMARK  status: ('A' for Active; 'I' for Inactive)
REMARK    1  A    between atoms: C3_4  and  O_7 
ROOT
ATOM      1  C   UNL d   1       5.905   1.802   4.467  0.00  0.00    -0.033 A 
ATOM      2  C1  UNL d   1       5.979   0.887   3.415  0.00  0.00     0.039 A 
ATOM      3  C2  UNL d   1       5.768  -0.473   3.655  0.00  0.00    -0.080 A 
ATOM      4  C3  UNL d   1       5.482  -0.902   4.948  0.00  0.00     0.150 A 
ATOM      5  C4  UNL d   1       5.403   0.005   5.999  0.00  0.00    -0.007 A 
ATOM      6  C5  UNL d   1       5.615   1.362   5.758  0.00  0.00     0.039 A 
ENDROOT
BRANCH   4   7
ATOM      7  O   UNL d   1       5.274  -2.219   5.231  0.00  0.00    -0.526 OA
ATOM      8  H5  UNL d   1       5.388  -2.732   4.413  0.00  0.00     0.418 HD
ENDBRANCH   4   7
TORSDOF 1
ENDMDL
