MODEL 1
REMARK minimizedAffinity -0.542710364
REMARK minimizedRMSD -1
REMARK  1 active torsions:
REMARK  status: ('A' for Active; 'I' for Inactive)
REMARK    1  A    between atoms: C3_4  and  O_7 
ROOT
ATOM      1  C   UNL d   1       5.989   5.999   2.932  0.00  0.00    -0.033 A 
ATOM      2  C1  UNL d   1       5.999   5.088   1.875  0.00  0.00     0.039 A 
ATOM      3  C2  UNL d   1       6.000   3.716   2.133  0.00  0.00    -0.080 A 
ATOM      4  C3  UNL d   1       5.990   3.269   3.451  0.00  0.00     0.150 A 
ATOM      5  C4  UNL d   1       5.976   4.171   4.510  0.00  0.00    -0.007 A 
ATOM      6  C5  UNL d   1       5.976   5.541   4.250  0.00  0.00     0.039 A 
ENDROOT
BRANCH   4   7
ATOM      7  O   UNL d   1       5.995   1.939   3.752  0.00  0.00    -0.526 OA
ATOM      8  H5  UNL d   1       6.034   1.436   2.922  0.00  0.00     0.418 HD
ENDBRANCH   4   7
TORSDOF 1
ENDMDL
