MODEL 1
REMARK minimizedAffinity -2.21769714
REMARK minimizedRMSD -1
REMARK  1 active torsions:
REMARK  status: ('A' for Active; 'I' for Inactive)
REMARK    1  A    between atoms: C3_4  and  O_7 
ROOT
ATOM      1  C   UNL d   1       5.989   0.731   4.534  0.00  0.00    -0.033 A 
ATOM      2  C1  UNL d   1       5.995   0.176   5.815  0.00  0.00     0.039 A 
ATOM      3  C2  UNL d   1       5.999  -1.210   5.977  0.00  0.00    -0.080 A 
ATOM      4  C3  UNL d   1       6.000  -2.030   4.852  0.00  0.00     0.150 A 
ATOM      5  C4  UNL d   1       5.998  -1.484   3.572  0.00  0.00    -0.007 A 
ATOM      6  C5  UNL d   1       5.993  -0.099   3.412  0.00  0.00     0.039 A 
ENDROOT
BRANCH   4   7
ATOM      7  O   UNL d   1       5.999  -3.389   4.960  0.00  0.00    -0.526 OA
ATOM      8  H5  UNL d   1       5.971  -3.622   5.903  0.00  0.00     0.418 HD
ENDBRANCH   4   7
TORSDOF 1
ENDMDL
