MODEL 1
REMARK minimizedAffinity -0.800862432
REMARK minimizedRMSD -1
REMARK  1 active torsions:
REMARK  status: ('A' for Active; 'I' for Inactive)
REMARK    1  A    between atoms: C3_4  and  O_7 
ROOT
ATOM      1  C   UNL d   1       6.000   5.993   1.765  0.00  0.00    -0.033 A 
ATOM      2  C1  UNL d   1       6.000   6.000   0.369  0.00  0.00     0.039 A 
ATOM      3  C2  UNL d   1       5.023   5.292  -0.334  0.00  0.00    -0.080 A 
ATOM      4  C3  UNL d   1       4.053   4.583   0.370  0.00  0.00     0.150 A 
ATOM      5  C4  UNL d   1       4.045   4.575   1.761  0.00  0.00    -0.007 A 
ATOM      6  C5  UNL d   1       5.022   5.282   2.461  0.00  0.00     0.039 A 
ENDROOT
BRANCH   4   7
ATOM      7  O   UNL d   1       3.083   3.874  -0.273  0.00  0.00    -0.526 OA
ATOM      8  H5  UNL d   1       3.230   3.947  -1.230  0.00  0.00     0.418 HD
ENDBRANCH   4   7
TORSDOF 1
ENDMDL
