MODEL 1
REMARK minimizedAffinity -2.71817589
REMARK minimizedRMSD -1
REMARK  1 active torsions:
REMARK  status: ('A' for Active; 'I' for Inactive)
REMARK    1  A    between atoms: C3_4  and  O_7 
ROOT
ATOM      1  C   UNL d   1       6.000   2.432   3.094  0.00  0.00    -0.033 A 
ATOM      2  C1  UNL d   1       5.994   1.122   2.609  0.00  0.00     0.039 A 
ATOM      3  C2  UNL d   1       5.843   0.051   3.491  0.00  0.00    -0.080 A 
ATOM      4  C3  UNL d   1       5.697   0.301   4.853  0.00  0.00     0.150 A 
ATOM      5  C4  UNL d   1       5.698   1.603   5.342  0.00  0.00    -0.007 A 
ATOM      6  C5  UNL d   1       5.850   2.673   4.460  0.00  0.00     0.039 A 
ENDROOT
BRANCH   4   7
ATOM      7  O   UNL d   1       5.552  -0.713   5.752  0.00  0.00    -0.526 OA
ATOM      8  H5  UNL d   1       5.599  -1.557   5.274  0.00  0.00     0.418 HD
ENDBRANCH   4   7
TORSDOF 1
ENDMDL
