MODEL 1
REMARK minimizedAffinity -1.57409096
REMARK minimizedRMSD -1
REMARK  1 active torsions:
REMARK  status: ('A' for Active; 'I' for Inactive)
REMARK    1  A    between atoms: C3_4  and  O_7 
ROOT
ATOM      1  C   UNL d   1       5.994   1.887   4.548  0.00  0.00    -0.033 A 
ATOM      2  C1  UNL d   1       6.000   1.049   3.431  0.00  0.00     0.039 A 
ATOM      3  C2  UNL d   1       5.999  -0.338   3.597  0.00  0.00    -0.080 A 
ATOM      4  C3  UNL d   1       5.991  -0.872   4.882  0.00  0.00     0.150 A 
ATOM      5  C4  UNL d   1       5.982  -0.043   5.999  0.00  0.00    -0.007 A 
ATOM      6  C5  UNL d   1       5.984   1.341   5.832  0.00  0.00     0.039 A 
ENDROOT
BRANCH   4   7
ATOM      7  O   UNL d   1       5.995  -2.219   5.094  0.00  0.00    -0.526 OA
ATOM      8  H5  UNL d   1       6.031  -2.666   4.232  0.00  0.00     0.418 HD
ENDBRANCH   4   7
TORSDOF 1
ENDMDL
