MODEL 1
REMARK minimizedAffinity -2.02031493
REMARK minimizedRMSD -1
REMARK  1 active torsions:
REMARK  status: ('A' for Active; 'I' for Inactive)
REMARK    1  A    between atoms: C3_4  and  O_7 
ROOT
ATOM      1  C   UNL d   1       5.950   5.525   2.060  0.00  0.00    -0.033 A 
ATOM      2  C1  UNL d   1       5.960   6.000   3.373  0.00  0.00     0.039 A 
ATOM      3  C2  UNL d   1       5.978   5.102   4.442  0.00  0.00    -0.080 A 
ATOM      4  C3  UNL d   1       5.986   3.734   4.185  0.00  0.00     0.150 A 
ATOM      5  C4  UNL d   1       5.980   3.254   2.879  0.00  0.00    -0.007 A 
ATOM      6  C5  UNL d   1       5.961   4.152   1.813  0.00  0.00     0.039 A 
ENDROOT
BRANCH   4   7
ATOM      7  O   UNL d   1       5.998   2.819   5.195  0.00  0.00    -0.526 OA
ATOM      8  H5  UNL d   1       5.972   3.295   6.042  0.00  0.00     0.418 HD
ENDBRANCH   4   7
TORSDOF 1
ENDMDL
