MODEL 1
REMARK minimizedAffinity -0.695373654
REMARK minimizedRMSD -1
REMARK  1 active torsions:
REMARK  status: ('A' for Active; 'I' for Inactive)
REMARK    1  A    between atoms: C1_2  and  C2_3 
ROOT
ATOM      1  C2  UNL d   1       2.036  -0.233  -0.579  0.00  0.00    -0.073 A 
ATOM      2  C3  UNL d   1       1.240   0.917  -0.625  0.00  0.00    -0.002 A 
ATOM      3  C4  UNL d   1      -0.151   0.811  -0.663  0.00  0.00     0.004 A 
ATOM      4  C5  UNL d   1      -0.760  -0.443  -0.647  0.00  0.00    -0.004 A 
ATOM      5  C6  UNL d   1       0.017  -1.604  -0.590  0.00  0.00    -0.075 A 
ATOM      6  C7  UNL d   1      -0.622  -2.962  -0.575  0.00  0.00     0.076 C 
ATOM      7  C8  UNL d   1       1.414  -1.490  -0.555  0.00  0.00     0.001 A 
ENDROOT
BRANCH   1   8
ATOM      8  C1  UNL d   1       3.538  -0.124  -0.532  0.00  0.00     0.053 C 
ATOM      9  C   UNL d   1       4.001   1.321  -0.441  0.00  0.00     0.018 C 
ENDBRANCH   1   8
TORSDOF 1
ENDMDL
