MODEL 1
REMARK minimizedAffinity -4.27776814
REMARK minimizedRMSD -1
REMARK  1 active torsions:
REMARK  status: ('A' for Active; 'I' for Inactive)
REMARK    1  A    between atoms: C1_2  and  C2_3 
ROOT
ATOM      1  C2  UNL d   1      -0.622   0.953  -0.221  0.00  0.00    -0.073 A 
ATOM      2  C3  UNL d   1      -0.005   2.181  -0.484  0.00  0.00    -0.002 A 
ATOM      3  C4  UNL d   1       1.331   2.387  -0.138  0.00  0.00     0.004 A 
ATOM      4  C5  UNL d   1       2.065   1.367   0.468  0.00  0.00    -0.004 A 
ATOM      5  C6  UNL d   1       1.469   0.129   0.728  0.00  0.00    -0.075 A 
ATOM      6  C7  UNL d   1       2.244  -0.978   1.380  0.00  0.00     0.076 C 
ATOM      7  C8  UNL d   1       0.126  -0.070   0.379  0.00  0.00     0.001 A 
ENDROOT
BRANCH   1   8
ATOM      8  C1  UNL d   1      -2.063   0.723  -0.599  0.00  0.00     0.053 C 
ATOM      9  C   UNL d   1      -3.019   1.212   0.477  0.00  0.00     0.018 C 
ENDBRANCH   1   8
TORSDOF 1
ENDMDL
