MODEL 1
REMARK minimizedAffinity -3.95858479
REMARK minimizedRMSD -1
REMARK  1 active torsions:
REMARK  status: ('A' for Active; 'I' for Inactive)
REMARK    1  A    between atoms: C1_2  and  C2_3 
ROOT
ATOM      1  C2  UNL d   1       2.151   1.102   0.052  0.00  0.00    -0.073 A 
ATOM      2  C3  UNL d   1       1.791   2.384  -0.377  0.00  0.00    -0.002 A 
ATOM      3  C4  UNL d   1       0.530   2.614  -0.930  0.00  0.00     0.004 A 
ATOM      4  C5  UNL d   1      -0.384   1.567  -1.052  0.00  0.00    -0.004 A 
ATOM      5  C6  UNL d   1      -0.047   0.282  -0.617  0.00  0.00    -0.075 A 
ATOM      6  C7  UNL d   1      -1.018  -0.855  -0.743  0.00  0.00     0.076 C 
ATOM      7  C8  UNL d   1       1.222   0.059  -0.066  0.00  0.00     0.001 A 
ENDROOT
BRANCH   1   8
ATOM      8  C1  UNL d   1       3.509   0.851   0.656  0.00  0.00     0.053 C 
ATOM      9  C   UNL d   1       3.919  -0.610   0.549  0.00  0.00     0.018 C 
ENDBRANCH   1   8
TORSDOF 1
ENDMDL
