MODEL 1
REMARK minimizedAffinity -2.74910498
REMARK minimizedRMSD -1
REMARK  2 active torsions:
REMARK  status: ('A' for Active; 'I' for Inactive)
REMARK    1  A    between atoms: C1_2  and  C2_3 
REMARK    2  A    between atoms: C2_3  and  C3_4 
ROOT
ATOM      1  C3  UNL d   1      -0.511  -1.463  -0.102  0.00  0.00    -0.075 A 
ATOM      2  C4  UNL d   1       0.742  -1.657  -0.702  0.00  0.00     0.002 A 
ATOM      3  C5  UNL d   1       0.936  -2.691  -1.618  0.00  0.00     0.002 A 
ATOM      4  C6  UNL d   1      -0.115  -3.548  -1.939  0.00  0.00    -0.004 A 
ATOM      5  C7  UNL d   1      -1.360  -3.374  -1.337  0.00  0.00     0.002 A 
ATOM      6  C8  UNL d   1      -1.557  -2.338  -0.422  0.00  0.00     0.002 A 
ENDROOT
BRANCH   1   7
ATOM      7  C2  UNL d   1      -0.734  -0.328   0.869  0.00  0.00     0.056 C 
BRANCH   7   8
ATOM      8  C1  UNL d   1      -0.767   1.057   0.213  0.00  0.00     0.007 C 
ATOM      9  C   UNL d   1      -0.126   2.142   1.068  0.00  0.00     0.009 C 
ENDBRANCH   7   8
ENDBRANCH   1   7
TORSDOF 2
ENDMDL
