MODEL 1
REMARK minimizedAffinity -5.37522793
REMARK minimizedRMSD -1
REMARK  2 active torsions:
REMARK  status: ('A' for Active; 'I' for Inactive)
REMARK    1  A    between atoms: C1_2  and  C2_3 
REMARK    2  A    between atoms: C2_3  and  C3_4 
ROOT
ATOM      1  C3  UNL d   1       0.082   0.117  -0.061  0.00  0.00    -0.075 A 
ATOM      2  C4  UNL d   1      -1.070   0.916  -0.078  0.00  0.00     0.002 A 
ATOM      3  C5  UNL d   1      -0.982   2.291   0.143  0.00  0.00     0.002 A 
ATOM      4  C6  UNL d   1       0.255   2.881   0.392  0.00  0.00    -0.004 A 
ATOM      5  C7  UNL d   1       1.404   2.095   0.427  0.00  0.00     0.002 A 
ATOM      6  C8  UNL d   1       1.319   0.720   0.203  0.00  0.00     0.002 A 
ENDROOT
BRANCH   1   7
ATOM      7  C2  UNL d   1      -0.003  -1.367  -0.328  0.00  0.00     0.056 C 
BRANCH   7   8
ATOM      8  C1  UNL d   1       0.124  -1.743  -1.808  0.00  0.00     0.007 C 
ATOM      9  C   UNL d   1      -1.058  -2.553  -2.325  0.00  0.00     0.009 C 
ENDBRANCH   7   8
ENDBRANCH   1   7
TORSDOF 2
ENDMDL
