MODEL 1
REMARK minimizedAffinity -5.9455514
REMARK minimizedRMSD -1
REMARK  2 active torsions:
REMARK  status: ('A' for Active; 'I' for Inactive)
REMARK    1  A    between atoms: C1_2  and  C2_3 
REMARK    2  A    between atoms: C2_3  and  C3_4 
ROOT
ATOM      1  C3  UNL d   1       0.106  -0.236   0.132  0.00  0.00    -0.075 A 
ATOM      2  C4  UNL d   1      -1.198   0.092   0.529  0.00  0.00     0.002 A 
ATOM      3  C5  UNL d   1      -1.601   1.425   0.610  0.00  0.00     0.002 A 
ATOM      4  C6  UNL d   1      -0.703   2.446   0.306  0.00  0.00    -0.004 A 
ATOM      5  C7  UNL d   1       0.600   2.133  -0.074  0.00  0.00     0.002 A 
ATOM      6  C8  UNL d   1       1.004   0.800  -0.160  0.00  0.00     0.002 A 
ENDROOT
BRANCH   1   7
ATOM      7  C2  UNL d   1       0.539  -1.678   0.013  0.00  0.00     0.056 C 
BRANCH   7   8
ATOM      8  C1  UNL d   1      -0.495  -2.586  -0.660  0.00  0.00     0.007 C 
ATOM      9  C   UNL d   1      -0.069  -3.056  -2.045  0.00  0.00     0.009 C 
ENDBRANCH   7   8
ENDBRANCH   1   7
TORSDOF 2
ENDMDL
