MODEL 1
REMARK minimizedAffinity -5.57446861
REMARK minimizedRMSD -1
REMARK  2 active torsions:
REMARK  status: ('A' for Active; 'I' for Inactive)
REMARK    1  A    between atoms: C1_2  and  C2_3 
REMARK    2  A    between atoms: C2_3  and  C3_4 
ROOT
ATOM      1  C3  UNL d   1      -0.028   0.371   0.024  0.00  0.00    -0.075 A 
ATOM      2  C4  UNL d   1      -1.200   0.999   0.468  0.00  0.00     0.002 A 
ATOM      3  C5  UNL d   1      -1.327   2.387   0.407  0.00  0.00     0.002 A 
ATOM      4  C6  UNL d   1      -0.282   3.164  -0.090  0.00  0.00    -0.004 A 
ATOM      5  C7  UNL d   1       0.893   2.551  -0.519  0.00  0.00     0.002 A 
ATOM      6  C8  UNL d   1       1.021   1.162  -0.463  0.00  0.00     0.002 A 
ENDROOT
BRANCH   1   7
ATOM      7  C2  UNL d   1       0.104  -1.133   0.060  0.00  0.00     0.056 C 
BRANCH   7   8
ATOM      8  C1  UNL d   1       0.066  -1.796  -1.320  0.00  0.00     0.007 C 
ATOM      9  C   UNL d   1      -0.796  -3.052  -1.359  0.00  0.00     0.009 C 
ENDBRANCH   7   8
ENDBRANCH   1   7
TORSDOF 2
ENDMDL
