MODEL 1
REMARK minimizedAffinity -3.46752834
REMARK minimizedRMSD -1
REMARK  2 active torsions:
REMARK  status: ('A' for Active; 'I' for Inactive)
REMARK    1  A    between atoms: C1_2  and  C2_3 
REMARK    2  A    between atoms: C2_3  and  C3_4 
ROOT
ATOM      1  C3  UNL d   1      -0.099  -0.130   0.076  0.00  0.00    -0.075 A 
ATOM      2  C4  UNL d   1      -1.194   0.570   0.603  0.00  0.00     0.002 A 
ATOM      3  C5  UNL d   1      -1.189   1.965   0.644  0.00  0.00     0.002 A 
ATOM      4  C6  UNL d   1      -0.088   2.675   0.171  0.00  0.00    -0.004 A 
ATOM      5  C7  UNL d   1       1.012   1.989  -0.339  0.00  0.00     0.002 A 
ATOM      6  C8  UNL d   1       1.008   0.593  -0.386  0.00  0.00     0.002 A 
ENDROOT
BRANCH   1   7
ATOM      7  C2  UNL d   1      -0.111  -1.639   0.001  0.00  0.00     0.056 C 
BRANCH   7   8
ATOM      8  C1  UNL d   1       0.143  -2.195  -1.404  0.00  0.00     0.007 C 
ATOM      9  C   UNL d   1      -0.901  -3.212  -1.845  0.00  0.00     0.009 C 
ENDBRANCH   7   8
ENDBRANCH   1   7
TORSDOF 2
ENDMDL
