MODEL 1
REMARK minimizedAffinity -5.97622013
REMARK minimizedRMSD -1
REMARK  2 active torsions:
REMARK  status: ('A' for Active; 'I' for Inactive)
REMARK    1  A    between atoms: C1_2  and  C2_3 
REMARK    2  A    between atoms: C2_3  and  C3_4 
ROOT
ATOM      1  C3  UNL d   1       0.128   0.192  -0.013  0.00  0.00    -0.075 A 
ATOM      2  C4  UNL d   1      -0.969   0.936   0.446  0.00  0.00     0.002 A 
ATOM      3  C5  UNL d   1      -0.936   2.331   0.424  0.00  0.00     0.002 A 
ATOM      4  C6  UNL d   1       0.193   2.998  -0.045  0.00  0.00    -0.004 A 
ATOM      5  C7  UNL d   1       1.295   2.268  -0.487  0.00  0.00     0.002 A 
ATOM      6  C8  UNL d   1       1.263   0.873  -0.471  0.00  0.00     0.002 A 
ENDROOT
BRANCH   1   7
ATOM      7  C2  UNL d   1       0.088  -1.318  -0.020  0.00  0.00     0.056 C 
BRANCH   7   8
ATOM      8  C1  UNL d   1      -0.932  -1.910  -0.998  0.00  0.00     0.007 C 
ATOM      9  C   UNL d   1      -0.291  -2.729  -2.111  0.00  0.00     0.009 C 
ENDBRANCH   7   8
ENDBRANCH   1   7
TORSDOF 2
ENDMDL
