MODEL 1
REMARK minimizedAffinity -4.97156143
REMARK minimizedRMSD -1
REMARK  2 active torsions:
REMARK  status: ('A' for Active; 'I' for Inactive)
REMARK    1  A    between atoms: C1_2  and  C2_3 
REMARK    2  A    between atoms: C2_3  and  C3_4 
ROOT
ATOM      1  C3  UNL d   1      -0.122  -0.023  -0.278  0.00  0.00    -0.075 A 
ATOM      2  C4  UNL d   1       1.068   0.713  -0.373  0.00  0.00     0.002 A 
ATOM      3  C5  UNL d   1       1.042   2.108  -0.349  0.00  0.00     0.002 A 
ATOM      4  C6  UNL d   1      -0.172   2.783  -0.239  0.00  0.00    -0.004 A 
ATOM      5  C7  UNL d   1      -1.361   2.062  -0.161  0.00  0.00     0.002 A 
ATOM      6  C8  UNL d   1      -1.338   0.666  -0.181  0.00  0.00     0.002 A 
ENDROOT
BRANCH   1   7
ATOM      7  C2  UNL d   1      -0.098  -1.533  -0.274  0.00  0.00     0.056 C 
BRANCH   7   8
ATOM      8  C1  UNL d   1       0.396  -2.152  -1.586  0.00  0.00     0.007 C 
ATOM      9  C   UNL d   1      -0.676  -2.955  -2.312  0.00  0.00     0.009 C 
ENDBRANCH   7   8
ENDBRANCH   1   7
TORSDOF 2
ENDMDL
