MODEL 1
REMARK minimizedAffinity -6.44446468
REMARK minimizedRMSD -1
REMARK  2 active torsions:
REMARK  status: ('A' for Active; 'I' for Inactive)
REMARK    1  A    between atoms: C1_2  and  C2_3 
REMARK    2  A    between atoms: C2_3  and  C3_4 
ROOT
ATOM      1  C3  UNL d   1      -0.340  -0.188  -0.100  0.00  0.00    -0.075 A 
ATOM      2  C4  UNL d   1      -1.406   0.689   0.149  0.00  0.00     0.002 A 
ATOM      3  C5  UNL d   1      -1.164   2.028   0.458  0.00  0.00     0.002 A 
ATOM      4  C6  UNL d   1       0.143   2.504   0.533  0.00  0.00    -0.004 A 
ATOM      5  C7  UNL d   1       1.210   1.637   0.304  0.00  0.00     0.002 A 
ATOM      6  C8  UNL d   1       0.971   0.298  -0.011  0.00  0.00     0.002 A 
ENDROOT
BRANCH   1   7
ATOM      7  C2  UNL d   1      -0.596  -1.631  -0.465  0.00  0.00     0.056 C 
BRANCH   7   8
ATOM      8  C1  UNL d   1      -0.151  -2.004  -1.883  0.00  0.00     0.007 C 
ATOM      9  C   UNL d   1      -1.241  -2.693  -2.692  0.00  0.00     0.009 C 
ENDBRANCH   7   8
ENDBRANCH   1   7
TORSDOF 2
ENDMDL
