MODEL 1
REMARK minimizedAffinity -2.12731624
REMARK minimizedRMSD -1
REMARK  2 active torsions:
REMARK  status: ('A' for Active; 'I' for Inactive)
REMARK    1  A    between atoms: C1_2  and  C2_3 
REMARK    2  A    between atoms: C2_3  and  C3_4 
ROOT
ATOM      1  C3  UNL d   1      -0.307  -1.150   0.019  0.00  0.00    -0.075 A 
ATOM      2  C4  UNL d   1      -1.427  -0.362   0.323  0.00  0.00     0.002 A 
ATOM      3  C5  UNL d   1      -1.275   0.979   0.674  0.00  0.00     0.002 A 
ATOM      4  C6  UNL d   1      -0.004   1.547   0.736  0.00  0.00    -0.004 A 
ATOM      5  C7  UNL d   1       1.117   0.770   0.452  0.00  0.00     0.002 A 
ATOM      6  C8  UNL d   1       0.967  -0.572   0.096  0.00  0.00     0.002 A 
ENDROOT
BRANCH   1   7
ATOM      7  C2  UNL d   1      -0.466  -2.594  -0.391  0.00  0.00     0.056 C 
BRANCH   7   8
ATOM      8  C1  UNL d   1      -1.266  -2.791  -1.683  0.00  0.00     0.007 C 
ATOM      9  C   UNL d   1      -0.438  -3.378  -2.819  0.00  0.00     0.009 C 
ENDBRANCH   7   8
ENDBRANCH   1   7
TORSDOF 2
ENDMDL
