MODEL 1
REMARK minimizedAffinity -1.14274251
REMARK minimizedRMSD -1
REMARK  2 active torsions:
REMARK  status: ('A' for Active; 'I' for Inactive)
REMARK    1  A    between atoms: C1_2  and  C2_3 
REMARK    2  A    between atoms: C2_3  and  C3_4 
ROOT
ATOM      1  C3  UNL d   1      -0.757  -1.670  -0.736  0.00  0.00    -0.075 A 
ATOM      2  C4  UNL d   1      -1.772  -1.527  -1.693  0.00  0.00     0.002 A 
ATOM      3  C5  UNL d   1      -2.294  -2.644  -2.344  0.00  0.00     0.002 A 
ATOM      4  C6  UNL d   1      -1.802  -3.915  -2.057  0.00  0.00    -0.004 A 
ATOM      5  C7  UNL d   1      -0.781  -4.068  -1.120  0.00  0.00     0.002 A 
ATOM      6  C8  UNL d   1      -0.260  -2.952  -0.464  0.00  0.00     0.002 A 
ENDROOT
BRANCH   1   7
ATOM      7  C2  UNL d   1      -0.208  -0.467  -0.006  0.00  0.00     0.056 C 
BRANCH   7   8
ATOM      8  C1  UNL d   1      -1.133   0.754  -0.032  0.00  0.00     0.007 C 
ATOM      9  C   UNL d   1      -0.553   1.962   0.691  0.00  0.00     0.009 C 
ENDBRANCH   7   8
ENDBRANCH   1   7
TORSDOF 2
ENDMDL
