MODEL 1
REMARK minimizedAffinity -4.26971245
REMARK minimizedRMSD -1
REMARK  2 active torsions:
REMARK  status: ('A' for Active; 'I' for Inactive)
REMARK    1  A    between atoms: C1_2  and  C2_3 
REMARK    2  A    between atoms: C2_3  and  C3_4 
ROOT
ATOM      1  C3  UNL d   1       0.529  -0.570  -0.571  0.00  0.00    -0.075 A 
ATOM      2  C4  UNL d   1       1.109  -1.072  -1.746  0.00  0.00     0.002 A 
ATOM      3  C5  UNL d   1       0.688  -2.291  -2.278  0.00  0.00     0.002 A 
ATOM      4  C6  UNL d   1      -0.306  -3.028  -1.638  0.00  0.00    -0.004 A 
ATOM      5  C7  UNL d   1      -0.877  -2.547  -0.462  0.00  0.00     0.002 A 
ATOM      6  C8  UNL d   1      -0.462  -1.325   0.070  0.00  0.00     0.002 A 
ENDROOT
BRANCH   1   7
ATOM      7  C2  UNL d   1       0.959   0.763  -0.007  0.00  0.00     0.056 C 
BRANCH   7   8
ATOM      8  C1  UNL d   1      -0.204   1.710   0.309  0.00  0.00     0.007 C 
ATOM      9  C   UNL d   1       0.074   3.154  -0.088  0.00  0.00     0.009 C 
ENDBRANCH   7   8
ENDBRANCH   1   7
TORSDOF 2
ENDMDL
