MODEL 1
REMARK minimizedAffinity -0.118220083
REMARK minimizedRMSD -1
REMARK  2 active torsions:
REMARK  status: ('A' for Active; 'I' for Inactive)
REMARK    1  A    between atoms: C1_2  and  C2_3 
REMARK    2  A    between atoms: C2_3  and  C3_4 
ROOT
ATOM      1  C3  UNL d   1      -0.224   0.383  -0.098  0.00  0.00    -0.075 A 
ATOM      2  C4  UNL d   1      -0.567   1.115   1.048  0.00  0.00     0.002 A 
ATOM      3  C5  UNL d   1      -0.284   2.479   1.128  0.00  0.00     0.002 A 
ATOM      4  C6  UNL d   1       0.352   3.125   0.071  0.00  0.00    -0.004 A 
ATOM      5  C7  UNL d   1       0.711   2.404  -1.066  0.00  0.00     0.002 A 
ATOM      6  C8  UNL d   1       0.426   1.040  -1.151  0.00  0.00     0.002 A 
ENDROOT
BRANCH   1   7
ATOM      7  C2  UNL d   1      -0.553  -1.087  -0.203  0.00  0.00     0.056 C 
BRANCH   7   8
ATOM      8  C1  UNL d   1      -0.111  -1.733  -1.520  0.00  0.00     0.007 C 
ATOM      9  C   UNL d   1      -0.909  -2.980  -1.875  0.00  0.00     0.009 C 
ENDBRANCH   7   8
ENDBRANCH   1   7
TORSDOF 2
ENDMDL
