MODEL 1
REMARK minimizedAffinity 14.2556715
REMARK minimizedRMSD -1
REMARK  2 active torsions:
REMARK  status: ('A' for Active; 'I' for Inactive)
REMARK    1  A    between atoms: C1_2  and  C2_3 
REMARK    2  A    between atoms: C2_3  and  C3_4 
ROOT
ATOM      1  C3  UNL d   1       1.827  -4.362  -2.635  0.00  0.00    -0.075 A 
ATOM      2  C4  UNL d   1       2.193  -4.553  -1.295  0.00  0.00     0.002 A 
ATOM      3  C5  UNL d   1       3.194  -3.772  -0.716  0.00  0.00     0.002 A 
ATOM      4  C6  UNL d   1       3.848  -2.800  -1.470  0.00  0.00    -0.004 A 
ATOM      5  C7  UNL d   1       3.504  -2.614  -2.807  0.00  0.00     0.002 A 
ATOM      6  C8  UNL d   1       2.500  -3.390  -3.388  0.00  0.00     0.002 A 
ENDROOT
BRANCH   1   7
ATOM      7  C2  UNL d   1       0.725  -5.183  -3.259  0.00  0.00     0.056 C 
BRANCH   7   8
ATOM      8  C1  UNL d   1      -0.661  -4.536  -3.172  0.00  0.00     0.007 C 
ATOM      9  C   UNL d   1      -1.383  -4.837  -1.866  0.00  0.00     0.009 C 
ENDBRANCH   7   8
ENDBRANCH   1   7
TORSDOF 2
ENDMDL
