MODEL 1
REMARK minimizedAffinity -4.99825621
REMARK minimizedRMSD -1
REMARK  2 active torsions:
REMARK  status: ('A' for Active; 'I' for Inactive)
REMARK    1  A    between atoms: C1_2  and  C2_3 
REMARK    2  A    between atoms: C2_3  and  C3_4 
ROOT
ATOM      1  C3  UNL d   1      -0.036   0.442  -0.159  0.00  0.00    -0.075 A 
ATOM      2  C4  UNL d   1      -1.066   1.121   0.509  0.00  0.00     0.002 A 
ATOM      3  C5  UNL d   1      -1.139   2.514   0.468  0.00  0.00     0.002 A 
ATOM      4  C6  UNL d   1      -0.180   3.244  -0.230  0.00  0.00    -0.004 A 
ATOM      5  C7  UNL d   1       0.857   2.581  -0.883  0.00  0.00     0.002 A 
ATOM      6  C8  UNL d   1       0.930   1.188  -0.848  0.00  0.00     0.002 A 
ENDROOT
BRANCH   1   7
ATOM      7  C2  UNL d   1       0.032  -1.066  -0.143  0.00  0.00     0.056 C 
BRANCH   7   8
ATOM      8  C1  UNL d   1       0.061  -1.704  -1.536  0.00  0.00     0.007 C 
ATOM      9  C   UNL d   1      -0.854  -2.915  -1.661  0.00  0.00     0.009 C 
ENDBRANCH   7   8
ENDBRANCH   1   7
TORSDOF 2
ENDMDL
