MODEL 1
REMARK minimizedAffinity -3.28336382
REMARK minimizedRMSD -1
REMARK  2 active torsions:
REMARK  status: ('A' for Active; 'I' for Inactive)
REMARK    1  A    between atoms: C2'_3  and  C1'_4 
REMARK    2  A    between atoms: C1'_4  and  C1_5 
ROOT
ATOM      1  C1  I4B d   1      -0.555  -0.312   0.312  0.00  0.00    -0.075 A 
ATOM      2  C2  I4B d   1       0.427   0.631   0.143  0.00  0.00     0.003 A 
ATOM      3  C3  I4B d   1       1.699   0.450   0.739  0.00  0.00     0.002 A 
ATOM      4  C4  I4B d   1       1.927  -0.656   1.532  0.00  0.00    -0.004 A 
ATOM      5  C5  I4B d   1       0.937  -1.622   1.683  0.00  0.00     0.002 A 
ATOM      6  C6  I4B d   1      -0.308  -1.456   1.060  0.00  0.00     0.003 A 
ENDROOT
BRANCH   1   7
ATOM      7  C1' I4B d   1      -1.897  -0.073  -0.304  0.00  0.00     0.060 C 
BRANCH   7   8
ATOM      8  C2' I4B d   1      -1.720  -0.035  -1.808  0.00  0.00    -0.013 C 
ATOM      9  C4' I4B d   1      -1.872  -1.407  -2.410  0.00  0.00     0.013 C 
ATOM     10  C3' I4B d   1      -2.733   0.918  -2.369  0.00  0.00     0.013 C 
ENDBRANCH   7   8
ENDBRANCH   1   7
TORSDOF 2
ENDMDL
