MODEL 1
REMARK minimizedAffinity 6.20601368
REMARK minimizedRMSD -1
REMARK  0 active torsions:
REMARK  status: ('A' for Active; 'I' for Inactive)
ROOT
ATOM      1  C   UNL d   1       3.152  -1.498   0.382  0.00  0.00    -0.002 A 
ATOM      2  C1  UNL d   1       2.198  -2.185  -0.356  0.00  0.00     0.010 A 
ATOM      3  C2  UNL d   1       1.123  -2.809   0.279  0.00  0.00     0.041 A 
ATOM      4  C3  UNL d   1       1.021  -2.730   1.682  0.00  0.00    -0.075 A 
ATOM      5  S   UNL d   1      -0.210  -3.416   2.675  0.00  0.00     0.015 SA
ATOM      6  C4  UNL d   1       0.501  -2.814   4.102  0.00  0.00     0.022 A 
ATOM      7  C5  UNL d   1       1.650  -2.104   3.846  0.00  0.00     0.026 A 
ATOM      8  C6  UNL d   1       1.969  -2.044   2.447  0.00  0.00    -0.082 A 
ATOM      9  C7  UNL d   1       3.047  -1.422   1.773  0.00  0.00     0.045 A 
ENDROOT
TORSDOF 0
ENDMDL
