MODEL 1
REMARK minimizedAffinity 1.82129574
REMARK minimizedRMSD -1
REMARK  0 active torsions:
REMARK  status: ('A' for Active; 'I' for Inactive)
ROOT
ATOM      1  C   UNL d   1       2.221   2.153   3.067  0.00  0.00    -0.002 A 
ATOM      2  C1  UNL d   1       1.501   2.506   4.199  0.00  0.00     0.010 A 
ATOM      3  C2  UNL d   1       2.033   3.401   5.130  0.00  0.00     0.041 A 
ATOM      4  C3  UNL d   1       3.314   3.941   4.900  0.00  0.00    -0.075 A 
ATOM      5  S   UNL d   1       4.167   5.056   5.902  0.00  0.00     0.015 SA
ATOM      6  C4  UNL d   1       5.507   5.090   4.850  0.00  0.00     0.022 A 
ATOM      7  C5  UNL d   1       5.326   4.276   3.757  0.00  0.00     0.026 A 
ATOM      8  C6  UNL d   1       4.058   3.601   3.767  0.00  0.00    -0.082 A 
ATOM      9  C7  UNL d   1       3.491   2.691   2.843  0.00  0.00     0.045 A 
ENDROOT
TORSDOF 0
ENDMDL
