MODEL 1
REMARK minimizedAffinity 0.974281311
REMARK minimizedRMSD -1
REMARK  0 active torsions:
REMARK  status: ('A' for Active; 'I' for Inactive)
ROOT
ATOM      1  C   UNL d   1       1.552  -0.836  -0.283  0.00  0.00    -0.002 A 
ATOM      2  C1  UNL d   1       2.109  -1.785   0.562  0.00  0.00     0.010 A 
ATOM      3  C2  UNL d   1       1.546  -3.059   0.668  0.00  0.00     0.041 A 
ATOM      4  C3  UNL d   1       0.405  -3.365  -0.100  0.00  0.00    -0.075 A 
ATOM      5  S   UNL d   1      -0.454  -4.860  -0.134  0.00  0.00     0.015 SA
ATOM      6  C4  UNL d   1      -1.579  -4.273  -1.272  0.00  0.00     0.022 A 
ATOM      7  C5  UNL d   1      -1.321  -2.971  -1.628  0.00  0.00     0.026 A 
ATOM      8  C6  UNL d   1      -0.173  -2.426  -0.959  0.00  0.00    -0.082 A 
ATOM      9  C7  UNL d   1       0.421  -1.143  -1.042  0.00  0.00     0.045 A 
ENDROOT
TORSDOF 0
ENDMDL
