MODEL 1
REMARK minimizedAffinity 5.23195553
REMARK minimizedRMSD -1
REMARK  0 active torsions:
REMARK  status: ('A' for Active; 'I' for Inactive)
ROOT
ATOM      1  C   UNL d   1       0.911  -1.191  -0.160  0.00  0.00    -0.002 A 
ATOM      2  C1  UNL d   1       1.889  -2.093  -0.555  0.00  0.00     0.010 A 
ATOM      3  C2  UNL d   1       3.164  -1.648  -0.911  0.00  0.00     0.041 A 
ATOM      4  C3  UNL d   1       3.443  -0.268  -0.859  0.00  0.00    -0.075 A 
ATOM      5  S   UNL d   1       4.933   0.507  -1.248  0.00  0.00     0.015 SA
ATOM      6  C4  UNL d   1       4.308   2.053  -0.897  0.00  0.00     0.022 A 
ATOM      7  C5  UNL d   1       2.995   1.998  -0.492  0.00  0.00     0.026 A 
ATOM      8  C6  UNL d   1       2.475   0.660  -0.463  0.00  0.00    -0.082 A 
ATOM      9  C7  UNL d   1       1.192   0.177  -0.110  0.00  0.00     0.045 A 
ENDROOT
TORSDOF 0
ENDMDL
