MODEL 1
REMARK minimizedAffinity 2.67135859
REMARK minimizedRMSD -1
REMARK  0 active torsions:
REMARK  status: ('A' for Active; 'I' for Inactive)
ROOT
ATOM      1  C   UNL d   1       0.977   0.102   0.040  0.00  0.00    -0.002 A 
ATOM      2  C1  UNL d   1       0.898   0.962  -1.046  0.00  0.00     0.010 A 
ATOM      3  C2  UNL d   1       0.649   2.323  -0.857  0.00  0.00     0.041 A 
ATOM      4  C3  UNL d   1       0.481   2.810   0.454  0.00  0.00    -0.075 A 
ATOM      5  S   UNL d   1       0.168   4.438   0.927  0.00  0.00     0.015 SA
ATOM      6  C4  UNL d   1       0.134   4.030   2.581  0.00  0.00     0.022 A 
ATOM      7  C5  UNL d   1       0.353   2.688   2.786  0.00  0.00     0.026 A 
ATOM      8  C6  UNL d   1       0.558   1.963   1.564  0.00  0.00    -0.082 A 
ATOM      9  C7  UNL d   1       0.810   0.588   1.339  0.00  0.00     0.045 A 
ENDROOT
TORSDOF 0
ENDMDL
