MODEL 1
REMARK minimizedAffinity -1.79507875
REMARK minimizedRMSD -1
REMARK  0 active torsions:
REMARK  status: ('A' for Active; 'I' for Inactive)
ROOT
ATOM      1  C   UNL d   1       3.722   1.190  -0.429  0.00  0.00    -0.002 A 
ATOM      2  C1  UNL d   1       4.490   0.826  -1.526  0.00  0.00     0.010 A 
ATOM      3  C2  UNL d   1       4.213  -0.349  -2.228  0.00  0.00     0.041 A 
ATOM      4  C3  UNL d   1       3.140  -1.158  -1.806  0.00  0.00    -0.075 A 
ATOM      5  S   UNL d   1       2.615  -2.640  -2.513  0.00  0.00     0.015 SA
ATOM      6  C4  UNL d   1       1.358  -2.824  -1.376  0.00  0.00     0.022 A 
ATOM      7  C5  UNL d   1       1.326  -1.789  -0.472  0.00  0.00     0.026 A 
ATOM      8  C6  UNL d   1       2.351  -0.812  -0.705  0.00  0.00    -0.082 A 
ATOM      9  C7  UNL d   1       2.658   0.385  -0.014  0.00  0.00     0.045 A 
ENDROOT
TORSDOF 0
ENDMDL
