MODEL 1
REMARK minimizedAffinity -1.91207051
REMARK minimizedRMSD -1
REMARK  1 active torsions:
REMARK  status: ('A' for Active; 'I' for Inactive)
REMARK    1  A    between atoms: C3_4  and  O_7 
ROOT
ATOM      1  C   UNL d   1      -0.511   0.723  -1.229  0.00  0.00    -0.033 A 
ATOM      2  C1  UNL d   1      -1.375  -0.324  -0.903  0.00  0.00     0.039 A 
ATOM      3  C2  UNL d   1      -1.323  -0.906   0.365  0.00  0.00    -0.080 A 
ATOM      4  C3  UNL d   1      -0.403  -0.432   1.297  0.00  0.00     0.150 A 
ATOM      5  C4  UNL d   1       0.458   0.613   0.980  0.00  0.00    -0.007 A 
ATOM      6  C5  UNL d   1       0.405   1.192  -0.287  0.00  0.00     0.039 A 
ENDROOT
BRANCH   4   7
ATOM      7  O   UNL d   1      -0.311  -0.971   2.545  0.00  0.00    -0.526 OA
ATOM      8  H5  UNL d   1      -0.948  -1.703   2.612  0.00  0.00     0.418 HD
ENDBRANCH   4   7
TORSDOF 1
ENDMDL
