MODEL 1
REMARK minimizedAffinity -2.81263971
REMARK minimizedRMSD -1
REMARK  1 active torsions:
REMARK  status: ('A' for Active; 'I' for Inactive)
REMARK    1  A    between atoms: C3_4  and  O_7 
ROOT
ATOM      1  C   UNL d   1       0.757  -1.168   2.415  0.00  0.00    -0.033 A 
ATOM      2  C1  UNL d   1       1.468  -1.557   1.278  0.00  0.00     0.039 A 
ATOM      3  C2  UNL d   1       1.165  -0.994   0.036  0.00  0.00    -0.080 A 
ATOM      4  C3  UNL d   1       0.150  -0.045  -0.054  0.00  0.00     0.150 A 
ATOM      5  C4  UNL d   1      -0.560   0.349   1.075  0.00  0.00    -0.007 A 
ATOM      6  C5  UNL d   1      -0.256  -0.214   2.314  0.00  0.00     0.039 A 
ENDROOT
BRANCH   4   7
ATOM      7  O   UNL d   1      -0.185   0.528  -1.244  0.00  0.00    -0.526 OA
ATOM      8  H5  UNL d   1       0.369   0.139  -1.941  0.00  0.00     0.418 HD
ENDBRANCH   4   7
TORSDOF 1
ENDMDL
