MODEL 1
REMARK minimizedAffinity -3.45948744
REMARK minimizedRMSD -1
REMARK  1 active torsions:
REMARK  status: ('A' for Active; 'I' for Inactive)
REMARK    1  A    between atoms: C3_4  and  O_7 
ROOT
ATOM      1  C   UNL d   1      -0.803   0.695  -0.722  0.00  0.00    -0.033 A 
ATOM      2  C1  UNL d   1      -1.652   1.016   0.339  0.00  0.00     0.039 A 
ATOM      3  C2  UNL d   1      -1.326   0.625   1.639  0.00  0.00    -0.080 A 
ATOM      4  C3  UNL d   1      -0.150  -0.084   1.865  0.00  0.00     0.150 A 
ATOM      5  C4  UNL d   1       0.702  -0.404   0.813  0.00  0.00    -0.007 A 
ATOM      6  C5  UNL d   1       0.375  -0.014  -0.484  0.00  0.00     0.039 A 
ENDROOT
BRANCH   4   7
ATOM      7  O   UNL d   1       0.208  -0.491   3.116  0.00  0.00    -0.526 OA
ATOM      8  H5  UNL d   1      -0.490  -0.225   3.738  0.00  0.00     0.418 HD
ENDBRANCH   4   7
TORSDOF 1
ENDMDL
