MODEL 1
REMARK minimizedAffinity -4.06178713
REMARK minimizedRMSD -1
REMARK  1 active torsions:
REMARK  status: ('A' for Active; 'I' for Inactive)
REMARK    1  A    between atoms: C3_4  and  O_7 
ROOT
ATOM      1  C   UNL d   1      -0.328   0.389   1.769  0.00  0.00    -0.033 A 
ATOM      2  C1  UNL d   1      -0.192   0.672   0.408  0.00  0.00     0.039 A 
ATOM      3  C2  UNL d   1       0.695  -0.068  -0.375  0.00  0.00    -0.080 A 
ATOM      4  C3  UNL d   1       1.439  -1.088   0.213  0.00  0.00     0.150 A 
ATOM      5  C4  UNL d   1       1.306  -1.377   1.567  0.00  0.00    -0.007 A 
ATOM      6  C5  UNL d   1       0.420  -0.637   2.348  0.00  0.00     0.039 A 
ENDROOT
BRANCH   4   7
ATOM      7  O   UNL d   1       2.321  -1.834  -0.510  0.00  0.00    -0.526 OA
ATOM      8  H5  UNL d   1       2.329  -1.502  -1.424  0.00  0.00     0.418 HD
ENDBRANCH   4   7
TORSDOF 1
ENDMDL
