MODEL 1
REMARK minimizedAffinity -3.91046929
REMARK minimizedRMSD -1
REMARK  1 active torsions:
REMARK  status: ('A' for Active; 'I' for Inactive)
REMARK    1  A    between atoms: C3_4  and  O_7 
ROOT
ATOM      1  C   UNL d   1      -0.915   0.080   1.777  0.00  0.00    -0.033 A 
ATOM      2  C1  UNL d   1      -0.812   0.504   0.451  0.00  0.00     0.039 A 
ATOM      3  C2  UNL d   1       0.068  -0.137  -0.423  0.00  0.00    -0.080 A 
ATOM      4  C3  UNL d   1       0.838  -1.200   0.041  0.00  0.00     0.150 A 
ATOM      5  C4  UNL d   1       0.738  -1.630   1.360  0.00  0.00    -0.007 A 
ATOM      6  C5  UNL d   1      -0.141  -0.988   2.232  0.00  0.00     0.039 A 
ENDROOT
BRANCH   4   7
ATOM      7  O   UNL d   1       1.714  -1.854  -0.773  0.00  0.00    -0.526 OA
ATOM      8  H5  UNL d   1       1.697  -1.430  -1.647  0.00  0.00     0.418 HD
ENDBRANCH   4   7
TORSDOF 1
ENDMDL
