MODEL 1
REMARK minimizedAffinity -3.81620336
REMARK minimizedRMSD -1
REMARK  1 active torsions:
REMARK  status: ('A' for Active; 'I' for Inactive)
REMARK    1  A    between atoms: C3_4  and  O_7 
ROOT
ATOM      1  C   UNL d   1      -1.238  -0.288   1.421  0.00  0.00    -0.033 A 
ATOM      2  C1  UNL d   1      -0.272  -1.051   2.080  0.00  0.00     0.039 A 
ATOM      3  C2  UNL d   1       0.798  -1.593   1.366  0.00  0.00    -0.080 A 
ATOM      4  C3  UNL d   1       0.891  -1.365  -0.004  0.00  0.00     0.150 A 
ATOM      5  C4  UNL d   1      -0.066  -0.603  -0.666  0.00  0.00    -0.007 A 
ATOM      6  C5  UNL d   1      -1.134  -0.063   0.048  0.00  0.00     0.039 A 
ENDROOT
BRANCH   4   7
ATOM      7  O   UNL d   1       1.914  -1.878  -0.745  0.00  0.00    -0.526 OA
ATOM      8  H5  UNL d   1       2.482  -2.407  -0.159  0.00  0.00     0.418 HD
ENDBRANCH   4   7
TORSDOF 1
ENDMDL
