MODEL 1
REMARK minimizedAffinity -0.772223175
REMARK minimizedRMSD -1
REMARK  1 active torsions:
REMARK  status: ('A' for Active; 'I' for Inactive)
REMARK    1  A    between atoms: C3_4  and  O_7 
ROOT
ATOM      1  C   UNL d   1      -0.730   0.079   0.795  0.00  0.00    -0.033 A 
ATOM      2  C1  UNL d   1      -0.146   0.138  -0.472  0.00  0.00     0.039 A 
ATOM      3  C2  UNL d   1       0.940  -0.684  -0.782  0.00  0.00    -0.080 A 
ATOM      4  C3  UNL d   1       1.431  -1.559   0.183  0.00  0.00     0.150 A 
ATOM      5  C4  UNL d   1       0.852  -1.625   1.446  0.00  0.00    -0.007 A 
ATOM      6  C5  UNL d   1      -0.232  -0.803   1.754  0.00  0.00     0.039 A 
ENDROOT
BRANCH   4   7
ATOM      7  O   UNL d   1       2.491  -2.377  -0.071  0.00  0.00    -0.526 OA
ATOM      8  H5  UNL d   1       2.806  -2.202  -0.973  0.00  0.00     0.418 HD
ENDBRANCH   4   7
TORSDOF 1
ENDMDL
