MODEL 1
REMARK minimizedAffinity -3.00636578
REMARK minimizedRMSD -1
REMARK  1 active torsions:
REMARK  status: ('A' for Active; 'I' for Inactive)
REMARK    1  A    between atoms: C3_4  and  O_7 
ROOT
ATOM      1  C   UNL d   1      -0.048   0.036   0.105  0.00  0.00    -0.033 A 
ATOM      2  C1  UNL d   1       0.402   1.351   0.239  0.00  0.00     0.039 A 
ATOM      3  C2  UNL d   1       0.182   2.274  -0.785  0.00  0.00    -0.080 A 
ATOM      4  C3  UNL d   1      -0.489   1.871  -1.936  0.00  0.00     0.150 A 
ATOM      5  C4  UNL d   1      -0.944   0.563  -2.075  0.00  0.00    -0.007 A 
ATOM      6  C5  UNL d   1      -0.722  -0.357  -1.051  0.00  0.00     0.039 A 
ENDROOT
BRANCH   4   7
ATOM      7  O   UNL d   1      -0.723   2.735  -2.964  0.00  0.00    -0.526 OA
ATOM      8  H5  UNL d   1      -0.327   3.594  -2.741  0.00  0.00     0.418 HD
ENDBRANCH   4   7
TORSDOF 1
ENDMDL
