MODEL 1
REMARK minimizedAffinity -3.58280635
REMARK minimizedRMSD -1
REMARK  1 active torsions:
REMARK  status: ('A' for Active; 'I' for Inactive)
REMARK    1  A    between atoms: C3_4  and  O_7 
ROOT
ATOM      1  C   UNL d   1      -0.904   0.813  -2.067  0.00  0.00    -0.033 A 
ATOM      2  C1  UNL d   1      -1.635   1.804  -2.726  0.00  0.00     0.039 A 
ATOM      3  C2  UNL d   1      -1.291   3.148  -2.570  0.00  0.00    -0.080 A 
ATOM      4  C3  UNL d   1      -0.215   3.488  -1.755  0.00  0.00     0.150 A 
ATOM      5  C4  UNL d   1       0.520   2.506  -1.098  0.00  0.00    -0.007 A 
ATOM      6  C5  UNL d   1       0.174   1.164  -1.254  0.00  0.00     0.039 A 
ENDROOT
BRANCH   4   7
ATOM      7  O   UNL d   1       0.156   4.786  -1.568  0.00  0.00    -0.526 OA
ATOM      8  H5  UNL d   1      -0.460   5.356  -2.060  0.00  0.00     0.418 HD
ENDBRANCH   4   7
TORSDOF 1
ENDMDL
