MODEL 1
REMARK minimizedAffinity -1.84352148
REMARK minimizedRMSD -1
REMARK  1 active torsions:
REMARK  status: ('A' for Active; 'I' for Inactive)
REMARK    1  A    between atoms: C3_4  and  O_7 
ROOT
ATOM      1  C   UNL d   1      -1.016   0.641  -0.488  0.00  0.00    -0.033 A 
ATOM      2  C1  UNL d   1      -0.552   0.118   0.720  0.00  0.00     0.039 A 
ATOM      3  C2  UNL d   1       0.569  -0.713   0.739  0.00  0.00    -0.080 A 
ATOM      4  C3  UNL d   1       1.218  -1.013  -0.456  0.00  0.00     0.150 A 
ATOM      5  C4  UNL d   1       0.764  -0.493  -1.663  0.00  0.00    -0.007 A 
ATOM      6  C5  UNL d   1      -0.357   0.336  -1.680  0.00  0.00     0.039 A 
ENDROOT
BRANCH   4   7
ATOM      7  O   UNL d   1       2.313  -1.824  -0.488  0.00  0.00    -0.526 OA
ATOM      8  H5  UNL d   1       2.495  -2.132   0.416  0.00  0.00     0.418 HD
ENDBRANCH   4   7
TORSDOF 1
ENDMDL
