MODEL 1
REMARK minimizedAffinity 21.1925125
REMARK minimizedRMSD -1
REMARK  2 active torsions:
REMARK  status: ('A' for Active; 'I' for Inactive)
REMARK    1  A    between atoms: C2'_3  and  C1'_4 
REMARK    2  A    between atoms: C1'_4  and  C1_5 
ROOT
ATOM      1  C1  I4B d   1       3.614  -0.745  -3.973  0.00  0.00    -0.075 A 
ATOM      2  C2  I4B d   1       3.611   0.549  -4.431  0.00  0.00     0.003 A 
ATOM      3  C3  I4B d   1       4.483   0.937  -5.478  0.00  0.00     0.002 A 
ATOM      4  C4  I4B d   1       5.370   0.017  -5.999  0.00  0.00    -0.004 A 
ATOM      5  C5  I4B d   1       5.356  -1.300  -5.550  0.00  0.00     0.002 A 
ATOM      6  C6  I4B d   1       4.464  -1.687  -4.539  0.00  0.00     0.003 A 
ENDROOT
BRANCH   1   7
ATOM      7  C1' I4B d   1       2.704  -1.112  -2.844  0.00  0.00     0.060 C 
BRANCH   7   8
ATOM      8  C2' I4B d   1       3.558  -1.357  -1.617  0.00  0.00    -0.013 C 
ATOM      9  C4' I4B d   1       4.261  -0.098  -1.181  0.00  0.00     0.013 C 
ATOM     10  C3' I4B d   1       2.668  -1.884  -0.531  0.00  0.00     0.013 C 
ENDBRANCH   7   8
ENDBRANCH   1   7
TORSDOF 2
ENDMDL
