MODEL 1
REMARK minimizedAffinity 9.41305447
REMARK minimizedRMSD -1
REMARK  2 active torsions:
REMARK  status: ('A' for Active; 'I' for Inactive)
REMARK    1  A    between atoms: C2'_3  and  C1'_4 
REMARK    2  A    between atoms: C1'_4  and  C1_5 
ROOT
ATOM      1  C1  I4B d   1       2.804  -2.778   2.573  0.00  0.00    -0.075 A 
ATOM      2  C2  I4B d   1       1.733  -2.919   3.420  0.00  0.00     0.003 A 
ATOM      3  C3  I4B d   1       0.675  -1.978   3.393  0.00  0.00     0.002 A 
ATOM      4  C4  I4B d   1       0.753  -0.892   2.545  0.00  0.00    -0.004 A 
ATOM      5  C5  I4B d   1       1.828  -0.764   1.671  0.00  0.00     0.002 A 
ATOM      6  C6  I4B d   1       2.855  -1.719   1.676  0.00  0.00     0.003 A 
ENDROOT
BRANCH   1   7
ATOM      7  C1' I4B d   1       3.920  -3.772   2.651  0.00  0.00     0.060 C 
BRANCH   7   8
ATOM      8  C2' I4B d   1       5.204  -3.062   2.275  0.00  0.00    -0.013 C 
ATOM      9  C4' I4B d   1       5.988  -2.669   3.500  0.00  0.00     0.013 C 
ATOM     10  C3' I4B d   1       6.000  -3.978   1.394  0.00  0.00     0.013 C 
ENDBRANCH   7   8
ENDBRANCH   1   7
TORSDOF 2
ENDMDL
