MODEL 1
REMARK minimizedAffinity 9.86623192
REMARK minimizedRMSD -1
REMARK  2 active torsions:
REMARK  status: ('A' for Active; 'I' for Inactive)
REMARK    1  A    between atoms: C2'_3  and  C1'_4 
REMARK    2  A    between atoms: C1'_4  and  C1_5 
ROOT
ATOM      1  C1  I4B d   1       0.880   0.075   3.354  0.00  0.00    -0.075 A 
ATOM      2  C2  I4B d   1       1.288  -0.194   2.071  0.00  0.00     0.003 A 
ATOM      3  C3  I4B d   1       1.506  -1.531   1.658  0.00  0.00     0.002 A 
ATOM      4  C4  I4B d   1       1.354  -2.557   2.568  0.00  0.00    -0.004 A 
ATOM      5  C5  I4B d   1       0.918  -2.284   3.862  0.00  0.00     0.002 A 
ATOM      6  C6  I4B d   1       0.668  -0.961   4.254  0.00  0.00     0.003 A 
ENDROOT
BRANCH   1   7
ATOM      7  C1' I4B d   1       0.692   1.500   3.766  0.00  0.00     0.060 C 
BRANCH   7   8
ATOM      8  C2' I4B d   1       1.407   2.376   2.758  0.00  0.00    -0.013 C 
ATOM      9  C4' I4B d   1       0.457   3.344   2.105  0.00  0.00     0.013 C 
ATOM     10  C3' I4B d   1       2.510   3.099   3.473  0.00  0.00     0.013 C 
ENDBRANCH   7   8
ENDBRANCH   1   7
TORSDOF 2
ENDMDL
