MODEL 1
REMARK minimizedAffinity -1.28087258
REMARK minimizedRMSD -1
REMARK  2 active torsions:
REMARK  status: ('A' for Active; 'I' for Inactive)
REMARK    1  A    between atoms: C2'_3  and  C1'_4 
REMARK    2  A    between atoms: C1'_4  and  C1_5 
ROOT
ATOM      1  C1  I4B d   1       1.979  -3.446   4.522  0.00  0.00    -0.075 A 
ATOM      2  C2  I4B d   1       3.118  -3.252   3.781  0.00  0.00     0.003 A 
ATOM      3  C3  I4B d   1       3.085  -2.435   2.625  0.00  0.00     0.002 A 
ATOM      4  C4  I4B d   1       1.890  -1.877   2.220  0.00  0.00    -0.004 A 
ATOM      5  C5  I4B d   1       0.741  -2.056   2.986  0.00  0.00     0.002 A 
ATOM      6  C6  I4B d   1       0.788  -2.835   4.151  0.00  0.00     0.003 A 
ENDROOT
BRANCH   1   7
ATOM      7  C1' I4B d   1       2.042  -4.341   5.719  0.00  0.00     0.060 C 
BRANCH   7   8
ATOM      8  C2' I4B d   1       1.509  -5.700   5.314  0.00  0.00    -0.013 C 
ATOM      9  C4' I4B d   1       0.202  -6.000   5.999  0.00  0.00     0.013 C 
ATOM     10  C3' I4B d   1       1.354  -5.711   3.822  0.00  0.00     0.013 C 
ENDBRANCH   7   8
ENDBRANCH   1   7
TORSDOF 2
ENDMDL
