MODEL 1
REMARK minimizedAffinity 13.3406849
REMARK minimizedRMSD -1
REMARK  2 active torsions:
REMARK  status: ('A' for Active; 'I' for Inactive)
REMARK    1  A    between atoms: C2'_3  and  C1'_4 
REMARK    2  A    between atoms: C1'_4  and  C1_5 
ROOT
ATOM      1  C1  I4B d   1       1.818  -3.829   4.307  0.00  0.00    -0.075 A 
ATOM      2  C2  I4B d   1       2.684  -4.475   5.155  0.00  0.00     0.003 A 
ATOM      3  C3  I4B d   1       2.215  -5.510   5.999  0.00  0.00     0.002 A 
ATOM      4  C4  I4B d   1       0.873  -5.832   6.000  0.00  0.00    -0.004 A 
ATOM      5  C5  I4B d   1       0.001  -5.192   5.123  0.00  0.00     0.002 A 
ATOM      6  C6  I4B d   1       0.479  -4.193   4.263  0.00  0.00     0.003 A 
ENDROOT
BRANCH   1   7
ATOM      7  C1' I4B d   1       2.340  -2.718   3.453  0.00  0.00     0.060 C 
BRANCH   7   8
ATOM      8  C2' I4B d   1       1.165  -1.856   3.038  0.00  0.00    -0.013 C 
ATOM      9  C4' I4B d   1       1.107  -0.587   3.846  0.00  0.00     0.013 C 
ATOM     10  C3' I4B d   1       1.302  -1.560   1.574  0.00  0.00     0.013 C 
ENDBRANCH   7   8
ENDBRANCH   1   7
TORSDOF 2
ENDMDL
