MODEL 1
REMARK minimizedAffinity -3.9158864
REMARK minimizedRMSD -1
REMARK  3 active torsions:
REMARK  status: ('A' for Active; 'I' for Inactive)
REMARK    1  A    between atoms: C3'_2  and  C2'_3 
REMARK    2  A    between atoms: C2'_3  and  C1'_4 
REMARK    3  A    between atoms: C1'_4  and  C1_5 
ROOT
ATOM      1  C1  N4B d   1       1.611  -0.212   0.430  0.00  0.00    -0.075 A 
ATOM      2  C2  N4B d   1       0.999   0.981  -0.014  0.00  0.00     0.002 A 
ATOM      3  C3  N4B d   1      -0.359   1.024  -0.213  0.00  0.00     0.002 A 
ATOM      4  C4  N4B d   1      -1.120  -0.114   0.007  0.00  0.00    -0.004 A 
ATOM      5  C5  N4B d   1      -0.526  -1.255   0.460  0.00  0.00     0.002 A 
ATOM      6  C6  N4B d   1       0.838  -1.311   0.668  0.00  0.00     0.002 A 
ENDROOT
BRANCH   1   7
ATOM      7  C1' N4B d   1       3.103  -0.332   0.580  0.00  0.00     0.057 C 
BRANCH   7   8
ATOM      8  C2' N4B d   1       3.484  -0.064   2.033  0.00  0.00     0.009 C 
BRANCH   8   9
ATOM      9  C3' N4B d   1       3.043   1.316   2.491  0.00  0.00     0.004 C 
ATOM     10  C4' N4B d   1       2.506   1.319   3.891  0.00  0.00     0.003 C 
ENDBRANCH   8   9
ENDBRANCH   7   8
ENDBRANCH   1   7
TORSDOF 3
ENDMDL
