MODEL 1
REMARK minimizedAffinity -2.2105639
REMARK minimizedRMSD -1
REMARK  3 active torsions:
REMARK  status: ('A' for Active; 'I' for Inactive)
REMARK    1  A    between atoms: C3'_2  and  C2'_3 
REMARK    2  A    between atoms: C2'_3  and  C1'_4 
REMARK    3  A    between atoms: C1'_4  and  C1_5 
ROOT
ATOM      1  C1  N4B d   1       1.419  -0.684   0.274  0.00  0.00    -0.075 A 
ATOM      2  C2  N4B d   1       0.872  -1.799   0.945  0.00  0.00     0.002 A 
ATOM      3  C3  N4B d   1      -0.489  -1.986   0.970  0.00  0.00     0.002 A 
ATOM      4  C4  N4B d   1      -1.319  -1.066   0.349  0.00  0.00    -0.004 A 
ATOM      5  C5  N4B d   1      -0.781  -0.005  -0.320  0.00  0.00     0.002 A 
ATOM      6  C6  N4B d   1       0.584   0.193  -0.356  0.00  0.00     0.002 A 
ENDROOT
BRANCH   1   7
ATOM      7  C1' N4B d   1       2.894  -0.391   0.292  0.00  0.00     0.057 C 
BRANCH   7   8
ATOM      8  C2' N4B d   1       3.308   0.007   1.706  0.00  0.00     0.009 C 
BRANCH   8   9
ATOM      9  C3' N4B d   1       2.819   1.399   2.070  0.00  0.00     0.004 C 
ATOM     10  C4' N4B d   1       2.707   1.606   3.551  0.00  0.00     0.003 C 
ENDBRANCH   8   9
ENDBRANCH   7   8
ENDBRANCH   1   7
TORSDOF 3
ENDMDL
