MODEL 1
REMARK minimizedAffinity -1.09484744
REMARK minimizedRMSD -1
REMARK  0 active torsions:
REMARK  status: ('A' for Active; 'I' for Inactive)
ROOT
ATOM      1  C   UNL d   1       1.832   0.424   2.807  0.00  0.00     0.124 A 
ATOM      2  C1  UNL d   1       1.705  -0.575   1.852  0.00  0.00     0.062 A 
ATOM      3  C2  UNL d   1       0.503  -0.742   1.171  0.00  0.00     0.162 A 
ATOM      4  C3  UNL d   1      -0.582   0.093   1.441  0.00  0.00    -0.034 A 
ATOM      5  C4  UNL d   1      -0.446   1.095   2.404  0.00  0.00     0.162 A 
ATOM      6  C5  UNL d   1       0.757   1.258   3.082  0.00  0.00     0.062 A 
ATOM      7  F   UNL d   1       0.879   2.223   4.005  0.00  0.00    -0.097 F 
ATOM      8  F1  UNL d   1      -1.469   1.915   2.688  0.00  0.00    -0.096 F 
ATOM      9  I   UNL d   1      -2.381  -0.154   0.424  0.00  0.00    -0.060 I 
ATOM     10  F2  UNL d   1       0.408  -1.716   0.253  0.00  0.00    -0.096 F 
ATOM     11  F3  UNL d   1       2.741  -1.382   1.586  0.00  0.00    -0.097 F 
ATOM     12  F4  UNL d   1       2.989   0.582   3.462  0.00  0.00    -0.092 F 
ENDROOT
TORSDOF 0
ENDMDL
