MODEL 1
REMARK minimizedAffinity -1.61256301
REMARK minimizedRMSD -1
REMARK  0 active torsions:
REMARK  status: ('A' for Active; 'I' for Inactive)
ROOT
ATOM      1  C   UNL d   1      -1.570   0.222   1.844  0.00  0.00     0.124 A 
ATOM      2  C1  UNL d   1      -0.558   0.940   2.465  0.00  0.00     0.062 A 
ATOM      3  C2  UNL d   1       0.771   0.722   2.114  0.00  0.00     0.162 A 
ATOM      4  C3  UNL d   1       1.096  -0.218   1.136  0.00  0.00    -0.034 A 
ATOM      5  C4  UNL d   1       0.072  -0.937   0.517  0.00  0.00     0.162 A 
ATOM      6  C5  UNL d   1      -1.255  -0.716   0.871  0.00  0.00     0.062 A 
ATOM      7  F   UNL d   1      -2.232  -1.411   0.270  0.00  0.00    -0.097 F 
ATOM      8  F1  UNL d   1       0.349  -1.848  -0.428  0.00  0.00    -0.096 F 
ATOM      9  I   UNL d   1       3.082  -0.546   0.608  0.00  0.00    -0.060 I 
ATOM     10  F2  UNL d   1       1.729   1.431   2.730  0.00  0.00    -0.096 F 
ATOM     11  F3  UNL d   1      -0.860   1.846   3.406  0.00  0.00    -0.097 F 
ATOM     12  F4  UNL d   1      -2.848   0.432   2.184  0.00  0.00    -0.092 F 
ENDROOT
TORSDOF 0
ENDMDL
