MODEL 1
REMARK minimizedAffinity 5.31082678
REMARK minimizedRMSD -1
REMARK  0 active torsions:
REMARK  status: ('A' for Active; 'I' for Inactive)
ROOT
ATOM      1  C   UNL d   1      -1.719   0.200   2.168  0.00  0.00     0.124 A 
ATOM      2  C1  UNL d   1      -1.519  -0.038   0.815  0.00  0.00     0.062 A 
ATOM      3  C2  UNL d   1      -0.306   0.295   0.218  0.00  0.00     0.162 A 
ATOM      4  C3  UNL d   1       0.716   0.868   0.974  0.00  0.00    -0.034 A 
ATOM      5  C4  UNL d   1       0.507   1.105   2.333  0.00  0.00     0.162 A 
ATOM      6  C5  UNL d   1      -0.707   0.771   2.925  0.00  0.00     0.062 A 
ATOM      7  F   UNL d   1      -0.899   1.002   4.232  0.00  0.00    -0.097 F 
ATOM      8  F1  UNL d   1       1.469   1.655   3.089  0.00  0.00    -0.096 F 
ATOM      9  I   UNL d   1       2.531   1.367   0.085  0.00  0.00    -0.060 I 
ATOM     10  F2  UNL d   1      -0.140   0.054  -1.091  0.00  0.00    -0.096 F 
ATOM     11  F3  UNL d   1      -2.496  -0.589   0.081  0.00  0.00    -0.097 F 
ATOM     12  F4  UNL d   1      -2.887  -0.120   2.739  0.00  0.00    -0.092 F 
ENDROOT
TORSDOF 0
ENDMDL
