MODEL 1
REMARK minimizedAffinity 0.460107237
REMARK minimizedRMSD -1
REMARK  0 active torsions:
REMARK  status: ('A' for Active; 'I' for Inactive)
ROOT
ATOM      1  C   UNL d   1       1.722   1.170   1.991  0.00  0.00     0.124 A 
ATOM      2  C1  UNL d   1       1.826   0.027   1.211  0.00  0.00     0.062 A 
ATOM      3  C2  UNL d   1       0.679  -0.616   0.755  0.00  0.00     0.162 A 
ATOM      4  C3  UNL d   1      -0.583  -0.116   1.077  0.00  0.00    -0.034 A 
ATOM      5  C4  UNL d   1      -0.679   1.033   1.864  0.00  0.00     0.162 A 
ATOM      6  C5  UNL d   1       0.470   1.672   2.317  0.00  0.00     0.062 A 
ATOM      7  F   UNL d   1       0.368   2.776   3.071  0.00  0.00    -0.097 F 
ATOM      8  F1  UNL d   1      -1.877   1.541   2.192  0.00  0.00    -0.096 F 
ATOM      9  I   UNL d   1      -2.301  -1.074   0.398  0.00  0.00    -0.060 I 
ATOM     10  F2  UNL d   1       0.809  -1.719   0.003  0.00  0.00    -0.096 F 
ATOM     11  F3  UNL d   1       3.034  -0.461   0.896  0.00  0.00    -0.097 F 
ATOM     12  F4  UNL d   1       2.828   1.786   2.430  0.00  0.00    -0.092 F 
ENDROOT
TORSDOF 0
ENDMDL
