MODEL 1
REMARK minimizedAffinity 6.33686924
REMARK minimizedRMSD -1
REMARK  0 active torsions:
REMARK  status: ('A' for Active; 'I' for Inactive)
ROOT
ATOM      1  C   UNL d   1      -1.815   0.178   2.325  0.00  0.00     0.124 A 
ATOM      2  C1  UNL d   1      -1.641   0.114   0.949  0.00  0.00     0.062 A 
ATOM      3  C2  UNL d   1      -0.460   0.571   0.371  0.00  0.00     0.162 A 
ATOM      4  C3  UNL d   1       0.557   1.095   1.169  0.00  0.00    -0.034 A 
ATOM      5  C4  UNL d   1       0.375   1.157   2.551  0.00  0.00     0.162 A 
ATOM      6  C5  UNL d   1      -0.807   0.699   3.124  0.00  0.00     0.062 A 
ATOM      7  F   UNL d   1      -0.973   0.761   4.454  0.00  0.00    -0.097 F 
ATOM      8  F1  UNL d   1       1.332   1.655   3.348  0.00  0.00    -0.096 F 
ATOM      9  I   UNL d   1       2.324   1.780   0.308  0.00  0.00    -0.060 I 
ATOM     10  F2  UNL d   1      -0.320   0.498  -0.961  0.00  0.00    -0.096 F 
ATOM     11  F3  UNL d   1      -2.613  -0.388   0.175  0.00  0.00    -0.097 F 
ATOM     12  F4  UNL d   1      -2.952  -0.262   2.879  0.00  0.00    -0.092 F 
ENDROOT
TORSDOF 0
ENDMDL
