MODEL 1
REMARK minimizedAffinity 2.01205635
REMARK minimizedRMSD -1
REMARK  0 active torsions:
REMARK  status: ('A' for Active; 'I' for Inactive)
ROOT
ATOM      1  C   UNL d   1      -1.901   0.196   2.040  0.00  0.00     0.124 A 
ATOM      2  C1  UNL d   1      -1.677   0.053   0.678  0.00  0.00     0.062 A 
ATOM      3  C2  UNL d   1      -0.438   0.378   0.134  0.00  0.00     0.162 A 
ATOM      4  C3  UNL d   1       0.588   0.849   0.953  0.00  0.00    -0.034 A 
ATOM      5  C4  UNL d   1       0.355   0.991   2.322  0.00  0.00     0.162 A 
ATOM      6  C5  UNL d   1      -0.885   0.664   2.861  0.00  0.00     0.062 A 
ATOM      7  F   UNL d   1      -1.100   0.803   4.177  0.00  0.00    -0.097 F 
ATOM      8  F1  UNL d   1       1.319   1.441   3.139  0.00  0.00    -0.096 F 
ATOM      9  I   UNL d   1       2.443   1.337   0.144  0.00  0.00    -0.060 I 
ATOM     10  F2  UNL d   1      -0.250   0.230  -1.186  0.00  0.00    -0.096 F 
ATOM     11  F3  UNL d   1      -2.658  -0.399  -0.118  0.00  0.00    -0.097 F 
ATOM     12  F4  UNL d   1      -3.095  -0.117   2.560  0.00  0.00    -0.092 F 
ENDROOT
TORSDOF 0
ENDMDL
