MODEL 1
REMARK minimizedAffinity 9.69033432
REMARK minimizedRMSD -1
REMARK  0 active torsions:
REMARK  status: ('A' for Active; 'I' for Inactive)
ROOT
ATOM      1  C   UNL d   1      -1.869  -0.625   0.489  0.00  0.00     0.124 A 
ATOM      2  C1  UNL d   1      -1.841  -0.157   1.796  0.00  0.00     0.062 A 
ATOM      3  C2  UNL d   1      -0.797   0.656   2.227  0.00  0.00     0.162 A 
ATOM      4  C3  UNL d   1       0.229   1.008   1.349  0.00  0.00    -0.034 A 
ATOM      5  C4  UNL d   1       0.195   0.534   0.037  0.00  0.00     0.162 A 
ATOM      6  C5  UNL d   1      -0.851  -0.279  -0.389  0.00  0.00     0.062 A 
ATOM      7  F   UNL d   1      -0.876  -0.729  -1.652  0.00  0.00    -0.097 F 
ATOM      8  F1  UNL d   1       1.164   0.853  -0.833  0.00  0.00    -0.096 F 
ATOM      9  I   UNL d   1       1.792   2.224   1.990  0.00  0.00    -0.060 I 
ATOM     10  F2  UNL d   1      -0.796   1.093   3.495  0.00  0.00    -0.096 F 
ATOM     11  F3  UNL d   1      -2.823  -0.491   2.646  0.00  0.00    -0.097 F 
ATOM     12  F4  UNL d   1      -2.874  -1.408   0.078  0.00  0.00    -0.092 F 
ENDROOT
TORSDOF 0
ENDMDL
