MODEL 1
REMARK minimizedAffinity 11.0100279
REMARK minimizedRMSD -1
REMARK  0 active torsions:
REMARK  status: ('A' for Active; 'I' for Inactive)
ROOT
ATOM      1  C   UNL d   1      -2.038  -0.818   2.230  0.00  0.00     0.124 A 
ATOM      2  C1  UNL d   1      -0.878  -0.827   2.993  0.00  0.00     0.062 A 
ATOM      3  C2  UNL d   1       0.313  -0.341   2.462  0.00  0.00     0.162 A 
ATOM      4  C3  UNL d   1       0.351   0.159   1.161  0.00  0.00    -0.034 A 
ATOM      5  C4  UNL d   1      -0.819   0.164   0.399  0.00  0.00     0.162 A 
ATOM      6  C5  UNL d   1      -2.007  -0.323   0.934  0.00  0.00     0.062 A 
ATOM      7  F   UNL d   1      -3.127  -0.314   0.196  0.00  0.00    -0.097 F 
ATOM      8  F1  UNL d   1      -0.819   0.638  -0.856  0.00  0.00    -0.096 F 
ATOM      9  I   UNL d   1       2.130   0.887   0.363  0.00  0.00    -0.060 I 
ATOM     10  F2  UNL d   1       1.418  -0.362   3.222  0.00  0.00    -0.096 F 
ATOM     11  F3  UNL d   1      -0.905  -1.306   4.245  0.00  0.00    -0.097 F 
ATOM     12  F4  UNL d   1      -3.182  -1.288   2.744  0.00  0.00    -0.092 F 
ENDROOT
TORSDOF 0
ENDMDL
