MODEL 1
REMARK minimizedAffinity 6.03076029
REMARK minimizedRMSD -1
REMARK  0 active torsions:
REMARK  status: ('A' for Active; 'I' for Inactive)
ROOT
ATOM      1  N1  IND d   1       4.270   2.231   2.261  0.00  0.00    -0.196 N 
ATOM      2  C2  IND d   1       4.837   1.515   3.278  0.00  0.00     0.054 A 
ATOM      3  C3  IND d   1       5.500   2.340   4.120  0.00  0.00    -0.031 A 
ATOM      4  C4  IND d   1       5.699   4.906   4.078  0.00  0.00     0.051 A 
ATOM      5  C5  IND d   1       5.380   5.999   3.322  0.00  0.00    -0.031 A 
ATOM      6  C6  IND d   1       4.658   5.889   2.151  0.00  0.00     0.015 A 
ATOM      7  C7  IND d   1       4.216   4.679   1.696  0.00  0.00    -0.016 A 
ATOM      8  C8  IND d   1       4.544   3.566   2.458  0.00  0.00    -0.047 A 
ATOM      9  C9  IND d   1       5.313   3.666   3.625  0.00  0.00    -0.096 A 
ATOM     10  HN1 IND d   1       3.818   1.902   1.607  0.00  0.00     0.298 HD
ENDROOT
TORSDOF 0
ENDMDL
