MODEL 1
REMARK minimizedAffinity 10.9528952
REMARK minimizedRMSD -1
REMARK  0 active torsions:
REMARK  status: ('A' for Active; 'I' for Inactive)
ROOT
ATOM      1  N1  IND d   1      -0.701   2.841   4.047  0.00  0.00    -0.196 N 
ATOM      2  C2  IND d   1      -0.033   3.163   5.196  0.00  0.00     0.054 A 
ATOM      3  C3  IND d   1       0.776   2.147   5.570  0.00  0.00    -0.031 A 
ATOM      4  C4  IND d   1       1.237  -0.095   4.392  0.00  0.00     0.051 A 
ATOM      5  C5  IND d   1       0.836  -0.857   3.331  0.00  0.00    -0.031 A 
ATOM      6  C6  IND d   1      -0.116  -0.416   2.435  0.00  0.00     0.015 A 
ATOM      7  C7  IND d   1      -0.696   0.815   2.561  0.00  0.00    -0.016 A 
ATOM      8  C8  IND d   1      -0.296   1.589   3.641  0.00  0.00    -0.047 A 
ATOM      9  C9  IND d   1       0.639   1.128   4.578  0.00  0.00    -0.096 A 
ATOM     10  HN1 IND d   1      -1.278   3.337   3.646  0.00  0.00     0.298 HD
ENDROOT
TORSDOF 0
ENDMDL
