MODEL 1
REMARK minimizedAffinity 20.4705734
REMARK minimizedRMSD -1
REMARK  0 active torsions:
REMARK  status: ('A' for Active; 'I' for Inactive)
ROOT
ATOM      1  N1  IND d   1       3.780   3.697  -5.746  0.00  0.00    -0.196 N 
ATOM      2  C2  IND d   1       4.948   4.363  -5.992  0.00  0.00     0.054 A 
ATOM      3  C3  IND d   1       5.991   3.503  -5.985  0.00  0.00    -0.031 A 
ATOM      4  C4  IND d   1       6.000   0.945  -5.693  0.00  0.00     0.051 A 
ATOM      5  C5  IND d   1       5.179  -0.109  -5.407  0.00  0.00    -0.031 A 
ATOM      6  C6  IND d   1       3.822   0.054  -5.218  0.00  0.00     0.015 A 
ATOM      7  C7  IND d   1       3.231   1.282  -5.320  0.00  0.00    -0.016 A 
ATOM      8  C8  IND d   1       4.063   2.356  -5.604  0.00  0.00    -0.047 A 
ATOM      9  C9  IND d   1       5.447   2.203  -5.754  0.00  0.00    -0.096 A 
ATOM     10  HN1 IND d   1       3.001   4.055  -5.690  0.00  0.00     0.298 HD
ENDROOT
TORSDOF 0
ENDMDL
