MODEL 1
REMARK minimizedAffinity 25.4689503
REMARK minimizedRMSD -1
REMARK  0 active torsions:
REMARK  status: ('A' for Active; 'I' for Inactive)
ROOT
ATOM      1  N1  IND d   1      -2.553  -4.102  -5.538  0.00  0.00    -0.196 N 
ATOM      2  C2  IND d   1      -2.875  -5.319  -5.005  0.00  0.00     0.054 A 
ATOM      3  C3  IND d   1      -1.755  -6.000  -4.676  0.00  0.00    -0.031 A 
ATOM      4  C4  IND d   1       0.709  -5.269  -4.832  0.00  0.00     0.051 A 
ATOM      5  C5  IND d   1       1.505  -4.257  -5.288  0.00  0.00    -0.031 A 
ATOM      6  C6  IND d   1       0.979  -3.116  -5.860  0.00  0.00     0.015 A 
ATOM      7  C7  IND d   1      -0.370  -2.941  -5.987  0.00  0.00    -0.016 A 
ATOM      8  C8  IND d   1      -1.182  -3.970  -5.531  0.00  0.00    -0.047 A 
ATOM      9  C9  IND d   1      -0.652  -5.148  -4.989  0.00  0.00    -0.096 A 
ATOM     10  HN1 IND d   1      -3.112  -3.517  -5.829  0.00  0.00     0.298 HD
ENDROOT
TORSDOF 0
ENDMDL
