MODEL 1
REMARK minimizedAffinity 10.5224209
REMARK minimizedRMSD -1
REMARK  0 active torsions:
REMARK  status: ('A' for Active; 'I' for Inactive)
ROOT
ATOM      1  N1  IND d   1      -0.715  -0.418  -5.747  0.00  0.00    -0.196 N 
ATOM      2  C2  IND d   1       0.612  -0.102  -5.655  0.00  0.00     0.054 A 
ATOM      3  C3  IND d   1       1.061  -0.319  -4.399  0.00  0.00    -0.031 A 
ATOM      4  C4  IND d   1      -0.181  -1.286  -2.362  0.00  0.00     0.051 A 
ATOM      5  C5  IND d   1      -1.419  -1.690  -1.948  0.00  0.00    -0.031 A 
ATOM      6  C6  IND d   1      -2.507  -1.693  -2.797  0.00  0.00     0.015 A 
ATOM      7  C7  IND d   1      -2.394  -1.301  -4.101  0.00  0.00    -0.016 A 
ATOM      8  C8  IND d   1      -1.140  -0.884  -4.523  0.00  0.00    -0.047 A 
ATOM      9  C9  IND d   1      -0.042  -0.839  -3.655  0.00  0.00    -0.096 A 
ATOM     10  HN1 IND d   1      -1.201  -0.339  -6.452  0.00  0.00     0.298 HD
ENDROOT
TORSDOF 0
ENDMDL
