MODEL 1
REMARK minimizedAffinity 9.93069839
REMARK minimizedRMSD -1
REMARK  0 active torsions:
REMARK  status: ('A' for Active; 'I' for Inactive)
ROOT
ATOM      1  N1  IND d   1      -0.032  -2.609   3.775  0.00  0.00    -0.196 N 
ATOM      2  C2  IND d   1       0.761  -2.493   4.883  0.00  0.00     0.054 A 
ATOM      3  C3  IND d   1       1.245  -1.235   4.984  0.00  0.00    -0.031 A 
ATOM      4  C4  IND d   1       0.786   0.819   3.502  0.00  0.00     0.051 A 
ATOM      5  C5  IND d   1       0.155   1.197   2.350  0.00  0.00    -0.031 A 
ATOM      6  C6  IND d   1      -0.588   0.308   1.600  0.00  0.00     0.015 A 
ATOM      7  C7  IND d   1      -0.737  -0.995   1.983  0.00  0.00    -0.016 A 
ATOM      8  C8  IND d   1      -0.092  -1.384   3.148  0.00  0.00    -0.047 A 
ATOM      9  C9  IND d   1       0.698  -0.497   3.890  0.00  0.00    -0.096 A 
ATOM     10  HN1 IND d   1      -0.426  -3.327   3.513  0.00  0.00     0.298 HD
ENDROOT
TORSDOF 0
ENDMDL
