MODEL 1
REMARK minimizedAffinity 11.5475054
REMARK minimizedRMSD -1
REMARK  0 active torsions:
REMARK  status: ('A' for Active; 'I' for Inactive)
ROOT
ATOM      1  N1  IND d   1      -1.146  -2.269   3.402  0.00  0.00    -0.196 N 
ATOM      2  C2  IND d   1       0.042  -2.613   3.983  0.00  0.00     0.054 A 
ATOM      3  C3  IND d   1       0.858  -1.538   4.058  0.00  0.00    -0.031 A 
ATOM      4  C4  IND d   1       0.410   0.905   3.381  0.00  0.00     0.051 A 
ATOM      5  C5  IND d   1      -0.519   1.701   2.772  0.00  0.00    -0.031 A 
ATOM      6  C6  IND d   1      -1.730   1.205   2.335  0.00  0.00     0.015 A 
ATOM      7  C7  IND d   1      -2.064  -0.110   2.502  0.00  0.00    -0.016 A 
ATOM      8  C8  IND d   1      -1.120  -0.922   3.114  0.00  0.00    -0.047 A 
ATOM      9  C9  IND d   1       0.128  -0.433   3.521  0.00  0.00    -0.096 A 
ATOM     10  HN1 IND d   1      -1.800  -2.804   3.242  0.00  0.00     0.298 HD
ENDROOT
TORSDOF 0
ENDMDL
