MODEL 1
REMARK minimizedAffinity 5.29782677
REMARK minimizedRMSD -1
REMARK  0 active torsions:
REMARK  status: ('A' for Active; 'I' for Inactive)
ROOT
ATOM      1  C   UNL d   1       1.536   2.488   0.585  0.00  0.00     0.172 C 
ATOM      2  N   UNL d   1       0.493   2.223   1.548  0.00  0.00    -0.070 N 
ATOM      3  C1  UNL d   1      -0.804   2.654   1.458  0.00  0.00    -0.004 A 
ATOM      4  C2  UNL d   1      -1.479   2.194   2.569  0.00  0.00    -0.047 A 
ATOM      5  C3  UNL d   1      -0.555   1.463   3.353  0.00  0.00    -0.047 A 
ATOM      6  C4  UNL d   1       0.658   1.497   2.697  0.00  0.00    -0.004 A 
ENDROOT
TORSDOF 0
ENDMDL
