MODEL 1
REMARK minimizedAffinity 0.894395649
REMARK minimizedRMSD -1
REMARK  0 active torsions:
REMARK  status: ('A' for Active; 'I' for Inactive)
ROOT
ATOM      1  C   UNL d   1      -0.461  -3.593  -0.950  0.00  0.00     0.172 C 
ATOM      2  N   UNL d   1       0.610  -2.682  -0.624  0.00  0.00    -0.070 N 
ATOM      3  C1  UNL d   1       1.880  -3.041  -0.259  0.00  0.00    -0.004 A 
ATOM      4  C2  UNL d   1       2.597  -1.886  -0.033  0.00  0.00    -0.047 A 
ATOM      5  C3  UNL d   1       1.728  -0.795  -0.270  0.00  0.00    -0.047 A 
ATOM      6  C4  UNL d   1       0.505  -1.316  -0.634  0.00  0.00    -0.004 A 
ENDROOT
TORSDOF 0
ENDMDL
