MODEL 1
REMARK minimizedAffinity 1.18384004
REMARK minimizedRMSD -1
REMARK  0 active torsions:
REMARK  status: ('A' for Active; 'I' for Inactive)
ROOT
ATOM      1  C   UNL d   1       5.065  -0.521   1.857  0.00  0.00     0.172 C 
ATOM      2  N   UNL d   1       3.979  -1.165   1.156  0.00  0.00    -0.070 N 
ATOM      3  C1  UNL d   1       3.330  -0.666   0.058  0.00  0.00    -0.004 A 
ATOM      4  C2  UNL d   1       2.363  -1.576  -0.310  0.00  0.00    -0.047 A 
ATOM      5  C3  UNL d   1       2.432  -2.659   0.598  0.00  0.00    -0.047 A 
ATOM      6  C4  UNL d   1       3.442  -2.378   1.495  0.00  0.00    -0.004 A 
ENDROOT
TORSDOF 0
ENDMDL
