MODEL 1
REMARK minimizedAffinity 3.24407101
REMARK minimizedRMSD -1
REMARK  0 active torsions:
REMARK  status: ('A' for Active; 'I' for Inactive)
ROOT
ATOM      1  C   UNL d   1      -3.684   1.910   1.901  0.00  0.00     0.172 C 
ATOM      2  N   UNL d   1      -2.256   2.087   2.024  0.00  0.00    -0.070 N 
ATOM      3  C1  UNL d   1      -1.519   1.872   3.158  0.00  0.00    -0.004 A 
ATOM      4  C2  UNL d   1      -0.202   2.151   2.865  0.00  0.00    -0.047 A 
ATOM      5  C3  UNL d   1      -0.145   2.548   1.508  0.00  0.00    -0.047 A 
ATOM      6  C4  UNL d   1      -1.430   2.500   1.011  0.00  0.00    -0.004 A 
ENDROOT
TORSDOF 0
ENDMDL
