MODEL 1
REMARK minimizedAffinity 1.33858109
REMARK minimizedRMSD -1
REMARK  0 active torsions:
REMARK  status: ('A' for Active; 'I' for Inactive)
ROOT
ATOM      1  C   UNL d   1       0.662   2.169  -0.277  0.00  0.00     0.172 C 
ATOM      2  N   UNL d   1       1.878   1.429  -0.030  0.00  0.00    -0.070 N 
ATOM      3  C1  UNL d   1       3.110   1.976   0.213  0.00  0.00    -0.004 A 
ATOM      4  C2  UNL d   1       4.001   0.942   0.398  0.00  0.00    -0.047 A 
ATOM      5  C3  UNL d   1       3.281  -0.268   0.261  0.00  0.00    -0.047 A 
ATOM      6  C4  UNL d   1       1.969   0.063  -0.003  0.00  0.00    -0.004 A 
ENDROOT
TORSDOF 0
ENDMDL
