MODEL 1
REMARK minimizedAffinity 4.0132699
REMARK minimizedRMSD -1
REMARK  0 active torsions:
REMARK  status: ('A' for Active; 'I' for Inactive)
ROOT
ATOM      1  C   UNL d   1      -1.517   1.856   2.415  0.00  0.00     0.172 C 
ATOM      2  N   UNL d   1      -0.286   1.976   1.671  0.00  0.00    -0.070 N 
ATOM      3  C1  UNL d   1      -0.184   2.282   0.340  0.00  0.00    -0.004 A 
ATOM      4  C2  UNL d   1       1.154   2.301   0.012  0.00  0.00    -0.047 A 
ATOM      5  C3  UNL d   1       1.882   1.995   1.186  0.00  0.00    -0.047 A 
ATOM      6  C4  UNL d   1       0.966   1.798   2.198  0.00  0.00    -0.004 A 
ENDROOT
TORSDOF 0
ENDMDL
