MODEL 1
REMARK minimizedAffinity -1.94352531
REMARK minimizedRMSD -1
REMARK  0 active torsions:
REMARK  status: ('A' for Active; 'I' for Inactive)
ROOT
ATOM      1  C   UNL d   1      -0.007   1.152   0.436  0.00  0.00     0.172 C 
ATOM      2  N   UNL d   1      -1.411   1.111   0.771  0.00  0.00    -0.070 N 
ATOM      3  C1  UNL d   1      -2.399   0.560   0.000  0.00  0.00    -0.004 A 
ATOM      4  C2  UNL d   1      -3.595   0.723   0.667  0.00  0.00    -0.047 A 
ATOM      5  C3  UNL d   1      -3.315   1.397   1.879  0.00  0.00    -0.047 A 
ATOM      6  C4  UNL d   1      -1.956   1.626   1.918  0.00  0.00    -0.004 A 
ENDROOT
TORSDOF 0
ENDMDL
