MODEL 1
REMARK minimizedAffinity -0.212217391
REMARK minimizedRMSD -1
REMARK  0 active torsions:
REMARK  status: ('A' for Active; 'I' for Inactive)
ROOT
ATOM      1  C1  BNZ d   1      -0.038   2.406  -0.080  0.00  0.00     0.000 A 
ATOM      2  C2  BNZ d   1       0.156   1.490   0.919  0.00  0.00     0.000 A 
ATOM      3  C3  BNZ d   1       0.719   1.860   2.109  0.00  0.00     0.000 A 
ATOM      4  C4  BNZ d   1       1.123   3.135   2.282  0.00  0.00     0.000 A 
ATOM      5  C5  BNZ d   1       0.944   4.068   1.281  0.00  0.00     0.000 A 
ATOM      6  C6  BNZ d   1       0.341   3.700   0.099  0.00  0.00     0.000 A 
ENDROOT
TORSDOF 0
ENDMDL
