MODEL 1
REMARK minimizedAffinity 1.11053789
REMARK minimizedRMSD -1
REMARK  0 active torsions:
REMARK  status: ('A' for Active; 'I' for Inactive)
ROOT
ATOM      1  C1  BNZ d   1      -5.999  -2.523   3.297  0.00  0.00     0.000 A 
ATOM      2  C2  BNZ d   1      -6.000  -3.197   4.489  0.00  0.00     0.000 A 
ATOM      3  C3  BNZ d   1      -5.458  -2.635   5.611  0.00  0.00     0.000 A 
ATOM      4  C4  BNZ d   1      -4.882  -1.418   5.531  0.00  0.00     0.000 A 
ATOM      5  C5  BNZ d   1      -4.866  -0.730   4.335  0.00  0.00     0.000 A 
ATOM      6  C6  BNZ d   1      -5.446  -1.282   3.216  0.00  0.00     0.000 A 
ENDROOT
TORSDOF 0
ENDMDL
