MODEL 1
REMARK minimizedAffinity 3.18466949
REMARK minimizedRMSD -1
REMARK  0 active torsions:
REMARK  status: ('A' for Active; 'I' for Inactive)
ROOT
ATOM      1  C1  BNZ d   1      -5.356  -0.621   5.267  0.00  0.00     0.000 A 
ATOM      2  C2  BNZ d   1      -5.998  -1.830   5.251  0.00  0.00     0.000 A 
ATOM      3  C3  BNZ d   1      -6.000  -2.607   4.127  0.00  0.00     0.000 A 
ATOM      4  C4  BNZ d   1      -5.394  -2.157   3.009  0.00  0.00     0.000 A 
ATOM      5  C5  BNZ d   1      -4.750  -0.936   3.007  0.00  0.00     0.000 A 
ATOM      6  C6  BNZ d   1      -4.717  -0.174   4.152  0.00  0.00     0.000 A 
ENDROOT
TORSDOF 0
ENDMDL
