MODEL 1
REMARK minimizedAffinity 1.13650537
REMARK minimizedRMSD -1
REMARK  0 active torsions:
REMARK  status: ('A' for Active; 'I' for Inactive)
ROOT
ATOM      1  C1  BNZ d   1      -2.204   0.328  -1.501  0.00  0.00     0.000 A 
ATOM      2  C2  BNZ d   1      -3.543   0.346  -1.788  0.00  0.00     0.000 A 
ATOM      3  C3  BNZ d   1      -4.125   1.450  -2.346  0.00  0.00     0.000 A 
ATOM      4  C4  BNZ d   1      -3.376   2.547  -2.579  0.00  0.00     0.000 A 
ATOM      5  C5  BNZ d   1      -2.027   2.548  -2.287  0.00  0.00     0.000 A 
ATOM      6  C6  BNZ d   1      -1.437   1.422  -1.761  0.00  0.00     0.000 A 
ENDROOT
TORSDOF 0
ENDMDL
