MODEL 1
REMARK minimizedAffinity -5.32956076
REMARK minimizedRMSD -1
REMARK  1 active torsions:
REMARK  status: ('A' for Active; 'I' for Inactive)
REMARK    1  A    between atoms: N_2  and  C1_3 
ROOT
ATOM      1  C1  UNL d   1       0.838  -0.565   0.205  0.00  0.00     0.143 A 
ATOM      2  C2  UNL d   1       2.138  -1.058   0.357  0.00  0.00    -0.057 A 
ATOM      3  C3  UNL d   1       2.618  -1.466   1.608  0.00  0.00     0.033 A 
ATOM      4  C4  UNL d   1       1.812  -1.360   2.737  0.00  0.00    -0.042 A 
ATOM      5  C5  UNL d   1       0.525  -0.849   2.613  0.00  0.00     0.033 A 
ATOM      6  C6  UNL d   1       0.050  -0.449   1.360  0.00  0.00    -0.057 A 
ENDROOT
BRANCH   1   7
ATOM      7  N   UNL d   1       0.336  -0.052  -0.994  0.00  0.00    -0.732 N 
ATOM      8  C   UNL d   1      -0.878   0.736  -1.008  0.00  0.00     0.284 C 
ATOM      9  H3  UNL d   1       1.071   0.306  -1.601  0.00  0.00     0.395 HD
ENDBRANCH   1   7
TORSDOF 1
ENDMDL
