MODEL 1
REMARK minimizedAffinity -3.67974997
REMARK minimizedRMSD -1
REMARK  1 active torsions:
REMARK  status: ('A' for Active; 'I' for Inactive)
REMARK    1  A    between atoms: N_2  and  C1_3 
ROOT
ATOM      1  C1  UNL d   1       0.886  -0.495   0.300  0.00  0.00     0.143 A 
ATOM      2  C2  UNL d   1       0.194  -0.120   1.457  0.00  0.00    -0.057 A 
ATOM      3  C3  UNL d   1       0.591  -0.574   2.720  0.00  0.00     0.033 A 
ATOM      4  C4  UNL d   1       1.673  -1.439   2.846  0.00  0.00    -0.042 A 
ATOM      5  C5  UNL d   1       2.360  -1.845   1.707  0.00  0.00     0.033 A 
ATOM      6  C6  UNL d   1       1.963  -1.382   0.449  0.00  0.00    -0.057 A 
ENDROOT
BRANCH   1   7
ATOM      7  N   UNL d   1       0.480  -0.155  -0.993  0.00  0.00    -0.732 N 
ATOM      8  C   UNL d   1      -0.651   0.722  -1.205  0.00  0.00     0.284 C 
ATOM      9  H3  UNL d   1       1.267   0.024  -1.612  0.00  0.00     0.395 HD
ENDBRANCH   1   7
TORSDOF 1
ENDMDL
