MODEL 1
REMARK minimizedAffinity -5.01838589
REMARK minimizedRMSD -1
REMARK  1 active torsions:
REMARK  status: ('A' for Active; 'I' for Inactive)
REMARK    1  A    between atoms: N_2  and  C1_3 
ROOT
ATOM      1  C1  UNL d   1       0.887  -0.685  -0.050  0.00  0.00     0.143 A 
ATOM      2  C2  UNL d   1       0.284  -0.440   1.188  0.00  0.00    -0.057 A 
ATOM      3  C3  UNL d   1       0.865  -0.888   2.380  0.00  0.00     0.033 A 
ATOM      4  C4  UNL d   1       2.048  -1.617   2.353  0.00  0.00    -0.042 A 
ATOM      5  C5  UNL d   1       2.653  -1.895   1.132  0.00  0.00     0.033 A 
ATOM      6  C6  UNL d   1       2.071  -1.439  -0.055  0.00  0.00    -0.057 A 
ENDROOT
BRANCH   1   7
ATOM      7  N   UNL d   1       0.309  -0.352  -1.277  0.00  0.00    -0.732 N 
ATOM      8  C   UNL d   1      -1.103  -0.049  -1.369  0.00  0.00     0.284 C 
ATOM      9  H3  UNL d   1       0.902   0.260  -1.833  0.00  0.00     0.395 HD
ENDBRANCH   1   7
TORSDOF 1
ENDMDL
