MODEL 1
REMARK minimizedAffinity -4.96847153
REMARK minimizedRMSD -1
REMARK  1 active torsions:
REMARK  status: ('A' for Active; 'I' for Inactive)
REMARK    1  A    between atoms: N_2  and  C1_3 
ROOT
ATOM      1  C1  UNL d   1       0.346   0.013   0.601  0.00  0.00     0.143 A 
ATOM      2  C2  UNL d   1       1.454  -0.761   0.241  0.00  0.00    -0.057 A 
ATOM      3  C3  UNL d   1       2.187  -1.470   1.201  0.00  0.00     0.033 A 
ATOM      4  C4  UNL d   1       1.839  -1.394   2.545  0.00  0.00    -0.042 A 
ATOM      5  C5  UNL d   1       0.756  -0.611   2.929  0.00  0.00     0.033 A 
ATOM      6  C6  UNL d   1       0.025   0.090   1.965  0.00  0.00    -0.057 A 
ENDROOT
BRANCH   1   7
ATOM      7  N   UNL d   1      -0.363   0.820  -0.293  0.00  0.00    -0.732 N 
ATOM      8  C   UNL d   1      -0.530   0.420  -1.674  0.00  0.00     0.284 C 
ATOM      9  H3  UNL d   1      -1.197   1.224   0.126  0.00  0.00     0.395 HD
ENDBRANCH   1   7
TORSDOF 1
ENDMDL
