MODEL 1
REMARK minimizedAffinity 5.85693741
REMARK minimizedRMSD -1
REMARK  0 active torsions:
REMARK  status: ('A' for Active; 'I' for Inactive)
ROOT
ATOM      1  O1  BZF d   1      -2.705   0.940  -0.287  0.00  0.00    -0.204 OA
ATOM      2  C2  BZF d   1      -3.603  -0.098  -0.446  0.00  0.00     0.174 A 
ATOM      3  C3  BZF d   1      -3.399  -0.731  -1.620  0.00  0.00    -0.012 A 
ATOM      4  C3A BZF d   1      -2.246  -0.104  -2.190  0.00  0.00    -0.107 A 
ATOM      5  C4  BZF d   1      -1.544  -0.303  -3.344  0.00  0.00     0.055 A 
ATOM      6  C5  BZF d   1      -0.510   0.529  -3.640  0.00  0.00    -0.016 A 
ATOM      7  C6  BZF d   1      -0.156   1.571  -2.808  0.00  0.00     0.022 A 
ATOM      8  C7  BZF d   1      -0.820   1.804  -1.650  0.00  0.00     0.029 A 
ATOM      9  C7A BZF d   1      -1.843   0.946  -1.332  0.00  0.00     0.058 A 
ENDROOT
TORSDOF 0
ENDMDL
