MODEL 1
REMARK minimizedAffinity 6.34778976
REMARK minimizedRMSD -1
REMARK  0 active torsions:
REMARK  status: ('A' for Active; 'I' for Inactive)
ROOT
ATOM      1  O1  BZF d   1       0.885  -0.947   2.725  0.00  0.00    -0.204 OA
ATOM      2  C2  BZF d   1       0.239  -1.121   3.933  0.00  0.00     0.174 A 
ATOM      3  C3  BZF d   1      -0.581  -0.082   4.192  0.00  0.00    -0.012 A 
ATOM      4  C3A BZF d   1      -0.508   0.752   3.031  0.00  0.00    -0.107 A 
ATOM      5  C4  BZF d   1      -1.111   1.926   2.680  0.00  0.00     0.055 A 
ATOM      6  C5  BZF d   1      -0.768   2.519   1.506  0.00  0.00    -0.016 A 
ATOM      7  C6  BZF d   1       0.176   1.969   0.663  0.00  0.00     0.022 A 
ATOM      8  C7  BZF d   1       0.796   0.803   0.966  0.00  0.00     0.029 A 
ATOM      9  C7A BZF d   1       0.428   0.185   2.136  0.00  0.00     0.058 A 
ENDROOT
TORSDOF 0
ENDMDL
