MODEL 1
REMARK minimizedAffinity 8.67145729
REMARK minimizedRMSD -1
REMARK  0 active torsions:
REMARK  status: ('A' for Active; 'I' for Inactive)
ROOT
ATOM      1  O1  BZF d   1       0.075   1.089  -1.261  0.00  0.00    -0.204 OA
ATOM      2  C2  BZF d   1      -0.879   1.157  -2.258  0.00  0.00     0.174 A 
ATOM      3  C3  BZF d   1      -1.979   1.805  -1.824  0.00  0.00    -0.012 A 
ATOM      4  C3A BZF d   1      -1.659   2.246  -0.501  0.00  0.00    -0.107 A 
ATOM      5  C4  BZF d   1      -2.342   2.958   0.443  0.00  0.00     0.055 A 
ATOM      6  C5  BZF d   1      -1.773   3.157   1.661  0.00  0.00    -0.016 A 
ATOM      7  C6  BZF d   1      -0.527   2.653   1.971  0.00  0.00     0.022 A 
ATOM      8  C7  BZF d   1       0.191   1.944   1.066  0.00  0.00     0.029 A 
ATOM      9  C7A BZF d   1      -0.367   1.770  -0.177  0.00  0.00     0.058 A 
ENDROOT
TORSDOF 0
ENDMDL
