MODEL 1
REMARK minimizedAffinity 12.415103
REMARK minimizedRMSD -1
REMARK  0 active torsions:
REMARK  status: ('A' for Active; 'I' for Inactive)
ROOT
ATOM      1  O1  BZF d   1      -3.059  -0.289  -3.008  0.00  0.00    -0.204 OA
ATOM      2  C2  BZF d   1      -3.475  -0.857  -1.820  0.00  0.00     0.174 A 
ATOM      3  C3  BZF d   1      -2.592  -0.604  -0.833  0.00  0.00    -0.012 A 
ATOM      4  C3A BZF d   1      -1.605   0.249  -1.421  0.00  0.00    -0.107 A 
ATOM      5  C4  BZF d   1      -0.478   0.853  -0.940  0.00  0.00     0.055 A 
ATOM      6  C5  BZF d   1       0.307   1.562  -1.793  0.00  0.00    -0.016 A 
ATOM      7  C6  BZF d   1      -0.001   1.684  -3.132  0.00  0.00     0.022 A 
ATOM      8  C7  BZF d   1      -1.111   1.107  -3.655  0.00  0.00     0.029 A 
ATOM      9  C7A BZF d   1      -1.924   0.417  -2.788  0.00  0.00     0.058 A 
ENDROOT
TORSDOF 0
ENDMDL
