MODEL 1
REMARK minimizedAffinity -1.33377612
REMARK minimizedRMSD -1
REMARK  0 active torsions:
REMARK  status: ('A' for Active; 'I' for Inactive)
ROOT
ATOM      1  O1  BZF d   1       0.960  -0.655   2.565  0.00  0.00    -0.204 OA
ATOM      2  C2  BZF d   1       0.238  -0.667   3.743  0.00  0.00     0.174 A 
ATOM      3  C3  BZF d   1      -0.625   0.368   3.785  0.00  0.00    -0.012 A 
ATOM      4  C3A BZF d   1      -0.496   1.019   2.518  0.00  0.00    -0.107 A 
ATOM      5  C4  BZF d   1      -1.104   2.103   1.953  0.00  0.00     0.055 A 
ATOM      6  C5  BZF d   1      -0.697   2.523   0.726  0.00  0.00    -0.016 A 
ATOM      7  C6  BZF d   1       0.316   1.887   0.039  0.00  0.00     0.022 A 
ATOM      8  C7  BZF d   1       0.945   0.804   0.557  0.00  0.00     0.029 A 
ATOM      9  C7A BZF d   1       0.514   0.357   1.782  0.00  0.00     0.058 A 
ENDROOT
TORSDOF 0
ENDMDL
