MODEL 1
REMARK minimizedAffinity 1.56410527
REMARK minimizedRMSD -1
REMARK  0 active torsions:
REMARK  status: ('A' for Active; 'I' for Inactive)
ROOT
ATOM      1  O1  BZF d   1       1.772   1.232   0.693  0.00  0.00    -0.204 OA
ATOM      2  C2  BZF d   1       0.982   0.317   0.024  0.00  0.00     0.174 A 
ATOM      3  C3  BZF d   1      -0.283   0.771  -0.092  0.00  0.00    -0.012 A 
ATOM      4  C3A BZF d   1      -0.261   2.090   0.464  0.00  0.00    -0.107 A 
ATOM      5  C4  BZF d   1      -1.212   3.057   0.622  0.00  0.00     0.055 A 
ATOM      6  C5  BZF d   1      -0.883   4.206   1.269  0.00  0.00    -0.016 A 
ATOM      7  C6  BZF d   1       0.383   4.419   1.774  0.00  0.00     0.022 A 
ATOM      8  C7  BZF d   1       1.361   3.490   1.637  0.00  0.00     0.029 A 
ATOM      9  C7A BZF d   1       1.041   2.342   0.955  0.00  0.00     0.058 A 
ENDROOT
TORSDOF 0
ENDMDL
