MODEL 1
REMARK minimizedAffinity 11.6526337
REMARK minimizedRMSD -1
REMARK  0 active torsions:
REMARK  status: ('A' for Active; 'I' for Inactive)
ROOT
ATOM      1  O1  BZF d   1       1.084  -0.519   2.561  0.00  0.00    -0.204 OA
ATOM      2  C2  BZF d   1       2.006  -0.617   1.537  0.00  0.00     0.174 A 
ATOM      3  C3  BZF d   1       1.877   0.413   0.677  0.00  0.00    -0.012 A 
ATOM      4  C3A BZF d   1       0.868   1.254   1.245  0.00  0.00    -0.107 A 
ATOM      5  C4  BZF d   1       0.308   2.439   0.862  0.00  0.00     0.055 A 
ATOM      6  C5  BZF d   1      -0.706   2.960   1.601  0.00  0.00    -0.016 A 
ATOM      7  C6  BZF d   1      -1.188   2.322   2.725  0.00  0.00     0.022 A 
ATOM      8  C7  BZF d   1      -0.661   1.147   3.147  0.00  0.00     0.029 A 
ATOM      9  C7A BZF d   1       0.386   0.634   2.421  0.00  0.00     0.058 A 
ENDROOT
TORSDOF 0
ENDMDL
