MODEL 1
REMARK minimizedAffinity -4.27817392
REMARK minimizedRMSD -1
REMARK  1 active torsions:
REMARK  status: ('A' for Active; 'I' for Inactive)
REMARK    1  A    between atoms: N_2  and  C1_3 
ROOT
ATOM      1  C1  UNL d   1      -0.662  -1.131   0.456  0.00  0.00     0.143 A 
ATOM      2  C2  UNL d   1       0.698  -0.996   0.160  0.00  0.00    -0.057 A 
ATOM      3  C3  UNL d   1       1.275   0.262  -0.052  0.00  0.00     0.033 A 
ATOM      4  C4  UNL d   1       0.491   1.410  -0.000  0.00  0.00    -0.042 A 
ATOM      5  C5  UNL d   1      -0.869   1.298   0.268  0.00  0.00     0.033 A 
ATOM      6  C6  UNL d   1      -1.437   0.039   0.486  0.00  0.00    -0.057 A 
ENDROOT
BRANCH   1   7
ATOM      7  N   UNL d   1      -1.314  -2.360   0.580  0.00  0.00    -0.732 N 
ATOM      8  C   UNL d   1      -0.926  -3.300   1.611  0.00  0.00     0.284 C 
ATOM      9  H3  UNL d   1      -2.319  -2.283   0.446  0.00  0.00     0.395 HD
ENDBRANCH   1   7
TORSDOF 1
ENDMDL
