MODEL 1
REMARK minimizedAffinity -5.03100491
REMARK minimizedRMSD -1
REMARK  1 active torsions:
REMARK  status: ('A' for Active; 'I' for Inactive)
REMARK    1  A    between atoms: N_2  and  C1_3 
ROOT
ATOM      1  C1  UNL d   1      -1.111  -0.926   0.524  0.00  0.00     0.143 A 
ATOM      2  C2  UNL d   1      -1.939   0.040   1.106  0.00  0.00    -0.057 A 
ATOM      3  C3  UNL d   1      -3.092  -0.323   1.813  0.00  0.00     0.033 A 
ATOM      4  C4  UNL d   1      -3.454  -1.662   1.925  0.00  0.00    -0.042 A 
ATOM      5  C5  UNL d   1      -2.659  -2.637   1.334  0.00  0.00     0.033 A 
ATOM      6  C6  UNL d   1      -1.505  -2.269   0.635  0.00  0.00    -0.057 A 
ENDROOT
BRANCH   1   7
ATOM      7  N   UNL d   1      -0.005  -0.624  -0.274  0.00  0.00    -0.732 N 
ATOM      8  C   UNL d   1       0.873   0.474   0.068  0.00  0.00     0.284 C 
ATOM      9  H3  UNL d   1       0.478  -1.457  -0.600  0.00  0.00     0.395 HD
ENDBRANCH   1   7
TORSDOF 1
ENDMDL
