MODEL 1
REMARK minimizedAffinity -3.54956388
REMARK minimizedRMSD -1
REMARK  1 active torsions:
REMARK  status: ('A' for Active; 'I' for Inactive)
REMARK    1  A    between atoms: N_2  and  C1_3 
ROOT
ATOM      1  C1  UNL d   1       0.159   0.343  -0.177  0.00  0.00     0.143 A 
ATOM      2  C2  UNL d   1       0.936  -0.720   0.297  0.00  0.00    -0.057 A 
ATOM      3  C3  UNL d   1       0.346  -1.850   0.875  0.00  0.00     0.033 A 
ATOM      4  C4  UNL d   1      -1.036  -1.925   1.016  0.00  0.00    -0.042 A 
ATOM      5  C5  UNL d   1      -1.827  -0.871   0.574  0.00  0.00     0.033 A 
ATOM      6  C6  UNL d   1      -1.232   0.253  -0.008  0.00  0.00    -0.057 A 
ENDROOT
BRANCH   1   7
ATOM      7  N   UNL d   1       0.691   1.536  -0.671  0.00  0.00    -0.732 N 
ATOM      8  C   UNL d   1       1.845   2.144  -0.044  0.00  0.00     0.284 C 
ATOM      9  H3  UNL d   1       0.709   1.561  -1.688  0.00  0.00     0.395 HD
ENDBRANCH   1   7
TORSDOF 1
ENDMDL
