MODEL 1
REMARK minimizedAffinity -0.00567054702
REMARK minimizedRMSD -1
REMARK  1 active torsions:
REMARK  status: ('A' for Active; 'I' for Inactive)
REMARK    1  A    between atoms: N_2  and  C1_3 
ROOT
ATOM      1  C1  UNL d   1      -1.265  -0.549   0.136  0.00  0.00     0.143 A 
ATOM      2  C2  UNL d   1       0.059  -0.753   0.541  0.00  0.00    -0.057 A 
ATOM      3  C3  UNL d   1       0.461  -1.959   1.127  0.00  0.00     0.033 A 
ATOM      4  C4  UNL d   1      -0.463  -2.976   1.346  0.00  0.00    -0.042 A 
ATOM      5  C5  UNL d   1      -1.789  -2.786   0.974  0.00  0.00     0.033 A 
ATOM      6  C6  UNL d   1      -2.184  -1.582   0.383  0.00  0.00    -0.057 A 
ENDROOT
BRANCH   1   7
ATOM      7  N   UNL d   1      -1.748   0.663  -0.362  0.00  0.00    -0.732 N 
ATOM      8  C   UNL d   1      -2.497   1.563   0.489  0.00  0.00     0.284 C 
ATOM      9  H3  UNL d   1      -1.078   1.127  -0.971  0.00  0.00     0.395 HD
ENDBRANCH   1   7
TORSDOF 1
ENDMDL
