MODEL 1
REMARK minimizedAffinity -5.14775133
REMARK minimizedRMSD -1
REMARK  1 active torsions:
REMARK  status: ('A' for Active; 'I' for Inactive)
REMARK    1  A    between atoms: N_2  and  C1_3 
ROOT
ATOM      1  C1  UNL d   1      -0.259  -0.574  -0.747  0.00  0.00     0.143 A 
ATOM      2  C2  UNL d   1      -0.084  -1.955  -0.889  0.00  0.00    -0.057 A 
ATOM      3  C3  UNL d   1      -0.704  -2.859  -0.019  0.00  0.00     0.033 A 
ATOM      4  C4  UNL d   1      -1.491  -2.395   1.031  0.00  0.00    -0.042 A 
ATOM      5  C5  UNL d   1      -1.658  -1.026   1.207  0.00  0.00     0.033 A 
ATOM      6  C6  UNL d   1      -1.041  -0.128   0.330  0.00  0.00    -0.057 A 
ENDROOT
BRANCH   1   7
ATOM      7  N   UNL d   1       0.410   0.379  -1.520  0.00  0.00    -0.732 N 
ATOM      8  C   UNL d   1       0.070   0.567  -2.914  0.00  0.00     0.284 C 
ATOM      9  H3  UNL d   1       0.576   1.244  -1.011  0.00  0.00     0.395 HD
ENDBRANCH   1   7
TORSDOF 1
ENDMDL
