MODEL 1
REMARK minimizedAffinity -4.42317152
REMARK minimizedRMSD -1
REMARK  1 active torsions:
REMARK  status: ('A' for Active; 'I' for Inactive)
REMARK    1  A    between atoms: N_2  and  C1_3 
ROOT
ATOM      1  C1  UNL d   1      -0.095   0.403  -0.061  0.00  0.00     0.143 A 
ATOM      2  C2  UNL d   1       0.749  -0.712  -0.102  0.00  0.00    -0.057 A 
ATOM      3  C3  UNL d   1       0.342  -1.949   0.412  0.00  0.00     0.033 A 
ATOM      4  C4  UNL d   1      -0.910  -2.086   1.004  0.00  0.00    -0.042 A 
ATOM      5  C5  UNL d   1      -1.755  -0.985   1.078  0.00  0.00     0.033 A 
ATOM      6  C6  UNL d   1      -1.345   0.247   0.557  0.00  0.00    -0.057 A 
ENDROOT
BRANCH   1   7
ATOM      7  N   UNL d   1       0.289   1.684  -0.466  0.00  0.00    -0.732 N 
ATOM      8  C   UNL d   1       1.237   1.863  -1.545  0.00  0.00     0.284 C 
ATOM      9  H3  UNL d   1      -0.492   2.335  -0.486  0.00  0.00     0.395 HD
ENDBRANCH   1   7
TORSDOF 1
ENDMDL
