MODEL 1
REMARK minimizedAffinity -4.05289936
REMARK minimizedRMSD -1
REMARK  1 active torsions:
REMARK  status: ('A' for Active; 'I' for Inactive)
REMARK    1  A    between atoms: N_2  and  C1_3 
ROOT
ATOM      1  C1  UNL d   1      -0.231  -0.173   0.092  0.00  0.00     0.143 A 
ATOM      2  C2  UNL d   1      -1.410  -0.748   0.581  0.00  0.00    -0.057 A 
ATOM      3  C3  UNL d   1      -1.391  -1.966   1.271  0.00  0.00     0.033 A 
ATOM      4  C4  UNL d   1      -0.194  -2.648   1.459  0.00  0.00    -0.042 A 
ATOM      5  C5  UNL d   1       0.986  -2.108   0.960  0.00  0.00     0.033 A 
ATOM      6  C6  UNL d   1       0.963  -0.887   0.278  0.00  0.00    -0.057 A 
ENDROOT
BRANCH   1   7
ATOM      7  N   UNL d   1      -0.196   0.986  -0.687  0.00  0.00    -0.732 N 
ATOM      8  C   UNL d   1       0.387   0.966  -2.012  0.00  0.00     0.284 C 
ATOM      9  H3  UNL d   1      -1.056   1.526  -0.620  0.00  0.00     0.395 HD
ENDBRANCH   1   7
TORSDOF 1
ENDMDL
