MODEL 1
REMARK minimizedAffinity -1.99778247
REMARK minimizedRMSD -1
REMARK  1 active torsions:
REMARK  status: ('A' for Active; 'I' for Inactive)
REMARK    1  A    between atoms: N_2  and  C1_3 
ROOT
ATOM      1  C1  UNL d   1      -0.520  -1.295   1.048  0.00  0.00     0.143 A 
ATOM      2  C2  UNL d   1       0.699  -0.909   0.481  0.00  0.00    -0.057 A 
ATOM      3  C3  UNL d   1       0.955   0.428   0.151  0.00  0.00     0.033 A 
ATOM      4  C4  UNL d   1      -0.018   1.400   0.356  0.00  0.00    -0.042 A 
ATOM      5  C5  UNL d   1      -1.247   1.034   0.896  0.00  0.00     0.033 A 
ATOM      6  C6  UNL d   1      -1.493  -0.301   1.229  0.00  0.00    -0.057 A 
ENDROOT
BRANCH   1   7
ATOM      7  N   UNL d   1      -0.871  -2.622   1.307  0.00  0.00    -0.732 N 
ATOM      8  C   UNL d   1      -2.247  -3.057   1.192  0.00  0.00     0.284 C 
ATOM      9  H3  UNL d   1      -0.194  -3.283   0.933  0.00  0.00     0.395 HD
ENDBRANCH   1   7
TORSDOF 1
ENDMDL
