MODEL 1
REMARK minimizedAffinity -4.7271409
REMARK minimizedRMSD -1
REMARK  1 active torsions:
REMARK  status: ('A' for Active; 'I' for Inactive)
REMARK    1  A    between atoms: N_2  and  C1_3 
ROOT
ATOM      1  C1  UNL d   1       0.483   0.462   0.057  0.00  0.00     0.143 A 
ATOM      2  C2  UNL d   1      -0.854   0.528   0.463  0.00  0.00    -0.057 A 
ATOM      3  C3  UNL d   1      -1.512  -0.594   0.980  0.00  0.00     0.033 A 
ATOM      4  C4  UNL d   1      -0.851  -1.814   1.074  0.00  0.00    -0.042 A 
ATOM      5  C5  UNL d   1       0.471  -1.910   0.653  0.00  0.00     0.033 A 
ATOM      6  C6  UNL d   1       1.125  -0.784   0.144  0.00  0.00    -0.057 A 
ENDROOT
BRANCH   1   7
ATOM      7  N   UNL d   1       1.163   1.517  -0.557  0.00  0.00    -0.732 N 
ATOM      8  C   UNL d   1       1.083   1.711  -1.989  0.00  0.00     0.284 C 
ATOM      9  H3  UNL d   1       1.112   2.378  -0.017  0.00  0.00     0.395 HD
ENDBRANCH   1   7
TORSDOF 1
ENDMDL
