MODEL 1
REMARK minimizedAffinity -3.93075943
REMARK minimizedRMSD -1
REMARK  1 active torsions:
REMARK  status: ('A' for Active; 'I' for Inactive)
REMARK    1  A    between atoms: N_2  and  C1_3 
ROOT
ATOM      1  C1  UNL d   1       0.050   0.141   0.225  0.00  0.00     0.143 A 
ATOM      2  C2  UNL d   1       0.675  -1.096   0.422  0.00  0.00    -0.057 A 
ATOM      3  C3  UNL d   1      -0.048  -2.214   0.855  0.00  0.00     0.033 A 
ATOM      4  C4  UNL d   1      -1.408  -2.108   1.128  0.00  0.00    -0.042 A 
ATOM      5  C5  UNL d   1      -2.045  -0.883   0.964  0.00  0.00     0.033 A 
ATOM      6  C6  UNL d   1      -1.319   0.229   0.524  0.00  0.00    -0.057 A 
ENDROOT
BRANCH   1   7
ATOM      7  N   UNL d   1       0.732   1.313  -0.109  0.00  0.00    -0.732 N 
ATOM      8  C   UNL d   1       1.112   1.580  -1.480  0.00  0.00     0.284 C 
ATOM      9  H3  UNL d   1       0.376   2.125   0.390  0.00  0.00     0.395 HD
ENDBRANCH   1   7
TORSDOF 1
ENDMDL
