MODEL 1
REMARK minimizedAffinity -1.15546405
REMARK minimizedRMSD -1
REMARK  1 active torsions:
REMARK  status: ('A' for Active; 'I' for Inactive)
REMARK    1  A    between atoms: N_2  and  C1_3 
ROOT
ATOM      1  C1  UNL d   1      -0.082  -0.207   0.636  0.00  0.00     0.143 A 
ATOM      2  C2  UNL d   1      -0.888  -1.211   1.183  0.00  0.00    -0.057 A 
ATOM      3  C3  UNL d   1      -0.447  -2.537   1.256  0.00  0.00     0.033 A 
ATOM      4  C4  UNL d   1       0.802  -2.890   0.754  0.00  0.00    -0.042 A 
ATOM      5  C5  UNL d   1       1.610  -1.914   0.183  0.00  0.00     0.033 A 
ATOM      6  C6  UNL d   1       1.166  -0.589   0.120  0.00  0.00    -0.057 A 
ENDROOT
BRANCH   1   7
ATOM      7  N   UNL d   1      -0.503   1.112   0.446  0.00  0.00    -0.732 N 
ATOM      8  C   UNL d   1      -1.777   1.561   0.964  0.00  0.00     0.284 C 
ATOM      9  H3  UNL d   1       0.254   1.782   0.565  0.00  0.00     0.395 HD
ENDBRANCH   1   7
TORSDOF 1
ENDMDL
