MODEL 1
REMARK minimizedAffinity -2.37814617
REMARK minimizedRMSD -1
REMARK  0 active torsions:
REMARK  status: ('A' for Active; 'I' for Inactive)
ROOT
ATOM      1  C1  BNZ d   1       3.764   6.000   2.489  0.00  0.00     0.000 A 
ATOM      2  C2  BNZ d   1       3.800   5.771   1.139  0.00  0.00     0.000 A 
ATOM      3  C3  BNZ d   1       4.912   5.240   0.549  0.00  0.00     0.000 A 
ATOM      4  C4  BNZ d   1       6.000   4.976   1.301  0.00  0.00     0.000 A 
ATOM      5  C5  BNZ d   1       5.983   5.210   2.661  0.00  0.00     0.000 A 
ATOM      6  C6  BNZ d   1       4.848   5.708   3.258  0.00  0.00     0.000 A 
ENDROOT
TORSDOF 0
ENDMDL
