MODEL 1
REMARK minimizedAffinity -2.7220583
REMARK minimizedRMSD -1
REMARK  0 active torsions:
REMARK  status: ('A' for Active; 'I' for Inactive)
ROOT
ATOM      1  C1  BNZ d   1       4.823   5.929  -0.768  0.00  0.00     0.000 A 
ATOM      2  C2  BNZ d   1       5.986   5.864  -0.048  0.00  0.00     0.000 A 
ATOM      3  C3  BNZ d   1       5.962   5.840   1.319  0.00  0.00     0.000 A 
ATOM      4  C4  BNZ d   1       4.780   5.921   1.963  0.00  0.00     0.000 A 
ATOM      5  C5  BNZ d   1       3.600   5.996   1.251  0.00  0.00     0.000 A 
ATOM      6  C6  BNZ d   1       3.625   5.980  -0.124  0.00  0.00     0.000 A 
ENDROOT
TORSDOF 0
ENDMDL
