MODEL 1
REMARK minimizedAffinity -1.44292128
REMARK minimizedRMSD -1
REMARK  0 active torsions:
REMARK  status: ('A' for Active; 'I' for Inactive)
ROOT
ATOM      1  C1  BNZ d   1       3.620   5.922   2.292  0.00  0.00     0.000 A 
ATOM      2  C2  BNZ d   1       4.809   5.875   2.970  0.00  0.00     0.000 A 
ATOM      3  C3  BNZ d   1       5.999   5.914   2.300  0.00  0.00     0.000 A 
ATOM      4  C4  BNZ d   1       6.000   5.960   0.952  0.00  0.00     0.000 A 
ATOM      5  C5  BNZ d   1       4.809   5.999   0.253  0.00  0.00     0.000 A 
ATOM      6  C6  BNZ d   1       3.613   5.999   0.934  0.00  0.00     0.000 A 
ENDROOT
TORSDOF 0
ENDMDL
