MODEL 1
REMARK minimizedAffinity 3.04451394
REMARK minimizedRMSD -1
REMARK  0 active torsions:
REMARK  status: ('A' for Active; 'I' for Inactive)
ROOT
ATOM      1  C1  BNZ d   1       3.628   5.806   1.906  0.00  0.00     0.000 A 
ATOM      2  C2  BNZ d   1       3.655   5.893   3.272  0.00  0.00     0.000 A 
ATOM      3  C3  BNZ d   1       4.842   5.987   3.944  0.00  0.00     0.000 A 
ATOM      4  C4  BNZ d   1       5.999   5.954   3.252  0.00  0.00     0.000 A 
ATOM      5  C5  BNZ d   1       5.988   5.858   1.875  0.00  0.00     0.000 A 
ATOM      6  C6  BNZ d   1       4.791   5.802   1.200  0.00  0.00     0.000 A 
ENDROOT
TORSDOF 0
ENDMDL
