MODEL 1
REMARK minimizedAffinity 2.15588117
REMARK minimizedRMSD -1
REMARK  0 active torsions:
REMARK  status: ('A' for Active; 'I' for Inactive)
ROOT
ATOM      1  C1  BNZ d   1       0.341  -0.688  -1.808  0.00  0.00     0.000 A 
ATOM      2  C2  BNZ d   1       1.674  -0.728  -1.497  0.00  0.00     0.000 A 
ATOM      3  C3  BNZ d   1       2.528   0.239  -1.948  0.00  0.00     0.000 A 
ATOM      4  C4  BNZ d   1       2.056   1.222  -2.742  0.00  0.00     0.000 A 
ATOM      5  C5  BNZ d   1       0.717   1.271  -3.072  0.00  0.00     0.000 A 
ATOM      6  C6  BNZ d   1      -0.147   0.318  -2.584  0.00  0.00     0.000 A 
ENDROOT
TORSDOF 0
ENDMDL
