MODEL 1
REMARK minimizedAffinity 13.0154333
REMARK minimizedRMSD -1
REMARK  0 active torsions:
REMARK  status: ('A' for Active; 'I' for Inactive)
ROOT
ATOM      1  C1  BNZ d   1       1.254  -2.340  -2.296  0.00  0.00     0.000 A 
ATOM      2  C2  BNZ d   1       1.837  -3.269  -1.476  0.00  0.00     0.000 A 
ATOM      3  C3  BNZ d   1       3.047  -3.024  -0.890  0.00  0.00     0.000 A 
ATOM      4  C4  BNZ d   1       3.691  -1.870  -1.156  0.00  0.00     0.000 A 
ATOM      5  C5  BNZ d   1       3.121  -0.926  -1.987  0.00  0.00     0.000 A 
ATOM      6  C6  BNZ d   1       1.884  -1.160  -2.545  0.00  0.00     0.000 A 
ENDROOT
TORSDOF 0
ENDMDL
