MODEL 1
REMARK minimizedAffinity -3.0492537
REMARK minimizedRMSD -1
REMARK  0 active torsions:
REMARK  status: ('A' for Active; 'I' for Inactive)
ROOT
ATOM      1  C1  BNZ d   1       5.997  -4.593   5.999  0.00  0.00     0.000 A 
ATOM      2  C2  BNZ d   1       5.136  -5.648   5.849  0.00  0.00     0.000 A 
ATOM      3  C3  BNZ d   1       4.122  -5.599   4.933  0.00  0.00     0.000 A 
ATOM      4  C4  BNZ d   1       3.945  -4.482   4.199  0.00  0.00     0.000 A 
ATOM      5  C5  BNZ d   1       4.799  -3.407   4.345  0.00  0.00     0.000 A 
ATOM      6  C6  BNZ d   1       5.842  -3.474   5.239  0.00  0.00     0.000 A 
ENDROOT
TORSDOF 0
ENDMDL
