MODEL 1
REMARK minimizedAffinity 0.940360487
REMARK minimizedRMSD -1
REMARK  0 active torsions:
REMARK  status: ('A' for Active; 'I' for Inactive)
ROOT
ATOM      1  C1  BNZ d   1       4.011   6.000   3.689  0.00  0.00     0.000 A 
ATOM      2  C2  BNZ d   1       4.019   5.670   2.360  0.00  0.00     0.000 A 
ATOM      3  C3  BNZ d   1       4.998   4.868   1.844  0.00  0.00     0.000 A 
ATOM      4  C4  BNZ d   1       5.989   4.430   2.647  0.00  0.00     0.000 A 
ATOM      5  C5  BNZ d   1       6.000   4.762   3.987  0.00  0.00     0.000 A 
ATOM      6  C6  BNZ d   1       4.991   5.538   4.512  0.00  0.00     0.000 A 
ENDROOT
TORSDOF 0
ENDMDL
