MODEL 1
REMARK minimizedAffinity 6.32935572
REMARK minimizedRMSD -1
REMARK  0 active torsions:
REMARK  status: ('A' for Active; 'I' for Inactive)
ROOT
ATOM      1  C1  BNZ d   1       1.358  -3.827  -0.319  0.00  0.00     0.000 A 
ATOM      2  C2  BNZ d   1      -0.004  -3.948  -0.395  0.00  0.00     0.000 A 
ATOM      3  C3  BNZ d   1      -0.701  -3.379  -1.425  0.00  0.00     0.000 A 
ATOM      4  C4  BNZ d   1      -0.041  -2.659  -2.354  0.00  0.00     0.000 A 
ATOM      5  C5  BNZ d   1       1.332  -2.521  -2.287  0.00  0.00     0.000 A 
ATOM      6  C6  BNZ d   1       2.034  -3.127  -1.270  0.00  0.00     0.000 A 
ENDROOT
TORSDOF 0
ENDMDL
