MODEL 1
REMARK minimizedAffinity 3.69454622
REMARK minimizedRMSD -1
REMARK  0 active torsions:
REMARK  status: ('A' for Active; 'I' for Inactive)
ROOT
ATOM      1  C1  BNZ d   1      -0.561  -1.138  -1.291  0.00  0.00     0.000 A 
ATOM      2  C2  BNZ d   1       0.635  -1.777  -1.484  0.00  0.00     0.000 A 
ATOM      3  C3  BNZ d   1       1.702  -1.116  -2.025  0.00  0.00     0.000 A 
ATOM      4  C4  BNZ d   1       1.561   0.168  -2.410  0.00  0.00     0.000 A 
ATOM      5  C5  BNZ d   1       0.360   0.824  -2.231  0.00  0.00     0.000 A 
ATOM      6  C6  BNZ d   1      -0.701   0.168  -1.650  0.00  0.00     0.000 A 
ENDROOT
TORSDOF 0
ENDMDL
