MODEL 1
REMARK minimizedAffinity 4.64605474
REMARK minimizedRMSD -1
REMARK  0 active torsions:
REMARK  status: ('A' for Active; 'I' for Inactive)
ROOT
ATOM      1  C1  BNZ d   1       1.072  -0.419  -1.936  0.00  0.00     0.000 A 
ATOM      2  C2  BNZ d   1       0.770   0.601  -2.798  0.00  0.00     0.000 A 
ATOM      3  C3  BNZ d   1       1.740   1.175  -3.571  0.00  0.00     0.000 A 
ATOM      4  C4  BNZ d   1       3.016   0.755  -3.453  0.00  0.00     0.000 A 
ATOM      5  C5  BNZ d   1       3.338  -0.267  -2.582  0.00  0.00     0.000 A 
ATOM      6  C6  BNZ d   1       2.352  -0.868  -1.834  0.00  0.00     0.000 A 
ENDROOT
TORSDOF 0
ENDMDL
