MODEL 1
REMARK minimizedAffinity 2.19203067
REMARK minimizedRMSD -1
REMARK  0 active torsions:
REMARK  status: ('A' for Active; 'I' for Inactive)
ROOT
ATOM      1  C1  BNZ d   1      -2.552  -0.354   1.508  0.00  0.00     0.000 A 
ATOM      2  C2  BNZ d   1      -1.743   0.751   1.531  0.00  0.00     0.000 A 
ATOM      3  C3  BNZ d   1      -1.580   1.474   2.679  0.00  0.00     0.000 A 
ATOM      4  C4  BNZ d   1      -2.256   1.116   3.790  0.00  0.00     0.000 A 
ATOM      5  C5  BNZ d   1      -3.082   0.010   3.780  0.00  0.00     0.000 A 
ATOM      6  C6  BNZ d   1      -3.213  -0.739   2.633  0.00  0.00     0.000 A 
ENDROOT
TORSDOF 0
ENDMDL
