MODEL 1
REMARK minimizedAffinity 3.85727286
REMARK minimizedRMSD -1
REMARK  0 active torsions:
REMARK  status: ('A' for Active; 'I' for Inactive)
ROOT
ATOM      1  C1  BNZ d   1      -2.154   3.320   3.920  0.00  0.00     0.000 A 
ATOM      2  C2  BNZ d   1      -1.774   2.012   4.063  0.00  0.00     0.000 A 
ATOM      3  C3  BNZ d   1      -2.376   1.025   3.333  0.00  0.00     0.000 A 
ATOM      4  C4  BNZ d   1      -3.383   1.342   2.493  0.00  0.00     0.000 A 
ATOM      5  C5  BNZ d   1      -3.783   2.655   2.346  0.00  0.00     0.000 A 
ATOM      6  C6  BNZ d   1      -3.148   3.650   3.053  0.00  0.00     0.000 A 
ENDROOT
TORSDOF 0
ENDMDL
