MODEL 1
REMARK minimizedAffinity 0.0284713581
REMARK minimizedRMSD -1
REMARK  0 active torsions:
REMARK  status: ('A' for Active; 'I' for Inactive)
ROOT
ATOM      1  C1  BNZ d   1       5.745   4.708   2.976  0.00  0.00     0.000 A 
ATOM      2  C2  BNZ d   1       5.998   4.733   4.322  0.00  0.00     0.000 A 
ATOM      3  C3  BNZ d   1       5.143   5.363   5.183  0.00  0.00     0.000 A 
ATOM      4  C4  BNZ d   1       4.060   5.999   4.694  0.00  0.00     0.000 A 
ATOM      5  C5  BNZ d   1       3.796   5.991   3.339  0.00  0.00     0.000 A 
ATOM      6  C6  BNZ d   1       4.638   5.323   2.479  0.00  0.00     0.000 A 
ENDROOT
TORSDOF 0
ENDMDL
