MODEL 1
REMARK minimizedAffinity 3.26515865
REMARK minimizedRMSD -1
REMARK  0 active torsions:
REMARK  status: ('A' for Active; 'I' for Inactive)
ROOT
ATOM      1  C1  BNZ d   1       3.618   5.966   3.922  0.00  0.00     0.000 A 
ATOM      2  C2  BNZ d   1       3.658   5.994   2.553  0.00  0.00     0.000 A 
ATOM      3  C3  BNZ d   1       4.845   5.874   1.886  0.00  0.00     0.000 A 
ATOM      4  C4  BNZ d   1       5.992   5.767   2.587  0.00  0.00     0.000 A 
ATOM      5  C5  BNZ d   1       5.968   5.746   3.967  0.00  0.00     0.000 A 
ATOM      6  C6  BNZ d   1       4.768   5.828   4.635  0.00  0.00     0.000 A 
ENDROOT
TORSDOF 0
ENDMDL
