MODEL 1
REMARK minimizedAffinity -1.2722106
REMARK minimizedRMSD -1
REMARK  0 active torsions:
REMARK  status: ('A' for Active; 'I' for Inactive)
ROOT
ATOM      1  C1  BNZ d   1       3.344  -1.153  -1.199  0.00  0.00     0.000 A 
ATOM      2  C2  BNZ d   1       2.199  -1.826  -1.533  0.00  0.00     0.000 A 
ATOM      3  C3  BNZ d   1       1.115  -1.158  -2.030  0.00  0.00     0.000 A 
ATOM      4  C4  BNZ d   1       1.163   0.184  -2.154  0.00  0.00     0.000 A 
ATOM      5  C5  BNZ d   1       2.307   0.877  -1.813  0.00  0.00     0.000 A 
ATOM      6  C6  BNZ d   1       3.410   0.197  -1.350  0.00  0.00     0.000 A 
ENDROOT
TORSDOF 0
ENDMDL
