MODEL 1
REMARK minimizedAffinity -3.99313521
REMARK minimizedRMSD -1
REMARK  0 active torsions:
REMARK  status: ('A' for Active; 'I' for Inactive)
ROOT
ATOM      1  C1  BNZ d   1       0.317  -3.069   0.379  0.00  0.00     0.000 A 
ATOM      2  C2  BNZ d   1      -0.215  -1.977  -0.253  0.00  0.00     0.000 A 
ATOM      3  C3  BNZ d   1       0.370  -0.747  -0.137  0.00  0.00     0.000 A 
ATOM      4  C4  BNZ d   1       1.462  -0.603   0.641  0.00  0.00     0.000 A 
ATOM      5  C5  BNZ d   1       2.006  -1.693   1.292  0.00  0.00     0.000 A 
ATOM      6  C6  BNZ d   1       1.436  -2.937   1.142  0.00  0.00     0.000 A 
ENDROOT
TORSDOF 0
ENDMDL
