MODEL 1
REMARK minimizedAffinity -4.14471054
REMARK minimizedRMSD -1
REMARK  0 active torsions:
REMARK  status: ('A' for Active; 'I' for Inactive)
ROOT
ATOM      1  C1  BNZ d   1       1.673  -0.204  -0.457  0.00  0.00     0.000 A 
ATOM      2  C2  BNZ d   1       2.467  -1.206   0.033  0.00  0.00     0.000 A 
ATOM      3  C3  BNZ d   1       1.943  -2.190   0.825  0.00  0.00     0.000 A 
ATOM      4  C4  BNZ d   1       0.637  -2.148   1.158  0.00  0.00     0.000 A 
ATOM      5  C5  BNZ d   1      -0.174  -1.139   0.680  0.00  0.00     0.000 A 
ATOM      6  C6  BNZ d   1       0.348  -0.172  -0.149  0.00  0.00     0.000 A 
ENDROOT
TORSDOF 0
ENDMDL
