MODEL 1
REMARK minimizedAffinity -5.2037425
REMARK minimizedRMSD -1
REMARK  0 active torsions:
REMARK  status: ('A' for Active; 'I' for Inactive)
ROOT
ATOM      1  C1  BNZ d   1      -0.404  -0.805   0.942  0.00  0.00     0.000 A 
ATOM      2  C2  BNZ d   1       0.659  -0.301   0.240  0.00  0.00     0.000 A 
ATOM      3  C3  BNZ d   1       1.712  -1.101  -0.105  0.00  0.00     0.000 A 
ATOM      4  C4  BNZ d   1       1.720  -2.392   0.285  0.00  0.00     0.000 A 
ATOM      5  C5  BNZ d   1       0.661  -2.912   1.001  0.00  0.00     0.000 A 
ATOM      6  C6  BNZ d   1      -0.416  -2.114   1.313  0.00  0.00     0.000 A 
ENDROOT
TORSDOF 0
ENDMDL
