MODEL 1
REMARK minimizedAffinity -2.47793174
REMARK minimizedRMSD -1
REMARK  0 active torsions:
REMARK  status: ('A' for Active; 'I' for Inactive)
ROOT
ATOM      1  C1  BNZ d   1      -1.231   2.332  -1.457  0.00  0.00     0.000 A 
ATOM      2  C2  BNZ d   1      -1.648   2.743  -2.695  0.00  0.00     0.000 A 
ATOM      3  C3  BNZ d   1      -2.155   1.848  -3.595  0.00  0.00     0.000 A 
ATOM      4  C4  BNZ d   1      -2.208   0.540  -3.273  0.00  0.00     0.000 A 
ATOM      5  C5  BNZ d   1      -1.782   0.108  -2.032  0.00  0.00     0.000 A 
ATOM      6  C6  BNZ d   1      -1.309   1.017  -1.114  0.00  0.00     0.000 A 
ENDROOT
TORSDOF 0
ENDMDL
