MODEL 1
REMARK minimizedAffinity -3.62875295
REMARK minimizedRMSD -1
REMARK  0 active torsions:
REMARK  status: ('A' for Active; 'I' for Inactive)
ROOT
ATOM      1  C1  BNZ d   1      -0.467  -1.548   0.482  0.00  0.00     0.000 A 
ATOM      2  C2  BNZ d   1       0.774  -2.124   0.539  0.00  0.00     0.000 A 
ATOM      3  C3  BNZ d   1       1.903  -1.372   0.366  0.00  0.00     0.000 A 
ATOM      4  C4  BNZ d   1       1.788  -0.056   0.097  0.00  0.00     0.000 A 
ATOM      5  C5  BNZ d   1       0.543   0.537   0.027  0.00  0.00     0.000 A 
ATOM      6  C6  BNZ d   1      -0.590  -0.215   0.240  0.00  0.00     0.000 A 
ENDROOT
TORSDOF 0
ENDMDL
