MODEL 1
REMARK minimizedAffinity -3.75091052
REMARK minimizedRMSD -1
REMARK  0 active torsions:
REMARK  status: ('A' for Active; 'I' for Inactive)
ROOT
ATOM      1  C1  BNZ d   1       1.135  -0.501  -0.238  0.00  0.00     0.000 A 
ATOM      2  C2  BNZ d   1       1.356  -1.709   0.368  0.00  0.00     0.000 A 
ATOM      3  C3  BNZ d   1       0.372  -2.319   1.094  0.00  0.00     0.000 A 
ATOM      4  C4  BNZ d   1      -0.818  -1.702   1.247  0.00  0.00     0.000 A 
ATOM      5  C5  BNZ d   1      -1.053  -0.480   0.650  0.00  0.00     0.000 A 
ATOM      6  C6  BNZ d   1      -0.073   0.113  -0.112  0.00  0.00     0.000 A 
ENDROOT
TORSDOF 0
ENDMDL
