MODEL 1
REMARK minimizedAffinity -4.67872238
REMARK minimizedRMSD -1
REMARK  0 active torsions:
REMARK  status: ('A' for Active; 'I' for Inactive)
ROOT
ATOM      1  C1  BNZ d   1      -0.211  -1.847   1.354  0.00  0.00     0.000 A 
ATOM      2  C2  BNZ d   1      -0.723  -0.722   0.765  0.00  0.00     0.000 A 
ATOM      3  C3  BNZ d   1       0.059   0.070  -0.029  0.00  0.00     0.000 A 
ATOM      4  C4  BNZ d   1       1.360  -0.242  -0.201  0.00  0.00     0.000 A 
ATOM      5  C5  BNZ d   1       1.893  -1.368   0.394  0.00  0.00     0.000 A 
ATOM      6  C6  BNZ d   1       1.093  -2.184   1.161  0.00  0.00     0.000 A 
ENDROOT
TORSDOF 0
ENDMDL
