MODEL 1
REMARK minimizedAffinity -4.66441536
REMARK minimizedRMSD -1
REMARK  0 active torsions:
REMARK  status: ('A' for Active; 'I' for Inactive)
ROOT
ATOM      1  C1  BNZ d   1      -0.278  -1.125  -0.304  0.00  0.00     0.000 A 
ATOM      2  C2  BNZ d   1       0.203  -2.326   0.145  0.00  0.00     0.000 A 
ATOM      3  C3  BNZ d   1       1.510  -2.461   0.521  0.00  0.00     0.000 A 
ATOM      4  C4  BNZ d   1       2.343  -1.406   0.409  0.00  0.00     0.000 A 
ATOM      5  C5  BNZ d   1       1.876  -0.191  -0.050  0.00  0.00     0.000 A 
ATOM      6  C6  BNZ d   1       0.550  -0.049  -0.391  0.00  0.00     0.000 A 
ENDROOT
TORSDOF 0
ENDMDL
