MODEL 1
REMARK minimizedAffinity -4.00189161
REMARK minimizedRMSD -1
REMARK  0 active torsions:
REMARK  status: ('A' for Active; 'I' for Inactive)
ROOT
ATOM      1  C1  BNZ d   1       1.923  -0.505   0.079  0.00  0.00     0.000 A 
ATOM      2  C2  BNZ d   1       0.563  -0.356   0.129  0.00  0.00     0.000 A 
ATOM      3  C3  BNZ d   1      -0.221  -1.291   0.745  0.00  0.00     0.000 A 
ATOM      4  C4  BNZ d   1       0.352  -2.391   1.275  0.00  0.00     0.000 A 
ATOM      5  C5  BNZ d   1       1.721  -2.560   1.225  0.00  0.00     0.000 A 
ATOM      6  C6  BNZ d   1       2.510  -1.598   0.638  0.00  0.00     0.000 A 
ENDROOT
TORSDOF 0
ENDMDL
