MODEL 1
REMARK minimizedAffinity -4.53466225
REMARK minimizedRMSD -1
REMARK  0 active torsions:
REMARK  status: ('A' for Active; 'I' for Inactive)
ROOT
ATOM      1  C1  BNZ d   1       1.515  -0.274   0.451  0.00  0.00     0.000 A 
ATOM      2  C2  BNZ d   1       2.163  -1.472   0.591  0.00  0.00     0.000 A 
ATOM      3  C3  BNZ d   1       1.497  -2.653   0.415  0.00  0.00     0.000 A 
ATOM      4  C4  BNZ d   1       0.177  -2.635   0.140  0.00  0.00     0.000 A 
ATOM      5  C5  BNZ d   1      -0.493  -1.436   0.005  0.00  0.00     0.000 A 
ATOM      6  C6  BNZ d   1       0.189  -0.248   0.144  0.00  0.00     0.000 A 
ENDROOT
TORSDOF 0
ENDMDL
