MODEL 1
REMARK minimizedAffinity -3.53218293
REMARK minimizedRMSD -1
REMARK  0 active torsions:
REMARK  status: ('A' for Active; 'I' for Inactive)
ROOT
ATOM      1  C1  BNZ d   1       0.741  -0.536  -0.122  0.00  0.00     0.000 A 
ATOM      2  C2  BNZ d   1       0.032  -1.627   0.304  0.00  0.00     0.000 A 
ATOM      3  C3  BNZ d   1       0.594  -2.539   1.153  0.00  0.00     0.000 A 
ATOM      4  C4  BNZ d   1       1.876  -2.380   1.542  0.00  0.00     0.000 A 
ATOM      5  C5  BNZ d   1       2.607  -1.290   1.114  0.00  0.00     0.000 A 
ATOM      6  C6  BNZ d   1       2.025  -0.354   0.291  0.00  0.00     0.000 A 
ENDROOT
TORSDOF 0
ENDMDL
