MODEL 1
REMARK minimizedAffinity -4.11025667
REMARK minimizedRMSD -1
REMARK  0 active torsions:
REMARK  status: ('A' for Active; 'I' for Inactive)
ROOT
ATOM      1  C1  BNZ d   1      -0.213  -1.234   1.119  0.00  0.00     0.000 A 
ATOM      2  C2  BNZ d   1       0.378  -2.307   1.733  0.00  0.00     0.000 A 
ATOM      3  C3  BNZ d   1       1.719  -2.535   1.606  0.00  0.00     0.000 A 
ATOM      4  C4  BNZ d   1       2.461  -1.714   0.834  0.00  0.00     0.000 A 
ATOM      5  C5  BNZ d   1       1.879  -0.633   0.202  0.00  0.00     0.000 A 
ATOM      6  C6  BNZ d   1       0.535  -0.385   0.364  0.00  0.00     0.000 A 
ENDROOT
TORSDOF 0
ENDMDL
