MODEL 1
REMARK minimizedAffinity -4.72479582
REMARK minimizedRMSD -1
REMARK  0 active torsions:
REMARK  status: ('A' for Active; 'I' for Inactive)
ROOT
ATOM      1  C1  BNZ d   1      -0.506  -1.217   1.228  0.00  0.00     0.000 A 
ATOM      2  C2  BNZ d   1      -0.824   0.059   0.845  0.00  0.00     0.000 A 
ATOM      3  C3  BNZ d   1       0.011   0.775   0.033  0.00  0.00     0.000 A 
ATOM      4  C4  BNZ d   1       1.179   0.230  -0.362  0.00  0.00     0.000 A 
ATOM      5  C5  BNZ d   1       1.519  -1.052   0.023  0.00  0.00     0.000 A 
ATOM      6  C6  BNZ d   1       0.658  -1.784   0.809  0.00  0.00     0.000 A 
ENDROOT
TORSDOF 0
ENDMDL
