MODEL 1
REMARK minimizedAffinity 0.461563021
REMARK minimizedRMSD -1
REMARK  0 active torsions:
REMARK  status: ('A' for Active; 'I' for Inactive)
ROOT
ATOM      1  C1  BNZ d   1      -0.428   0.902   1.444  0.00  0.00     0.000 A 
ATOM      2  C2  BNZ d   1      -0.749  -0.278   2.060  0.00  0.00     0.000 A 
ATOM      3  C3  BNZ d   1      -0.798  -1.447   1.353  0.00  0.00     0.000 A 
ATOM      4  C4  BNZ d   1      -0.565  -1.428   0.025  0.00  0.00     0.000 A 
ATOM      5  C5  BNZ d   1      -0.250  -0.245  -0.613  0.00  0.00     0.000 A 
ATOM      6  C6  BNZ d   1      -0.163   0.923   0.109  0.00  0.00     0.000 A 
ENDROOT
TORSDOF 0
ENDMDL
