MODEL 1
REMARK minimizedAffinity -2.09125352
REMARK minimizedRMSD -1
REMARK  0 active torsions:
REMARK  status: ('A' for Active; 'I' for Inactive)
ROOT
ATOM      1  C1  BNZ d   1       0.869  -0.489   0.194  0.00  0.00     0.000 A 
ATOM      2  C2  BNZ d   1       0.565   0.827   0.422  0.00  0.00     0.000 A 
ATOM      3  C3  BNZ d   1      -0.478   1.426  -0.228  0.00  0.00     0.000 A 
ATOM      4  C4  BNZ d   1      -1.188   0.722  -1.133  0.00  0.00     0.000 A 
ATOM      5  C5  BNZ d   1      -0.888  -0.603  -1.380  0.00  0.00     0.000 A 
ATOM      6  C6  BNZ d   1       0.138  -1.214  -0.695  0.00  0.00     0.000 A 
ENDROOT
TORSDOF 0
ENDMDL
