MODEL 1
REMARK minimizedAffinity -3.48594809
REMARK minimizedRMSD -1
REMARK  0 active torsions:
REMARK  status: ('A' for Active; 'I' for Inactive)
ROOT
ATOM      1  C1  BNZ d   1       2.124  -1.242   0.360  0.00  0.00     0.000 A 
ATOM      2  C2  BNZ d   1       1.370  -2.276   0.850  0.00  0.00     0.000 A 
ATOM      3  C3  BNZ d   1       0.007  -2.251   0.760  0.00  0.00     0.000 A 
ATOM      4  C4  BNZ d   1      -0.603  -1.176   0.218  0.00  0.00     0.000 A 
ATOM      5  C5  BNZ d   1       0.143  -0.122  -0.271  0.00  0.00     0.000 A 
ATOM      6  C6  BNZ d   1       1.517  -0.168  -0.214  0.00  0.00     0.000 A 
ENDROOT
TORSDOF 0
ENDMDL
