MODEL 1
REMARK minimizedAffinity -2.69322634
REMARK minimizedRMSD -1
REMARK  1 active torsions:
REMARK  status: ('A' for Active; 'I' for Inactive)
REMARK    1  A    between atoms: C1_2  and  C2_3 
ROOT
ATOM      1  C2  UNL d   1       0.157  -0.088   0.022  0.00  0.00    -0.076 A 
ATOM      2  C3  UNL d   1       0.694   1.123  -0.450  0.00  0.00     0.004 A 
ATOM      3  C4  UNL d   1       2.064   1.369  -0.394  0.00  0.00    -0.003 A 
ATOM      4  C5  UNL d   1       2.921   0.409   0.133  0.00  0.00     0.000 A 
ATOM      5  C6  UNL d   1       2.408  -0.805   0.589  0.00  0.00     0.000 A 
ATOM      6  C7  UNL d   1       1.030  -1.076   0.525  0.00  0.00    -0.073 A 
ATOM      7  C8  UNL d   1       0.530  -2.399   1.037  0.00  0.00     0.078 C 
ENDROOT
BRANCH   1   8
ATOM      8  C1  UNL d   1      -1.341  -0.288  -0.039  0.00  0.00     0.053 C 
ATOM      9  C   UNL d   1      -1.849  -0.456  -1.462  0.00  0.00     0.018 C 
ENDBRANCH   1   8
TORSDOF 1
ENDMDL
