MODEL 1
REMARK minimizedAffinity -5.28272963
REMARK minimizedRMSD -1
REMARK  1 active torsions:
REMARK  status: ('A' for Active; 'I' for Inactive)
REMARK    1  A    between atoms: C1_2  and  C2_3 
ROOT
ATOM      1  C2  UNL d   1       1.105  -0.447   0.862  0.00  0.00    -0.076 A 
ATOM      2  C3  UNL d   1       2.383   0.133   0.920  0.00  0.00     0.004 A 
ATOM      3  C4  UNL d   1       2.591   1.454   0.526  0.00  0.00    -0.003 A 
ATOM      4  C5  UNL d   1       1.522   2.216   0.066  0.00  0.00     0.000 A 
ATOM      5  C6  UNL d   1       0.243   1.662   0.018  0.00  0.00     0.000 A 
ATOM      6  C7  UNL d   1       0.014   0.337   0.428  0.00  0.00    -0.073 A 
ATOM      7  C8  UNL d   1      -1.384  -0.212   0.349  0.00  0.00     0.078 C 
ENDROOT
BRANCH   1   8
ATOM      8  C1  UNL d   1       0.945  -1.892   1.278  0.00  0.00     0.053 C 
ATOM      9  C   UNL d   1       1.929  -2.298   2.365  0.00  0.00     0.018 C 
ENDBRANCH   1   8
TORSDOF 1
ENDMDL
