MODEL 1
REMARK minimizedAffinity -5.23400021
REMARK minimizedRMSD -1
REMARK  1 active torsions:
REMARK  status: ('A' for Active; 'I' for Inactive)
REMARK    1  A    between atoms: C1_2  and  C2_3 
ROOT
ATOM      1  C2  UNL d   1      -0.531   0.369  -0.324  0.00  0.00    -0.081 A 
ATOM      2  C3  UNL d   1      -0.022  -0.935  -0.288  0.00  0.00     0.006 A 
ATOM      3  C4  UNL d   1       1.256  -1.210  -0.779  0.00  0.00     0.002 A 
ATOM      4  C5  UNL d   1       2.049  -0.186  -1.307  0.00  0.00    -0.080 A 
ATOM      5  C6  UNL d   1       3.435  -0.462  -1.811  0.00  0.00     0.076 C 
ATOM      6  C7  UNL d   1       1.534   1.114  -1.359  0.00  0.00     0.002 A 
ATOM      7  C8  UNL d   1       0.256   1.389  -0.868  0.00  0.00     0.006 A 
ENDROOT
BRANCH   1   8
ATOM      8  C1  UNL d   1      -1.883   0.680   0.265  0.00  0.00     0.054 C 
ATOM      9  C   UNL d   1      -1.963   0.254   1.724  0.00  0.00     0.018 C 
ENDBRANCH   1   8
TORSDOF 1
ENDMDL
