MODEL 1
REMARK minimizedAffinity -4.14717102
REMARK minimizedRMSD -1
REMARK  1 active torsions:
REMARK  status: ('A' for Active; 'I' for Inactive)
REMARK    1  A    between atoms: C1_2  and  C2_3 
ROOT
ATOM      1  C2  UNL d   1       0.125   0.415  -0.580  0.00  0.00    -0.081 A 
ATOM      2  C3  UNL d   1       1.004  -0.346   0.200  0.00  0.00     0.006 A 
ATOM      3  C4  UNL d   1       2.299  -0.615  -0.251  0.00  0.00     0.002 A 
ATOM      4  C5  UNL d   1       2.738  -0.121  -1.484  0.00  0.00    -0.080 A 
ATOM      5  C6  UNL d   1       4.135  -0.377  -1.965  0.00  0.00     0.076 C 
ATOM      6  C7  UNL d   1       1.854   0.625  -2.271  0.00  0.00     0.002 A 
ATOM      7  C8  UNL d   1       0.559   0.893  -1.821  0.00  0.00     0.006 A 
ENDROOT
BRANCH   1   8
ATOM      8  C1  UNL d   1      -1.250   0.761  -0.068  0.00  0.00     0.054 C 
ATOM      9  C   UNL d   1      -1.243   0.971   1.439  0.00  0.00     0.018 C 
ENDBRANCH   1   8
TORSDOF 1
ENDMDL
