MODEL 1
REMARK minimizedAffinity -2.93663883
REMARK minimizedRMSD -1
REMARK  1 active torsions:
REMARK  status: ('A' for Active; 'I' for Inactive)
REMARK    1  A    between atoms: C1_2  and  C2_3 
ROOT
ATOM      1  C2  UNL d   1      -0.587   0.755   1.296  0.00  0.00    -0.081 A 
ATOM      2  C3  UNL d   1       0.767   0.462   1.502  0.00  0.00     0.006 A 
ATOM      3  C4  UNL d   1       1.419  -0.476   0.697  0.00  0.00     0.002 A 
ATOM      4  C5  UNL d   1       0.731  -1.129  -0.331  0.00  0.00    -0.080 A 
ATOM      5  C6  UNL d   1       1.427  -2.115  -1.221  0.00  0.00     0.076 C 
ATOM      6  C7  UNL d   1      -0.626  -0.849  -0.525  0.00  0.00     0.002 A 
ATOM      7  C8  UNL d   1      -1.279   0.088   0.280  0.00  0.00     0.006 A 
ENDROOT
BRANCH   1   8
ATOM      8  C1  UNL d   1      -1.276   1.812   2.120  0.00  0.00     0.054 C 
ATOM      9  C   UNL d   1      -2.132   1.191   3.215  0.00  0.00     0.018 C 
ENDBRANCH   1   8
TORSDOF 1
ENDMDL
