MODEL 1
REMARK minimizedAffinity -4.51164722
REMARK minimizedRMSD -1
REMARK  1 active torsions:
REMARK  status: ('A' for Active; 'I' for Inactive)
REMARK    1  A    between atoms: C1_2  and  C2_3 
ROOT
ATOM      1  C2  UNL d   1      -0.334  -0.178   0.642  0.00  0.00    -0.081 A 
ATOM      2  C3  UNL d   1       0.748   0.617   1.040  0.00  0.00     0.006 A 
ATOM      3  C4  UNL d   1       1.986   0.499   0.404  0.00  0.00     0.002 A 
ATOM      4  C5  UNL d   1       2.161  -0.409  -0.646  0.00  0.00    -0.080 A 
ATOM      5  C6  UNL d   1       3.476  -0.524  -1.358  0.00  0.00     0.076 C 
ATOM      6  C7  UNL d   1       1.085  -1.215  -1.033  0.00  0.00     0.002 A 
ATOM      7  C8  UNL d   1      -0.153  -1.098  -0.397  0.00  0.00     0.006 A 
ENDROOT
BRANCH   1   8
ATOM      8  C1  UNL d   1      -1.687  -0.007   1.283  0.00  0.00     0.054 C 
ATOM      9  C   UNL d   1      -1.599   0.841   2.543  0.00  0.00     0.018 C 
ENDBRANCH   1   8
TORSDOF 1
ENDMDL
