MODEL 1
REMARK minimizedAffinity -1.03341877
REMARK minimizedRMSD -1
REMARK  1 active torsions:
REMARK  status: ('A' for Active; 'I' for Inactive)
REMARK    1  A    between atoms: C1_2  and  C2_3 
ROOT
ATOM      1  C2  UNL d   1      -0.482   0.343   0.763  0.00  0.00    -0.081 A 
ATOM      2  C3  UNL d   1      -0.877  -0.815   0.081  0.00  0.00     0.006 A 
ATOM      3  C4  UNL d   1      -0.024  -1.414  -0.849  0.00  0.00     0.002 A 
ATOM      4  C5  UNL d   1       1.240  -0.871  -1.107  0.00  0.00    -0.080 A 
ATOM      5  C6  UNL d   1       2.177  -1.521  -2.080  0.00  0.00     0.076 C 
ATOM      6  C7  UNL d   1       1.627   0.296  -0.438  0.00  0.00     0.002 A 
ATOM      7  C8  UNL d   1       0.774   0.895   0.491  0.00  0.00     0.006 A 
ENDROOT
BRANCH   1   8
ATOM      8  C1  UNL d   1      -1.374   0.954   1.813  0.00  0.00     0.054 C 
ATOM      9  C   UNL d   1      -2.470  -0.011   2.239  0.00  0.00     0.018 C 
ENDBRANCH   1   8
TORSDOF 1
ENDMDL
