MODEL 1
REMARK minimizedAffinity -4.32813644
REMARK minimizedRMSD -1
REMARK  1 active torsions:
REMARK  status: ('A' for Active; 'I' for Inactive)
REMARK    1  A    between atoms: C1_2  and  C2_3 
ROOT
ATOM      1  C2  UNL d   1      -0.931  -0.159   1.213  0.00  0.00    -0.081 A 
ATOM      2  C3  UNL d   1      -0.041   0.779   0.676  0.00  0.00     0.006 A 
ATOM      3  C4  UNL d   1       0.870   0.403  -0.314  0.00  0.00     0.002 A 
ATOM      4  C5  UNL d   1       0.902  -0.912  -0.788  0.00  0.00    -0.080 A 
ATOM      5  C6  UNL d   1       1.854  -1.321  -1.872  0.00  0.00     0.076 C 
ATOM      6  C7  UNL d   1       0.024  -1.854  -0.239  0.00  0.00     0.002 A 
ATOM      7  C8  UNL d   1      -0.887  -1.479   0.751  0.00  0.00     0.006 A 
ENDROOT
BRANCH   1   8
ATOM      8  C1  UNL d   1      -1.959   0.257   2.235  0.00  0.00     0.054 C 
ATOM      9  C   UNL d   1      -1.557   1.551   2.928  0.00  0.00     0.018 C 
ENDBRANCH   1   8
TORSDOF 1
ENDMDL
