MODEL 1
REMARK minimizedAffinity -1.77751541
REMARK minimizedRMSD -1
REMARK  1 active torsions:
REMARK  status: ('A' for Active; 'I' for Inactive)
REMARK    1  A    between atoms: C1_2  and  C2_3 
ROOT
ATOM      1  C2  UNL d   1      -1.242   0.263   0.812  0.00  0.00    -0.081 A 
ATOM      2  C3  UNL d   1      -0.835  -0.959   0.262  0.00  0.00     0.006 A 
ATOM      3  C4  UNL d   1       0.406  -1.073  -0.369  0.00  0.00     0.002 A 
ATOM      4  C5  UNL d   1       1.263   0.029  -0.454  0.00  0.00    -0.080 A 
ATOM      5  C6  UNL d   1       2.611  -0.088  -1.102  0.00  0.00     0.076 C 
ATOM      6  C7  UNL d   1       0.849   1.254   0.080  0.00  0.00     0.002 A 
ATOM      7  C8  UNL d   1      -0.392   1.369   0.710  0.00  0.00     0.006 A 
ENDROOT
BRANCH   1   8
ATOM      8  C1  UNL d   1      -2.552   0.374   1.550  0.00  0.00     0.054 C 
ATOM      9  C   UNL d   1      -2.369   1.042   2.904  0.00  0.00     0.018 C 
ENDBRANCH   1   8
TORSDOF 1
ENDMDL
