MODEL 1
REMARK minimizedAffinity -3.03025198
REMARK minimizedRMSD -1
REMARK  1 active torsions:
REMARK  status: ('A' for Active; 'I' for Inactive)
REMARK    1  A    between atoms: C1_2  and  C2_3 
ROOT
ATOM      1  C2  UNL d   1       1.572  -0.080  -1.447  0.00  0.00    -0.081 A 
ATOM      2  C3  UNL d   1       1.228   0.993  -0.615  0.00  0.00     0.006 A 
ATOM      3  C4  UNL d   1       0.182   0.870   0.303  0.00  0.00     0.002 A 
ATOM      4  C5  UNL d   1      -0.532  -0.328   0.409  0.00  0.00    -0.080 A 
ATOM      5  C6  UNL d   1      -1.637  -0.483   1.412  0.00  0.00     0.076 C 
ATOM      6  C7  UNL d   1      -0.200  -1.394  -0.434  0.00  0.00     0.002 A 
ATOM      7  C8  UNL d   1       0.845  -1.272  -1.352  0.00  0.00     0.006 A 
ENDROOT
BRANCH   1   8
ATOM      8  C1  UNL d   1       2.741   0.028  -2.392  0.00  0.00     0.054 C 
ATOM      9  C   UNL d   1       2.279   0.328  -3.811  0.00  0.00     0.018 C 
ENDBRANCH   1   8
TORSDOF 1
ENDMDL
