MODEL 1
REMARK minimizedAffinity -4.53123188
REMARK minimizedRMSD -1
REMARK  1 active torsions:
REMARK  status: ('A' for Active; 'I' for Inactive)
REMARK    1  A    between atoms: C1_2  and  C2_3 
ROOT
ATOM      1  C2  UNL d   1      -0.806   0.199   1.208  0.00  0.00    -0.081 A 
ATOM      2  C3  UNL d   1      -0.186   1.111   0.344  0.00  0.00     0.006 A 
ATOM      3  C4  UNL d   1       0.801   0.684  -0.547  0.00  0.00     0.002 A 
ATOM      4  C5  UNL d   1       1.179  -0.662  -0.597  0.00  0.00    -0.080 A 
ATOM      5  C6  UNL d   1       2.215  -1.138  -1.570  0.00  0.00     0.076 C 
ATOM      6  C7  UNL d   1       0.572  -1.570   0.278  0.00  0.00     0.002 A 
ATOM      7  C8  UNL d   1      -0.414  -1.144   1.170  0.00  0.00     0.006 A 
ENDROOT
BRANCH   1   8
ATOM      8  C1  UNL d   1      -1.916   0.644   2.125  0.00  0.00     0.054 C 
ATOM      9  C   UNL d   1      -1.644   2.031   2.690  0.00  0.00     0.018 C 
ENDBRANCH   1   8
TORSDOF 1
ENDMDL
