MODEL 1
REMARK minimizedAffinity 2.5043273
REMARK minimizedRMSD -1
REMARK  0 active torsions:
REMARK  status: ('A' for Active; 'I' for Inactive)
ROOT
ATOM      1  C1  DEN d   1      -0.311  -1.893   4.190  0.00  0.00     0.130 A 
ATOM      2  C2  DEN d   1       1.040  -2.269   4.597  0.00  0.00    -0.031 A 
ATOM      3  C3  DEN d   1       1.994  -1.582   3.704  0.00  0.00     0.027 A 
ATOM      4  C4  DEN d   1       1.514   0.025   1.744  0.00  0.00     0.027 A 
ATOM      5  C5  DEN d   1       0.520   0.637   1.012  0.00  0.00    -0.003 A 
ATOM      6  C6  DEN d   1      -0.809   0.424   1.264  0.00  0.00     0.001 A 
ATOM      7  C7  DEN d   1      -1.182  -0.388   2.303  0.00  0.00     0.017 A 
ATOM      8  C8  DEN d   1      -0.186  -1.014   3.041  0.00  0.00    -0.094 A 
ATOM      9  C9  DEN d   1       1.153  -0.776   2.778  0.00  0.00    -0.072 A 
ENDROOT
TORSDOF 0
ENDMDL
