MODEL 1
REMARK minimizedAffinity 6.54889059
REMARK minimizedRMSD -1
REMARK  0 active torsions:
REMARK  status: ('A' for Active; 'I' for Inactive)
ROOT
ATOM      1  C1  DEN d   1      -3.280  -0.902  -0.732  0.00  0.00     0.130 A 
ATOM      2  C2  DEN d   1      -3.657   0.350  -1.381  0.00  0.00    -0.031 A 
ATOM      3  C3  DEN d   1      -2.866   1.437  -0.771  0.00  0.00     0.027 A 
ATOM      4  C4  DEN d   1      -1.098   1.302   1.103  0.00  0.00     0.027 A 
ATOM      5  C5  DEN d   1      -0.447   0.456   1.973  0.00  0.00    -0.003 A 
ATOM      6  C6  DEN d   1      -0.716  -0.886   2.025  0.00  0.00     0.001 A 
ATOM      7  C7  DEN d   1      -1.630  -1.429   1.161  0.00  0.00     0.017 A 
ATOM      8  C8  DEN d   1      -2.296  -0.581   0.286  0.00  0.00    -0.094 A 
ATOM      9  C9  DEN d   1      -2.000   0.771   0.240  0.00  0.00    -0.072 A 
ENDROOT
TORSDOF 0
ENDMDL
