MODEL 1
REMARK minimizedAffinity 0.170378223
REMARK minimizedRMSD -1
REMARK  0 active torsions:
REMARK  status: ('A' for Active; 'I' for Inactive)
ROOT
ATOM      1  C1  DEN d   1       1.787  -0.403   3.372  0.00  0.00     0.130 A 
ATOM      2  C2  DEN d   1       1.565  -1.682   4.041  0.00  0.00    -0.031 A 
ATOM      3  C3  DEN d   1       0.213  -2.157   3.681  0.00  0.00     0.027 A 
ATOM      4  C4  DEN d   1      -1.545  -1.044   2.157  0.00  0.00     0.027 A 
ATOM      5  C5  DEN d   1      -1.816   0.056   1.373  0.00  0.00    -0.003 A 
ATOM      6  C6  DEN d   1      -0.926   1.088   1.230  0.00  0.00     0.001 A 
ATOM      7  C7  DEN d   1       0.297   1.019   1.843  0.00  0.00     0.017 A 
ATOM      8  C8  DEN d   1       0.575  -0.083   2.641  0.00  0.00    -0.094 A 
ATOM      9  C9  DEN d   1      -0.333  -1.121   2.763  0.00  0.00    -0.072 A 
ENDROOT
TORSDOF 0
ENDMDL
