MODEL 1
REMARK minimizedAffinity 1.13537621
REMARK minimizedRMSD -1
REMARK  0 active torsions:
REMARK  status: ('A' for Active; 'I' for Inactive)
ROOT
ATOM      1  C1  DEN d   1       2.113  -1.492   3.617  0.00  0.00     0.130 A 
ATOM      2  C2  DEN d   1       1.307  -2.375   4.457  0.00  0.00    -0.031 A 
ATOM      3  C3  DEN d   1      -0.116  -2.114   4.159  0.00  0.00     0.027 A 
ATOM      4  C4  DEN d   1      -1.144  -0.443   2.484  0.00  0.00     0.027 A 
ATOM      5  C5  DEN d   1      -0.859   0.532   1.554  0.00  0.00    -0.003 A 
ATOM      6  C6  DEN d   1       0.424   0.921   1.273  0.00  0.00     0.001 A 
ATOM      7  C7  DEN d   1       1.473   0.300   1.897  0.00  0.00     0.017 A 
ATOM      8  C8  DEN d   1       1.194  -0.678   2.841  0.00  0.00    -0.094 A 
ATOM      9  C9  DEN d   1      -0.109  -1.067   3.103  0.00  0.00    -0.072 A 
ENDROOT
TORSDOF 0
ENDMDL
