MODEL 1
REMARK minimizedAffinity 5.30484867
REMARK minimizedRMSD -1
REMARK  0 active torsions:
REMARK  status: ('A' for Active; 'I' for Inactive)
ROOT
ATOM      1  C1  DEN d   1       1.550  -0.314   1.926  0.00  0.00     0.130 A 
ATOM      2  C2  DEN d   1       1.844  -1.266   2.994  0.00  0.00    -0.031 A 
ATOM      3  C3  DEN d   1       0.561  -1.753   3.537  0.00  0.00     0.027 A 
ATOM      4  C4  DEN d   1      -1.841  -1.132   2.830  0.00  0.00     0.027 A 
ATOM      5  C5  DEN d   1      -2.595  -0.358   1.977  0.00  0.00    -0.003 A 
ATOM      6  C6  DEN d   1      -2.025   0.504   1.077  0.00  0.00     0.001 A 
ATOM      7  C7  DEN d   1      -0.661   0.578   0.979  0.00  0.00     0.017 A 
ATOM      8  C8  DEN d   1       0.106  -0.194   1.841  0.00  0.00    -0.094 A 
ATOM      9  C9  DEN d   1      -0.489  -1.068   2.735  0.00  0.00    -0.072 A 
ENDROOT
TORSDOF 0
ENDMDL
