MODEL 1
REMARK minimizedAffinity 13.1985083
REMARK minimizedRMSD -1
REMARK  2 active torsions:
REMARK  status: ('A' for Active; 'I' for Inactive)
REMARK    1  A    between atoms: C2'_3  and  C1'_4 
REMARK    2  A    between atoms: C1'_4  and  C1_5 
ROOT
ATOM      1  C1  I4B d   1       1.341   0.550   0.577  0.00  0.00    -0.075 A 
ATOM      2  C2  I4B d   1       0.960   0.886   1.853  0.00  0.00     0.003 A 
ATOM      3  C3  I4B d   1      -0.262   1.565   2.076  0.00  0.00     0.002 A 
ATOM      4  C4  I4B d   1      -1.043   1.931   0.999  0.00  0.00    -0.004 A 
ATOM      5  C5  I4B d   1      -0.667   1.571  -0.291  0.00  0.00     0.002 A 
ATOM      6  C6  I4B d   1       0.526   0.865  -0.503  0.00  0.00     0.003 A 
ENDROOT
BRANCH   1   7
ATOM      7  C1' I4B d   1       2.653  -0.137   0.374  0.00  0.00     0.060 C 
BRANCH   7   8
ATOM      8  C2' I4B d   1       3.435   0.646  -0.661  0.00  0.00    -0.013 C 
ATOM      9  C4' I4B d   1       4.737   1.149  -0.095  0.00  0.00     0.013 C 
ATOM     10  C3' I4B d   1       3.668  -0.250  -1.841  0.00  0.00     0.013 C 
ENDBRANCH   7   8
ENDBRANCH   1   7
TORSDOF 2
ENDMDL
