MODEL 1
REMARK minimizedAffinity 19.1832561
REMARK minimizedRMSD -1
REMARK  2 active torsions:
REMARK  status: ('A' for Active; 'I' for Inactive)
REMARK    1  A    between atoms: C2'_3  and  C1'_4 
REMARK    2  A    between atoms: C1'_4  and  C1_5 
ROOT
ATOM      1  C1  I4B d   1      -1.381  -2.503  -2.558  0.00  0.00    -0.075 A 
ATOM      2  C2  I4B d   1      -0.014  -2.383  -2.565  0.00  0.00     0.003 A 
ATOM      3  C3  I4B d   1       0.803  -3.534  -2.449  0.00  0.00     0.002 A 
ATOM      4  C4  I4B d   1       0.215  -4.771  -2.278  0.00  0.00    -0.004 A 
ATOM      5  C5  I4B d   1      -1.172  -4.893  -2.294  0.00  0.00     0.002 A 
ATOM      6  C6  I4B d   1      -1.975  -3.753  -2.448  0.00  0.00     0.003 A 
ENDROOT
BRANCH   1   7
ATOM      7  C1' I4B d   1      -2.213  -1.263  -2.650  0.00  0.00     0.060 C 
BRANCH   7   8
ATOM      8  C2' I4B d   1      -1.330  -0.146  -3.167  0.00  0.00    -0.013 C 
ATOM      9  C4' I4B d   1      -2.108   0.804  -4.040  0.00  0.00     0.013 C 
ATOM     10  C3' I4B d   1      -0.742   0.564  -1.984  0.00  0.00     0.013 C 
ENDBRANCH   7   8
ENDBRANCH   1   7
TORSDOF 2
ENDMDL
