MODEL 1
REMARK minimizedAffinity 3.2818377
REMARK minimizedRMSD -1
REMARK  2 active torsions:
REMARK  status: ('A' for Active; 'I' for Inactive)
REMARK    1  A    between atoms: C2'_3  and  C1'_4 
REMARK    2  A    between atoms: C1'_4  and  C1_5 
ROOT
ATOM      1  C1  I4B d   1      -3.872   1.875  -0.375  0.00  0.00    -0.075 A 
ATOM      2  C2  I4B d   1      -3.839   3.210  -0.692  0.00  0.00     0.003 A 
ATOM      3  C3  I4B d   1      -4.907   3.798  -1.411  0.00  0.00     0.002 A 
ATOM      4  C4  I4B d   1      -5.957   3.010  -1.834  0.00  0.00    -0.004 A 
ATOM      5  C5  I4B d   1      -6.000   1.661  -1.492  0.00  0.00     0.002 A 
ATOM      6  C6  I4B d   1      -4.957   1.092  -0.747  0.00  0.00     0.003 A 
ENDROOT
BRANCH   1   7
ATOM      7  C1' I4B d   1      -2.711   1.279   0.357  0.00  0.00     0.060 C 
BRANCH   7   8
ATOM      8  C2' I4B d   1      -1.460   2.021  -0.068  0.00  0.00    -0.013 C 
ATOM      9  C4' I4B d   1      -0.949   2.905   1.039  0.00  0.00     0.013 C 
ATOM     10  C3' I4B d   1      -0.433   1.004  -0.467  0.00  0.00     0.013 C 
ENDBRANCH   7   8
ENDBRANCH   1   7
TORSDOF 2
ENDMDL
