MODEL 1
REMARK minimizedAffinity 20.3915482
REMARK minimizedRMSD -1
REMARK  2 active torsions:
REMARK  status: ('A' for Active; 'I' for Inactive)
REMARK    1  A    between atoms: C2'_3  and  C1'_4 
REMARK    2  A    between atoms: C1'_4  and  C1_5 
ROOT
ATOM      1  C1  I4B d   1      -5.472   2.651   4.058  0.00  0.00    -0.075 A 
ATOM      2  C2  I4B d   1      -5.706   2.748   5.408  0.00  0.00     0.003 A 
ATOM      3  C3  I4B d   1      -5.999   4.004   5.991  0.00  0.00     0.002 A 
ATOM      4  C4  I4B d   1      -6.000   5.137   5.203  0.00  0.00    -0.004 A 
ATOM      5  C5  I4B d   1      -5.786   5.033   3.831  0.00  0.00     0.002 A 
ATOM      6  C6  I4B d   1      -5.533   3.781   3.253  0.00  0.00     0.003 A 
ENDROOT
BRANCH   1   7
ATOM      7  C1' I4B d   1      -5.133   1.314   3.480  0.00  0.00     0.060 C 
BRANCH   7   8
ATOM      8  C2' I4B d   1      -4.318   1.542   2.223  0.00  0.00    -0.013 C 
ATOM      9  C4' I4B d   1      -2.884   1.126   2.420  0.00  0.00     0.013 C 
ATOM     10  C3' I4B d   1      -4.959   0.768   1.110  0.00  0.00     0.013 C 
ENDBRANCH   7   8
ENDBRANCH   1   7
TORSDOF 2
ENDMDL
