MODEL 1
REMARK minimizedAffinity 14.0429325
REMARK minimizedRMSD -1
REMARK  2 active torsions:
REMARK  status: ('A' for Active; 'I' for Inactive)
REMARK    1  A    between atoms: C2'_3  and  C1'_4 
REMARK    2  A    between atoms: C1'_4  and  C1_5 
ROOT
ATOM      1  C1  I4B d   1       1.441   1.119   3.675  0.00  0.00    -0.075 A 
ATOM      2  C2  I4B d   1       0.851   1.048   4.913  0.00  0.00     0.003 A 
ATOM      3  C3  I4B d   1       1.384   1.781   6.000  0.00  0.00     0.002 A 
ATOM      4  C4  I4B d   1       2.530   2.529   5.818  0.00  0.00    -0.004 A 
ATOM      5  C5  I4B d   1       3.113   2.618   4.558  0.00  0.00     0.002 A 
ATOM      6  C6  I4B d   1       2.558   1.919   3.476  0.00  0.00     0.003 A 
ENDROOT
BRANCH   1   7
ATOM      7  C1' I4B d   1       0.871   0.305   2.557  0.00  0.00     0.060 C 
BRANCH   7   8
ATOM      8  C2' I4B d   1       1.346   0.908   1.251  0.00  0.00    -0.013 C 
ATOM      9  C4' I4B d   1       2.347   0.013   0.569  0.00  0.00     0.013 C 
ATOM     10  C3' I4B d   1       0.145   1.139   0.383  0.00  0.00     0.013 C 
ENDBRANCH   7   8
ENDBRANCH   1   7
TORSDOF 2
ENDMDL
