MODEL 1
REMARK minimizedAffinity 11.9390726
REMARK minimizedRMSD -1
REMARK  2 active torsions:
REMARK  status: ('A' for Active; 'I' for Inactive)
REMARK    1  A    between atoms: C2'_3  and  C1'_4 
REMARK    2  A    between atoms: C1'_4  and  C1_5 
ROOT
ATOM      1  C1  I4B d   1       3.578   0.052  -0.585  0.00  0.00    -0.075 A 
ATOM      2  C2  I4B d   1       3.934   0.239   0.728  0.00  0.00     0.003 A 
ATOM      3  C3  I4B d   1       5.149   0.891   1.051  0.00  0.00     0.002 A 
ATOM      4  C4  I4B d   1       5.996   1.291   0.038  0.00  0.00    -0.004 A 
ATOM      5  C5  I4B d   1       5.622   1.121  -1.292  0.00  0.00     0.002 A 
ATOM      6  C6  I4B d   1       4.400   0.509  -1.606  0.00  0.00     0.003 A 
ENDROOT
BRANCH   1   7
ATOM      7  C1' I4B d   1       2.303  -0.669  -0.890  0.00  0.00     0.060 C 
BRANCH   7   8
ATOM      8  C2' I4B d   1       2.549  -2.151  -0.700  0.00  0.00    -0.013 C 
ATOM      9  C4' I4B d   1       2.580  -2.516   0.761  0.00  0.00     0.013 C 
ATOM     10  C3' I4B d   1       1.465  -2.896  -1.421  0.00  0.00     0.013 C 
ENDBRANCH   7   8
ENDBRANCH   1   7
TORSDOF 2
ENDMDL
