MODEL 1
REMARK minimizedAffinity 6.31857252
REMARK minimizedRMSD -1
REMARK  2 active torsions:
REMARK  status: ('A' for Active; 'I' for Inactive)
REMARK    1  A    between atoms: C2'_3  and  C1'_4 
REMARK    2  A    between atoms: C1'_4  and  C1_5 
ROOT
ATOM      1  C1  I4B d   1       0.635  -4.627  -1.523  0.00  0.00    -0.075 A 
ATOM      2  C2  I4B d   1       0.990  -3.776  -2.539  0.00  0.00     0.003 A 
ATOM      3  C3  I4B d   1       1.558  -2.512  -2.245  0.00  0.00     0.002 A 
ATOM      4  C4  I4B d   1       1.705  -2.124  -0.929  0.00  0.00    -0.004 A 
ATOM      5  C5  I4B d   1       1.365  -2.998   0.100  0.00  0.00     0.002 A 
ATOM      6  C6  I4B d   1       0.838  -4.263  -0.199  0.00  0.00     0.003 A 
ENDROOT
BRANCH   1   7
ATOM      7  C1' I4B d   1       0.007  -5.940  -1.870  0.00  0.00     0.060 C 
BRANCH   7   8
ATOM      8  C2' I4B d   1      -1.374  -5.976  -1.248  0.00  0.00    -0.013 C 
ATOM      9  C4' I4B d   1      -1.295  -5.999   0.255  0.00  0.00     0.013 C 
ATOM     10  C3' I4B d   1      -2.131  -4.775  -1.733  0.00  0.00     0.013 C 
ENDBRANCH   7   8
ENDBRANCH   1   7
TORSDOF 2
ENDMDL
