MODEL 1
REMARK minimizedAffinity 9.70479965
REMARK minimizedRMSD -1
REMARK  2 active torsions:
REMARK  status: ('A' for Active; 'I' for Inactive)
REMARK    1  A    between atoms: C2'_3  and  C1'_4 
REMARK    2  A    between atoms: C1'_4  and  C1_5 
ROOT
ATOM      1  C1  I4B d   1       2.325  -2.789  -1.475  0.00  0.00    -0.075 A 
ATOM      2  C2  I4B d   1       2.566  -2.652  -2.819  0.00  0.00     0.003 A 
ATOM      3  C3  I4B d   1       1.892  -3.477  -3.752  0.00  0.00     0.002 A 
ATOM      4  C4  I4B d   1       1.029  -4.453  -3.297  0.00  0.00    -0.004 A 
ATOM      5  C5  I4B d   1       0.769  -4.576  -1.935  0.00  0.00     0.002 A 
ATOM      6  C6  I4B d   1       1.412  -3.731  -1.018  0.00  0.00     0.003 A 
ENDROOT
BRANCH   1   7
ATOM      7  C1' I4B d   1       3.079  -1.924  -0.515  0.00  0.00     0.060 C 
BRANCH   7   8
ATOM      8  C2' I4B d   1       3.268  -0.566  -1.160  0.00  0.00    -0.013 C 
ATOM      9  C4' I4B d   1       3.437   0.512  -0.123  0.00  0.00     0.013 C 
ATOM     10  C3' I4B d   1       4.465  -0.644  -2.061  0.00  0.00     0.013 C 
ENDBRANCH   7   8
ENDBRANCH   1   7
TORSDOF 2
ENDMDL
