MODEL 1
REMARK minimizedAffinity 15.3684139
REMARK minimizedRMSD -1
REMARK  2 active torsions:
REMARK  status: ('A' for Active; 'I' for Inactive)
REMARK    1  A    between atoms: C2'_3  and  C1'_4 
REMARK    2  A    between atoms: C1'_4  and  C1_5 
ROOT
ATOM      1  C1  I4B d   1       1.606   0.449  -0.005  0.00  0.00    -0.075 A 
ATOM      2  C2  I4B d   1       1.320   0.531   1.335  0.00  0.00     0.003 A 
ATOM      3  C3  I4B d   1       0.085   1.071   1.768  0.00  0.00     0.002 A 
ATOM      4  C4  I4B d   1      -0.808   1.559   0.837  0.00  0.00    -0.004 A 
ATOM      5  C5  I4B d   1      -0.527   1.454  -0.522  0.00  0.00     0.002 A 
ATOM      6  C6  I4B d   1       0.682   0.884  -0.947  0.00  0.00     0.003 A 
ENDROOT
BRANCH   1   7
ATOM      7  C1' I4B d   1       2.933  -0.096  -0.427  0.00  0.00     0.060 C 
BRANCH   7   8
ATOM      8  C2' I4B d   1       3.820   1.074  -0.804  0.00  0.00    -0.013 C 
ATOM      9  C4' I4B d   1       4.847   1.345   0.263  0.00  0.00     0.013 C 
ATOM     10  C3' I4B d   1       4.472   0.757  -2.116  0.00  0.00     0.013 C 
ENDBRANCH   7   8
ENDBRANCH   1   7
TORSDOF 2
ENDMDL
