MODEL 1
REMARK minimizedAffinity 0.432289839
REMARK minimizedRMSD -1
REMARK  0 active torsions:
REMARK  status: ('A' for Active; 'I' for Inactive)
ROOT
ATOM      1  C   UNL d   1       1.236  -2.851  -1.906  0.00  0.00     0.124 A 
ATOM      2  C1  UNL d   1       1.625  -2.773  -0.576  0.00  0.00     0.062 A 
ATOM      3  C2  UNL d   1       0.977  -1.901   0.293  0.00  0.00     0.162 A 
ATOM      4  C3  UNL d   1      -0.069  -1.100  -0.164  0.00  0.00    -0.034 A 
ATOM      5  C4  UNL d   1      -0.455  -1.183  -1.503  0.00  0.00     0.162 A 
ATOM      6  C5  UNL d   1       0.196  -2.056  -2.368  0.00  0.00     0.062 A 
ATOM      7  F   UNL d   1      -0.181  -2.130  -3.653  0.00  0.00    -0.097 F 
ATOM      8  F1  UNL d   1      -1.457  -0.427  -1.976  0.00  0.00    -0.096 F 
ATOM      9  I   UNL d   1      -1.042   0.206   1.133  0.00  0.00    -0.060 I 
ATOM     10  F2  UNL d   1       1.374  -1.846   1.573  0.00  0.00    -0.096 F 
ATOM     11  F3  UNL d   1       2.630  -3.540  -0.127  0.00  0.00    -0.097 F 
ATOM     12  F4  UNL d   1       1.862  -3.691  -2.740  0.00  0.00    -0.092 F 
ENDROOT
TORSDOF 0
ENDMDL
