MODEL 1
REMARK minimizedAffinity 0.0362506621
REMARK minimizedRMSD -1
REMARK  0 active torsions:
REMARK  status: ('A' for Active; 'I' for Inactive)
ROOT
ATOM      1  C   UNL d   1      -0.797   2.454   0.947  0.00  0.00     0.124 A 
ATOM      2  C1  UNL d   1      -0.926   1.231   1.591  0.00  0.00     0.062 A 
ATOM      3  C2  UNL d   1      -0.327   0.094   1.058  0.00  0.00     0.162 A 
ATOM      4  C3  UNL d   1       0.408   0.174  -0.125  0.00  0.00    -0.034 A 
ATOM      5  C4  UNL d   1       0.532   1.407  -0.767  0.00  0.00     0.162 A 
ATOM      6  C5  UNL d   1      -0.068   2.541  -0.230  0.00  0.00     0.062 A 
ATOM      7  F   UNL d   1       0.057   3.722  -0.854  0.00  0.00    -0.097 F 
ATOM      8  F1  UNL d   1       1.232   1.519  -1.906  0.00  0.00    -0.096 F 
ATOM      9  I   UNL d   1       1.306  -1.525  -0.924  0.00  0.00    -0.060 I 
ATOM     10  F2  UNL d   1      -0.468  -1.075   1.701  0.00  0.00    -0.096 F 
ATOM     11  F3  UNL d   1      -1.630   1.145   2.728  0.00  0.00    -0.097 F 
ATOM     12  F4  UNL d   1      -1.376   3.547   1.461  0.00  0.00    -0.092 F 
ENDROOT
TORSDOF 0
ENDMDL
