MODEL 1
REMARK minimizedAffinity 1.23384404
REMARK minimizedRMSD -1
REMARK  0 active torsions:
REMARK  status: ('A' for Active; 'I' for Inactive)
ROOT
ATOM      1  C   UNL d   1      -0.399   2.131   1.048  0.00  0.00     0.124 A 
ATOM      2  C1  UNL d   1      -0.651   0.987   1.792  0.00  0.00     0.062 A 
ATOM      3  C2  UNL d   1      -0.333  -0.267   1.278  0.00  0.00     0.162 A 
ATOM      4  C3  UNL d   1       0.241  -0.383   0.012  0.00  0.00    -0.034 A 
ATOM      5  C4  UNL d   1       0.491   0.773  -0.731  0.00  0.00     0.162 A 
ATOM      6  C5  UNL d   1       0.172   2.023  -0.212  0.00  0.00     0.062 A 
ATOM      7  F   UNL d   1       0.416   3.128  -0.932  0.00  0.00    -0.097 F 
ATOM      8  F1  UNL d   1       1.042   0.697  -1.951  0.00  0.00    -0.096 F 
ATOM      9  I   UNL d   1       0.718  -2.255  -0.761  0.00  0.00    -0.060 I 
ATOM     10  F2  UNL d   1      -0.588  -1.355   2.019  0.00  0.00    -0.096 F 
ATOM     11  F3  UNL d   1      -1.203   1.089   3.010  0.00  0.00    -0.097 F 
ATOM     12  F4  UNL d   1      -0.706   3.336   1.546  0.00  0.00    -0.092 F 
ENDROOT
TORSDOF 0
ENDMDL
