MODEL 1
REMARK minimizedAffinity -1.66003883
REMARK minimizedRMSD -1
REMARK  0 active torsions:
REMARK  status: ('A' for Active; 'I' for Inactive)
ROOT
ATOM      1  C   UNL d   1      -0.776   2.513   0.828  0.00  0.00     0.124 A 
ATOM      2  C1  UNL d   1      -0.000   2.607  -0.319  0.00  0.00     0.062 A 
ATOM      3  C2  UNL d   1       0.555   1.462  -0.884  0.00  0.00     0.162 A 
ATOM      4  C3  UNL d   1       0.336   0.213  -0.302  0.00  0.00    -0.034 A 
ATOM      5  C4  UNL d   1      -0.444   0.128   0.852  0.00  0.00     0.162 A 
ATOM      6  C5  UNL d   1      -0.997   1.275   1.413  0.00  0.00     0.062 A 
ATOM      7  F   UNL d   1      -1.746   1.182   2.521  0.00  0.00    -0.097 F 
ATOM      8  F1  UNL d   1      -0.674  -1.057   1.438  0.00  0.00    -0.096 F 
ATOM      9  I   UNL d   1       1.165  -1.501  -1.143  0.00  0.00    -0.060 I 
ATOM     10  F2  UNL d   1       1.300   1.582  -1.993  0.00  0.00    -0.096 F 
ATOM     11  F3  UNL d   1       0.215   3.803  -0.886  0.00  0.00    -0.097 F 
ATOM     12  F4  UNL d   1      -1.308   3.617   1.369  0.00  0.00    -0.092 F 
ENDROOT
TORSDOF 0
ENDMDL
