MODEL 1
REMARK minimizedAffinity -2.05121613
REMARK minimizedRMSD -1
REMARK  0 active torsions:
REMARK  status: ('A' for Active; 'I' for Inactive)
ROOT
ATOM      1  C   UNL d   1      -1.139   2.711   0.649  0.00  0.00     0.124 A 
ATOM      2  C1  UNL d   1      -1.330   1.539   1.367  0.00  0.00     0.062 A 
ATOM      3  C2  UNL d   1      -0.645   0.381   1.012  0.00  0.00     0.162 A 
ATOM      4  C3  UNL d   1       0.241   0.389  -0.066  0.00  0.00    -0.034 A 
ATOM      5  C4  UNL d   1       0.427   1.572  -0.784  0.00  0.00     0.162 A 
ATOM      6  C5  UNL d   1      -0.260   2.727  -0.425  0.00  0.00     0.062 A 
ATOM      7  F   UNL d   1      -0.074   3.859  -1.120  0.00  0.00    -0.097 F 
ATOM      8  F1  UNL d   1       1.271   1.616  -1.826  0.00  0.00    -0.096 F 
ATOM      9  I   UNL d   1       1.268  -1.340  -0.600  0.00  0.00    -0.060 I 
ATOM     10  F2  UNL d   1      -0.849  -0.738   1.723  0.00  0.00    -0.096 F 
ATOM     11  F3  UNL d   1      -2.179   1.521   2.405  0.00  0.00    -0.097 F 
ATOM     12  F4  UNL d   1      -1.801   3.824   0.992  0.00  0.00    -0.092 F 
ENDROOT
TORSDOF 0
ENDMDL
