MODEL 1
REMARK minimizedAffinity 1.87957108
REMARK minimizedRMSD -1
REMARK  0 active torsions:
REMARK  status: ('A' for Active; 'I' for Inactive)
ROOT
ATOM      1  C   UNL d   1      -1.201   0.908   2.183  0.00  0.00     0.124 A 
ATOM      2  C1  UNL d   1      -1.189  -0.478   2.110  0.00  0.00     0.062 A 
ATOM      3  C2  UNL d   1      -0.694  -1.115   0.976  0.00  0.00     0.162 A 
ATOM      4  C3  UNL d   1      -0.204  -0.367  -0.094  0.00  0.00    -0.034 A 
ATOM      5  C4  UNL d   1      -0.220   1.027  -0.014  0.00  0.00     0.162 A 
ATOM      6  C5  UNL d   1      -0.716   1.659   1.121  0.00  0.00     0.062 A 
ATOM      7  F   UNL d   1      -0.726   2.998   1.190  0.00  0.00    -0.097 F 
ATOM      8  F1  UNL d   1       0.244   1.777  -1.025  0.00  0.00    -0.096 F 
ATOM      9  I   UNL d   1       0.538  -1.316  -1.791  0.00  0.00    -0.060 I 
ATOM     10  F2  UNL d   1      -0.695  -2.456   0.933  0.00  0.00    -0.096 F 
ATOM     11  F3  UNL d   1      -1.658  -1.206   3.134  0.00  0.00    -0.097 F 
ATOM     12  F4  UNL d   1      -1.679   1.519   3.275  0.00  0.00    -0.092 F 
ENDROOT
TORSDOF 0
ENDMDL
