MODEL 1
REMARK minimizedAffinity -1.60329628
REMARK minimizedRMSD -1
REMARK  0 active torsions:
REMARK  status: ('A' for Active; 'I' for Inactive)
ROOT
ATOM      1  C   UNL d   1      -0.559   2.588   1.294  0.00  0.00     0.124 A 
ATOM      2  C1  UNL d   1       0.157   2.761   0.118  0.00  0.00     0.062 A 
ATOM      3  C2  UNL d   1       0.595   1.655  -0.604  0.00  0.00     0.162 A 
ATOM      4  C3  UNL d   1       0.317   0.364  -0.153  0.00  0.00    -0.034 A 
ATOM      5  C4  UNL d   1      -0.402   0.198   1.032  0.00  0.00     0.162 A 
ATOM      6  C5  UNL d   1      -0.838   1.307   1.750  0.00  0.00     0.062 A 
ATOM      7  F   UNL d   1      -1.529   1.138   2.887  0.00  0.00    -0.097 F 
ATOM      8  F1  UNL d   1      -0.687  -1.028   1.495  0.00  0.00    -0.096 F 
ATOM      9  I   UNL d   1       0.970  -1.292  -1.230  0.00  0.00    -0.060 I 
ATOM     10  F2  UNL d   1       1.285   1.852  -1.738  0.00  0.00    -0.096 F 
ATOM     11  F3  UNL d   1       0.429   3.997  -0.324  0.00  0.00    -0.097 F 
ATOM     12  F4  UNL d   1      -0.978   3.654   1.988  0.00  0.00    -0.092 F 
ENDROOT
TORSDOF 0
ENDMDL
