MODEL 1
REMARK minimizedAffinity -2.46002412
REMARK minimizedRMSD -1
REMARK  0 active torsions:
REMARK  status: ('A' for Active; 'I' for Inactive)
ROOT
ATOM      1  C   UNL d   1       0.661   3.123  -0.329  0.00  0.00     0.124 A 
ATOM      2  C1  UNL d   1      -0.141   3.144   0.804  0.00  0.00     0.062 A 
ATOM      3  C2  UNL d   1      -0.529   1.952   1.410  0.00  0.00     0.162 A 
ATOM      4  C3  UNL d   1      -0.115   0.728   0.883  0.00  0.00    -0.034 A 
ATOM      5  C4  UNL d   1       0.690   0.715  -0.257  0.00  0.00     0.162 A 
ATOM      6  C5  UNL d   1       1.075   1.909  -0.858  0.00  0.00     0.062 A 
ATOM      7  F   UNL d   1       1.849   1.886  -1.953  0.00  0.00    -0.097 F 
ATOM      8  F1  UNL d   1       1.105  -0.444  -0.789  0.00  0.00    -0.096 F 
ATOM      9  I   UNL d   1      -0.693  -1.056   1.786  0.00  0.00    -0.060 I 
ATOM     10  F2  UNL d   1      -1.303   2.003   2.504  0.00  0.00    -0.096 F 
ATOM     11  F3  UNL d   1      -0.543   4.316   1.317  0.00  0.00    -0.097 F 
ATOM     12  F4  UNL d   1       1.032   4.271  -0.910  0.00  0.00    -0.092 F 
ENDROOT
TORSDOF 0
ENDMDL
