MODEL 1
REMARK minimizedAffinity 1.86247337
REMARK minimizedRMSD -1
REMARK  0 active torsions:
REMARK  status: ('A' for Active; 'I' for Inactive)
ROOT
ATOM      1  C   UNL d   1      -0.544   1.697   0.758  0.00  0.00     0.124 A 
ATOM      2  C1  UNL d   1      -0.848   0.528   1.442  0.00  0.00     0.062 A 
ATOM      3  C2  UNL d   1      -0.458  -0.705   0.928  0.00  0.00     0.162 A 
ATOM      4  C3  UNL d   1       0.241  -0.777  -0.277  0.00  0.00    -0.034 A 
ATOM      5  C4  UNL d   1       0.541   0.403  -0.960  0.00  0.00     0.162 A 
ATOM      6  C5  UNL d   1       0.150   1.633  -0.442  0.00  0.00     0.062 A 
ATOM      7  F   UNL d   1       0.443   2.762  -1.105  0.00  0.00    -0.097 F 
ATOM      8  F1  UNL d   1       1.212   0.371  -2.121  0.00  0.00    -0.096 F 
ATOM      9  I   UNL d   1       0.825  -2.619  -1.049  0.00  0.00    -0.060 I 
ATOM     10  F2  UNL d   1      -0.764  -1.819   1.611  0.00  0.00    -0.096 F 
ATOM     11  F3  UNL d   1      -1.519   0.586   2.601  0.00  0.00    -0.097 F 
ATOM     12  F4  UNL d   1      -0.921   2.882   1.254  0.00  0.00    -0.092 F 
ENDROOT
TORSDOF 0
ENDMDL
