MODEL 1
REMARK minimizedAffinity 1.60344481
REMARK minimizedRMSD -1
REMARK  0 active torsions:
REMARK  status: ('A' for Active; 'I' for Inactive)
ROOT
ATOM      1  C   UNL d   1      -0.617   1.549   1.200  0.00  0.00     0.124 A 
ATOM      2  C1  UNL d   1       0.038   1.565  -0.024  0.00  0.00     0.062 A 
ATOM      3  C2  UNL d   1       0.489   0.377  -0.592  0.00  0.00     0.162 A 
ATOM      4  C3  UNL d   1       0.284  -0.838   0.062  0.00  0.00    -0.034 A 
ATOM      5  C4  UNL d   1      -0.375  -0.846   1.292  0.00  0.00     0.162 A 
ATOM      6  C5  UNL d   1      -0.823   0.344   1.856  0.00  0.00     0.062 A 
ATOM      7  F   UNL d   1      -1.457   0.327   3.038  0.00  0.00    -0.097 F 
ATOM      8  F1  UNL d   1      -0.589  -1.996   1.948  0.00  0.00    -0.096 F 
ATOM      9  I   UNL d   1       0.956  -2.616  -0.785  0.00  0.00    -0.060 I 
ATOM     10  F2  UNL d   1       1.119   0.423  -1.775  0.00  0.00    -0.096 F 
ATOM     11  F3  UNL d   1       0.239   2.728  -0.660  0.00  0.00    -0.097 F 
ATOM     12  F4  UNL d   1      -1.049   2.694   1.745  0.00  0.00    -0.092 F 
ENDROOT
TORSDOF 0
ENDMDL
