MODEL 1
REMARK minimizedAffinity 0.62487483
REMARK minimizedRMSD -1
REMARK  0 active torsions:
REMARK  status: ('A' for Active; 'I' for Inactive)
ROOT
ATOM      1  C   UNL d   1      -0.724   2.039   0.941  0.00  0.00     0.124 A 
ATOM      2  C1  UNL d   1      -1.103   0.844   1.536  0.00  0.00     0.062 A 
ATOM      3  C2  UNL d   1      -0.660  -0.369   1.016  0.00  0.00     0.162 A 
ATOM      4  C3  UNL d   1       0.168  -0.393  -0.106  0.00  0.00    -0.034 A 
ATOM      5  C4  UNL d   1       0.545   0.813  -0.700  0.00  0.00     0.162 A 
ATOM      6  C5  UNL d   1       0.099   2.022  -0.176  0.00  0.00     0.062 A 
ATOM      7  F   UNL d   1       0.467   3.176  -0.753  0.00  0.00    -0.097 F 
ATOM      8  F1  UNL d   1       1.340   0.827  -1.780  0.00  0.00    -0.096 F 
ATOM      9  I   UNL d   1       0.832  -2.204  -0.887  0.00  0.00    -0.060 I 
ATOM     10  F2  UNL d   1      -1.043  -1.509   1.611  0.00  0.00    -0.096 F 
ATOM     11  F3  UNL d   1      -1.899   0.857   2.615  0.00  0.00    -0.097 F 
ATOM     12  F4  UNL d   1      -1.152   3.204   1.443  0.00  0.00    -0.092 F 
ENDROOT
TORSDOF 0
ENDMDL
