MODEL 1
REMARK minimizedAffinity -3.63599634
REMARK minimizedRMSD -1
REMARK  0 active torsions:
REMARK  status: ('A' for Active; 'I' for Inactive)
ROOT
ATOM      1  C   UNL d   1      -0.352   2.711   1.095  0.00  0.00     0.124 A 
ATOM      2  C1  UNL d   1      -0.538   1.584   1.883  0.00  0.00     0.062 A 
ATOM      3  C2  UNL d   1      -0.253   0.320   1.375  0.00  0.00     0.162 A 
ATOM      4  C3  UNL d   1       0.223   0.177   0.071  0.00  0.00    -0.034 A 
ATOM      5  C4  UNL d   1       0.406   1.315  -0.715  0.00  0.00     0.162 A 
ATOM      6  C5  UNL d   1       0.119   2.576  -0.203  0.00  0.00     0.062 A 
ATOM      7  F   UNL d   1       0.299   3.664  -0.965  0.00  0.00    -0.097 F 
ATOM      8  F1  UNL d   1       0.861   1.214  -1.973  0.00  0.00    -0.096 F 
ATOM      9  I   UNL d   1       0.650  -1.711  -0.693  0.00  0.00    -0.060 I 
ATOM     10  F2  UNL d   1      -0.441  -0.752   2.159  0.00  0.00    -0.096 F 
ATOM     11  F3  UNL d   1      -0.994   1.712   3.138  0.00  0.00    -0.097 F 
ATOM     12  F4  UNL d   1      -0.629   3.926   1.587  0.00  0.00    -0.092 F 
ENDROOT
TORSDOF 0
ENDMDL
