MODEL 1
REMARK minimizedAffinity -1.44606423
REMARK minimizedRMSD -1
REMARK  0 active torsions:
REMARK  status: ('A' for Active; 'I' for Inactive)
ROOT
ATOM      1  C   UNL d   1      -0.627   1.996   0.821  0.00  0.00     0.124 A 
ATOM      2  C1  UNL d   1       0.348   2.054  -0.165  0.00  0.00     0.062 A 
ATOM      3  C2  UNL d   1       0.926   0.884  -0.648  0.00  0.00     0.162 A 
ATOM      4  C3  UNL d   1       0.530  -0.356  -0.146  0.00  0.00    -0.034 A 
ATOM      5  C4  UNL d   1      -0.450  -0.406   0.847  0.00  0.00     0.162 A 
ATOM      6  C5  UNL d   1      -1.024   0.766   1.327  0.00  0.00     0.062 A 
ATOM      7  F   UNL d   1      -1.966   0.708   2.280  0.00  0.00    -0.097 F 
ATOM      8  F1  UNL d   1      -0.853  -1.582   1.353  0.00  0.00    -0.096 F 
ATOM      9  I   UNL d   1       1.392  -2.108  -0.865  0.00  0.00    -0.060 I 
ATOM     10  F2  UNL d   1       1.865   0.970  -1.602  0.00  0.00    -0.096 F 
ATOM     11  F3  UNL d   1       0.735   3.241  -0.655  0.00  0.00    -0.097 F 
ATOM     12  F4  UNL d   1      -1.180   3.124   1.285  0.00  0.00    -0.092 F 
ENDROOT
TORSDOF 0
ENDMDL
