MODEL 1
REMARK minimizedAffinity -2.02729058
REMARK minimizedRMSD -1
REMARK  0 active torsions:
REMARK  status: ('A' for Active; 'I' for Inactive)
ROOT
ATOM      1  C   UNL d   1      -0.389   2.306   1.581  0.00  0.00     0.124 A 
ATOM      2  C1  UNL d   1       0.274   2.444   0.369  0.00  0.00     0.062 A 
ATOM      3  C2  UNL d   1       0.693   1.317  -0.332  0.00  0.00     0.162 A 
ATOM      4  C3  UNL d   1       0.450   0.041   0.176  0.00  0.00    -0.034 A 
ATOM      5  C4  UNL d   1      -0.216  -0.090   1.396  0.00  0.00     0.162 A 
ATOM      6  C5  UNL d   1      -0.633   1.039   2.093  0.00  0.00     0.062 A 
ATOM      7  F   UNL d   1      -1.273   0.903   3.263  0.00  0.00    -0.097 F 
ATOM      8  F1  UNL d   1      -0.466  -1.302   1.913  0.00  0.00    -0.096 F 
ATOM      9  I   UNL d   1       1.076  -1.646  -0.870  0.00  0.00    -0.060 I 
ATOM     10  F2  UNL d   1       1.331   1.481  -1.501  0.00  0.00    -0.096 F 
ATOM     11  F3  UNL d   1       0.511   3.667  -0.128  0.00  0.00    -0.097 F 
ATOM     12  F4  UNL d   1      -0.791   3.391   2.254  0.00  0.00    -0.092 F 
ENDROOT
TORSDOF 0
ENDMDL
