MODEL 1
REMARK minimizedAffinity -2.5655489
REMARK minimizedRMSD -1
REMARK  0 active torsions:
REMARK  status: ('A' for Active; 'I' for Inactive)
ROOT
ATOM      1  C   UNL d   1      -0.912  -0.729   1.471  0.00  0.00     0.124 A 
ATOM      2  C1  UNL d   1       0.386  -0.381   1.126  0.00  0.00     0.062 A 
ATOM      3  C2  UNL d   1       0.966  -0.901  -0.028  0.00  0.00     0.162 A 
ATOM      4  C3  UNL d   1       0.248  -1.773  -0.846  0.00  0.00    -0.034 A 
ATOM      5  C4  UNL d   1      -1.058  -2.118  -0.491  0.00  0.00     0.162 A 
ATOM      6  C5  UNL d   1      -1.633  -1.597   0.663  0.00  0.00     0.062 A 
ATOM      7  F   UNL d   1      -2.887  -1.934   0.996  0.00  0.00    -0.097 F 
ATOM      8  F1  UNL d   1      -1.777  -2.955  -1.254  0.00  0.00    -0.096 F 
ATOM      9  I   UNL d   1       1.111  -2.552  -2.572  0.00  0.00    -0.060 I 
ATOM     10  F2  UNL d   1       2.223  -0.547  -0.338  0.00  0.00    -0.096 F 
ATOM     11  F3  UNL d   1       1.085   0.457   1.905  0.00  0.00    -0.097 F 
ATOM     12  F4  UNL d   1      -1.468  -0.228   2.583  0.00  0.00    -0.092 F 
ENDROOT
TORSDOF 0
ENDMDL
