MODEL 1
REMARK minimizedAffinity 0.126857758
REMARK minimizedRMSD -1
REMARK  0 active torsions:
REMARK  status: ('A' for Active; 'I' for Inactive)
ROOT
ATOM      1  C   UNL d   1      -0.110   1.493   0.941  0.00  0.00     0.124 A 
ATOM      2  C1  UNL d   1      -0.494   0.390   1.691  0.00  0.00     0.062 A 
ATOM      3  C2  UNL d   1      -0.193  -0.895   1.250  0.00  0.00     0.162 A 
ATOM      4  C3  UNL d   1       0.498  -1.085   0.053  0.00  0.00    -0.034 A 
ATOM      5  C4  UNL d   1       0.881   0.030  -0.696  0.00  0.00     0.162 A 
ATOM      6  C5  UNL d   1       0.577   1.312  -0.251  0.00  0.00     0.062 A 
ATOM      7  F   UNL d   1       0.949   2.377  -0.976  0.00  0.00    -0.097 F 
ATOM      8  F1  UNL d   1       1.546  -0.116  -1.851  0.00  0.00    -0.096 F 
ATOM      9  I   UNL d   1       0.951  -3.005  -0.610  0.00  0.00    -0.060 I 
ATOM     10  F2  UNL d   1      -0.577  -1.943   1.994  0.00  0.00    -0.096 F 
ATOM     11  F3  UNL d   1      -1.159   0.562   2.842  0.00  0.00    -0.097 F 
ATOM     12  F4  UNL d   1      -0.402   2.729   1.368  0.00  0.00    -0.092 F 
ENDROOT
TORSDOF 0
ENDMDL
