MODEL 1
REMARK minimizedAffinity 1.35274363
REMARK minimizedRMSD -1
REMARK  0 active torsions:
REMARK  status: ('A' for Active; 'I' for Inactive)
ROOT
ATOM      1  C   UNL d   1      -0.298   2.016   0.834  0.00  0.00     0.124 A 
ATOM      2  C1  UNL d   1      -0.797   0.891   1.476  0.00  0.00     0.062 A 
ATOM      3  C2  UNL d   1      -0.433  -0.381   1.044  0.00  0.00     0.162 A 
ATOM      4  C3  UNL d   1       0.435  -0.536  -0.036  0.00  0.00    -0.034 A 
ATOM      5  C4  UNL d   1       0.933   0.600  -0.678  0.00  0.00     0.162 A 
ATOM      6  C5  UNL d   1       0.566   1.869  -0.242  0.00  0.00     0.062 A 
ATOM      7  F   UNL d   1       1.050   2.955  -0.864  0.00  0.00    -0.097 F 
ATOM      8  F1  UNL d   1       1.770   0.487  -1.720  0.00  0.00    -0.096 F 
ATOM      9  I   UNL d   1       0.981  -2.436  -0.686  0.00  0.00    -0.060 I 
ATOM     10  F2  UNL d   1      -0.931  -1.450   1.683  0.00  0.00    -0.096 F 
ATOM     11  F3  UNL d   1      -1.632   1.030   2.515  0.00  0.00    -0.097 F 
ATOM     12  F4  UNL d   1      -0.650   3.239   1.251  0.00  0.00    -0.092 F 
ENDROOT
TORSDOF 0
ENDMDL
