MODEL 1
REMARK minimizedAffinity 3.63500786
REMARK minimizedRMSD -1
REMARK  2 active torsions:
REMARK  status: ('A' for Active; 'I' for Inactive)
REMARK    1  A    between atoms: C1_2  and  C2_3 
REMARK    2  A    between atoms: C2_3  and  C3_4 
ROOT
ATOM      1  C3  UNL d   1       2.716  -1.245   0.375  0.00  0.00    -0.075 A 
ATOM      2  C4  UNL d   1       3.792  -1.111   1.264  0.00  0.00     0.002 A 
ATOM      3  C5  UNL d   1       4.435   0.118   1.417  0.00  0.00     0.002 A 
ATOM      4  C6  UNL d   1       4.019   1.222   0.677  0.00  0.00    -0.004 A 
ATOM      5  C7  UNL d   1       2.961   1.096  -0.221  0.00  0.00     0.002 A 
ATOM      6  C8  UNL d   1       2.313  -0.131  -0.373  0.00  0.00     0.002 A 
ENDROOT
BRANCH   1   7
ATOM      7  C2  UNL d   1       1.996  -2.565   0.227  0.00  0.00     0.056 C 
BRANCH   7   8
ATOM      8  C1  UNL d   1       1.547  -2.873  -1.205  0.00  0.00     0.007 C 
ATOM      9  C   UNL d   1       0.286  -3.725  -1.269  0.00  0.00     0.009 C 
ENDBRANCH   7   8
ENDBRANCH   1   7
TORSDOF 2
ENDMDL
