MODEL 1
REMARK minimizedAffinity 2.03141713
REMARK minimizedRMSD -1
REMARK  2 active torsions:
REMARK  status: ('A' for Active; 'I' for Inactive)
REMARK    1  A    between atoms: C1_2  and  C2_3 
REMARK    2  A    between atoms: C2_3  and  C3_4 
ROOT
ATOM      1  C3  UNL d   1       2.460   2.502   2.320  0.00  0.00    -0.075 A 
ATOM      2  C4  UNL d   1       1.728   2.458   1.125  0.00  0.00     0.002 A 
ATOM      3  C5  UNL d   1       0.468   1.862   1.087  0.00  0.00     0.002 A 
ATOM      4  C6  UNL d   1      -0.072   1.294   2.239  0.00  0.00    -0.004 A 
ATOM      5  C7  UNL d   1       0.653   1.316   3.428  0.00  0.00     0.002 A 
ATOM      6  C8  UNL d   1       1.913   1.916   3.470  0.00  0.00     0.002 A 
ENDROOT
BRANCH   1   7
ATOM      7  C2  UNL d   1       3.813   3.171   2.374  0.00  0.00     0.056 C 
BRANCH   7   8
ATOM      8  C1  UNL d   1       4.044   4.009   3.637  0.00  0.00     0.007 C 
ATOM      9  C   UNL d   1       5.109   3.427   4.556  0.00  0.00     0.009 C 
ENDBRANCH   7   8
ENDBRANCH   1   7
TORSDOF 2
ENDMDL
