MODEL 1
REMARK minimizedAffinity -2.00963354
REMARK minimizedRMSD -1
REMARK  2 active torsions:
REMARK  status: ('A' for Active; 'I' for Inactive)
REMARK    1  A    between atoms: C1_2  and  C2_3 
REMARK    2  A    between atoms: C2_3  and  C3_4 
ROOT
ATOM      1  C3  UNL d   1       2.228   0.313  -0.450  0.00  0.00    -0.075 A 
ATOM      2  C4  UNL d   1       0.871   0.579  -0.218  0.00  0.00     0.002 A 
ATOM      3  C5  UNL d   1      -0.055  -0.462  -0.158  0.00  0.00     0.002 A 
ATOM      4  C6  UNL d   1       0.361  -1.779  -0.340  0.00  0.00    -0.004 A 
ATOM      5  C7  UNL d   1       1.704  -2.054  -0.588  0.00  0.00     0.002 A 
ATOM      6  C8  UNL d   1       2.633  -1.014  -0.644  0.00  0.00     0.002 A 
ENDROOT
BRANCH   1   7
ATOM      7  C2  UNL d   1       3.240   1.433  -0.487  0.00  0.00     0.056 C 
BRANCH   7   8
ATOM      8  C1  UNL d   1       4.494   1.115  -1.307  0.00  0.00     0.007 C 
ATOM      9  C   UNL d   1       5.649   2.068  -1.033  0.00  0.00     0.009 C 
ENDBRANCH   7   8
ENDBRANCH   1   7
TORSDOF 2
ENDMDL
