MODEL 1
REMARK minimizedAffinity -1.4188236
REMARK minimizedRMSD -1
REMARK  2 active torsions:
REMARK  status: ('A' for Active; 'I' for Inactive)
REMARK    1  A    between atoms: C1_2  and  C2_3 
REMARK    2  A    between atoms: C2_3  and  C3_4 
ROOT
ATOM      1  C3  UNL d   1       1.775   1.737   0.700  0.00  0.00    -0.075 A 
ATOM      2  C4  UNL d   1       0.544   2.005   0.084  0.00  0.00     0.002 A 
ATOM      3  C5  UNL d   1      -0.513   2.543   0.819  0.00  0.00     0.002 A 
ATOM      4  C6  UNL d   1      -0.357   2.808   2.177  0.00  0.00    -0.004 A 
ATOM      5  C7  UNL d   1       0.856   2.530   2.803  0.00  0.00     0.002 A 
ATOM      6  C8  UNL d   1       1.917   1.996   2.069  0.00  0.00     0.002 A 
ENDROOT
BRANCH   1   7
ATOM      7  C2  UNL d   1       2.932   1.182  -0.097  0.00  0.00     0.056 C 
BRANCH   7   8
ATOM      8  C1  UNL d   1       2.581  -0.056  -0.928  0.00  0.00     0.007 C 
ATOM      9  C   UNL d   1       2.276  -1.283  -0.078  0.00  0.00     0.009 C 
ENDBRANCH   7   8
ENDBRANCH   1   7
TORSDOF 2
ENDMDL
