MODEL 1
REMARK minimizedAffinity 8.24332809
REMARK minimizedRMSD -1
REMARK  0 active torsions:
REMARK  status: ('A' for Active; 'I' for Inactive)
ROOT
ATOM      1  C2' OXE d   1       2.273  -3.948  -0.002  0.00  0.00     0.078 C 
ATOM      2  C1' OXE d   1       4.621  -4.879  -1.226  0.00  0.00     0.078 C 
ATOM      3  C1  OXE d   1       4.727  -3.672  -0.328  0.00  0.00    -0.078 A 
ATOM      4  C2  OXE d   1       3.565  -3.195   0.229  0.00  0.00    -0.078 A 
ATOM      5  C3  OXE d   1       3.614  -2.117   1.109  0.00  0.00     0.003 A 
ATOM      6  C4  OXE d   1       4.812  -1.420   1.309  0.00  0.00    -0.002 A 
ATOM      7  C5  OXE d   1       6.000  -1.865   0.719  0.00  0.00    -0.002 A 
ATOM      8  C6  OXE d   1       5.982  -3.012  -0.067  0.00  0.00     0.003 A 
ENDROOT
TORSDOF 0
ENDMDL
