MODEL 1
REMARK minimizedAffinity 8.32181358
REMARK minimizedRMSD -1
REMARK  0 active torsions:
REMARK  status: ('A' for Active; 'I' for Inactive)
ROOT
ATOM      1  C2' OXE d   1       3.689  -4.887  -3.841  0.00  0.00     0.078 C 
ATOM      2  C1' OXE d   1       3.744  -5.987  -1.259  0.00  0.00     0.078 C 
ATOM      3  C1  OXE d   1       4.520  -4.716  -1.499  0.00  0.00    -0.078 A 
ATOM      4  C2  OXE d   1       4.525  -4.210  -2.777  0.00  0.00    -0.078 A 
ATOM      5  C3  OXE d   1       5.179  -3.010  -3.041  0.00  0.00     0.003 A 
ATOM      6  C4  OXE d   1       5.959  -2.396  -2.054  0.00  0.00    -0.002 A 
ATOM      7  C5  OXE d   1       5.999  -2.916  -0.756  0.00  0.00    -0.002 A 
ATOM      8  C6  OXE d   1       5.253  -4.049  -0.452  0.00  0.00     0.003 A 
ENDROOT
TORSDOF 0
ENDMDL
