MODEL 1
REMARK minimizedAffinity 11.4629354
REMARK minimizedRMSD -1
REMARK  0 active torsions:
REMARK  status: ('A' for Active; 'I' for Inactive)
ROOT
ATOM      1  C2' OXE d   1      -1.776   1.704   2.796  0.00  0.00     0.078 C 
ATOM      2  C1' OXE d   1       0.390   2.473   1.185  0.00  0.00     0.078 C 
ATOM      3  C1  OXE d   1       0.631   1.410   2.228  0.00  0.00    -0.078 A 
ATOM      4  C2  OXE d   1      -0.423   1.074   3.043  0.00  0.00    -0.078 A 
ATOM      5  C3  OXE d   1      -0.269   0.061   3.985  0.00  0.00     0.003 A 
ATOM      6  C4  OXE d   1       0.989  -0.510   4.214  0.00  0.00    -0.002 A 
ATOM      7  C5  OXE d   1       2.085  -0.153   3.421  0.00  0.00    -0.002 A 
ATOM      8  C6  OXE d   1       1.913   0.773   2.398  0.00  0.00     0.003 A 
ENDROOT
TORSDOF 0
ENDMDL
