MODEL 1
REMARK minimizedAffinity 16.4057083
REMARK minimizedRMSD -1
REMARK  0 active torsions:
REMARK  status: ('A' for Active; 'I' for Inactive)
ROOT
ATOM      1  C2' OXE d   1      -1.338   2.465   2.461  0.00  0.00     0.078 C 
ATOM      2  C1' OXE d   1       1.462   2.510   2.253  0.00  0.00     0.078 C 
ATOM      3  C1  OXE d   1       0.672   3.373   1.301  0.00  0.00    -0.078 A 
ATOM      4  C2  OXE d   1      -0.699   3.309   1.379  0.00  0.00    -0.078 A 
ATOM      5  C3  OXE d   1      -1.474   4.126   0.561  0.00  0.00     0.003 A 
ATOM      6  C4  OXE d   1      -0.876   4.895  -0.444  0.00  0.00    -0.002 A 
ATOM      7  C5  OXE d   1       0.517   4.944  -0.567  0.00  0.00    -0.002 A 
ATOM      8  C6  OXE d   1       1.305   4.223   0.323  0.00  0.00     0.003 A 
ENDROOT
TORSDOF 0
ENDMDL
