MODEL 1
REMARK minimizedAffinity 9.17263699
REMARK minimizedRMSD -1
REMARK  0 active torsions:
REMARK  status: ('A' for Active; 'I' for Inactive)
ROOT
ATOM      1  C2' OXE d   1       3.467  -5.070  -2.628  0.00  0.00     0.078 C 
ATOM      2  C1' OXE d   1       5.185  -3.420  -4.113  0.00  0.00     0.078 C 
ATOM      3  C1  OXE d   1       5.106  -3.194  -2.624  0.00  0.00    -0.078 A 
ATOM      4  C2  OXE d   1       4.228  -3.975  -1.912  0.00  0.00    -0.078 A 
ATOM      5  C3  OXE d   1       4.156  -3.844  -0.528  0.00  0.00     0.003 A 
ATOM      6  C4  OXE d   1       4.855  -2.822   0.125  0.00  0.00    -0.002 A 
ATOM      7  C5  OXE d   1       5.725  -1.990  -0.587  0.00  0.00    -0.002 A 
ATOM      8  C6  OXE d   1       5.894  -2.190  -1.953  0.00  0.00     0.003 A 
ENDROOT
TORSDOF 0
ENDMDL
