MODEL 1
REMARK minimizedAffinity 12.4220324
REMARK minimizedRMSD -1
REMARK  0 active torsions:
REMARK  status: ('A' for Active; 'I' for Inactive)
ROOT
ATOM      1  C2' OXE d   1      -3.923   6.000   1.478  0.00  0.00     0.078 C 
ATOM      2  C1' OXE d   1      -2.131   4.573  -0.146  0.00  0.00     0.078 C 
ATOM      3  C1  OXE d   1      -3.475   4.934  -0.729  0.00  0.00    -0.078 A 
ATOM      4  C2  OXE d   1      -4.363   5.591   0.089  0.00  0.00    -0.078 A 
ATOM      5  C3  OXE d   1      -5.596   5.995  -0.416  0.00  0.00     0.003 A 
ATOM      6  C4  OXE d   1      -5.999   5.604  -1.699  0.00  0.00    -0.002 A 
ATOM      7  C5  OXE d   1      -5.125   4.900  -2.534  0.00  0.00    -0.002 A 
ATOM      8  C6  OXE d   1      -3.847   4.595  -2.080  0.00  0.00     0.003 A 
ENDROOT
TORSDOF 0
ENDMDL
