MODEL 1
REMARK minimizedAffinity 9.99849129
REMARK minimizedRMSD -1
REMARK  0 active torsions:
REMARK  status: ('A' for Active; 'I' for Inactive)
ROOT
ATOM      1  C2' OXE d   1      -1.039  -1.644  -3.329  0.00  0.00     0.078 C 
ATOM      2  C1' OXE d   1      -1.866  -0.229  -1.050  0.00  0.00     0.078 C 
ATOM      3  C1  OXE d   1      -2.241   0.330  -2.399  0.00  0.00    -0.078 A 
ATOM      4  C2  OXE d   1      -1.792  -0.344  -3.510  0.00  0.00    -0.078 A 
ATOM      5  C3  OXE d   1      -2.156   0.098  -4.778  0.00  0.00     0.003 A 
ATOM      6  C4  OXE d   1      -2.844   1.307  -4.937  0.00  0.00    -0.002 A 
ATOM      7  C5  OXE d   1      -3.277   2.030  -3.820  0.00  0.00    -0.002 A 
ATOM      8  C6  OXE d   1      -3.021   1.534  -2.547  0.00  0.00     0.003 A 
ENDROOT
TORSDOF 0
ENDMDL
