MODEL 1
REMARK minimizedAffinity 9.6835413
REMARK minimizedRMSD -1
REMARK  0 active torsions:
REMARK  status: ('A' for Active; 'I' for Inactive)
ROOT
ATOM      1  C2' OXE d   1      -3.785   2.326  -1.889  0.00  0.00     0.078 C 
ATOM      2  C1' OXE d   1      -3.081   0.717   0.300  0.00  0.00     0.078 C 
ATOM      3  C1  OXE d   1      -2.468   0.391  -1.039  0.00  0.00    -0.078 A 
ATOM      4  C2  OXE d   1      -2.854   1.155  -2.114  0.00  0.00    -0.078 A 
ATOM      5  C3  OXE d   1      -2.278   0.931  -3.361  0.00  0.00     0.003 A 
ATOM      6  C4  OXE d   1      -1.425  -0.161  -3.563  0.00  0.00    -0.002 A 
ATOM      7  C5  OXE d   1      -1.049  -0.976  -2.489  0.00  0.00    -0.002 A 
ATOM      8  C6  OXE d   1      -1.527  -0.688  -1.216  0.00  0.00     0.003 A 
ENDROOT
TORSDOF 0
ENDMDL
