MODEL 1
REMARK minimizedAffinity 4.94460106
REMARK minimizedRMSD -1
REMARK  0 active torsions:
REMARK  status: ('A' for Active; 'I' for Inactive)
ROOT
ATOM      1  C2' OXE d   1       2.916  -5.421  -1.542  0.00  0.00     0.078 C 
ATOM      2  C1' OXE d   1       3.300  -3.546   0.511  0.00  0.00     0.078 C 
ATOM      3  C1  OXE d   1       3.946  -3.269  -0.823  0.00  0.00    -0.078 A 
ATOM      4  C2  OXE d   1       3.792  -4.215  -1.808  0.00  0.00    -0.078 A 
ATOM      5  C3  OXE d   1       4.322  -3.984  -3.074  0.00  0.00     0.003 A 
ATOM      6  C4  OXE d   1       5.139  -2.872  -3.309  0.00  0.00    -0.002 A 
ATOM      7  C5  OXE d   1       5.342  -1.916  -2.308  0.00  0.00    -0.002 A 
ATOM      8  C6  OXE d   1       4.719  -2.078  -1.075  0.00  0.00     0.003 A 
ENDROOT
TORSDOF 0
ENDMDL
