MODEL 1
REMARK minimizedAffinity 3.21888781
REMARK minimizedRMSD -1
REMARK  1 active torsions:
REMARK  status: ('A' for Active; 'I' for Inactive)
REMARK    1  A    between atoms: C3_4  and  O_7 
ROOT
ATOM      1  C   UNL d   1      -1.966  -5.576  -5.695  0.00  0.00    -0.033 A 
ATOM      2  C1  UNL d   1      -1.949  -4.214  -5.999  0.00  0.00     0.039 A 
ATOM      3  C2  UNL d   1      -1.798  -3.271  -4.981  0.00  0.00    -0.080 A 
ATOM      4  C3  UNL d   1      -1.663  -3.703  -3.664  0.00  0.00     0.150 A 
ATOM      5  C4  UNL d   1      -1.675  -5.058  -3.354  0.00  0.00    -0.007 A 
ATOM      6  C5  UNL d   1      -1.828  -5.999  -4.372  0.00  0.00     0.039 A 
ENDROOT
BRANCH   4   7
ATOM      7  O   UNL d   1      -1.518  -2.819  -2.636  0.00  0.00    -0.526 OA
ATOM      8  H5  UNL d   1      -1.557  -1.918  -2.997  0.00  0.00     0.418 HD
ENDBRANCH   4   7
TORSDOF 1
ENDMDL
