MODEL 1
REMARK minimizedAffinity 2.88309836
REMARK minimizedRMSD -1
REMARK  1 active torsions:
REMARK  status: ('A' for Active; 'I' for Inactive)
REMARK    1  A    between atoms: C3_4  and  O_7 
ROOT
ATOM      1  C   UNL d   1      -1.181  -1.803  -2.995  0.00  0.00    -0.033 A 
ATOM      2  C1  UNL d   1      -0.239  -1.940  -1.973  0.00  0.00     0.039 A 
ATOM      3  C2  UNL d   1       1.021  -1.352  -2.101  0.00  0.00    -0.080 A 
ATOM      4  C3  UNL d   1       1.326  -0.632  -3.252  0.00  0.00     0.150 A 
ATOM      5  C4  UNL d   1       0.391  -0.488  -4.272  0.00  0.00    -0.007 A 
ATOM      6  C5  UNL d   1      -0.867  -1.076  -4.143  0.00  0.00     0.039 A 
ENDROOT
BRANCH   4   7
ATOM      7  O   UNL d   1       2.544  -0.045  -3.424  0.00  0.00    -0.526 OA
ATOM      8  H5  UNL d   1       3.097  -0.252  -2.652  0.00  0.00     0.418 HD
ENDBRANCH   4   7
TORSDOF 1
ENDMDL
