MODEL 1
REMARK minimizedAffinity 8.96017933
REMARK minimizedRMSD -1
REMARK  1 active torsions:
REMARK  status: ('A' for Active; 'I' for Inactive)
REMARK    1  A    between atoms: C3_4  and  O_7 
ROOT
ATOM      1  C   UNL d   1      -2.236  -5.996  -4.891  0.00  0.00    -0.033 A 
ATOM      2  C1  UNL d   1      -2.108  -6.000  -3.501  0.00  0.00     0.039 A 
ATOM      3  C2  UNL d   1      -1.842  -4.810  -2.820  0.00  0.00    -0.080 A 
ATOM      4  C3  UNL d   1      -1.709  -3.626  -3.539  0.00  0.00     0.150 A 
ATOM      5  C4  UNL d   1      -1.839  -3.615  -4.924  0.00  0.00    -0.007 A 
ATOM      6  C5  UNL d   1      -2.103  -4.804  -5.603  0.00  0.00     0.039 A 
ENDROOT
BRANCH   4   7
ATOM      7  O   UNL d   1      -1.444  -2.441  -2.919  0.00  0.00    -0.526 OA
ATOM      8  H5  UNL d   1      -1.352  -2.607  -1.966  0.00  0.00     0.418 HD
ENDBRANCH   4   7
TORSDOF 1
ENDMDL
