MODEL 1
REMARK minimizedAffinity 12.1060114
REMARK minimizedRMSD -1
REMARK  1 active torsions:
REMARK  status: ('A' for Active; 'I' for Inactive)
REMARK    1  A    between atoms: C3_4  and  O_7 
ROOT
ATOM      1  C   UNL d   1       1.388  -0.706  -3.999  0.00  0.00    -0.033 A 
ATOM      2  C1  UNL d   1       1.922  -1.863  -4.571  0.00  0.00     0.039 A 
ATOM      3  C2  UNL d   1       1.089  -2.758  -5.246  0.00  0.00    -0.080 A 
ATOM      4  C3  UNL d   1      -0.272  -2.485  -5.343  0.00  0.00     0.150 A 
ATOM      5  C4  UNL d   1      -0.810  -1.332  -4.778  0.00  0.00    -0.007 A 
ATOM      6  C5  UNL d   1       0.023  -0.440  -4.104  0.00  0.00     0.039 A 
ENDROOT
BRANCH   4   7
ATOM      7  O   UNL d   1      -1.125  -3.331  -5.988  0.00  0.00    -0.526 OA
ATOM      8  H5  UNL d   1      -0.618  -4.098  -6.302  0.00  0.00     0.418 HD
ENDBRANCH   4   7
TORSDOF 1
ENDMDL
