MODEL 1
REMARK minimizedAffinity 8.43658733
REMARK minimizedRMSD -1
REMARK  1 active torsions:
REMARK  status: ('A' for Active; 'I' for Inactive)
REMARK    1  A    between atoms: C3_4  and  O_7 
ROOT
ATOM      1  C   UNL d   1       3.745  -2.056   4.710  0.00  0.00    -0.033 A 
ATOM      2  C1  UNL d   1       3.358  -3.097   3.865  0.00  0.00     0.039 A 
ATOM      3  C2  UNL d   1       4.103  -4.277   3.820  0.00  0.00    -0.080 A 
ATOM      4  C3  UNL d   1       5.231  -4.403   4.627  0.00  0.00     0.150 A 
ATOM      5  C4  UNL d   1       5.620  -3.371   5.475  0.00  0.00    -0.007 A 
ATOM      6  C5  UNL d   1       4.875  -2.193   5.517  0.00  0.00     0.039 A 
ENDROOT
BRANCH   4   7
ATOM      7  O   UNL d   1       5.993  -5.533   4.614  0.00  0.00    -0.526 OA
ATOM      8  H5  UNL d   1       5.621  -6.148   3.961  0.00  0.00     0.418 HD
ENDBRANCH   4   7
TORSDOF 1
ENDMDL
