MODEL 1
REMARK minimizedAffinity 8.79847622
REMARK minimizedRMSD -1
REMARK  1 active torsions:
REMARK  status: ('A' for Active; 'I' for Inactive)
REMARK    1  A    between atoms: C3_4  and  O_7 
ROOT
ATOM      1  C   UNL d   1      -2.001  -4.631  -5.041  0.00  0.00    -0.033 A 
ATOM      2  C1  UNL d   1      -2.162  -3.991  -3.811  0.00  0.00     0.039 A 
ATOM      3  C2  UNL d   1      -1.423  -2.844  -3.517  0.00  0.00    -0.080 A 
ATOM      4  C3  UNL d   1      -0.529  -2.346  -4.461  0.00  0.00     0.150 A 
ATOM      5  C4  UNL d   1      -0.366  -2.976  -5.690  0.00  0.00    -0.007 A 
ATOM      6  C5  UNL d   1      -1.105  -4.122  -5.982  0.00  0.00     0.039 A 
ENDROOT
BRANCH   4   7
ATOM      7  O   UNL d   1       0.218  -1.232  -4.217  0.00  0.00    -0.526 OA
ATOM      8  H5  UNL d   1       0.022  -0.921  -3.317  0.00  0.00     0.418 HD
ENDBRANCH   4   7
TORSDOF 1
ENDMDL
