MODEL 1
REMARK minimizedAffinity 9.5740099
REMARK minimizedRMSD -1
REMARK  1 active torsions:
REMARK  status: ('A' for Active; 'I' for Inactive)
REMARK    1  A    between atoms: C3_4  and  O_7 
ROOT
ATOM      1  C   UNL d   1      -1.356  -2.974  -3.987  0.00  0.00    -0.033 A 
ATOM      2  C1  UNL d   1      -0.941  -2.325  -5.151  0.00  0.00     0.039 A 
ATOM      3  C2  UNL d   1      -0.188  -1.152  -5.068  0.00  0.00    -0.080 A 
ATOM      4  C3  UNL d   1       0.143  -0.640  -3.816  0.00  0.00     0.150 A 
ATOM      5  C4  UNL d   1      -0.265  -1.283  -2.652  0.00  0.00    -0.007 A 
ATOM      6  C5  UNL d   1      -1.017  -2.454  -2.738  0.00  0.00     0.039 A 
ENDROOT
BRANCH   4   7
ATOM      7  O   UNL d   1       0.872   0.505  -3.684  0.00  0.00    -0.526 OA
ATOM      8  H5  UNL d   1       1.058   0.855  -4.572  0.00  0.00     0.418 HD
ENDBRANCH   4   7
TORSDOF 1
ENDMDL
