MODEL 1
REMARK minimizedAffinity 7.76395321
REMARK minimizedRMSD -1
REMARK  1 active torsions:
REMARK  status: ('A' for Active; 'I' for Inactive)
REMARK    1  A    between atoms: C3_4  and  O_7 
ROOT
ATOM      1  C   UNL d   1       0.996  -0.602   2.473  0.00  0.00    -0.033 A 
ATOM      2  C1  UNL d   1      -0.091  -1.246   1.879  0.00  0.00     0.039 A 
ATOM      3  C2  UNL d   1      -1.300  -0.568   1.711  0.00  0.00    -0.080 A 
ATOM      4  C3  UNL d   1      -1.409   0.752   2.142  0.00  0.00     0.150 A 
ATOM      5  C4  UNL d   1      -0.329   1.400   2.732  0.00  0.00    -0.007 A 
ATOM      6  C5  UNL d   1       0.877   0.722   2.899  0.00  0.00     0.039 A 
ENDROOT
BRANCH   4   7
ATOM      7  O   UNL d   1      -2.570   1.453   2.004  0.00  0.00    -0.526 OA
ATOM      8  H5  UNL d   1      -3.237   0.868   1.607  0.00  0.00     0.418 HD
ENDBRANCH   4   7
TORSDOF 1
ENDMDL
