MODEL 1
REMARK minimizedAffinity 11.2545862
REMARK minimizedRMSD -1
REMARK  1 active torsions:
REMARK  status: ('A' for Active; 'I' for Inactive)
REMARK    1  A    between atoms: C3_4  and  O_7 
ROOT
ATOM      1  C   UNL d   1       2.033  -2.543   4.066  0.00  0.00    -0.033 A 
ATOM      2  C1  UNL d   1       0.857  -2.915   3.412  0.00  0.00     0.039 A 
ATOM      3  C2  UNL d   1      -0.066  -3.746   4.049  0.00  0.00    -0.080 A 
ATOM      4  C3  UNL d   1       0.199  -4.198   5.339  0.00  0.00     0.150 A 
ATOM      5  C4  UNL d   1       1.367  -3.829   5.998  0.00  0.00    -0.007 A 
ATOM      6  C5  UNL d   1       2.287  -2.999   5.360  0.00  0.00     0.039 A 
ENDROOT
BRANCH   4   7
ATOM      7  O   UNL d   1      -0.670  -5.015   6.000  0.00  0.00    -0.526 OA
ATOM      8  H5  UNL d   1      -1.418  -5.210   5.411  0.00  0.00     0.418 HD
ENDBRANCH   4   7
TORSDOF 1
ENDMDL
