MODEL 1
REMARK minimizedAffinity -3.6694293
REMARK minimizedRMSD -1
REMARK  2 active torsions:
REMARK  status: ('A' for Active; 'I' for Inactive)
REMARK    1  A    between atoms: C1_2  and  C2_3 
REMARK    2  A    between atoms: C2_3  and  C3_4 
ROOT
ATOM      1  C3  UNL d   1       0.859   0.741  -0.502  0.00  0.00    -0.075 A 
ATOM      2  C4  UNL d   1       0.966  -0.629  -0.781  0.00  0.00     0.002 A 
ATOM      3  C5  UNL d   1       2.216  -1.217  -0.978  0.00  0.00     0.002 A 
ATOM      4  C6  UNL d   1       3.372  -0.443  -0.909  0.00  0.00    -0.004 A 
ATOM      5  C7  UNL d   1       3.277   0.923  -0.648  0.00  0.00     0.002 A 
ATOM      6  C8  UNL d   1       2.028   1.513  -0.446  0.00  0.00     0.002 A 
ENDROOT
BRANCH   1   7
ATOM      7  C2  UNL d   1      -0.488   1.378  -0.259  0.00  0.00     0.056 C 
BRANCH   7   8
ATOM      8  C1  UNL d   1      -1.480   0.474   0.481  0.00  0.00     0.007 C 
ATOM      9  C   UNL d   1      -1.523   0.731   1.981  0.00  0.00     0.009 C 
ENDBRANCH   7   8
ENDBRANCH   1   7
TORSDOF 2
ENDMDL
