MODEL 1
REMARK minimizedAffinity -4.90115976
REMARK minimizedRMSD -1
REMARK  2 active torsions:
REMARK  status: ('A' for Active; 'I' for Inactive)
REMARK    1  A    between atoms: C1_2  and  C2_3 
REMARK    2  A    between atoms: C2_3  and  C3_4 
ROOT
ATOM      1  C3  UNL d   1      -0.171  -0.015   0.008  0.00  0.00    -0.075 A 
ATOM      2  C4  UNL d   1      -0.114  -1.411  -0.108  0.00  0.00     0.002 A 
ATOM      3  C5  UNL d   1       1.085  -2.046  -0.434  0.00  0.00     0.002 A 
ATOM      4  C6  UNL d   1       2.237  -1.295  -0.656  0.00  0.00    -0.004 A 
ATOM      5  C7  UNL d   1       2.188   0.094  -0.560  0.00  0.00     0.002 A 
ATOM      6  C8  UNL d   1       0.991   0.732  -0.230  0.00  0.00     0.002 A 
ENDROOT
BRANCH   1   7
ATOM      7  C2  UNL d   1      -1.458   0.677   0.389  0.00  0.00     0.056 C 
BRANCH   7   8
ATOM      8  C1  UNL d   1      -1.430   1.327   1.776  0.00  0.00     0.007 C 
ATOM      9  C   UNL d   1      -2.387   0.673   2.765  0.00  0.00     0.009 C 
ENDBRANCH   7   8
ENDBRANCH   1   7
TORSDOF 2
ENDMDL
