MODEL 1
REMARK minimizedAffinity -6.23929977
REMARK minimizedRMSD -1
REMARK  2 active torsions:
REMARK  status: ('A' for Active; 'I' for Inactive)
REMARK    1  A    between atoms: C1_2  and  C2_3 
REMARK    2  A    between atoms: C2_3  and  C3_4 
ROOT
ATOM      1  C3  UNL d   1      -0.495   0.821   0.066  0.00  0.00    -0.075 A 
ATOM      2  C4  UNL d   1      -0.581  -0.567   0.247  0.00  0.00     0.002 A 
ATOM      3  C5  UNL d   1       0.509  -1.388  -0.043  0.00  0.00     0.002 A 
ATOM      4  C6  UNL d   1       1.693  -0.835  -0.525  0.00  0.00    -0.004 A 
ATOM      5  C7  UNL d   1       1.784   0.541  -0.725  0.00  0.00     0.002 A 
ATOM      6  C8  UNL d   1       0.697   1.365  -0.432  0.00  0.00     0.002 A 
ENDROOT
BRANCH   1   7
ATOM      7  C2  UNL d   1      -1.661   1.718   0.405  0.00  0.00     0.056 C 
BRANCH   7   8
ATOM      8  C1  UNL d   1      -1.679   2.194   1.861  0.00  0.00     0.007 C 
ATOM      9  C   UNL d   1      -2.511   1.302   2.774  0.00  0.00     0.009 C 
ENDBRANCH   7   8
ENDBRANCH   1   7
TORSDOF 2
ENDMDL
