MODEL 1
REMARK minimizedAffinity -4.49362135
REMARK minimizedRMSD -1
REMARK  2 active torsions:
REMARK  status: ('A' for Active; 'I' for Inactive)
REMARK    1  A    between atoms: C1_2  and  C2_3 
REMARK    2  A    between atoms: C2_3  and  C3_4 
ROOT
ATOM      1  C3  UNL d   1      -0.208   0.142  -0.007  0.00  0.00    -0.075 A 
ATOM      2  C4  UNL d   1       0.094  -1.175   0.369  0.00  0.00     0.002 A 
ATOM      3  C5  UNL d   1       1.188  -1.837  -0.189  0.00  0.00     0.002 A 
ATOM      4  C6  UNL d   1       1.987  -1.197  -1.133  0.00  0.00    -0.004 A 
ATOM      5  C7  UNL d   1       1.686   0.106  -1.526  0.00  0.00     0.002 A 
ATOM      6  C8  UNL d   1       0.595   0.772  -0.967  0.00  0.00     0.002 A 
ENDROOT
BRANCH   1   7
ATOM      7  C2  UNL d   1      -1.373   0.875   0.614  0.00  0.00     0.056 C 
BRANCH   7   8
ATOM      8  C1  UNL d   1      -1.682   0.449   2.053  0.00  0.00     0.007 C 
ATOM      9  C   UNL d   1      -1.877   1.626   2.999  0.00  0.00     0.009 C 
ENDBRANCH   7   8
ENDBRANCH   1   7
TORSDOF 2
ENDMDL
