MODEL 1
REMARK minimizedAffinity -1.47884667
REMARK minimizedRMSD -1
REMARK  2 active torsions:
REMARK  status: ('A' for Active; 'I' for Inactive)
REMARK    1  A    between atoms: C1_2  and  C2_3 
REMARK    2  A    between atoms: C2_3  and  C3_4 
ROOT
ATOM      1  C3  UNL d   1       0.909   0.346  -0.686  0.00  0.00    -0.075 A 
ATOM      2  C4  UNL d   1       0.875  -0.952  -0.156  0.00  0.00     0.002 A 
ATOM      3  C5  UNL d   1      -0.212  -1.375   0.610  0.00  0.00     0.002 A 
ATOM      4  C6  UNL d   1      -1.270  -0.506   0.864  0.00  0.00    -0.004 A 
ATOM      5  C7  UNL d   1      -1.238   0.791   0.357  0.00  0.00     0.002 A 
ATOM      6  C8  UNL d   1      -0.155   1.216  -0.414  0.00  0.00     0.002 A 
ENDROOT
BRANCH   1   7
ATOM      7  C2  UNL d   1       2.068   0.801  -1.540  0.00  0.00     0.056 C 
BRANCH   7   8
ATOM      8  C1  UNL d   1       3.026  -0.325  -1.942  0.00  0.00     0.007 C 
ATOM      9  C   UNL d   1       2.435  -1.277  -2.974  0.00  0.00     0.009 C 
ENDBRANCH   7   8
ENDBRANCH   1   7
TORSDOF 2
ENDMDL
