MODEL 1
REMARK minimizedAffinity -0.882495046
REMARK minimizedRMSD -1
REMARK  2 active torsions:
REMARK  status: ('A' for Active; 'I' for Inactive)
REMARK    1  A    between atoms: C1_2  and  C2_3 
REMARK    2  A    between atoms: C2_3  and  C3_4 
ROOT
ATOM      1  C3  UNL d   1       1.107  -0.868  -0.763  0.00  0.00    -0.075 A 
ATOM      2  C4  UNL d   1       0.817   0.496  -0.914  0.00  0.00     0.002 A 
ATOM      3  C5  UNL d   1      -0.219   1.085  -0.188  0.00  0.00     0.002 A 
ATOM      4  C6  UNL d   1      -0.983   0.318   0.688  0.00  0.00    -0.004 A 
ATOM      5  C7  UNL d   1      -0.715  -1.042   0.834  0.00  0.00     0.002 A 
ATOM      6  C8  UNL d   1       0.324  -1.633   0.112  0.00  0.00     0.002 A 
ENDROOT
BRANCH   1   7
ATOM      7  C2  UNL d   1       2.245  -1.505  -1.523  0.00  0.00     0.056 C 
BRANCH   7   8
ATOM      8  C1  UNL d   1       1.898  -2.862  -2.145  0.00  0.00     0.007 C 
ATOM      9  C   UNL d   1       1.457  -2.761  -3.599  0.00  0.00     0.009 C 
ENDBRANCH   7   8
ENDBRANCH   1   7
TORSDOF 2
ENDMDL
