MODEL 1
REMARK minimizedAffinity -5.90217686
REMARK minimizedRMSD -1
REMARK  2 active torsions:
REMARK  status: ('A' for Active; 'I' for Inactive)
REMARK    1  A    between atoms: C1_2  and  C2_3 
REMARK    2  A    between atoms: C2_3  and  C3_4 
ROOT
ATOM      1  C3  UNL d   1      -0.168   0.006   0.122  0.00  0.00    -0.075 A 
ATOM      2  C4  UNL d   1       0.179  -1.341  -0.062  0.00  0.00     0.002 A 
ATOM      3  C5  UNL d   1       1.361  -1.684  -0.719  0.00  0.00     0.002 A 
ATOM      4  C6  UNL d   1       2.204  -0.689  -1.209  0.00  0.00    -0.004 A 
ATOM      5  C7  UNL d   1       1.860   0.652  -1.047  0.00  0.00     0.002 A 
ATOM      6  C8  UNL d   1       0.681   0.998  -0.385  0.00  0.00     0.002 A 
ENDROOT
BRANCH   1   7
ATOM      7  C2  UNL d   1      -1.431   0.384   0.858  0.00  0.00     0.056 C 
BRANCH   7   8
ATOM      8  C1  UNL d   1      -1.224   1.439   1.950  0.00  0.00     0.007 C 
ATOM      9  C   UNL d   1      -1.942   1.106   3.251  0.00  0.00     0.009 C 
ENDBRANCH   7   8
ENDBRANCH   1   7
TORSDOF 2
ENDMDL
