MODEL 1
REMARK minimizedAffinity -5.08320904
REMARK minimizedRMSD -1
REMARK  2 active torsions:
REMARK  status: ('A' for Active; 'I' for Inactive)
REMARK    1  A    between atoms: C1_2  and  C2_3 
REMARK    2  A    between atoms: C2_3  and  C3_4 
ROOT
ATOM      1  C3  UNL d   1       0.575  -0.512  -0.254  0.00  0.00    -0.075 A 
ATOM      2  C4  UNL d   1       0.804  -1.405  -1.311  0.00  0.00     0.002 A 
ATOM      3  C5  UNL d   1       1.992  -1.349  -2.041  0.00  0.00     0.002 A 
ATOM      4  C6  UNL d   1       2.959  -0.396  -1.731  0.00  0.00    -0.004 A 
ATOM      5  C7  UNL d   1       2.735   0.507  -0.693  0.00  0.00     0.002 A 
ATOM      6  C8  UNL d   1       1.550   0.450   0.041  0.00  0.00     0.002 A 
ENDROOT
BRANCH   1   7
ATOM      7  C2  UNL d   1      -0.695  -0.587   0.559  0.00  0.00     0.056 C 
BRANCH   7   8
ATOM      8  C1  UNL d   1      -1.407   0.760   0.729  0.00  0.00     0.007 C 
ATOM      9  C   UNL d   1      -1.779   1.064   2.174  0.00  0.00     0.009 C 
ENDBRANCH   7   8
ENDBRANCH   1   7
TORSDOF 2
ENDMDL
