MODEL 1
REMARK minimizedAffinity -5.55470324
REMARK minimizedRMSD -1
REMARK  2 active torsions:
REMARK  status: ('A' for Active; 'I' for Inactive)
REMARK    1  A    between atoms: C1_2  and  C2_3 
REMARK    2  A    between atoms: C2_3  and  C3_4 
ROOT
ATOM      1  C3  UNL d   1      -0.114   0.168  -0.174  0.00  0.00    -0.075 A 
ATOM      2  C4  UNL d   1       0.042  -1.219  -0.314  0.00  0.00     0.002 A 
ATOM      3  C5  UNL d   1       1.276  -1.760  -0.678  0.00  0.00     0.002 A 
ATOM      4  C6  UNL d   1       2.363  -0.923  -0.917  0.00  0.00    -0.004 A 
ATOM      5  C7  UNL d   1       2.215   0.457  -0.797  0.00  0.00     0.002 A 
ATOM      6  C8  UNL d   1       0.984   1.001  -0.428  0.00  0.00     0.002 A 
ENDROOT
BRANCH   1   7
ATOM      7  C2  UNL d   1      -1.438   0.757   0.249  0.00  0.00     0.056 C 
BRANCH   7   8
ATOM      8  C1  UNL d   1      -1.427   1.374   1.652  0.00  0.00     0.007 C 
ATOM      9  C   UNL d   1      -2.335   0.646   2.634  0.00  0.00     0.009 C 
ENDBRANCH   7   8
ENDBRANCH   1   7
TORSDOF 2
ENDMDL
