MODEL 1
REMARK minimizedAffinity -3.29202509
REMARK minimizedRMSD -1
REMARK  2 active torsions:
REMARK  status: ('A' for Active; 'I' for Inactive)
REMARK    1  A    between atoms: C1_2  and  C2_3 
REMARK    2  A    between atoms: C2_3  and  C3_4 
ROOT
ATOM      1  C3  UNL d   1      -0.249  -0.229  -0.036  0.00  0.00    -0.075 A 
ATOM      2  C4  UNL d   1       0.149  -1.509   0.375  0.00  0.00     0.002 A 
ATOM      3  C5  UNL d   1       1.408  -2.004   0.031  0.00  0.00     0.002 A 
ATOM      4  C6  UNL d   1       2.277  -1.231  -0.735  0.00  0.00    -0.004 A 
ATOM      5  C7  UNL d   1       1.886   0.036  -1.163  0.00  0.00     0.002 A 
ATOM      6  C8  UNL d   1       0.629   0.535  -0.816  0.00  0.00     0.002 A 
ENDROOT
BRANCH   1   7
ATOM      7  C2  UNL d   1      -1.598   0.324   0.359  0.00  0.00     0.056 C 
BRANCH   7   8
ATOM      8  C1  UNL d   1      -2.041  -0.061   1.774  0.00  0.00     0.007 C 
ATOM      9  C   UNL d   1      -1.836   1.053   2.792  0.00  0.00     0.009 C 
ENDBRANCH   7   8
ENDBRANCH   1   7
TORSDOF 2
ENDMDL
