MODEL 1
REMARK minimizedAffinity -4.40519905
REMARK minimizedRMSD -1
REMARK  2 active torsions:
REMARK  status: ('A' for Active; 'I' for Inactive)
REMARK    1  A    between atoms: C1_2  and  C2_3 
REMARK    2  A    between atoms: C2_3  and  C3_4 
ROOT
ATOM      1  C3  UNL d   1       0.732  -0.594  -0.179  0.00  0.00    -0.075 A 
ATOM      2  C4  UNL d   1       1.066  -1.399  -1.278  0.00  0.00     0.002 A 
ATOM      3  C5  UNL d   1       2.284  -1.231  -1.936  0.00  0.00     0.002 A 
ATOM      4  C6  UNL d   1       3.179  -0.251  -1.511  0.00  0.00    -0.004 A 
ATOM      5  C7  UNL d   1       2.851   0.565  -0.431  0.00  0.00     0.002 A 
ATOM      6  C8  UNL d   1       1.634   0.396   0.232  0.00  0.00     0.002 A 
ENDROOT
BRANCH   1   7
ATOM      7  C2  UNL d   1      -0.572  -0.791   0.555  0.00  0.00     0.056 C 
BRANCH   7   8
ATOM      8  C1  UNL d   1      -1.365   0.502   0.776  0.00  0.00     0.007 C 
ATOM      9  C   UNL d   1      -1.662   0.781   2.243  0.00  0.00     0.009 C 
ENDBRANCH   7   8
ENDBRANCH   1   7
TORSDOF 2
ENDMDL
