MODEL 1
REMARK minimizedAffinity -4.3120079
REMARK minimizedRMSD -1
REMARK  2 active torsions:
REMARK  status: ('A' for Active; 'I' for Inactive)
REMARK    1  A    between atoms: C1_2  and  C2_3 
REMARK    2  A    between atoms: C2_3  and  C3_4 
ROOT
ATOM      1  C3  UNL d   1      -1.516   0.857   0.510  0.00  0.00    -0.075 A 
ATOM      2  C4  UNL d   1      -0.346   0.096   0.378  0.00  0.00     0.002 A 
ATOM      3  C5  UNL d   1       0.644   0.470  -0.532  0.00  0.00     0.002 A 
ATOM      4  C6  UNL d   1       0.472   1.601  -1.326  0.00  0.00    -0.004 A 
ATOM      5  C7  UNL d   1      -0.694   2.355  -1.216  0.00  0.00     0.002 A 
ATOM      6  C8  UNL d   1      -1.684   1.986  -0.303  0.00  0.00     0.002 A 
ENDROOT
BRANCH   1   7
ATOM      7  C2  UNL d   1      -2.578   0.474   1.513  0.00  0.00     0.056 C 
BRANCH   7   8
ATOM      8  C1  UNL d   1      -2.549   1.306   2.800  0.00  0.00     0.007 C 
ATOM      9  C   UNL d   1      -1.990   0.544   3.994  0.00  0.00     0.009 C 
ENDBRANCH   7   8
ENDBRANCH   1   7
TORSDOF 2
ENDMDL
