MODEL 1
REMARK minimizedAffinity 2.66971302
REMARK minimizedRMSD -1
REMARK  0 active torsions:
REMARK  status: ('A' for Active; 'I' for Inactive)
ROOT
ATOM      1  C1  DEN d   1      -0.749  -0.791  -1.904  0.00  0.00     0.130 A 
ATOM      2  C2  DEN d   1      -0.582  -2.177  -1.475  0.00  0.00    -0.031 A 
ATOM      3  C3  DEN d   1      -0.323  -2.999  -2.675  0.00  0.00     0.027 A 
ATOM      4  C4  DEN d   1      -0.161  -2.262  -5.141  0.00  0.00     0.027 A 
ATOM      5  C5  DEN d   1      -0.243  -1.188  -6.000  0.00  0.00    -0.003 A 
ATOM      6  C6  DEN d   1      -0.531   0.077  -5.561  0.00  0.00     0.001 A 
ATOM      7  C7  DEN d   1      -0.703   0.308  -4.222  0.00  0.00     0.017 A 
ATOM      8  C8  DEN d   1      -0.628  -0.771  -3.351  0.00  0.00    -0.094 A 
ATOM      9  C9  DEN d   1      -0.324  -2.040  -3.813  0.00  0.00    -0.072 A 
ENDROOT
TORSDOF 0
ENDMDL
