MODEL 1
REMARK minimizedAffinity -3.12458944
REMARK minimizedRMSD -1
REMARK  0 active torsions:
REMARK  status: ('A' for Active; 'I' for Inactive)
ROOT
ATOM      1  C1  DEN d   1       3.437  -2.908  -2.956  0.00  0.00     0.130 A 
ATOM      2  C2  DEN d   1       3.914  -2.999  -1.579  0.00  0.00    -0.031 A 
ATOM      3  C3  DEN d   1       2.739  -2.950  -0.685  0.00  0.00     0.027 A 
ATOM      4  C4  DEN d   1       0.242  -2.748  -1.297  0.00  0.00     0.027 A 
ATOM      5  C5  DEN d   1      -0.653  -2.629  -2.338  0.00  0.00    -0.003 A 
ATOM      6  C6  DEN d   1      -0.248  -2.561  -3.645  0.00  0.00     0.001 A 
ATOM      7  C7  DEN d   1       1.084  -2.657  -3.948  0.00  0.00     0.017 A 
ATOM      8  C8  DEN d   1       1.993  -2.770  -2.904  0.00  0.00    -0.094 A 
ATOM      9  C9  DEN d   1       1.563  -2.849  -1.591  0.00  0.00    -0.072 A 
ENDROOT
TORSDOF 0
ENDMDL
