MODEL 1
REMARK minimizedAffinity -1.86956215
REMARK minimizedRMSD -1
REMARK  0 active torsions:
REMARK  status: ('A' for Active; 'I' for Inactive)
ROOT
ATOM      1  C1  DEN d   1      -0.155  -2.676  -3.393  0.00  0.00     0.130 A 
ATOM      2  C2  DEN d   1      -1.044  -2.609  -2.235  0.00  0.00    -0.031 A 
ATOM      3  C3  DEN d   1      -1.873  -1.394  -2.367  0.00  0.00     0.027 A 
ATOM      4  C4  DEN d   1      -1.872   0.376  -4.243  0.00  0.00     0.027 A 
ATOM      5  C5  DEN d   1      -1.285   0.753  -5.431  0.00  0.00    -0.003 A 
ATOM      6  C6  DEN d   1      -0.265   0.037  -6.000  0.00  0.00     0.001 A 
ATOM      7  C7  DEN d   1       0.169  -1.118  -5.405  0.00  0.00     0.017 A 
ATOM      8  C8  DEN d   1      -0.414  -1.500  -4.204  0.00  0.00    -0.094 A 
ATOM      9  C9  DEN d   1      -1.452  -0.770  -3.650  0.00  0.00    -0.072 A 
ENDROOT
TORSDOF 0
ENDMDL
