MODEL 1
REMARK minimizedAffinity 7.2514677
REMARK minimizedRMSD -1
REMARK  0 active torsions:
REMARK  status: ('A' for Active; 'I' for Inactive)
ROOT
ATOM      1  C1  DEN d   1      -1.551  -2.945   0.413  0.00  0.00     0.130 A 
ATOM      2  C2  DEN d   1      -2.826  -2.870  -0.296  0.00  0.00    -0.031 A 
ATOM      3  C3  DEN d   1      -3.490  -1.609   0.091  0.00  0.00     0.027 A 
ATOM      4  C4  DEN d   1      -2.669   0.227   1.707  0.00  0.00     0.027 A 
ATOM      5  C5  DEN d   1      -1.652   0.602   2.556  0.00  0.00    -0.003 A 
ATOM      6  C6  DEN d   1      -0.554  -0.188   2.774  0.00  0.00     0.001 A 
ATOM      7  C7  DEN d   1      -0.427  -1.374   2.101  0.00  0.00     0.017 A 
ATOM      8  C8  DEN d   1      -1.452  -1.763   1.249  0.00  0.00    -0.094 A 
ATOM      9  C9  DEN d   1      -2.548  -0.944   1.032  0.00  0.00    -0.072 A 
ENDROOT
TORSDOF 0
ENDMDL
