MODEL 1
REMARK minimizedAffinity 4.11584282
REMARK minimizedRMSD -1
REMARK  0 active torsions:
REMARK  status: ('A' for Active; 'I' for Inactive)
ROOT
ATOM      1  C1  DEN d   1      -3.931   1.336   1.128  0.00  0.00     0.130 A 
ATOM      2  C2  DEN d   1      -4.754   0.788   0.053  0.00  0.00    -0.031 A 
ATOM      3  C3  DEN d   1      -4.103  -0.443  -0.439  0.00  0.00     0.027 A 
ATOM      4  C4  DEN d   1      -1.914  -1.550   0.358  0.00  0.00     0.027 A 
ATOM      5  C5  DEN d   1      -0.858  -1.445   1.236  0.00  0.00    -0.003 A 
ATOM      6  C6  DEN d   1      -0.736  -0.397   2.109  0.00  0.00     0.001 A 
ATOM      7  C7  DEN d   1      -1.709   0.566   2.155  0.00  0.00     0.017 A 
ATOM      8  C8  DEN d   1      -2.773   0.471   1.267  0.00  0.00    -0.094 A 
ATOM      9  C9  DEN d   1      -2.885  -0.603   0.400  0.00  0.00    -0.072 A 
ENDROOT
TORSDOF 0
ENDMDL
