MODEL 1
REMARK minimizedAffinity 2.80467558
REMARK minimizedRMSD -1
REMARK  0 active torsions:
REMARK  status: ('A' for Active; 'I' for Inactive)
ROOT
ATOM      1  C2' OXE d   1      -3.273   2.011   3.591  0.00  0.00     0.078 C 
ATOM      2  C1' OXE d   1      -2.679  -0.722   3.344  0.00  0.00     0.078 C 
ATOM      3  C1  OXE d   1      -1.728   0.264   2.713  0.00  0.00    -0.078 A 
ATOM      4  C2  OXE d   1      -2.051   1.597   2.799  0.00  0.00    -0.078 A 
ATOM      5  C3  OXE d   1      -1.180   2.552   2.282  0.00  0.00     0.003 A 
ATOM      6  C4  OXE d   1      -0.057   2.161   1.542  0.00  0.00    -0.002 A 
ATOM      7  C5  OXE d   1       0.269   0.807   1.409  0.00  0.00    -0.002 A 
ATOM      8  C6  OXE d   1      -0.532  -0.150   2.023  0.00  0.00     0.003 A 
ENDROOT
TORSDOF 0
ENDMDL
