MODEL 1
REMARK minimizedAffinity 1.06049323
REMARK minimizedRMSD -1
REMARK  0 active torsions:
REMARK  status: ('A' for Active; 'I' for Inactive)
ROOT
ATOM      1  C2' OXE d   1      -3.201   1.982   3.573  0.00  0.00     0.078 C 
ATOM      2  C1' OXE d   1      -3.241  -0.788   3.115  0.00  0.00     0.078 C 
ATOM      3  C1  OXE d   1      -2.101   0.006   2.527  0.00  0.00    -0.078 A 
ATOM      4  C2  OXE d   1      -2.114   1.367   2.717  0.00  0.00    -0.078 A 
ATOM      5  C3  OXE d   1      -1.058   2.139   2.243  0.00  0.00     0.003 A 
ATOM      6  C4  OXE d   1      -0.062   1.565   1.444  0.00  0.00    -0.002 A 
ATOM      7  C5  OXE d   1      -0.051   0.186   1.205  0.00  0.00    -0.002 A 
ATOM      8  C6  OXE d   1      -1.038  -0.612   1.774  0.00  0.00     0.003 A 
ENDROOT
TORSDOF 0
ENDMDL
