MODEL 1
REMARK minimizedAffinity 7.84492064
REMARK minimizedRMSD -1
REMARK  0 active torsions:
REMARK  status: ('A' for Active; 'I' for Inactive)
ROOT
ATOM      1  C2' OXE d   1      -0.617  -1.997   2.284  0.00  0.00     0.078 C 
ATOM      2  C1' OXE d   1       1.264  -0.647   3.872  0.00  0.00     0.078 C 
ATOM      3  C1  OXE d   1       0.768   0.045   2.626  0.00  0.00    -0.078 A 
ATOM      4  C2  OXE d   1      -0.117  -0.643   1.831  0.00  0.00    -0.078 A 
ATOM      5  C3  OXE d   1      -0.647  -0.029   0.700  0.00  0.00     0.003 A 
ATOM      6  C4  OXE d   1      -0.172   1.220   0.282  0.00  0.00    -0.002 A 
ATOM      7  C5  OXE d   1       0.759   1.920   1.057  0.00  0.00    -0.002 A 
ATOM      8  C6  OXE d   1       1.206   1.367   2.251  0.00  0.00     0.003 A 
ENDROOT
TORSDOF 0
ENDMDL
