MODEL 1
REMARK minimizedAffinity 2.00338221
REMARK minimizedRMSD -1
REMARK  0 active torsions:
REMARK  status: ('A' for Active; 'I' for Inactive)
ROOT
ATOM      1  C2' OXE d   1      -4.436   1.858   4.360  0.00  0.00     0.078 C 
ATOM      2  C1' OXE d   1      -3.775  -0.645   3.273  0.00  0.00     0.078 C 
ATOM      3  C1  OXE d   1      -2.862   0.517   2.971  0.00  0.00    -0.078 A 
ATOM      4  C2  OXE d   1      -3.218   1.747   3.468  0.00  0.00    -0.078 A 
ATOM      5  C3  OXE d   1      -2.381   2.841   3.265  0.00  0.00     0.003 A 
ATOM      6  C4  OXE d   1      -1.262   2.732   2.430  0.00  0.00    -0.002 A 
ATOM      7  C5  OXE d   1      -0.904   1.497   1.881  0.00  0.00    -0.002 A 
ATOM      8  C6  OXE d   1      -1.667   0.373   2.176  0.00  0.00     0.003 A 
ENDROOT
TORSDOF 0
ENDMDL
