MODEL 1
REMARK minimizedAffinity -0.126990139
REMARK minimizedRMSD -1
REMARK  0 active torsions:
REMARK  status: ('A' for Active; 'I' for Inactive)
ROOT
ATOM      1  C2' OXE d   1       0.970   0.833   1.238  0.00  0.00     0.078 C 
ATOM      2  C1' OXE d   1      -0.691  -1.333   1.895  0.00  0.00     0.078 C 
ATOM      3  C1  OXE d   1      -1.222   0.059   2.134  0.00  0.00    -0.078 A 
ATOM      4  C2  OXE d   1      -0.384   1.112   1.853  0.00  0.00    -0.078 A 
ATOM      5  C3  OXE d   1      -0.843   2.417   2.004  0.00  0.00     0.003 A 
ATOM      6  C4  OXE d   1      -2.093   2.666   2.583  0.00  0.00    -0.002 A 
ATOM      7  C5  OXE d   1      -2.947   1.608   2.913  0.00  0.00    -0.002 A 
ATOM      8  C6  OXE d   1      -2.544   0.302   2.656  0.00  0.00     0.003 A 
ENDROOT
TORSDOF 0
ENDMDL
