MODEL 1
REMARK minimizedAffinity 7.33226538
REMARK minimizedRMSD -1
REMARK  0 active torsions:
REMARK  status: ('A' for Active; 'I' for Inactive)
ROOT
ATOM      1  C2' OXE d   1      -4.132  -0.541  -1.885  0.00  0.00     0.078 C 
ATOM      2  C1' OXE d   1      -3.289  -2.422  -3.790  0.00  0.00     0.078 C 
ATOM      3  C1  OXE d   1      -3.759  -2.938  -2.453  0.00  0.00    -0.078 A 
ATOM      4  C2  OXE d   1      -4.126  -2.007  -1.510  0.00  0.00    -0.078 A 
ATOM      5  C3  OXE d   1      -4.619  -2.430  -0.279  0.00  0.00     0.003 A 
ATOM      6  C4  OXE d   1      -4.600  -3.788   0.063  0.00  0.00    -0.002 A 
ATOM      7  C5  OXE d   1      -4.194  -4.749  -0.868  0.00  0.00    -0.002 A 
ATOM      8  C6  OXE d   1      -3.811  -4.345  -2.143  0.00  0.00     0.003 A 
ENDROOT
TORSDOF 0
ENDMDL
