MODEL 1
REMARK minimizedAffinity -2.17798543
REMARK minimizedRMSD -1
REMARK  0 active torsions:
REMARK  status: ('A' for Active; 'I' for Inactive)
ROOT
ATOM      1  C2' OXE d   1      -2.673   1.623   3.078  0.00  0.00     0.078 C 
ATOM      2  C1' OXE d   1      -1.800  -1.033   2.823  0.00  0.00     0.078 C 
ATOM      3  C1  OXE d   1      -0.968   0.046   2.175  0.00  0.00    -0.078 A 
ATOM      4  C2  OXE d   1      -1.428   1.338   2.265  0.00  0.00    -0.078 A 
ATOM      5  C3  OXE d   1      -0.671   2.378   1.733  0.00  0.00     0.003 A 
ATOM      6  C4  OXE d   1       0.474   2.105   0.975  0.00  0.00    -0.002 A 
ATOM      7  C5  OXE d   1       0.938   0.792   0.837  0.00  0.00    -0.002 A 
ATOM      8  C6  OXE d   1       0.254  -0.242   1.465  0.00  0.00     0.003 A 
ENDROOT
TORSDOF 0
ENDMDL
