MODEL 1
REMARK minimizedAffinity 3.9271009
REMARK minimizedRMSD -1
REMARK  0 active torsions:
REMARK  status: ('A' for Active; 'I' for Inactive)
ROOT
ATOM      1  C2' OXE d   1      -1.105   2.281   1.582  0.00  0.00     0.078 C 
ATOM      2  C1' OXE d   1      -1.023  -0.366   2.514  0.00  0.00     0.078 C 
ATOM      3  C1  OXE d   1       0.086   0.093   1.601  0.00  0.00    -0.078 A 
ATOM      4  C2  OXE d   1       0.013   1.375   1.112  0.00  0.00    -0.078 A 
ATOM      5  C3  OXE d   1       1.038   1.867   0.310  0.00  0.00     0.003 A 
ATOM      6  C4  OXE d   1       2.063   1.019  -0.128  0.00  0.00    -0.002 A 
ATOM      7  C5  OXE d   1       2.135  -0.302   0.326  0.00  0.00    -0.002 A 
ATOM      8  C6  OXE d   1       1.180  -0.767   1.223  0.00  0.00     0.003 A 
ENDROOT
TORSDOF 0
ENDMDL
