MODEL 1
REMARK minimizedAffinity 2.59557271
REMARK minimizedRMSD -1
REMARK  0 active torsions:
REMARK  status: ('A' for Active; 'I' for Inactive)
ROOT
ATOM      1  C2' OXE d   1      -3.949   2.058   3.784  0.00  0.00     0.078 C 
ATOM      2  C1' OXE d   1      -3.361  -0.550   2.927  0.00  0.00     0.078 C 
ATOM      3  C1  OXE d   1      -2.442   0.561   2.483  0.00  0.00    -0.078 A 
ATOM      4  C2  OXE d   1      -2.764   1.840   2.868  0.00  0.00    -0.078 A 
ATOM      5  C3  OXE d   1      -1.920   2.894   2.531  0.00  0.00     0.003 A 
ATOM      6  C4  OXE d   1      -0.832   2.685   1.675  0.00  0.00    -0.002 A 
ATOM      7  C5  OXE d   1      -0.509   1.396   1.239  0.00  0.00    -0.002 A 
ATOM      8  C6  OXE d   1      -1.278   0.319   1.667  0.00  0.00     0.003 A 
ENDROOT
TORSDOF 0
ENDMDL
