MODEL 1
REMARK minimizedAffinity -2.85586238
REMARK minimizedRMSD -1
REMARK  0 active torsions:
REMARK  status: ('A' for Active; 'I' for Inactive)
ROOT
ATOM      1  C2' OXE d   1       0.301   1.210   0.354  0.00  0.00     0.078 C 
ATOM      2  C1' OXE d   1      -1.013  -1.049   1.380  0.00  0.00     0.078 C 
ATOM      3  C1  OXE d   1      -1.482   0.308   1.842  0.00  0.00    -0.078 A 
ATOM      4  C2  OXE d   1      -0.803   1.406   1.371  0.00  0.00    -0.078 A 
ATOM      5  C3  OXE d   1      -1.230   2.683   1.722  0.00  0.00     0.003 A 
ATOM      6  C4  OXE d   1      -2.245   2.855   2.670  0.00  0.00    -0.002 A 
ATOM      7  C5  OXE d   1      -2.924   1.749   3.193  0.00  0.00    -0.002 A 
ATOM      8  C6  OXE d   1      -2.583   0.473   2.758  0.00  0.00     0.003 A 
ENDROOT
TORSDOF 0
ENDMDL
