MODEL 1
REMARK minimizedAffinity -2.01517558
REMARK minimizedRMSD -1
REMARK  0 active torsions:
REMARK  status: ('A' for Active; 'I' for Inactive)
ROOT
ATOM      1  C2' OXE d   1      -1.826  -5.852  -0.331  0.00  0.00     0.078 C 
ATOM      2  C1' OXE d   1      -3.646  -3.782  -0.862  0.00  0.00     0.078 C 
ATOM      3  C1  OXE d   1      -2.760  -3.646   0.351  0.00  0.00    -0.078 A 
ATOM      4  C2  OXE d   1      -1.905  -4.685   0.629  0.00  0.00    -0.078 A 
ATOM      5  C3  OXE d   1      -1.027  -4.586   1.705  0.00  0.00     0.003 A 
ATOM      6  C4  OXE d   1      -1.114  -3.508   2.594  0.00  0.00    -0.002 A 
ATOM      7  C5  OXE d   1      -2.006  -2.458   2.351  0.00  0.00    -0.002 A 
ATOM      8  C6  OXE d   1      -2.804  -2.491   1.213  0.00  0.00     0.003 A 
ENDROOT
TORSDOF 0
ENDMDL
