MODEL 1
REMARK minimizedAffinity -0.615135372
REMARK minimizedRMSD -1
REMARK  0 active torsions:
REMARK  status: ('A' for Active; 'I' for Inactive)
ROOT
ATOM      1  C2' OXE d   1      -2.932   2.142   3.220  0.00  0.00     0.078 C 
ATOM      2  C1' OXE d   1      -3.096  -0.649   2.971  0.00  0.00     0.078 C 
ATOM      3  C1  OXE d   1      -1.908   0.044   2.352  0.00  0.00    -0.078 A 
ATOM      4  C2  OXE d   1      -1.860   1.414   2.438  0.00  0.00    -0.078 A 
ATOM      5  C3  OXE d   1      -0.759   2.099   1.931  0.00  0.00     0.003 A 
ATOM      6  C4  OXE d   1       0.223   1.419   1.200  0.00  0.00    -0.002 A 
ATOM      7  C5  OXE d   1       0.172   0.028   1.066  0.00  0.00    -0.002 A 
ATOM      8  C6  OXE d   1      -0.862  -0.678   1.671  0.00  0.00     0.003 A 
ENDROOT
TORSDOF 0
ENDMDL
