MODEL 1
REMARK minimizedAffinity 9.49138927
REMARK minimizedRMSD -1
REMARK  0 active torsions:
REMARK  status: ('A' for Active; 'I' for Inactive)
ROOT
ATOM      1  C2' OXE d   1       1.035   2.036   0.392  0.00  0.00     0.078 C 
ATOM      2  C1' OXE d   1      -1.134   2.545   2.100  0.00  0.00     0.078 C 
ATOM      3  C1  OXE d   1      -0.609   1.133   2.032  0.00  0.00    -0.078 A 
ATOM      4  C2  OXE d   1       0.423   0.884   1.159  0.00  0.00    -0.078 A 
ATOM      5  C3  OXE d   1       0.981  -0.390   1.097  0.00  0.00     0.003 A 
ATOM      6  C4  OXE d   1       0.403  -1.453   1.802  0.00  0.00    -0.002 A 
ATOM      7  C5  OXE d   1      -0.674  -1.228   2.667  0.00  0.00    -0.002 A 
ATOM      8  C6  OXE d   1      -1.163   0.064   2.825  0.00  0.00     0.003 A 
ENDROOT
TORSDOF 0
ENDMDL
