MODEL 1
REMARK minimizedAffinity -1.04318619
REMARK minimizedRMSD -1
REMARK  0 active torsions:
REMARK  status: ('A' for Active; 'I' for Inactive)
ROOT
ATOM      1  C2' OXE d   1      -2.935   2.113   3.049  0.00  0.00     0.078 C 
ATOM      2  C1' OXE d   1      -2.824  -0.671   2.704  0.00  0.00     0.078 C 
ATOM      3  C1  OXE d   1      -1.665   0.148   2.194  0.00  0.00    -0.078 A 
ATOM      4  C2  OXE d   1      -1.749   1.513   2.325  0.00  0.00    -0.078 A 
ATOM      5  C3  OXE d   1      -0.682   2.311   1.921  0.00  0.00     0.003 A 
ATOM      6  C4  OXE d   1       0.406   1.750   1.243  0.00  0.00    -0.002 A 
ATOM      7  C5  OXE d   1       0.493   0.365   1.064  0.00  0.00    -0.002 A 
ATOM      8  C6  OXE d   1      -0.511  -0.452   1.570  0.00  0.00     0.003 A 
ENDROOT
TORSDOF 0
ENDMDL
