MODEL 1
REMARK minimizedAffinity -0.505303025
REMARK minimizedRMSD -1
REMARK  0 active torsions:
REMARK  status: ('A' for Active; 'I' for Inactive)
ROOT
ATOM      1  C2' OXE d   1      -2.972   2.529   3.294  0.00  0.00     0.078 C 
ATOM      2  C1' OXE d   1      -3.170  -0.266   3.116  0.00  0.00     0.078 C 
ATOM      3  C1  OXE d   1      -2.014   0.404   2.415  0.00  0.00    -0.078 A 
ATOM      4  C2  OXE d   1      -1.951   1.775   2.468  0.00  0.00    -0.078 A 
ATOM      5  C3  OXE d   1      -0.876   2.439   1.885  0.00  0.00     0.003 A 
ATOM      6  C4  OXE d   1       0.058   1.735   1.115  0.00  0.00    -0.002 A 
ATOM      7  C5  OXE d   1      -0.010   0.342   1.015  0.00  0.00    -0.002 A 
ATOM      8  C6  OXE d   1      -1.013  -0.342   1.693  0.00  0.00     0.003 A 
ENDROOT
TORSDOF 0
ENDMDL
