MODEL 1
REMARK minimizedAffinity -0.394393593
REMARK minimizedRMSD -1
REMARK  0 active torsions:
REMARK  status: ('A' for Active; 'I' for Inactive)
ROOT
ATOM      1  C2' OXE d   1      -1.958   2.260   1.869  0.00  0.00     0.078 C 
ATOM      2  C1' OXE d   1      -2.059  -0.520   1.493  0.00  0.00     0.078 C 
ATOM      3  C1  OXE d   1      -0.753   0.181   1.212  0.00  0.00    -0.078 A 
ATOM      4  C2  OXE d   1      -0.726   1.548   1.354  0.00  0.00    -0.078 A 
ATOM      5  C3  OXE d   1       0.467   2.238   1.160  0.00  0.00     0.003 A 
ATOM      6  C4  OXE d   1       1.599   1.572   0.674  0.00  0.00    -0.002 A 
ATOM      7  C5  OXE d   1       1.582   0.187   0.485  0.00  0.00    -0.002 A 
ATOM      8  C6  OXE d   1       0.429  -0.528   0.789  0.00  0.00     0.003 A 
ENDROOT
TORSDOF 0
ENDMDL
