MODEL 1
REMARK minimizedAffinity -4.65444946
REMARK minimizedRMSD -1
REMARK  0 active torsions:
REMARK  status: ('A' for Active; 'I' for Inactive)
ROOT
ATOM      1  C2' OXE d   1       0.508   0.594   0.732  0.00  0.00     0.078 C 
ATOM      2  C1' OXE d   1      -1.096  -1.403   1.881  0.00  0.00     0.078 C 
ATOM      3  C1  OXE d   1      -1.490   0.035   2.111  0.00  0.00    -0.078 A 
ATOM      4  C2  OXE d   1      -0.673   1.006   1.584  0.00  0.00    -0.078 A 
ATOM      5  C3  OXE d   1      -1.020   2.347   1.720  0.00  0.00     0.003 A 
ATOM      6  C4  OXE d   1      -2.108   2.721   2.518  0.00  0.00    -0.002 A 
ATOM      7  C5  OXE d   1      -2.930   1.748   3.096  0.00  0.00    -0.002 A 
ATOM      8  C6  OXE d   1      -2.660   0.404   2.868  0.00  0.00     0.003 A 
ENDROOT
TORSDOF 0
ENDMDL
