MODEL 1
REMARK minimizedAffinity 13.5998688
REMARK minimizedRMSD -1
REMARK  0 active torsions:
REMARK  status: ('A' for Active; 'I' for Inactive)
ROOT
ATOM      1  C   UNL d   1       3.439   2.216  -0.646  0.00  0.00    -0.002 A 
ATOM      2  C1  UNL d   1       2.358   3.061  -0.850  0.00  0.00     0.010 A 
ATOM      3  C2  UNL d   1       1.333   3.144   0.095  0.00  0.00     0.041 A 
ATOM      4  C3  UNL d   1       1.415   2.356   1.260  0.00  0.00    -0.075 A 
ATOM      5  S   UNL d   1       0.278   2.294   2.555  0.00  0.00     0.015 SA
ATOM      6  C4  UNL d   1       1.201   1.144   3.409  0.00  0.00     0.022 A 
ATOM      7  C5  UNL d   1       2.352   0.805   2.738  0.00  0.00     0.026 A 
ATOM      8  C6  UNL d   1       2.494   1.498   1.488  0.00  0.00    -0.082 A 
ATOM      9  C7  UNL d   1       3.517   1.436   0.511  0.00  0.00     0.045 A 
ENDROOT
TORSDOF 0
ENDMDL
