MODEL 1
REMARK minimizedAffinity 9.1509819
REMARK minimizedRMSD -1
REMARK  0 active torsions:
REMARK  status: ('A' for Active; 'I' for Inactive)
ROOT
ATOM      1  C   UNL d   1       4.130   0.376   0.355  0.00  0.00    -0.002 A 
ATOM      2  C1  UNL d   1       4.168  -0.827   1.047  0.00  0.00     0.010 A 
ATOM      3  C2  UNL d   1       3.609  -0.931   2.322  0.00  0.00     0.041 A 
ATOM      4  C3  UNL d   1       3.002   0.204   2.895  0.00  0.00    -0.075 A 
ATOM      5  S   UNL d   1       2.251   0.311   4.443  0.00  0.00     0.015 SA
ATOM      6  C4  UNL d   1       1.860   1.955   4.222  0.00  0.00     0.022 A 
ATOM      7  C5  UNL d   1       2.286   2.427   3.003  0.00  0.00     0.026 A 
ATOM      8  C6  UNL d   1       2.950   1.426   2.218  0.00  0.00    -0.082 A 
ATOM      9  C7  UNL d   1       3.528   1.500   0.927  0.00  0.00     0.045 A 
ENDROOT
TORSDOF 0
ENDMDL
