MODEL 1
REMARK minimizedAffinity -1.74440742
REMARK minimizedRMSD -1
REMARK  0 active torsions:
REMARK  status: ('A' for Active; 'I' for Inactive)
ROOT
ATOM      1  C   UNL d   1       4.704  -5.991  -3.375  0.00  0.00    -0.002 A 
ATOM      2  C1  UNL d   1       5.614  -5.993  -2.327  0.00  0.00     0.010 A 
ATOM      3  C2  UNL d   1       5.172  -5.995  -1.002  0.00  0.00     0.041 A 
ATOM      4  C3  UNL d   1       3.787  -5.997  -0.746  0.00  0.00    -0.075 A 
ATOM      5  S   UNL d   1       3.015  -6.000   0.796  0.00  0.00     0.015 SA
ATOM      6  C4  UNL d   1       1.459  -6.000   0.100  0.00  0.00     0.022 A 
ATOM      7  C5  UNL d   1       1.509  -5.997  -1.274  0.00  0.00     0.026 A 
ATOM      8  C6  UNL d   1       2.851  -5.996  -1.784  0.00  0.00    -0.082 A 
ATOM      9  C7  UNL d   1       3.330  -5.993  -3.116  0.00  0.00     0.045 A 
ENDROOT
TORSDOF 0
ENDMDL
