MODEL 1
REMARK minimizedAffinity 13.6494503
REMARK minimizedRMSD -1
REMARK  0 active torsions:
REMARK  status: ('A' for Active; 'I' for Inactive)
ROOT
ATOM      1  C   UNL d   1       3.003  -5.934   0.765  0.00  0.00    -0.002 A 
ATOM      2  C1  UNL d   1       1.887  -5.376   0.159  0.00  0.00     0.010 A 
ATOM      3  C2  UNL d   1       1.369  -4.159   0.606  0.00  0.00     0.041 A 
ATOM      4  C3  UNL d   1       2.000  -3.504   1.683  0.00  0.00    -0.075 A 
ATOM      5  S   UNL d   1       1.543  -2.004   2.399  0.00  0.00     0.015 SA
ATOM      6  C4  UNL d   1       2.820  -2.068   3.526  0.00  0.00     0.022 A 
ATOM      7  C5  UNL d   1       3.586  -3.200   3.374  0.00  0.00     0.026 A 
ATOM      8  C6  UNL d   1       3.127  -4.046   2.309  0.00  0.00    -0.082 A 
ATOM      9  C7  UNL d   1       3.627  -5.282   1.832  0.00  0.00     0.045 A 
ENDROOT
TORSDOF 0
ENDMDL
