MODEL 1
REMARK minimizedAffinity 3.38907456
REMARK minimizedRMSD -1
REMARK  0 active torsions:
REMARK  status: ('A' for Active; 'I' for Inactive)
ROOT
ATOM      1  C   UNL d   1       1.093  -5.995   0.761  0.00  0.00    -0.002 A 
ATOM      2  C1  UNL d   1       2.201  -5.996   1.595  0.00  0.00     0.010 A 
ATOM      3  C2  UNL d   1       3.492  -5.999   1.062  0.00  0.00     0.041 A 
ATOM      4  C3  UNL d   1       3.651  -5.998  -0.338  0.00  0.00    -0.075 A 
ATOM      5  S   UNL d   1       5.135  -6.000  -1.216  0.00  0.00     0.015 SA
ATOM      6  C4  UNL d   1       4.332  -5.998  -2.719  0.00  0.00     0.022 A 
ATOM      7  C5  UNL d   1       2.965  -5.996  -2.573  0.00  0.00     0.026 A 
ATOM      8  C6  UNL d   1       2.549  -5.996  -1.199  0.00  0.00    -0.082 A 
ATOM      9  C7  UNL d   1       1.254  -5.994  -0.627  0.00  0.00     0.045 A 
ENDROOT
TORSDOF 0
ENDMDL
