MODEL 1
REMARK minimizedAffinity -3.36996031
REMARK minimizedRMSD -1
REMARK  3 active torsions:
REMARK  status: ('A' for Active; 'I' for Inactive)
REMARK    1  A    between atoms: C3'_2  and  C2'_3 
REMARK    2  A    between atoms: C2'_3  and  C1'_4 
REMARK    3  A    between atoms: C1'_4  and  C1_5 
ROOT
ATOM      1  C1  N4B d   1       0.215   0.080  -0.043  0.00  0.00    -0.075 A 
ATOM      2  C2  N4B d   1       0.046  -0.552   1.209  0.00  0.00     0.002 A 
ATOM      3  C3  N4B d   1       1.091  -1.238   1.778  0.00  0.00     0.002 A 
ATOM      4  C4  N4B d   1       2.302  -1.321   1.108  0.00  0.00    -0.004 A 
ATOM      5  C5  N4B d   1       2.465  -0.686  -0.088  0.00  0.00     0.002 A 
ATOM      6  C6  N4B d   1       1.425   0.010  -0.670  0.00  0.00     0.002 A 
ENDROOT
BRANCH   1   7
ATOM      7  C1' N4B d   1      -0.924   0.769  -0.744  0.00  0.00     0.057 C 
BRANCH   7   8
ATOM      8  C2' N4B d   1      -0.812   0.519  -2.245  0.00  0.00     0.009 C 
BRANCH   8   9
ATOM      9  C3' N4B d   1      -1.589   1.545  -3.052  0.00  0.00     0.004 C 
ATOM     10  C4' N4B d   1      -2.989   1.103  -3.359  0.00  0.00     0.003 C 
ENDBRANCH   8   9
ENDBRANCH   7   8
ENDBRANCH   1   7
TORSDOF 3
ENDMDL
