MODEL 1
REMARK minimizedAffinity -5.81789494
REMARK minimizedRMSD -1
REMARK  3 active torsions:
REMARK  status: ('A' for Active; 'I' for Inactive)
REMARK    1  A    between atoms: C3'_2  and  C2'_3 
REMARK    2  A    between atoms: C2'_3  and  C1'_4 
REMARK    3  A    between atoms: C1'_4  and  C1_5 
ROOT
ATOM      1  C1  N4B d   1      -0.060  -0.375  -0.295  0.00  0.00    -0.075 A 
ATOM      2  C2  N4B d   1       1.316  -0.132  -0.502  0.00  0.00     0.002 A 
ATOM      3  C3  N4B d   1       2.248  -1.039  -0.061  0.00  0.00     0.002 A 
ATOM      4  C4  N4B d   1       1.830  -2.183   0.603  0.00  0.00    -0.004 A 
ATOM      5  C5  N4B d   1       0.499  -2.423   0.776  0.00  0.00     0.002 A 
ATOM      6  C6  N4B d   1      -0.449  -1.521   0.335  0.00  0.00     0.002 A 
ENDROOT
BRANCH   1   7
ATOM      7  C1' N4B d   1      -1.111   0.629  -0.683  0.00  0.00     0.057 C 
BRANCH   7   8
ATOM      8  C2' N4B d   1      -0.876   1.067  -2.126  0.00  0.00     0.009 C 
BRANCH   8   9
ATOM      9  C3' N4B d   1      -2.082   1.788  -2.704  0.00  0.00     0.004 C 
ATOM     10  C4' N4B d   1      -3.380   1.131  -2.341  0.00  0.00     0.003 C 
ENDBRANCH   8   9
ENDBRANCH   7   8
ENDBRANCH   1   7
TORSDOF 3
ENDMDL
