MODEL 1
REMARK minimizedAffinity -3.28177881
REMARK minimizedRMSD -1
REMARK  3 active torsions:
REMARK  status: ('A' for Active; 'I' for Inactive)
REMARK    1  A    between atoms: C3'_2  and  C2'_3 
REMARK    2  A    between atoms: C2'_3  and  C1'_4 
REMARK    3  A    between atoms: C1'_4  and  C1_5 
ROOT
ATOM      1  C1  N4B d   1       0.068   0.363  -0.264  0.00  0.00    -0.075 A 
ATOM      2  C2  N4B d   1       1.420   0.687  -0.014  0.00  0.00     0.002 A 
ATOM      3  C3  N4B d   1       2.360  -0.311   0.073  0.00  0.00     0.002 A 
ATOM      4  C4  N4B d   1       1.970  -1.634  -0.066  0.00  0.00    -0.004 A 
ATOM      5  C5  N4B d   1       0.667  -1.937  -0.332  0.00  0.00     0.002 A 
ATOM      6  C6  N4B d   1      -0.288  -0.944  -0.426  0.00  0.00     0.002 A 
ENDROOT
BRANCH   1   7
ATOM      7  C1' N4B d   1      -1.009   1.413  -0.282  0.00  0.00     0.057 C 
BRANCH   7   8
ATOM      8  C2' N4B d   1      -1.998   1.096  -1.400  0.00  0.00     0.009 C 
BRANCH   8   9
ATOM      9  C3' N4B d   1      -2.106   2.232  -2.402  0.00  0.00     0.004 C 
ATOM     10  C4' N4B d   1      -1.457   1.912  -3.716  0.00  0.00     0.003 C 
ENDBRANCH   8   9
ENDBRANCH   7   8
ENDBRANCH   1   7
TORSDOF 3
ENDMDL
