MODEL 1
REMARK minimizedAffinity -3.88593578
REMARK minimizedRMSD -1
REMARK  3 active torsions:
REMARK  status: ('A' for Active; 'I' for Inactive)
REMARK    1  A    between atoms: C3'_2  and  C2'_3 
REMARK    2  A    between atoms: C2'_3  and  C1'_4 
REMARK    3  A    between atoms: C1'_4  and  C1_5 
ROOT
ATOM      1  C1  N4B d   1       0.204  -0.302  -0.217  0.00  0.00    -0.075 A 
ATOM      2  C2  N4B d   1       1.389   0.199  -0.799  0.00  0.00     0.002 A 
ATOM      3  C3  N4B d   1       2.589  -0.423  -0.556  0.00  0.00     0.002 A 
ATOM      4  C4  N4B d   1       2.631  -1.532   0.276  0.00  0.00    -0.004 A 
ATOM      5  C5  N4B d   1       1.478  -2.025   0.813  0.00  0.00     0.002 A 
ATOM      6  C6  N4B d   1       0.264  -1.412   0.575  0.00  0.00     0.002 A 
ENDROOT
BRANCH   1   7
ATOM      7  C1' N4B d   1      -1.119   0.395  -0.384  0.00  0.00     0.057 C 
BRANCH   7   8
ATOM      8  C2' N4B d   1      -0.874   1.828  -0.848  0.00  0.00     0.009 C 
BRANCH   8   9
ATOM      9  C3' N4B d   1      -1.593   2.133  -2.151  0.00  0.00     0.004 C 
ATOM     10  C4' N4B d   1      -2.885   1.385  -2.291  0.00  0.00     0.003 C 
ENDBRANCH   8   9
ENDBRANCH   7   8
ENDBRANCH   1   7
TORSDOF 3
ENDMDL
