MODEL 1
REMARK minimizedAffinity 7.39433622
REMARK minimizedRMSD -1
REMARK  0 active torsions:
REMARK  status: ('A' for Active; 'I' for Inactive)
ROOT
ATOM      1  C4' PXY d   1      -1.532   1.274   2.058  0.00  0.00     0.077 C 
ATOM      2  C1' PXY d   1       0.829   4.051  -2.428  0.00  0.00     0.077 C 
ATOM      3  C1  PXY d   1       0.208   3.312  -1.259  0.00  0.00    -0.082 A 
ATOM      4  C2  PXY d   1      -0.292   3.997  -0.243  0.00  0.00     0.003 A 
ATOM      5  C3  PXY d   1      -0.829   3.345   0.836  0.00  0.00     0.003 A 
ATOM      6  C4  PXY d   1      -0.904   1.978   0.853  0.00  0.00    -0.082 A 
ATOM      7  C5  PXY d   1      -0.406   1.272  -0.185  0.00  0.00     0.003 A 
ATOM      8  C6  PXY d   1       0.173   1.952  -1.252  0.00  0.00     0.003 A 
ENDROOT
TORSDOF 0
ENDMDL
