MODEL 1
REMARK minimizedAffinity -2.6250546
REMARK minimizedRMSD -1
REMARK  0 active torsions:
REMARK  status: ('A' for Active; 'I' for Inactive)
ROOT
ATOM      1  C4' PXY d   1      -1.595   1.374   2.655  0.00  0.00     0.077 C 
ATOM      2  C1' PXY d   1      -1.082   4.665  -2.070  0.00  0.00     0.077 C 
ATOM      3  C1  PXY d   1      -1.224   3.811  -0.825  0.00  0.00    -0.082 A 
ATOM      4  C2  PXY d   1      -0.309   2.895  -0.552  0.00  0.00     0.003 A 
ATOM      5  C3  PXY d   1      -0.439   2.093   0.552  0.00  0.00     0.003 A 
ATOM      6  C4  PXY d   1      -1.488   2.265   1.415  0.00  0.00    -0.082 A 
ATOM      7  C5  PXY d   1      -2.420   3.205   1.149  0.00  0.00     0.003 A 
ATOM      8  C6  PXY d   1      -2.292   3.982   0.001  0.00  0.00     0.003 A 
ENDROOT
TORSDOF 0
ENDMDL
