MODEL 1
REMARK minimizedAffinity -0.280646861
REMARK minimizedRMSD -1
REMARK  0 active torsions:
REMARK  status: ('A' for Active; 'I' for Inactive)
ROOT
ATOM      1  C4' PXY d   1      -1.145   0.811   2.400  0.00  0.00     0.077 C 
ATOM      2  C1' PXY d   1      -1.249   4.800  -1.782  0.00  0.00     0.077 C 
ATOM      3  C1  PXY d   1      -1.232   3.760  -0.680  0.00  0.00    -0.082 A 
ATOM      4  C2  PXY d   1      -0.102   3.139  -0.383  0.00  0.00     0.003 A 
ATOM      5  C3  PXY d   1      -0.075   2.173   0.589  0.00  0.00     0.003 A 
ATOM      6  C4  PXY d   1      -1.206   1.875   1.301  0.00  0.00    -0.082 A 
ATOM      7  C5  PXY d   1      -2.361   2.511   1.011  0.00  0.00     0.003 A 
ATOM      8  C6  PXY d   1      -2.376   3.460  -0.007  0.00  0.00     0.003 A 
ENDROOT
TORSDOF 0
ENDMDL
