MODEL 1
REMARK minimizedAffinity 3.04325056
REMARK minimizedRMSD -1
REMARK  0 active torsions:
REMARK  status: ('A' for Active; 'I' for Inactive)
ROOT
ATOM      1  C4' PXY d   1      -1.150   1.651   2.377  0.00  0.00     0.077 C 
ATOM      2  C1' PXY d   1       0.586   4.581  -2.294  0.00  0.00     0.077 C 
ATOM      3  C1  PXY d   1       0.125   3.804  -1.077  0.00  0.00    -0.082 A 
ATOM      4  C2  PXY d   1      -0.043   4.432   0.076  0.00  0.00     0.003 A 
ATOM      5  C3  PXY d   1      -0.428   3.738   1.194  0.00  0.00     0.003 A 
ATOM      6  C4  PXY d   1      -0.696   2.398   1.120  0.00  0.00    -0.082 A 
ATOM      7  C5  PXY d   1      -0.537   1.751  -0.055  0.00  0.00     0.003 A 
ATOM      8  C6  PXY d   1      -0.105   2.466  -1.169  0.00  0.00     0.003 A 
ENDROOT
TORSDOF 0
ENDMDL
