MODEL 1
REMARK minimizedAffinity -3.52956176
REMARK minimizedRMSD -1
REMARK  0 active torsions:
REMARK  status: ('A' for Active; 'I' for Inactive)
ROOT
ATOM      1  C4' PXY d   1      -2.694   5.174   0.425  0.00  0.00     0.077 C 
ATOM      2  C1' PXY d   1       0.727   0.995  -1.636  0.00  0.00     0.077 C 
ATOM      3  C1  PXY d   1      -0.175   2.083  -1.087  0.00  0.00    -0.082 A 
ATOM      4  C2  PXY d   1      -0.545   3.083  -1.870  0.00  0.00     0.003 A 
ATOM      5  C3  PXY d   1      -1.334   4.092  -1.380  0.00  0.00     0.003 A 
ATOM      6  C4  PXY d   1      -1.792   4.049  -0.090  0.00  0.00    -0.082 A 
ATOM      7  C5  PXY d   1      -1.427   3.027   0.712  0.00  0.00     0.003 A 
ATOM      8  C6  PXY d   1      -0.592   2.034   0.207  0.00  0.00     0.003 A 
ENDROOT
TORSDOF 0
ENDMDL
