MODEL 1
REMARK minimizedAffinity 1.59264159
REMARK minimizedRMSD -1
REMARK  0 active torsions:
REMARK  status: ('A' for Active; 'I' for Inactive)
ROOT
ATOM      1  C4' PXY d   1      -1.822   1.372   2.511  0.00  0.00     0.077 C 
ATOM      2  C1' PXY d   1       1.030   4.303  -1.574  0.00  0.00     0.077 C 
ATOM      3  C1  PXY d   1       0.286   3.543  -0.494  0.00  0.00    -0.082 A 
ATOM      4  C2  PXY d   1       0.030   2.255  -0.658  0.00  0.00     0.003 A 
ATOM      5  C3  PXY d   1      -0.669   1.560   0.295  0.00  0.00     0.003 A 
ATOM      6  C4  PXY d   1      -1.066   2.177   1.451  0.00  0.00    -0.082 A 
ATOM      7  C5  PXY d   1      -0.800   3.489   1.630  0.00  0.00     0.003 A 
ATOM      8  C6  PXY d   1      -0.124   4.186   0.633  0.00  0.00     0.003 A 
ENDROOT
TORSDOF 0
ENDMDL
