MODEL 1
REMARK minimizedAffinity 2.9441998
REMARK minimizedRMSD -1
REMARK  0 active torsions:
REMARK  status: ('A' for Active; 'I' for Inactive)
ROOT
ATOM      1  C4' PXY d   1       1.240   0.248  -0.002  0.00  0.00     0.077 C 
ATOM      2  C1' PXY d   1       5.496  -3.663  -0.096  0.00  0.00     0.077 C 
ATOM      3  C1  PXY d   1       4.372  -2.646  -0.076  0.00  0.00    -0.082 A 
ATOM      4  C2  PXY d   1       4.658  -1.354  -0.095  0.00  0.00     0.003 A 
ATOM      5  C3  PXY d   1       3.654  -0.421  -0.045  0.00  0.00     0.003 A 
ATOM      6  C4  PXY d   1       2.343  -0.814  -0.030  0.00  0.00    -0.082 A 
ATOM      7  C5  PXY d   1       2.043  -2.130  -0.021  0.00  0.00     0.003 A 
ATOM      8  C6  PXY d   1       3.077  -3.062  -0.030  0.00  0.00     0.003 A 
ENDROOT
TORSDOF 0
ENDMDL
