MODEL 1
REMARK minimizedAffinity -1.78567863
REMARK minimizedRMSD -1
REMARK  0 active torsions:
REMARK  status: ('A' for Active; 'I' for Inactive)
ROOT
ATOM      1  C4' PXY d   1       1.277   4.146  -1.877  0.00  0.00     0.077 C 
ATOM      2  C1' PXY d   1      -1.848   1.865   2.418  0.00  0.00     0.077 C 
ATOM      3  C1  PXY d   1      -1.033   2.475   1.294  0.00  0.00    -0.082 A 
ATOM      4  C2  PXY d   1      -0.621   1.711   0.295  0.00  0.00     0.003 A 
ATOM      5  C3  PXY d   1       0.143   2.240  -0.713  0.00  0.00     0.003 A 
ATOM      6  C4  PXY d   1       0.444   3.575  -0.726  0.00  0.00    -0.082 A 
ATOM      7  C5  PXY d   1       0.018   4.363   0.284  0.00  0.00     0.003 A 
ATOM      8  C6  PXY d   1      -0.721   3.799   1.319  0.00  0.00     0.003 A 
ENDROOT
TORSDOF 0
ENDMDL
