MODEL 1
REMARK minimizedAffinity 4.61705875
REMARK minimizedRMSD -1
REMARK  0 active torsions:
REMARK  status: ('A' for Active; 'I' for Inactive)
ROOT
ATOM      1  C4' PXY d   1      -0.658   2.094  -0.814  0.00  0.00     0.077 C 
ATOM      2  C1' PXY d   1       2.161  -2.945  -1.103  0.00  0.00     0.077 C 
ATOM      3  C1  PXY d   1       1.420  -1.623  -1.040  0.00  0.00    -0.082 A 
ATOM      4  C2  PXY d   1       1.630  -0.803  -0.023  0.00  0.00     0.003 A 
ATOM      5  C3  PXY d   1       0.945   0.381   0.066  0.00  0.00     0.003 A 
ATOM      6  C4  PXY d   1       0.075   0.754  -0.923  0.00  0.00    -0.082 A 
ATOM      7  C5  PXY d   1      -0.137  -0.072  -1.970  0.00  0.00     0.003 A 
ATOM      8  C6  PXY d   1       0.538  -1.288  -2.021  0.00  0.00     0.003 A 
ENDROOT
TORSDOF 0
ENDMDL
