MODEL 1
REMARK minimizedAffinity 5.6109271
REMARK minimizedRMSD -1
REMARK  0 active torsions:
REMARK  status: ('A' for Active; 'I' for Inactive)
ROOT
ATOM      1  C4' PXY d   1       1.341  -0.241  -0.354  0.00  0.00     0.077 C 
ATOM      2  C1' PXY d   1      -0.646   4.823  -2.310  0.00  0.00     0.077 C 
ATOM      3  C1  PXY d   1      -0.127   3.499  -1.785  0.00  0.00    -0.082 A 
ATOM      4  C2  PXY d   1       0.672   2.763  -2.541  0.00  0.00     0.003 A 
ATOM      5  C3  PXY d   1       1.125   1.548  -2.095  0.00  0.00     0.003 A 
ATOM      6  C4  PXY d   1       0.800   1.106  -0.840  0.00  0.00    -0.082 A 
ATOM      7  C5  PXY d   1      -0.005   1.856  -0.058  0.00  0.00     0.003 A 
ATOM      8  C6  PXY d   1      -0.488   3.067  -0.546  0.00  0.00     0.003 A 
ENDROOT
TORSDOF 0
ENDMDL
