MODEL 1
REMARK minimizedAffinity 5.03578234
REMARK minimizedRMSD -1
REMARK  0 active torsions:
REMARK  status: ('A' for Active; 'I' for Inactive)
ROOT
ATOM      1  C4' PXY d   1      -1.068  -1.219   3.409  0.00  0.00     0.077 C 
ATOM      2  C1' PXY d   1      -0.607   3.654   0.333  0.00  0.00     0.077 C 
ATOM      3  C1  PXY d   1      -0.716   2.373   1.137  0.00  0.00    -0.082 A 
ATOM      4  C2  PXY d   1      -1.906   1.841   1.362  0.00  0.00     0.003 A 
ATOM      5  C3  PXY d   1      -2.025   0.700   2.113  0.00  0.00     0.003 A 
ATOM      6  C4  PXY d   1      -0.910   0.068   2.595  0.00  0.00    -0.082 A 
ATOM      7  C5  PXY d   1       0.309   0.599   2.360  0.00  0.00     0.003 A 
ATOM      8  C6  PXY d   1       0.405   1.780   1.630  0.00  0.00     0.003 A 
ENDROOT
TORSDOF 0
ENDMDL
