MODEL 1
REMARK minimizedAffinity 0.626704812
REMARK minimizedRMSD -1
REMARK  0 active torsions:
REMARK  status: ('A' for Active; 'I' for Inactive)
ROOT
ATOM      1  C4' PXY d   1      -1.506  -1.475   3.295  0.00  0.00     0.077 C 
ATOM      2  C1' PXY d   1      -0.825   3.538   0.500  0.00  0.00     0.077 C 
ATOM      3  C1  PXY d   1      -0.994   2.218   1.225  0.00  0.00    -0.082 A 
ATOM      4  C2  PXY d   1      -2.136   1.951   1.839  0.00  0.00     0.003 A 
ATOM      5  C3  PXY d   1      -2.295   0.775   2.527  0.00  0.00     0.003 A 
ATOM      6  C4  PXY d   1      -1.294  -0.159   2.542  0.00  0.00    -0.082 A 
ATOM      7  C5  PXY d   1      -0.130   0.102   1.910  0.00  0.00     0.003 A 
ATOM      8  C6  PXY d   1       0.026   1.319   1.252  0.00  0.00     0.003 A 
ENDROOT
TORSDOF 0
ENDMDL
