MODEL 1
REMARK minimizedAffinity -2.16011643
REMARK minimizedRMSD -1
REMARK  0 active torsions:
REMARK  status: ('A' for Active; 'I' for Inactive)
ROOT
ATOM      1  C4' PXY d   1       0.543   3.756  -2.501  0.00  0.00     0.077 C 
ATOM      2  C1' PXY d   1      -1.779   1.779   2.410  0.00  0.00     0.077 C 
ATOM      3  C1  PXY d   1      -1.164   2.286   1.120  0.00  0.00    -0.082 A 
ATOM      4  C2  PXY d   1      -0.995   3.586   0.943  0.00  0.00     0.003 A 
ATOM      5  C3  PXY d   1      -0.470   4.064  -0.230  0.00  0.00     0.003 A 
ATOM      6  C4  PXY d   1      -0.065   3.199  -1.211  0.00  0.00    -0.082 A 
ATOM      7  C5  PXY d   1      -0.224   1.870  -1.033  0.00  0.00     0.003 A 
ATOM      8  C6  PXY d   1      -0.797   1.408   0.148  0.00  0.00     0.003 A 
ENDROOT
TORSDOF 0
ENDMDL
