MODEL 1
REMARK minimizedAffinity 0.31216836
REMARK minimizedRMSD -1
REMARK  0 active torsions:
REMARK  status: ('A' for Active; 'I' for Inactive)
ROOT
ATOM      1  C4' PXY d   1      -1.155   4.581   0.305  0.00  0.00     0.077 C 
ATOM      2  C1' PXY d   1       0.909  -0.053  -2.467  0.00  0.00     0.077 C 
ATOM      3  C1  PXY d   1       0.379   1.168  -1.743  0.00  0.00    -0.082 A 
ATOM      4  C2  PXY d   1      -0.526   1.022  -0.789  0.00  0.00     0.003 A 
ATOM      5  C3  PXY d   1      -1.040   2.119  -0.146  0.00  0.00     0.003 A 
ATOM      6  C4  PXY d   1      -0.584   3.374  -0.446  0.00  0.00    -0.082 A 
ATOM      7  C5  PXY d   1       0.347   3.531  -1.411  0.00  0.00     0.003 A 
ATOM      8  C6  PXY d   1       0.826   2.409  -2.080  0.00  0.00     0.003 A 
ENDROOT
TORSDOF 0
ENDMDL
