MODEL 1
REMARK minimizedAffinity -0.150305644
REMARK minimizedRMSD -1
REMARK  0 active torsions:
REMARK  status: ('A' for Active; 'I' for Inactive)
ROOT
ATOM      1  C4' PXY d   1       0.970   4.441  -1.662  0.00  0.00     0.077 C 
ATOM      2  C1' PXY d   1      -1.833   1.525   2.468  0.00  0.00     0.077 C 
ATOM      3  C1  PXY d   1      -1.101   2.301   1.390  0.00  0.00    -0.082 A 
ATOM      4  C2  PXY d   1      -0.893   1.742   0.209  0.00  0.00     0.003 A 
ATOM      5  C3  PXY d   1      -0.205   2.418  -0.766  0.00  0.00     0.003 A 
ATOM      6  C4  PXY d   1       0.227   3.699  -0.548  0.00  0.00    -0.082 A 
ATOM      7  C5  PXY d   1       0.009   4.280   0.651  0.00  0.00     0.003 A 
ATOM      8  C6  PXY d   1      -0.655   3.562   1.641  0.00  0.00     0.003 A 
ENDROOT
TORSDOF 0
ENDMDL
