MODEL 1
REMARK minimizedAffinity 8.42409134
REMARK minimizedRMSD -1
REMARK  0 active torsions:
REMARK  status: ('A' for Active; 'I' for Inactive)
ROOT
ATOM      1  C4' PXY d   1      -1.557   0.226   2.329  0.00  0.00     0.077 C 
ATOM      2  C1' PXY d   1       0.037   4.371  -1.371  0.00  0.00     0.077 C 
ATOM      3  C1  PXY d   1      -0.377   3.291  -0.391  0.00  0.00    -0.082 A 
ATOM      4  C2  PXY d   1      -0.422   2.030  -0.787  0.00  0.00     0.003 A 
ATOM      5  C3  PXY d   1      -0.825   1.045   0.077  0.00  0.00     0.003 A 
ATOM      6  C4  PXY d   1      -1.135   1.347   1.376  0.00  0.00    -0.082 A 
ATOM      7  C5  PXY d   1      -1.082   2.631   1.791  0.00  0.00     0.003 A 
ATOM      8  C6  PXY d   1      -0.710   3.621   0.886  0.00  0.00     0.003 A 
ENDROOT
TORSDOF 0
ENDMDL
