MODEL 1
REMARK minimizedAffinity 5.55169725
REMARK minimizedRMSD -1
REMARK  0 active torsions:
REMARK  status: ('A' for Active; 'I' for Inactive)
ROOT
ATOM      1  C4' PXY d   1      -1.416   4.853   0.369  0.00  0.00     0.077 C 
ATOM      2  C1' PXY d   1       1.153  -0.019  -1.386  0.00  0.00     0.077 C 
ATOM      3  C1  PXY d   1       0.471   1.252  -0.918  0.00  0.00    -0.082 A 
ATOM      4  C2  PXY d   1       0.519   2.336  -1.674  0.00  0.00     0.003 A 
ATOM      5  C3  PXY d   1      -0.064   3.503  -1.252  0.00  0.00     0.003 A 
ATOM      6  C4  PXY d   1      -0.750   3.545  -0.068  0.00  0.00    -0.082 A 
ATOM      7  C5  PXY d   1      -0.813   2.440   0.705  0.00  0.00     0.003 A 
ATOM      8  C6  PXY d   1      -0.179   1.277   0.277  0.00  0.00     0.003 A 
ENDROOT
TORSDOF 0
ENDMDL
