MODEL 1
REMARK minimizedAffinity 9.42364311
REMARK minimizedRMSD -1
REMARK  0 active torsions:
REMARK  status: ('A' for Active; 'I' for Inactive)
ROOT
ATOM      1  C4' PXY d   1      -0.110   3.551   1.347  0.00  0.00     0.077 C 
ATOM      2  C1' PXY d   1      -1.430  -1.489   3.851  0.00  0.00     0.077 C 
ATOM      3  C1  PXY d   1      -1.075  -0.165   3.203  0.00  0.00    -0.082 A 
ATOM      4  C2  PXY d   1      -1.960   0.443   2.430  0.00  0.00     0.003 A 
ATOM      5  C3  PXY d   1      -1.644   1.625   1.812  0.00  0.00     0.003 A 
ATOM      6  C4  PXY d   1      -0.429   2.217   2.029  0.00  0.00    -0.082 A 
ATOM      7  C5  PXY d   1       0.475   1.608   2.825  0.00  0.00     0.003 A 
ATOM      8  C6  PXY d   1       0.150   0.389   3.411  0.00  0.00     0.003 A 
ENDROOT
TORSDOF 0
ENDMDL
