MODEL 1
REMARK minimizedAffinity 7.43823624
REMARK minimizedRMSD -1
REMARK  0 active torsions:
REMARK  status: ('A' for Active; 'I' for Inactive)
ROOT
ATOM      1  C4' PXY d   1      -1.430  -2.107   3.810  0.00  0.00     0.077 C 
ATOM      2  C1' PXY d   1      -0.495   2.660   0.678  0.00  0.00     0.077 C 
ATOM      3  C1  PXY d   1      -0.730   1.405   1.494  0.00  0.00    -0.082 A 
ATOM      4  C2  PXY d   1      -1.950   1.119   1.919  0.00  0.00     0.003 A 
ATOM      5  C3  PXY d   1      -2.174   0.004   2.686  0.00  0.00     0.003 A 
ATOM      6  C4  PXY d   1      -1.148  -0.855   2.975  0.00  0.00    -0.082 A 
ATOM      7  C5  PXY d   1       0.097  -0.576   2.536  0.00  0.00     0.003 A 
ATOM      8  C6  PXY d   1       0.312   0.582   1.795  0.00  0.00     0.003 A 
ENDROOT
TORSDOF 0
ENDMDL
