MODEL 1
REMARK minimizedAffinity 1.79451966
REMARK minimizedRMSD -1
REMARK  0 active torsions:
REMARK  status: ('A' for Active; 'I' for Inactive)
ROOT
ATOM      1  C4' PXY d   1      -2.299   4.016   1.034  0.00  0.00     0.077 C 
ATOM      2  C1' PXY d   1       1.587   0.290  -1.069  0.00  0.00     0.077 C 
ATOM      3  C1  PXY d   1       0.563   1.258  -0.510  0.00  0.00    -0.082 A 
ATOM      4  C2  PXY d   1       0.224   2.329  -1.210  0.00  0.00     0.003 A 
ATOM      5  C3  PXY d   1      -0.676   3.231  -0.705  0.00  0.00     0.003 A 
ATOM      6  C4  PXY d   1      -1.277   3.007   0.505  0.00  0.00    -0.082 A 
ATOM      7  C5  PXY d   1      -0.945   1.912   1.220  0.00  0.00     0.003 A 
ATOM      8  C6  PXY d   1       0.002   1.029   0.708  0.00  0.00     0.003 A 
ENDROOT
TORSDOF 0
ENDMDL
