MODEL 1
REMARK minimizedAffinity -0.757142782
REMARK minimizedRMSD -1
REMARK  0 active torsions:
REMARK  status: ('A' for Active; 'I' for Inactive)
ROOT
ATOM      1  C   UNL d   1       0.279  -0.420   2.927  0.00  0.00     0.078 C 
ATOM      2  C1  UNL d   1      -0.868  -0.265   1.973  0.00  0.00    -0.077 A 
ATOM      3  C2  UNL d   1      -0.841  -0.869   0.710  0.00  0.00    -0.001 A 
ATOM      4  C3  UNL d   1      -1.911  -0.708  -0.172  0.00  0.00     0.003 A 
ATOM      5  C4  UNL d   1      -3.015   0.057   0.199  0.00  0.00    -0.005 A 
ATOM      6  C5  UNL d   1      -3.049   0.664   1.452  0.00  0.00     0.003 A 
ATOM      7  C6  UNL d   1      -1.980   0.504   2.336  0.00  0.00    -0.001 A 
ENDROOT
TORSDOF 0
ENDMDL
