MODEL 1
REMARK minimizedAffinity -3.90709591
REMARK minimizedRMSD -1
REMARK  0 active torsions:
REMARK  status: ('A' for Active; 'I' for Inactive)
ROOT
ATOM      1  C   UNL d   1      -2.235   0.872   1.860  0.00  0.00     0.078 C 
ATOM      2  C1  UNL d   1      -1.761  -0.071   0.794  0.00  0.00    -0.077 A 
ATOM      3  C2  UNL d   1      -0.435  -0.046   0.346  0.00  0.00    -0.001 A 
ATOM      4  C3  UNL d   1      -0.011  -0.923  -0.654  0.00  0.00     0.003 A 
ATOM      5  C4  UNL d   1      -0.907  -1.830  -1.215  0.00  0.00    -0.005 A 
ATOM      6  C5  UNL d   1      -2.230  -1.861  -0.778  0.00  0.00     0.003 A 
ATOM      7  C6  UNL d   1      -2.656  -0.985   0.222  0.00  0.00    -0.001 A 
ENDROOT
TORSDOF 0
ENDMDL
