MODEL 1
REMARK minimizedAffinity -2.52695274
REMARK minimizedRMSD -1
REMARK  0 active torsions:
REMARK  status: ('A' for Active; 'I' for Inactive)
ROOT
ATOM      1  C   UNL d   1       1.640  -1.372   3.575  0.00  0.00     0.078 C 
ATOM      2  C1  UNL d   1       0.306  -1.086   2.953  0.00  0.00    -0.077 A 
ATOM      3  C2  UNL d   1       0.113   0.043   2.148  0.00  0.00    -0.001 A 
ATOM      4  C3  UNL d   1      -1.137   0.302   1.583  0.00  0.00     0.003 A 
ATOM      5  C4  UNL d   1      -2.204  -0.562   1.819  0.00  0.00    -0.005 A 
ATOM      6  C5  UNL d   1      -2.022  -1.687   2.621  0.00  0.00     0.003 A 
ATOM      7  C6  UNL d   1      -0.773  -1.948   3.187  0.00  0.00    -0.001 A 
ENDROOT
TORSDOF 0
ENDMDL
