MODEL 1
REMARK minimizedAffinity 6.35372591
REMARK minimizedRMSD -1
REMARK  0 active torsions:
REMARK  status: ('A' for Active; 'I' for Inactive)
ROOT
ATOM      1  C   UNL d   1       3.040  -1.127  -4.246  0.00  0.00     0.078 C 
ATOM      2  C1  UNL d   1       1.590  -1.136  -4.628  0.00  0.00    -0.077 A 
ATOM      3  C2  UNL d   1       0.686  -2.008  -4.008  0.00  0.00    -0.001 A 
ATOM      4  C3  UNL d   1      -0.659  -2.012  -4.380  0.00  0.00     0.003 A 
ATOM      5  C4  UNL d   1      -1.112  -1.149  -5.375  0.00  0.00    -0.005 A 
ATOM      6  C5  UNL d   1      -0.220  -0.279  -6.000  0.00  0.00     0.003 A 
ATOM      7  C6  UNL d   1       1.126  -0.273  -5.629  0.00  0.00    -0.001 A 
ENDROOT
TORSDOF 0
ENDMDL
