MODEL 1
REMARK minimizedAffinity -3.20867276
REMARK minimizedRMSD -1
REMARK  0 active torsions:
REMARK  status: ('A' for Active; 'I' for Inactive)
ROOT
ATOM      1  C   UNL d   1       1.865  -1.153   3.550  0.00  0.00     0.078 C 
ATOM      2  C1  UNL d   1       0.486  -0.926   3.007  0.00  0.00    -0.077 A 
ATOM      3  C2  UNL d   1      -0.480  -1.939   3.043  0.00  0.00    -0.001 A 
ATOM      4  C3  UNL d   1      -1.756  -1.715   2.524  0.00  0.00     0.003 A 
ATOM      5  C4  UNL d   1      -2.078  -0.481   1.965  0.00  0.00    -0.005 A 
ATOM      6  C5  UNL d   1      -1.123   0.533   1.922  0.00  0.00     0.003 A 
ATOM      7  C6  UNL d   1       0.154   0.312   2.440  0.00  0.00    -0.001 A 
ENDROOT
TORSDOF 0
ENDMDL
