MODEL 1
REMARK minimizedAffinity -2.12396955
REMARK minimizedRMSD -1
REMARK  0 active torsions:
REMARK  status: ('A' for Active; 'I' for Inactive)
ROOT
ATOM      1  C   UNL d   1       1.479  -3.103  -2.647  0.00  0.00     0.078 C 
ATOM      2  C1  UNL d   1       1.469  -2.133  -3.791  0.00  0.00    -0.077 A 
ATOM      3  C2  UNL d   1       0.288  -1.853  -4.489  0.00  0.00    -0.001 A 
ATOM      4  C3  UNL d   1       0.296  -0.956  -5.559  0.00  0.00     0.003 A 
ATOM      5  C4  UNL d   1       1.482  -0.332  -5.940  0.00  0.00    -0.005 A 
ATOM      6  C5  UNL d   1       2.663  -0.606  -5.252  0.00  0.00     0.003 A 
ATOM      7  C6  UNL d   1       2.657  -1.503  -4.183  0.00  0.00    -0.001 A 
ENDROOT
TORSDOF 0
ENDMDL
