MODEL 1
REMARK minimizedAffinity 2.22745872
REMARK minimizedRMSD -1
REMARK  0 active torsions:
REMARK  status: ('A' for Active; 'I' for Inactive)
ROOT
ATOM      1  C   UNL d   1       1.916  -1.760   3.421  0.00  0.00     0.078 C 
ATOM      2  C1  UNL d   1       0.639  -1.343   2.756  0.00  0.00    -0.077 A 
ATOM      3  C2  UNL d   1       0.469  -0.040   2.273  0.00  0.00    -0.001 A 
ATOM      4  C3  UNL d   1      -0.729   0.337   1.665  0.00  0.00     0.003 A 
ATOM      5  C4  UNL d   1      -1.768  -0.583   1.535  0.00  0.00    -0.005 A 
ATOM      6  C5  UNL d   1      -1.609  -1.881   2.014  0.00  0.00     0.003 A 
ATOM      7  C6  UNL d   1      -0.412  -2.260   2.623  0.00  0.00    -0.001 A 
ENDROOT
TORSDOF 0
ENDMDL
