MODEL 1
REMARK minimizedAffinity -1.57016599
REMARK minimizedRMSD -1
REMARK  1 active torsions:
REMARK  status: ('A' for Active; 'I' for Inactive)
REMARK    1  A    between atoms: C3_4  and  O_7 
ROOT
ATOM      1  C   UNL d   1       1.821  -1.463   0.902  0.00  0.00    -0.033 A 
ATOM      2  C1  UNL d   1       2.225  -0.484  -0.008  0.00  0.00     0.039 A 
ATOM      3  C2  UNL d   1       1.316   0.477  -0.452  0.00  0.00    -0.080 A 
ATOM      4  C3  UNL d   1       0.007   0.449   0.022  0.00  0.00     0.150 A 
ATOM      5  C4  UNL d   1      -0.402  -0.521   0.931  0.00  0.00    -0.007 A 
ATOM      6  C5  UNL d   1       0.508  -1.481   1.372  0.00  0.00     0.039 A 
ENDROOT
BRANCH   4   7
ATOM      7  O   UNL d   1      -0.918   1.364  -0.386  0.00  0.00    -0.526 OA
ATOM      8  H5  UNL d   1      -0.501   1.954  -1.036  0.00  0.00     0.418 HD
ENDBRANCH   4   7
TORSDOF 1
ENDMDL
