MODEL 1
REMARK minimizedAffinity -4.75112724
REMARK minimizedRMSD -1
REMARK  1 active torsions:
REMARK  status: ('A' for Active; 'I' for Inactive)
REMARK    1  A    between atoms: C3_4  and  O_7 
ROOT
ATOM      1  C   UNL d   1       0.729  -1.659   2.427  0.00  0.00    -0.033 A 
ATOM      2  C1  UNL d   1      -0.444  -0.918   2.579  0.00  0.00     0.039 A 
ATOM      3  C2  UNL d   1      -0.818   0.009   1.604  0.00  0.00    -0.080 A 
ATOM      4  C3  UNL d   1      -0.011   0.184   0.483  0.00  0.00     0.150 A 
ATOM      5  C4  UNL d   1       1.157  -0.553   0.323  0.00  0.00    -0.007 A 
ATOM      6  C5  UNL d   1       1.529  -1.478   1.298  0.00  0.00     0.039 A 
ENDROOT
BRANCH   4   7
ATOM      7  O   UNL d   1      -0.333   1.081  -0.493  0.00  0.00    -0.526 OA
ATOM      8  H5  UNL d   1      -1.150   1.538  -0.234  0.00  0.00     0.418 HD
ENDBRANCH   4   7
TORSDOF 1
ENDMDL
