MODEL 1
REMARK minimizedAffinity -4.10531187
REMARK minimizedRMSD -1
REMARK  1 active torsions:
REMARK  status: ('A' for Active; 'I' for Inactive)
REMARK    1  A    between atoms: C3_4  and  O_7 
ROOT
ATOM      1  C   UNL d   1       1.245  -1.912   2.492  0.00  0.00    -0.033 A 
ATOM      2  C1  UNL d   1      -0.042  -1.437   2.751  0.00  0.00     0.039 A 
ATOM      3  C2  UNL d   1      -0.676  -0.597   1.834  0.00  0.00    -0.080 A 
ATOM      4  C3  UNL d   1      -0.013  -0.239   0.663  0.00  0.00     0.150 A 
ATOM      5  C4  UNL d   1       1.268  -0.711   0.396  0.00  0.00    -0.007 A 
ATOM      6  C5  UNL d   1       1.900  -1.550   1.314  0.00  0.00     0.039 A 
ENDROOT
BRANCH   4   7
ATOM      7  O   UNL d   1      -0.590   0.583  -0.259  0.00  0.00    -0.526 OA
ATOM      8  H5  UNL d   1      -1.462   0.853   0.072  0.00  0.00     0.418 HD
ENDBRANCH   4   7
TORSDOF 1
ENDMDL
