MODEL 1
REMARK minimizedAffinity -2.20955443
REMARK minimizedRMSD -1
REMARK  1 active torsions:
REMARK  status: ('A' for Active; 'I' for Inactive)
REMARK    1  A    between atoms: C3_4  and  O_7 
ROOT
ATOM      1  C   UNL d   1       1.317  -0.880   0.702  0.00  0.00    -0.033 A 
ATOM      2  C1  UNL d   1      -0.007  -0.710   1.111  0.00  0.00     0.039 A 
ATOM      3  C2  UNL d   1      -0.758   0.361   0.622  0.00  0.00    -0.080 A 
ATOM      4  C3  UNL d   1      -0.174   1.252  -0.274  0.00  0.00     0.150 A 
ATOM      5  C4  UNL d   1       1.143   1.086  -0.689  0.00  0.00    -0.007 A 
ATOM      6  C5  UNL d   1       1.892   0.017  -0.199  0.00  0.00     0.039 A 
ENDROOT
BRANCH   4   7
ATOM      7  O   UNL d   1      -0.866   2.315  -0.775  0.00  0.00    -0.526 OA
ATOM      8  H5  UNL d   1      -1.753   2.319  -0.378  0.00  0.00     0.418 HD
ENDBRANCH   4   7
TORSDOF 1
ENDMDL
