MODEL 1
REMARK minimizedAffinity -2.72341228
REMARK minimizedRMSD -1
REMARK  1 active torsions:
REMARK  status: ('A' for Active; 'I' for Inactive)
REMARK    1  A    between atoms: C3_4  and  O_7 
ROOT
ATOM      1  C   UNL d   1      -2.311   1.986  -3.647  0.00  0.00    -0.033 A 
ATOM      2  C1  UNL d   1      -2.573   0.768  -3.017  0.00  0.00     0.039 A 
ATOM      3  C2  UNL d   1      -2.071   0.519  -1.738  0.00  0.00    -0.080 A 
ATOM      4  C3  UNL d   1      -1.310   1.496  -1.101  0.00  0.00     0.150 A 
ATOM      5  C4  UNL d   1      -1.048   2.713  -1.722  0.00  0.00    -0.007 A 
ATOM      6  C5  UNL d   1      -1.550   2.959  -2.999  0.00  0.00     0.039 A 
ENDROOT
BRANCH   4   7
ATOM      7  O   UNL d   1      -0.794   1.297   0.145  0.00  0.00    -0.526 OA
ATOM      8  H5  UNL d   1      -1.032   0.402   0.437  0.00  0.00     0.418 HD
ENDBRANCH   4   7
TORSDOF 1
ENDMDL
