MODEL 1
REMARK minimizedAffinity -2.49535322
REMARK minimizedRMSD -1
REMARK  1 active torsions:
REMARK  status: ('A' for Active; 'I' for Inactive)
REMARK    1  A    between atoms: C3_4  and  O_7 
ROOT
ATOM      1  C   UNL d   1       1.567  -1.284   0.220  0.00  0.00    -0.033 A 
ATOM      2  C1  UNL d   1       0.487  -0.400   0.180  0.00  0.00     0.039 A 
ATOM      3  C2  UNL d   1      -0.471  -0.419   1.196  0.00  0.00    -0.080 A 
ATOM      4  C3  UNL d   1      -0.338  -1.324   2.245  0.00  0.00     0.150 A 
ATOM      5  C4  UNL d   1       0.738  -2.205   2.293  0.00  0.00    -0.007 A 
ATOM      6  C5  UNL d   1       1.693  -2.186   1.277  0.00  0.00     0.039 A 
ENDROOT
BRANCH   4   7
ATOM      7  O   UNL d   1      -1.250  -1.383   3.256  0.00  0.00    -0.526 OA
ATOM      8  H5  UNL d   1      -1.952  -0.737   3.075  0.00  0.00     0.418 HD
ENDBRANCH   4   7
TORSDOF 1
ENDMDL
