MODEL 1
REMARK minimizedAffinity -3.65597749
REMARK minimizedRMSD -1
REMARK  1 active torsions:
REMARK  status: ('A' for Active; 'I' for Inactive)
REMARK    1  A    between atoms: C3_4  and  O_7 
ROOT
ATOM      1  C   UNL d   1       1.469   0.039  -0.418  0.00  0.00    -0.033 A 
ATOM      2  C1  UNL d   1       2.014  -0.919   0.440  0.00  0.00     0.039 A 
ATOM      3  C2  UNL d   1       1.298  -1.342   1.561  0.00  0.00    -0.080 A 
ATOM      4  C3  UNL d   1       0.040  -0.801   1.813  0.00  0.00     0.150 A 
ATOM      5  C4  UNL d   1      -0.510   0.152   0.961  0.00  0.00    -0.007 A 
ATOM      6  C5  UNL d   1       0.207   0.573  -0.158  0.00  0.00     0.039 A 
ENDROOT
BRANCH   4   7
ATOM      7  O   UNL d   1      -0.694  -1.179   2.898  0.00  0.00    -0.526 OA
ATOM      8  H5  UNL d   1      -0.176  -1.821   3.411  0.00  0.00     0.418 HD
ENDBRANCH   4   7
TORSDOF 1
ENDMDL
