MODEL 1
REMARK minimizedAffinity -5.15790081
REMARK minimizedRMSD -1
REMARK  1 active torsions:
REMARK  status: ('A' for Active; 'I' for Inactive)
REMARK    1  A    between atoms: C3_4  and  O_7 
ROOT
ATOM      1  C   UNL d   1       0.222   0.582  -0.102  0.00  0.00    -0.033 A 
ATOM      2  C1  UNL d   1      -0.632  -0.367   0.466  0.00  0.00     0.039 A 
ATOM      3  C2  UNL d   1      -0.146  -1.630   0.807  0.00  0.00    -0.080 A 
ATOM      4  C3  UNL d   1       1.194  -1.932   0.578  0.00  0.00     0.150 A 
ATOM      5  C4  UNL d   1       2.051  -0.990   0.017  0.00  0.00    -0.007 A 
ATOM      6  C5  UNL d   1       1.563   0.270  -0.325  0.00  0.00     0.039 A 
ENDROOT
BRANCH   4   7
ATOM      7  O   UNL d   1       1.713  -3.153   0.891  0.00  0.00    -0.526 OA
ATOM      8  H5  UNL d   1       0.999  -3.710   1.244  0.00  0.00     0.418 HD
ENDBRANCH   4   7
TORSDOF 1
ENDMDL
