MODEL 1
REMARK minimizedAffinity -3.28653026
REMARK minimizedRMSD -1
REMARK  1 active torsions:
REMARK  status: ('A' for Active; 'I' for Inactive)
REMARK    1  A    between atoms: C3_4  and  O_7 
ROOT
ATOM      1  C   UNL d   1       1.445  -0.725  -0.409  0.00  0.00    -0.033 A 
ATOM      2  C1  UNL d   1       0.262  -0.035  -0.137  0.00  0.00     0.039 A 
ATOM      3  C2  UNL d   1      -0.394  -0.225   1.081  0.00  0.00    -0.080 A 
ATOM      4  C3  UNL d   1       0.142  -1.105   2.016  0.00  0.00     0.150 A 
ATOM      5  C4  UNL d   1       1.322  -1.793   1.753  0.00  0.00    -0.007 A 
ATOM      6  C5  UNL d   1       1.976  -1.603   0.536  0.00  0.00     0.039 A 
ENDROOT
BRANCH   4   7
ATOM      7  O   UNL d   1      -0.466  -1.327   3.216  0.00  0.00    -0.526 OA
ATOM      8  H5  UNL d   1      -1.285  -0.806   3.247  0.00  0.00     0.418 HD
ENDBRANCH   4   7
TORSDOF 1
ENDMDL
