MODEL 1
REMARK minimizedAffinity -1.46295965
REMARK minimizedRMSD -1
REMARK  1 active torsions:
REMARK  status: ('A' for Active; 'I' for Inactive)
REMARK    1  A    between atoms: C3_4  and  O_7 
ROOT
ATOM      1  C   UNL d   1      -2.435   1.959  -3.147  0.00  0.00    -0.033 A 
ATOM      2  C1  UNL d   1      -1.544   2.874  -2.583  0.00  0.00     0.039 A 
ATOM      3  C2  UNL d   1      -0.775   2.511  -1.476  0.00  0.00    -0.080 A 
ATOM      4  C3  UNL d   1      -0.904   1.231  -0.945  0.00  0.00     0.150 A 
ATOM      5  C4  UNL d   1      -1.787   0.312  -1.504  0.00  0.00    -0.007 A 
ATOM      6  C5  UNL d   1      -2.555   0.678  -2.609  0.00  0.00     0.039 A 
ENDROOT
BRANCH   4   7
ATOM      7  O   UNL d   1      -0.178   0.832   0.138  0.00  0.00    -0.526 OA
ATOM      8  H5  UNL d   1       0.368   1.579   0.435  0.00  0.00     0.418 HD
ENDBRANCH   4   7
TORSDOF 1
ENDMDL
