MODEL 1
REMARK minimizedAffinity -3.58570218
REMARK minimizedRMSD -1
REMARK  1 active torsions:
REMARK  status: ('A' for Active; 'I' for Inactive)
REMARK    1  A    between atoms: C3_4  and  O_7 
ROOT
ATOM      1  C   UNL d   1       2.596  -1.438  -0.119  0.00  0.00    -0.033 A 
ATOM      2  C1  UNL d   1       1.571  -1.751   0.777  0.00  0.00     0.039 A 
ATOM      3  C2  UNL d   1       0.385  -1.015   0.767  0.00  0.00    -0.080 A 
ATOM      4  C3  UNL d   1       0.235   0.028  -0.142  0.00  0.00     0.150 A 
ATOM      5  C4  UNL d   1       1.250   0.342  -1.040  0.00  0.00    -0.007 A 
ATOM      6  C5  UNL d   1       2.435  -0.392  -1.028  0.00  0.00     0.039 A 
ENDROOT
BRANCH   4   7
ATOM      7  O   UNL d   1      -0.903   0.777  -0.186  0.00  0.00    -0.526 OA
ATOM      8  H5  UNL d   1      -1.505   0.464   0.510  0.00  0.00     0.418 HD
ENDBRANCH   4   7
TORSDOF 1
ENDMDL
