MODEL 1
REMARK minimizedAffinity -3.38488436
REMARK minimizedRMSD -1
REMARK  1 active torsions:
REMARK  status: ('A' for Active; 'I' for Inactive)
REMARK    1  A    between atoms: C3_4  and  O_7 
ROOT
ATOM      1  C   UNL d   1       0.302   0.262   0.036  0.00  0.00    -0.033 A 
ATOM      2  C1  UNL d   1       0.562  -0.308  -1.212  0.00  0.00     0.039 A 
ATOM      3  C2  UNL d   1      -0.050   0.206  -2.357  0.00  0.00    -0.080 A 
ATOM      4  C3  UNL d   1      -0.917   1.289  -2.241  0.00  0.00     0.150 A 
ATOM      5  C4  UNL d   1      -1.177   1.865  -1.001  0.00  0.00    -0.007 A 
ATOM      6  C5  UNL d   1      -0.566   1.350   0.141  0.00  0.00     0.039 A 
ENDROOT
BRANCH   4   7
ATOM      7  O   UNL d   1      -1.541   1.822  -3.329  0.00  0.00    -0.526 OA
ATOM      8  H5  UNL d   1      -1.289   1.304  -4.112  0.00  0.00     0.418 HD
ENDBRANCH   4   7
TORSDOF 1
ENDMDL
