MODEL 1
REMARK minimizedAffinity -3.93358445
REMARK minimizedRMSD -1
REMARK  1 active torsions:
REMARK  status: ('A' for Active; 'I' for Inactive)
REMARK    1  A    between atoms: C3_4  and  O_7 
ROOT
ATOM      1  C   UNL d   1       1.522  -0.431  -0.282  0.00  0.00    -0.033 A 
ATOM      2  C1  UNL d   1       0.359   0.328  -0.134  0.00  0.00     0.039 A 
ATOM      3  C2  UNL d   1      -0.562   0.010   0.866  0.00  0.00    -0.080 A 
ATOM      4  C3  UNL d   1      -0.308  -1.067   1.711  0.00  0.00     0.150 A 
ATOM      5  C4  UNL d   1       0.850  -1.825   1.571  0.00  0.00    -0.007 A 
ATOM      6  C5  UNL d   1       1.768  -1.507   0.571  0.00  0.00     0.039 A 
ENDROOT
BRANCH   4   7
ATOM      7  O   UNL d   1      -1.179  -1.419   2.698  0.00  0.00    -0.526 OA
ATOM      8  H5  UNL d   1      -1.947  -0.825   2.657  0.00  0.00     0.418 HD
ENDBRANCH   4   7
TORSDOF 1
ENDMDL
