MODEL 1
REMARK minimizedAffinity -2.19250441
REMARK minimizedRMSD -1
REMARK  1 active torsions:
REMARK  status: ('A' for Active; 'I' for Inactive)
REMARK    1  A    between atoms: C3_4  and  O_7 
ROOT
ATOM      1  C   UNL d   1      -0.187   0.605  -0.216  0.00  0.00    -0.033 A 
ATOM      2  C1  UNL d   1      -0.495   1.966  -0.193  0.00  0.00     0.039 A 
ATOM      3  C2  UNL d   1      -1.378   2.500  -1.133  0.00  0.00    -0.080 A 
ATOM      4  C3  UNL d   1      -1.946   1.662  -2.089  0.00  0.00     0.150 A 
ATOM      5  C4  UNL d   1      -1.647   0.304  -2.116  0.00  0.00    -0.007 A 
ATOM      6  C5  UNL d   1      -0.764  -0.227  -1.176  0.00  0.00     0.039 A 
ENDROOT
BRANCH   4   7
ATOM      7  O   UNL d   1      -2.810   2.138  -3.031  0.00  0.00    -0.526 OA
ATOM      8  H5  UNL d   1      -2.901   3.098  -2.908  0.00  0.00     0.418 HD
ENDBRANCH   4   7
TORSDOF 1
ENDMDL
