MODEL 1
REMARK minimizedAffinity -3.49666834
REMARK minimizedRMSD -1
REMARK  1 active torsions:
REMARK  status: ('A' for Active; 'I' for Inactive)
REMARK    1  A    between atoms: C3_4  and  O_7 
ROOT
ATOM      1  C   UNL d   1      -1.453   0.868  -1.000  0.00  0.00    -0.033 A 
ATOM      2  C1  UNL d   1      -0.611   1.422  -0.034  0.00  0.00     0.039 A 
ATOM      3  C2  UNL d   1       0.572   0.770   0.321  0.00  0.00    -0.080 A 
ATOM      4  C3  UNL d   1       0.900  -0.434  -0.296  0.00  0.00     0.150 A 
ATOM      5  C4  UNL d   1       0.067  -0.990  -1.261  0.00  0.00    -0.007 A 
ATOM      6  C5  UNL d   1      -1.113  -0.338  -1.614  0.00  0.00     0.039 A 
ENDROOT
BRANCH   4   7
ATOM      7  O   UNL d   1       2.041  -1.109   0.022  0.00  0.00    -0.526 OA
ATOM      8  H5  UNL d   1       2.502  -0.621   0.723  0.00  0.00     0.418 HD
ENDBRANCH   4   7
TORSDOF 1
ENDMDL
