MODEL 1
REMARK minimizedAffinity -3.93937302
REMARK minimizedRMSD -1
REMARK  1 active torsions:
REMARK  status: ('A' for Active; 'I' for Inactive)
REMARK    1  A    between atoms: C3_4  and  O_7 
ROOT
ATOM      1  C   UNL d   1       1.822  -0.556   0.016  0.00  0.00    -0.033 A 
ATOM      2  C1  UNL d   1       1.837  -1.490   1.054  0.00  0.00     0.039 A 
ATOM      3  C2  UNL d   1       0.770  -1.556   1.952  0.00  0.00    -0.080 A 
ATOM      4  C3  UNL d   1      -0.305  -0.685   1.800  0.00  0.00     0.150 A 
ATOM      5  C4  UNL d   1      -0.329   0.245   0.765  0.00  0.00    -0.007 A 
ATOM      6  C5  UNL d   1       0.738   0.310  -0.130  0.00  0.00     0.039 A 
ENDROOT
BRANCH   4   7
ATOM      7  O   UNL d   1      -1.368  -0.708   2.654  0.00  0.00    -0.526 OA
ATOM      8  H5  UNL d   1      -1.200  -1.381   3.335  0.00  0.00     0.418 HD
ENDBRANCH   4   7
TORSDOF 1
ENDMDL
