MODEL 1
REMARK minimizedAffinity -2.14782476
REMARK minimizedRMSD -1
REMARK  0 active torsions:
REMARK  status: ('A' for Active; 'I' for Inactive)
ROOT
ATOM      1  C   UNL d   1      -0.827  -0.191   0.474  0.00  0.00     0.020 A 
ATOM      2  C1  UNL d   1      -0.935   0.725   1.520  0.00  0.00     0.020 A 
ATOM      3  C2  UNL d   1       0.181   1.461   1.921  0.00  0.00     0.034 A 
ATOM      4  C3  UNL d   1       1.411   1.283   1.276  0.00  0.00     0.017 A 
ATOM      5  C4  UNL d   1       1.518   0.364   0.226  0.00  0.00     0.017 A 
ATOM      6  C5  UNL d   1       0.396  -0.371  -0.171  0.00  0.00     0.034 A 
ATOM      7 Cl   UNL d   1       3.001   0.089  -0.618  0.00  0.00    -0.070 Cl
ATOM      8 Cl1  UNL d   1       2.750   2.228   1.823  0.00  0.00    -0.070 Cl
ENDROOT
TORSDOF 0
ENDMDL
