MODEL 1
REMARK minimizedAffinity -3.74780035
REMARK minimizedRMSD -1
REMARK  0 active torsions:
REMARK  status: ('A' for Active; 'I' for Inactive)
ROOT
ATOM      1  C   UNL d   1      -1.024   0.679   2.452  0.00  0.00     0.020 A 
ATOM      2  C1  UNL d   1       0.099   1.493   2.586  0.00  0.00     0.020 A 
ATOM      3  C2  UNL d   1       1.068   1.517   1.581  0.00  0.00     0.034 A 
ATOM      4  C3  UNL d   1       0.916   0.725   0.437  0.00  0.00     0.017 A 
ATOM      5  C4  UNL d   1      -0.213  -0.092   0.304  0.00  0.00     0.017 A 
ATOM      6  C5  UNL d   1      -1.180  -0.112   1.313  0.00  0.00     0.034 A 
ATOM      7 Cl   UNL d   1      -0.471  -1.097  -1.079  0.00  0.00    -0.070 Cl
ATOM      8 Cl1  UNL d   1       2.153   0.804  -0.766  0.00  0.00    -0.070 Cl
ENDROOT
TORSDOF 0
ENDMDL
