MODEL 1
REMARK minimizedAffinity -2.59124231
REMARK minimizedRMSD -1
REMARK  0 active torsions:
REMARK  status: ('A' for Active; 'I' for Inactive)
ROOT
ATOM      1  C   UNL d   1       0.402   2.358   1.872  0.00  0.00     0.020 A 
ATOM      2  C1  UNL d   1      -0.794   1.662   2.048  0.00  0.00     0.020 A 
ATOM      3  C2  UNL d   1      -1.055   0.520   1.288  0.00  0.00     0.034 A 
ATOM      4  C3  UNL d   1      -0.120   0.070   0.349  0.00  0.00     0.017 A 
ATOM      5  C4  UNL d   1       1.080   0.769   0.173  0.00  0.00     0.017 A 
ATOM      6  C5  UNL d   1       1.337   1.912   0.937  0.00  0.00     0.034 A 
ATOM      7 Cl   UNL d   1       2.283   0.275  -0.966  0.00  0.00    -0.070 Cl
ATOM      8 Cl1  UNL d   1      -0.508  -1.350  -0.556  0.00  0.00    -0.070 Cl
ENDROOT
TORSDOF 0
ENDMDL
