MODEL 1
REMARK minimizedAffinity -2.67229962
REMARK minimizedRMSD -1
REMARK  0 active torsions:
REMARK  status: ('A' for Active; 'I' for Inactive)
ROOT
ATOM      1  C   UNL d   1      -4.345  -2.953  -0.818  0.00  0.00     0.020 A 
ATOM      2  C1  UNL d   1      -4.796  -2.557  -2.077  0.00  0.00     0.020 A 
ATOM      3  C2  UNL d   1      -3.938  -1.876  -2.943  0.00  0.00     0.034 A 
ATOM      4  C3  UNL d   1      -2.625  -1.588  -2.552  0.00  0.00     0.017 A 
ATOM      5  C4  UNL d   1      -2.174  -1.986  -1.288  0.00  0.00     0.017 A 
ATOM      6  C5  UNL d   1      -3.037  -2.668  -0.425  0.00  0.00     0.034 A 
ATOM      7 Cl   UNL d   1      -0.568  -1.667  -0.735  0.00  0.00    -0.070 Cl
ATOM      8 Cl1  UNL d   1      -1.619  -0.744  -3.674  0.00  0.00    -0.070 Cl
ENDROOT
TORSDOF 0
ENDMDL
