MODEL 1
REMARK minimizedAffinity -6.02275944
REMARK minimizedRMSD -1
REMARK  0 active torsions:
REMARK  status: ('A' for Active; 'I' for Inactive)
ROOT
ATOM      1  C   UNL d   1       0.960   2.839   2.082  0.00  0.00     0.020 A 
ATOM      2  C1  UNL d   1       1.591   2.420   0.911  0.00  0.00     0.020 A 
ATOM      3  C2  UNL d   1       1.130   1.287   0.237  0.00  0.00     0.034 A 
ATOM      4  C3  UNL d   1       0.035   0.570   0.733  0.00  0.00     0.017 A 
ATOM      5  C4  UNL d   1      -0.597   0.992   1.909  0.00  0.00     0.017 A 
ATOM      6  C5  UNL d   1      -0.131   2.127   2.579  0.00  0.00     0.034 A 
ATOM      7 Cl   UNL d   1      -1.953   0.158   2.582  0.00  0.00    -0.070 Cl
ATOM      8 Cl1  UNL d   1      -0.482  -0.821  -0.152  0.00  0.00    -0.070 Cl
ENDROOT
TORSDOF 0
ENDMDL
