MODEL 1
REMARK minimizedAffinity -0.813269556
REMARK minimizedRMSD -1
REMARK  0 active torsions:
REMARK  status: ('A' for Active; 'I' for Inactive)
ROOT
ATOM      1  C   UNL d   1      -1.131   1.442   2.180  0.00  0.00     0.020 A 
ATOM      2  C1  UNL d   1       0.060   2.114   2.453  0.00  0.00     0.020 A 
ATOM      3  C2  UNL d   1       1.223   1.786   1.753  0.00  0.00     0.034 A 
ATOM      4  C3  UNL d   1       1.197   0.784   0.776  0.00  0.00     0.017 A 
ATOM      5  C4  UNL d   1       0.001   0.110   0.503  0.00  0.00     0.017 A 
ATOM      6  C5  UNL d   1      -1.160   0.443   1.207  0.00  0.00     0.034 A 
ATOM      7 Cl   UNL d   1      -0.108  -1.138  -0.688  0.00  0.00    -0.070 Cl
ATOM      8 Cl1  UNL d   1       2.673   0.431  -0.051  0.00  0.00    -0.070 Cl
ENDROOT
TORSDOF 0
ENDMDL
