MODEL 1
REMARK minimizedAffinity -2.9490304
REMARK minimizedRMSD -1
REMARK  0 active torsions:
REMARK  status: ('A' for Active; 'I' for Inactive)
ROOT
ATOM      1  C   UNL d   1      -3.262  -1.497  -2.287  0.00  0.00     0.020 A 
ATOM      2  C1  UNL d   1      -2.302  -1.967  -3.182  0.00  0.00     0.020 A 
ATOM      3  C2  UNL d   1      -0.955  -1.988  -2.813  0.00  0.00     0.034 A 
ATOM      4  C3  UNL d   1      -0.565  -1.538  -1.547  0.00  0.00     0.017 A 
ATOM      5  C4  UNL d   1      -1.530  -1.066  -0.649  0.00  0.00     0.017 A 
ATOM      6  C5  UNL d   1      -2.877  -1.047  -1.023  0.00  0.00     0.034 A 
ATOM      7 Cl   UNL d   1      -1.125  -0.495   0.931  0.00  0.00    -0.070 Cl
ATOM      8 Cl1  UNL d   1       1.118  -1.593  -1.158  0.00  0.00    -0.070 Cl
ENDROOT
TORSDOF 0
ENDMDL
