MODEL 1
REMARK minimizedAffinity -4.3590641
REMARK minimizedRMSD -1
REMARK  0 active torsions:
REMARK  status: ('A' for Active; 'I' for Inactive)
ROOT
ATOM      1  C   UNL d   1      -0.363  -1.322  -0.110  0.00  0.00     0.020 A 
ATOM      2  C1  UNL d   1      -1.043  -0.551   0.832  0.00  0.00     0.020 A 
ATOM      3  C2  UNL d   1      -0.504   0.664   1.260  0.00  0.00     0.034 A 
ATOM      4  C3  UNL d   1       0.719   1.112   0.746  0.00  0.00     0.017 A 
ATOM      5  C4  UNL d   1       1.401   0.337  -0.199  0.00  0.00     0.017 A 
ATOM      6  C5  UNL d   1       0.856  -0.879  -0.625  0.00  0.00     0.034 A 
ATOM      7 Cl   UNL d   1       2.914   0.823  -0.879  0.00  0.00    -0.070 Cl
ATOM      8 Cl1  UNL d   1       1.327   2.624   1.321  0.00  0.00    -0.070 Cl
ENDROOT
TORSDOF 0
ENDMDL
