MODEL 1
REMARK minimizedAffinity -3.77660322
REMARK minimizedRMSD -1
REMARK  0 active torsions:
REMARK  status: ('A' for Active; 'I' for Inactive)
ROOT
ATOM      1  C   UNL d   1       3.045   1.657   0.516  0.00  0.00     0.020 A 
ATOM      2  C1  UNL d   1       2.137   2.516   1.134  0.00  0.00     0.020 A 
ATOM      3  C2  UNL d   1       0.780   2.189   1.170  0.00  0.00     0.034 A 
ATOM      4  C3  UNL d   1       0.327   0.999   0.588  0.00  0.00     0.017 A 
ATOM      5  C4  UNL d   1       1.239   0.137  -0.031  0.00  0.00     0.017 A 
ATOM      6  C5  UNL d   1       2.597   0.470  -0.065  0.00  0.00     0.034 A 
ATOM      7 Cl   UNL d   1       0.756  -1.348  -0.771  0.00  0.00    -0.070 Cl
ATOM      8 Cl1  UNL d   1      -1.365   0.657   0.671  0.00  0.00    -0.070 Cl
ENDROOT
TORSDOF 0
ENDMDL
