MODEL 1
REMARK minimizedAffinity -5.64905882
REMARK minimizedRMSD -1
REMARK  0 active torsions:
REMARK  status: ('A' for Active; 'I' for Inactive)
ROOT
ATOM      1  C   UNL d   1       1.994   2.574   0.903  0.00  0.00     0.020 A 
ATOM      2  C1  UNL d   1       2.750   1.834  -0.006  0.00  0.00     0.020 A 
ATOM      3  C2  UNL d   1       2.337   0.554  -0.379  0.00  0.00     0.034 A 
ATOM      4  C3  UNL d   1       1.165   0.008   0.158  0.00  0.00     0.017 A 
ATOM      5  C4  UNL d   1       0.407   0.751   1.070  0.00  0.00     0.017 A 
ATOM      6  C5  UNL d   1       0.825   2.033   1.440  0.00  0.00     0.034 A 
ATOM      7 Cl   UNL d   1      -1.051   0.146   1.775  0.00  0.00    -0.070 Cl
ATOM      8 Cl1  UNL d   1       0.713  -1.581  -0.348  0.00  0.00    -0.070 Cl
ENDROOT
TORSDOF 0
ENDMDL
