MODEL 1
REMARK minimizedAffinity -3.53284264
REMARK minimizedRMSD -1
REMARK  0 active torsions:
REMARK  status: ('A' for Active; 'I' for Inactive)
ROOT
ATOM      1  C   UNL d   1       1.380   2.894   1.637  0.00  0.00     0.020 A 
ATOM      2  C1  UNL d   1       0.053   2.468   1.677  0.00  0.00     0.020 A 
ATOM      3  C2  UNL d   1      -0.342   1.345   0.946  0.00  0.00     0.034 A 
ATOM      4  C3  UNL d   1       0.591   0.644   0.173  0.00  0.00     0.017 A 
ATOM      5  C4  UNL d   1       1.923   1.072   0.134  0.00  0.00     0.017 A 
ATOM      6  C5  UNL d   1       2.313   2.198   0.867  0.00  0.00     0.034 A 
ATOM      7 Cl   UNL d   1       3.131   0.259  -0.797  0.00  0.00    -0.070 Cl
ATOM      8 Cl1  UNL d   1       0.033  -0.736  -0.704  0.00  0.00    -0.070 Cl
ENDROOT
TORSDOF 0
ENDMDL
