MODEL 1
REMARK minimizedAffinity 1.51749623
REMARK minimizedRMSD -1
REMARK  0 active torsions:
REMARK  status: ('A' for Active; 'I' for Inactive)
ROOT
ATOM      1  C   UNL d   1      -0.545  -1.056   0.063  0.00  0.00     0.020 A 
ATOM      2  C1  UNL d   1       0.574  -0.551  -0.599  0.00  0.00     0.020 A 
ATOM      3  C2  UNL d   1       0.505  -0.261  -1.963  0.00  0.00     0.034 A 
ATOM      4  C3  UNL d   1      -0.684  -0.475  -2.669  0.00  0.00     0.017 A 
ATOM      5  C4  UNL d   1      -1.806  -0.982  -2.004  0.00  0.00     0.017 A 
ATOM      6  C5  UNL d   1      -1.732  -1.271  -0.638  0.00  0.00     0.034 A 
ATOM      7 Cl   UNL d   1      -3.308  -1.272  -2.808  0.00  0.00    -0.070 Cl
ATOM      8 Cl1  UNL d   1      -0.697  -0.093  -4.354  0.00  0.00    -0.070 Cl
ENDROOT
TORSDOF 0
ENDMDL
