MODEL 1
REMARK minimizedAffinity -1.13526142
REMARK minimizedRMSD -1
REMARK  0 active torsions:
REMARK  status: ('A' for Active; 'I' for Inactive)
ROOT
ATOM      1  C   UNL d   1       0.384   1.463   2.377  0.00  0.00     0.020 A 
ATOM      2  C1  UNL d   1      -0.764   0.790   1.962  0.00  0.00     0.020 A 
ATOM      3  C2  UNL d   1      -0.780   0.126   0.734  0.00  0.00     0.034 A 
ATOM      4  C3  UNL d   1       0.356   0.134  -0.085  0.00  0.00     0.017 A 
ATOM      5  C4  UNL d   1       1.508   0.810   0.332  0.00  0.00     0.017 A 
ATOM      6  C5  UNL d   1       1.518   1.473   1.563  0.00  0.00     0.034 A 
ATOM      7 Cl   UNL d   1       2.947   0.865  -0.623  0.00  0.00    -0.070 Cl
ATOM      8 Cl1  UNL d   1       0.266  -0.707  -1.591  0.00  0.00    -0.070 Cl
ENDROOT
TORSDOF 0
ENDMDL
