MODEL 1
REMARK minimizedAffinity -2.63534069
REMARK minimizedRMSD -1
REMARK  0 active torsions:
REMARK  status: ('A' for Active; 'I' for Inactive)
ROOT
ATOM      1  C   UNL d   1       0.420  -0.906  -0.383  0.00  0.00     0.020 A 
ATOM      2  C1  UNL d   1       1.255  -0.055  -1.106  0.00  0.00     0.020 A 
ATOM      3  C2  UNL d   1       1.554   1.216  -0.612  0.00  0.00     0.034 A 
ATOM      4  C3  UNL d   1       1.018   1.640   0.610  0.00  0.00     0.017 A 
ATOM      5  C4  UNL d   1       0.181   0.785   1.335  0.00  0.00     0.017 A 
ATOM      6  C5  UNL d   1      -0.116  -0.487   0.836  0.00  0.00     0.034 A 
ATOM      7 Cl   UNL d   1      -0.518   1.238   2.850  0.00  0.00    -0.070 Cl
ATOM      8 Cl1  UNL d   1       1.431   3.225   1.161  0.00  0.00    -0.070 Cl
ENDROOT
TORSDOF 0
ENDMDL
