MODEL 1
REMARK minimizedAffinity -2.85066056
REMARK minimizedRMSD -1
REMARK  0 active torsions:
REMARK  status: ('A' for Active; 'I' for Inactive)
ROOT
ATOM      1  C   UNL d   1       1.444   0.258  -0.992  0.00  0.00     0.020 A 
ATOM      2  C1  UNL d   1       0.579  -0.549  -0.254  0.00  0.00     0.020 A 
ATOM      3  C2  UNL d   1       0.025  -0.072   0.936  0.00  0.00     0.034 A 
ATOM      4  C3  UNL d   1       0.335   1.215   1.391  0.00  0.00     0.017 A 
ATOM      5  C4  UNL d   1       1.203   2.024   0.649  0.00  0.00     0.017 A 
ATOM      6  C5  UNL d   1       1.755   1.541  -0.542  0.00  0.00     0.034 A 
ATOM      7 Cl   UNL d   1       1.632   3.623   1.145  0.00  0.00    -0.070 Cl
ATOM      8 Cl1  UNL d   1      -0.387   1.740   2.870  0.00  0.00    -0.070 Cl
ENDROOT
TORSDOF 0
ENDMDL
