MODEL 1
REMARK minimizedAffinity -3.16512775
REMARK minimizedRMSD -1
REMARK  0 active torsions:
REMARK  status: ('A' for Active; 'I' for Inactive)
ROOT
ATOM      1  C   UNL d   1      -0.081   1.846   2.540  0.00  0.00     0.020 A 
ATOM      2  C1  UNL d   1      -1.127   0.935   2.395  0.00  0.00     0.020 A 
ATOM      3  C2  UNL d   1      -1.163   0.083   1.290  0.00  0.00     0.034 A 
ATOM      4  C3  UNL d   1      -0.151   0.139   0.324  0.00  0.00     0.017 A 
ATOM      5  C4  UNL d   1       0.898   1.054   0.470  0.00  0.00     0.017 A 
ATOM      6  C5  UNL d   1       0.929   1.905   1.579  0.00  0.00     0.034 A 
ATOM      7 Cl   UNL d   1       2.182   1.182  -0.680  0.00  0.00    -0.070 Cl
ATOM      8 Cl1  UNL d   1      -0.259  -0.945  -1.017  0.00  0.00    -0.070 Cl
ENDROOT
TORSDOF 0
ENDMDL
