MODEL 1
REMARK minimizedAffinity 14.5915213
REMARK minimizedRMSD -1
REMARK  0 active torsions:
REMARK  status: ('A' for Active; 'I' for Inactive)
ROOT
ATOM      1  C   UNL d   1       1.424  -2.609   1.659  0.00  0.00     0.124 A 
ATOM      2  C1  UNL d   1       2.179  -3.771   1.571  0.00  0.00     0.062 A 
ATOM      3  C2  UNL d   1       3.070  -4.106   2.586  0.00  0.00     0.162 A 
ATOM      4  C3  UNL d   1       3.210  -3.279   3.701  0.00  0.00    -0.034 A 
ATOM      5  C4  UNL d   1       2.448  -2.112   3.782  0.00  0.00     0.162 A 
ATOM      6  C5  UNL d   1       1.559  -1.781   2.764  0.00  0.00     0.062 A 
ATOM      7  F   UNL d   1       0.831  -0.659   2.852  0.00  0.00    -0.097 F 
ATOM      8  F1  UNL d   1       2.557  -1.294   4.840  0.00  0.00    -0.096 F 
ATOM      9  I   UNL d   1       4.540  -3.776   5.222  0.00  0.00    -0.060 I 
ATOM     10  F2  UNL d   1       3.787  -5.234   2.475  0.00  0.00    -0.096 F 
ATOM     11  F3  UNL d   1       2.052  -4.572   0.503  0.00  0.00    -0.097 F 
ATOM     12  F4  UNL d   1       0.569  -2.289   0.680  0.00  0.00    -0.092 F 
ENDROOT
TORSDOF 0
ENDMDL
