MODEL 1
REMARK minimizedAffinity 19.4550247
REMARK minimizedRMSD -1
REMARK  0 active torsions:
REMARK  status: ('A' for Active; 'I' for Inactive)
ROOT
ATOM      1  C   UNL d   1       0.341  -2.193   2.564  0.00  0.00     0.124 A 
ATOM      2  C1  UNL d   1      -0.883  -2.845   2.602  0.00  0.00     0.062 A 
ATOM      3  C2  UNL d   1      -1.829  -2.619   1.607  0.00  0.00     0.162 A 
ATOM      4  C3  UNL d   1      -1.553  -1.736   0.562  0.00  0.00    -0.034 A 
ATOM      5  C4  UNL d   1      -0.320  -1.083   0.530  0.00  0.00     0.162 A 
ATOM      6  C5  UNL d   1       0.622  -1.312   1.528  0.00  0.00     0.062 A 
ATOM      7  F   UNL d   1       1.804  -0.681   1.489  0.00  0.00    -0.097 F 
ATOM      8  F1  UNL d   1      -0.023  -0.228  -0.459  0.00  0.00    -0.096 F 
ATOM      9  I   UNL d   1      -2.965  -1.395  -0.929  0.00  0.00    -0.060 I 
ATOM     10  F2  UNL d   1      -3.004  -3.263   1.669  0.00  0.00    -0.096 F 
ATOM     11  F3  UNL d   1      -1.157  -3.695   3.603  0.00  0.00    -0.097 F 
ATOM     12  F4  UNL d   1       1.249  -2.411   3.524  0.00  0.00    -0.092 F 
ENDROOT
TORSDOF 0
ENDMDL
