MODEL 1
REMARK minimizedAffinity 7.50950909
REMARK minimizedRMSD -1
REMARK  0 active torsions:
REMARK  status: ('A' for Active; 'I' for Inactive)
ROOT
ATOM      1  C   UNL d   1      -1.507   3.919  -3.143  0.00  0.00     0.124 A 
ATOM      2  C1  UNL d   1      -2.737   3.313  -3.355  0.00  0.00     0.062 A 
ATOM      3  C2  UNL d   1      -2.935   1.985  -2.988  0.00  0.00     0.162 A 
ATOM      4  C3  UNL d   1      -1.900   1.254  -2.404  0.00  0.00    -0.034 A 
ATOM      5  C4  UNL d   1      -0.666   1.871  -2.195  0.00  0.00     0.162 A 
ATOM      6  C5  UNL d   1      -0.473   3.198  -2.563  0.00  0.00     0.062 A 
ATOM      7  F   UNL d   1       0.717   3.783  -2.357  0.00  0.00    -0.097 F 
ATOM      8  F1  UNL d   1       0.351   1.197  -1.635  0.00  0.00    -0.096 F 
ATOM      9  I   UNL d   1      -2.193  -0.732  -1.854  0.00  0.00    -0.060 I 
ATOM     10  F2  UNL d   1      -4.134   1.424  -3.205  0.00  0.00    -0.096 F 
ATOM     11  F3  UNL d   1      -3.738   4.007  -3.915  0.00  0.00    -0.097 F 
ATOM     12  F4  UNL d   1      -1.319   5.197  -3.497  0.00  0.00    -0.092 F 
ENDROOT
TORSDOF 0
ENDMDL
