MODEL 1
REMARK minimizedAffinity 14.7581139
REMARK minimizedRMSD -1
REMARK  0 active torsions:
REMARK  status: ('A' for Active; 'I' for Inactive)
ROOT
ATOM      1  C   UNL d   1      -1.462   4.056  -3.734  0.00  0.00     0.124 A 
ATOM      2  C1  UNL d   1      -0.595   3.516  -2.795  0.00  0.00     0.062 A 
ATOM      3  C2  UNL d   1      -0.886   2.294  -2.195  0.00  0.00     0.162 A 
ATOM      4  C3  UNL d   1      -2.049   1.603  -2.534  0.00  0.00    -0.034 A 
ATOM      5  C4  UNL d   1      -2.916   2.153  -3.479  0.00  0.00     0.162 A 
ATOM      6  C5  UNL d   1      -2.621   3.374  -4.076  0.00  0.00     0.062 A 
ATOM      7  F   UNL d   1      -3.460   3.895  -4.983  0.00  0.00    -0.097 F 
ATOM      8  F1  UNL d   1      -4.043   1.515  -3.828  0.00  0.00    -0.096 F 
ATOM      9  I   UNL d   1      -2.487  -0.225  -1.640  0.00  0.00    -0.060 I 
ATOM     10  F2  UNL d   1      -0.030   1.796  -1.290  0.00  0.00    -0.096 F 
ATOM     11  F3  UNL d   1       0.525   4.173  -2.462  0.00  0.00    -0.097 F 
ATOM     12  F4  UNL d   1      -1.180   5.233  -4.309  0.00  0.00    -0.092 F 
ENDROOT
TORSDOF 0
ENDMDL
