MODEL 1
REMARK minimizedAffinity 20.3255711
REMARK minimizedRMSD -1
REMARK  0 active torsions:
REMARK  status: ('A' for Active; 'I' for Inactive)
ROOT
ATOM      1  C   UNL d   1      -1.430  -1.958   1.115  0.00  0.00     0.124 A 
ATOM      2  C1  UNL d   1      -0.600  -2.066   2.222  0.00  0.00     0.062 A 
ATOM      3  C2  UNL d   1       0.783  -2.062   2.063  0.00  0.00     0.162 A 
ATOM      4  C3  UNL d   1       1.345  -1.949   0.791  0.00  0.00    -0.034 A 
ATOM      5  C4  UNL d   1       0.503  -1.842  -0.318  0.00  0.00     0.162 A 
ATOM      6  C5  UNL d   1      -0.878  -1.846  -0.154  0.00  0.00     0.062 A 
ATOM      7  F   UNL d   1      -1.678  -1.742  -1.225  0.00  0.00    -0.097 F 
ATOM      8  F1  UNL d   1       1.010  -1.732  -1.554  0.00  0.00    -0.096 F 
ATOM      9  I   UNL d   1       3.412  -1.943   0.550  0.00  0.00    -0.060 I 
ATOM     10  F2  UNL d   1       1.560  -2.168   3.151  0.00  0.00    -0.096 F 
ATOM     11  F3  UNL d   1      -1.131  -2.175   3.448  0.00  0.00    -0.097 F 
ATOM     12  F4  UNL d   1      -2.760  -1.964   1.270  0.00  0.00    -0.092 F 
ENDROOT
TORSDOF 0
ENDMDL
