MODEL 1
REMARK minimizedAffinity 19.095726
REMARK minimizedRMSD -1
REMARK  0 active torsions:
REMARK  status: ('A' for Active; 'I' for Inactive)
ROOT
ATOM      1  C   UNL d   1      -0.226  -1.993   1.215  0.00  0.00     0.124 A 
ATOM      2  C1  UNL d   1       0.501  -2.207   2.377  0.00  0.00     0.062 A 
ATOM      3  C2  UNL d   1       1.889  -2.308   2.327  0.00  0.00     0.162 A 
ATOM      4  C3  UNL d   1       2.559  -2.193   1.108  0.00  0.00    -0.034 A 
ATOM      5  C4  UNL d   1       1.820  -1.979  -0.057  0.00  0.00     0.162 A 
ATOM      6  C5  UNL d   1       0.434  -1.879  -0.001  0.00  0.00     0.062 A 
ATOM      7  F   UNL d   1      -0.267  -1.673  -1.125  0.00  0.00    -0.097 F 
ATOM      8  F1  UNL d   1       2.432  -1.864  -1.245  0.00  0.00    -0.096 F 
ATOM      9  I   UNL d   1       4.633  -2.343   1.028  0.00  0.00    -0.060 I 
ATOM     10  F2  UNL d   1       2.566  -2.515   3.466  0.00  0.00    -0.096 F 
ATOM     11  F3  UNL d   1      -0.134  -2.319   3.553  0.00  0.00    -0.097 F 
ATOM     12  F4  UNL d   1      -1.561  -1.898   1.266  0.00  0.00    -0.092 F 
ENDROOT
TORSDOF 0
ENDMDL
