MODEL 1
REMARK minimizedAffinity 11.4281588
REMARK minimizedRMSD -1
REMARK  0 active torsions:
REMARK  status: ('A' for Active; 'I' for Inactive)
ROOT
ATOM      1  C   UNL d   1       3.113  -4.081   1.015  0.00  0.00     0.124 A 
ATOM      2  C1  UNL d   1       1.840  -3.533   1.091  0.00  0.00     0.062 A 
ATOM      3  C2  UNL d   1       1.652  -2.167   0.899  0.00  0.00     0.162 A 
ATOM      4  C3  UNL d   1       2.742  -1.339   0.629  0.00  0.00    -0.034 A 
ATOM      5  C4  UNL d   1       4.019  -1.896   0.556  0.00  0.00     0.162 A 
ATOM      6  C5  UNL d   1       4.201  -3.262   0.747  0.00  0.00     0.062 A 
ATOM      7  F   UNL d   1       5.432  -3.789   0.674  0.00  0.00    -0.097 F 
ATOM      8  F1  UNL d   1       5.088  -1.129   0.298  0.00  0.00    -0.096 F 
ATOM      9  I   UNL d   1       2.466   0.704   0.343  0.00  0.00    -0.060 I 
ATOM     10  F2  UNL d   1       0.411  -1.666   0.978  0.00  0.00    -0.096 F 
ATOM     11  F3  UNL d   1       0.787  -4.322   1.350  0.00  0.00    -0.097 F 
ATOM     12  F4  UNL d   1       3.290  -5.395   1.200  0.00  0.00    -0.092 F 
ENDROOT
TORSDOF 0
ENDMDL
