MODEL 1
REMARK minimizedAffinity -0.969376922
REMARK minimizedRMSD -1
REMARK  1 active torsions:
REMARK  status: ('A' for Active; 'I' for Inactive)
REMARK    1  A    between atoms: C1_2  and  C2_3 
ROOT
ATOM      1  C2  UNL d   1       4.282  -1.047  -5.999  0.00  0.00    -0.077 A 
ATOM      2  C3  UNL d   1       2.909  -1.334  -5.999  0.00  0.00     0.002 A 
ATOM      3  C4  UNL d   1       2.465  -2.658  -6.000  0.00  0.00     0.002 A 
ATOM      4  C5  UNL d   1       3.386  -3.704  -5.997  0.00  0.00    -0.004 A 
ATOM      5  C6  UNL d   1       4.752  -3.428  -6.000  0.00  0.00     0.002 A 
ATOM      6  C7  UNL d   1       5.198  -2.106  -6.000  0.00  0.00     0.002 A 
ENDROOT
BRANCH   1   7
ATOM      7  C1  UNL d   1       4.763   0.379  -5.948  0.00  0.00     0.055 C 
ATOM      8  C   UNL d   1       5.848   0.560  -4.896  0.00  0.00     0.019 C 
ENDBRANCH   1   7
TORSDOF 1
ENDMDL
