MODEL 1
REMARK minimizedAffinity 1.15591204
REMARK minimizedRMSD -1
REMARK  1 active torsions:
REMARK  status: ('A' for Active; 'I' for Inactive)
REMARK    1  A    between atoms: C1_2  and  C2_3 
ROOT
ATOM      1  C2  UNL d   1       0.464  -1.728  -0.430  0.00  0.00    -0.077 A 
ATOM      2  C3  UNL d   1       1.403  -2.768  -0.479  0.00  0.00     0.002 A 
ATOM      3  C4  UNL d   1       1.205  -3.859  -1.328  0.00  0.00     0.002 A 
ATOM      4  C5  UNL d   1       0.071  -3.918  -2.136  0.00  0.00    -0.004 A 
ATOM      5  C6  UNL d   1      -0.869  -2.889  -2.093  0.00  0.00     0.002 A 
ATOM      6  C7  UNL d   1      -0.673  -1.799  -1.245  0.00  0.00     0.002 A 
ENDROOT
BRANCH   1   7
ATOM      7  C1  UNL d   1       0.701  -0.527   0.448  0.00  0.00     0.055 C 
ATOM      8  C   UNL d   1       1.074   0.696  -0.376  0.00  0.00     0.019 C 
ENDBRANCH   1   7
TORSDOF 1
ENDMDL
