MODEL 1
REMARK minimizedAffinity -2.57786608
REMARK minimizedRMSD -1
REMARK  1 active torsions:
REMARK  status: ('A' for Active; 'I' for Inactive)
REMARK    1  A    between atoms: C1_2  and  C2_3 
ROOT
ATOM      1  C2  UNL d   1       0.512   0.483   1.340  0.00  0.00    -0.077 A 
ATOM      2  C3  UNL d   1      -0.625   1.191   0.926  0.00  0.00     0.002 A 
ATOM      3  C4  UNL d   1      -0.494   2.404   0.248  0.00  0.00     0.002 A 
ATOM      4  C5  UNL d   1       0.772   2.918  -0.026  0.00  0.00    -0.004 A 
ATOM      5  C6  UNL d   1       1.909   2.223   0.383  0.00  0.00     0.002 A 
ATOM      6  C7  UNL d   1       1.780   1.010   1.062  0.00  0.00     0.002 A 
ENDROOT
BRANCH   1   7
ATOM      7  C1  UNL d   1       0.373  -0.849   2.029  0.00  0.00     0.055 C 
ATOM      8  C   UNL d   1       1.438  -1.032   3.100  0.00  0.00     0.019 C 
ENDBRANCH   1   7
TORSDOF 1
ENDMDL
