MODEL 1
REMARK minimizedAffinity 6.4791894
REMARK minimizedRMSD -1
REMARK  1 active torsions:
REMARK  status: ('A' for Active; 'I' for Inactive)
REMARK    1  A    between atoms: C1_2  and  C2_3 
ROOT
ATOM      1  C2  UNL d   1       2.306   1.507   1.537  0.00  0.00    -0.077 A 
ATOM      2  C3  UNL d   1       2.242   0.342   2.314  0.00  0.00     0.002 A 
ATOM      3  C4  UNL d   1       2.531   0.388   3.680  0.00  0.00     0.002 A 
ATOM      4  C5  UNL d   1       2.880   1.596   4.279  0.00  0.00    -0.004 A 
ATOM      5  C6  UNL d   1       2.949   2.760   3.514  0.00  0.00     0.002 A 
ATOM      6  C7  UNL d   1       2.662   2.716   2.149  0.00  0.00     0.002 A 
ENDROOT
BRANCH   1   7
ATOM      7  C1  UNL d   1       1.948   1.469   0.074  0.00  0.00     0.055 C 
ATOM      8  C   UNL d   1       0.559   2.042  -0.171  0.00  0.00     0.019 C 
ENDBRANCH   1   7
TORSDOF 1
ENDMDL
