MODEL 1
REMARK minimizedAffinity 5.52545023
REMARK minimizedRMSD -1
REMARK  1 active torsions:
REMARK  status: ('A' for Active; 'I' for Inactive)
REMARK    1  A    between atoms: C1_2  and  C2_3 
ROOT
ATOM      1  C2  UNL d   1       1.829   0.123   2.277  0.00  0.00    -0.077 A 
ATOM      2  C3  UNL d   1       2.053   0.414   3.630  0.00  0.00     0.002 A 
ATOM      3  C4  UNL d   1       2.590   1.646   4.008  0.00  0.00     0.002 A 
ATOM      4  C5  UNL d   1       2.903   2.598   3.040  0.00  0.00    -0.004 A 
ATOM      5  C6  UNL d   1       2.686   2.317   1.692  0.00  0.00     0.002 A 
ATOM      6  C7  UNL d   1       2.150   1.086   1.312  0.00  0.00     0.002 A 
ENDROOT
BRANCH   1   7
ATOM      7  C1  UNL d   1       1.204  -1.186   1.870  0.00  0.00     0.055 C 
ATOM      8  C   UNL d   1       0.319  -1.020   0.643  0.00  0.00     0.019 C 
ENDBRANCH   1   7
TORSDOF 1
ENDMDL
