MODEL 1
REMARK minimizedAffinity -4.16384459
REMARK minimizedRMSD -1
REMARK  1 active torsions:
REMARK  status: ('A' for Active; 'I' for Inactive)
REMARK    1  A    between atoms: C1_2  and  C2_3 
ROOT
ATOM      1  C2  UNL d   1       4.224  -3.529  -4.872  0.00  0.00    -0.077 A 
ATOM      2  C3  UNL d   1       3.854  -2.783  -6.000  0.00  0.00     0.002 A 
ATOM      3  C4  UNL d   1       3.981  -1.393  -6.000  0.00  0.00     0.002 A 
ATOM      4  C5  UNL d   1       4.483  -0.738  -4.877  0.00  0.00    -0.004 A 
ATOM      5  C6  UNL d   1       4.852  -1.470  -3.750  0.00  0.00     0.002 A 
ATOM      6  C7  UNL d   1       4.724  -2.860  -3.747  0.00  0.00     0.002 A 
ENDROOT
BRANCH   1   7
ATOM      7  C1  UNL d   1       4.134  -5.033  -4.888  0.00  0.00     0.055 C 
ATOM      8  C   UNL d   1       4.862  -5.644  -3.699  0.00  0.00     0.019 C 
ENDBRANCH   1   7
TORSDOF 1
ENDMDL
