MODEL 1
REMARK minimizedAffinity -0.12640968
REMARK minimizedRMSD -1
REMARK  1 active torsions:
REMARK  status: ('A' for Active; 'I' for Inactive)
REMARK    1  A    between atoms: C1_2  and  C2_3 
ROOT
ATOM      1  C2  UNL d   1       0.465  -0.783   0.766  0.00  0.00    -0.077 A 
ATOM      2  C3  UNL d   1       0.954  -1.772   1.632  0.00  0.00     0.002 A 
ATOM      3  C4  UNL d   1       2.259  -1.699   2.121  0.00  0.00     0.002 A 
ATOM      4  C5  UNL d   1       3.085  -0.639   1.754  0.00  0.00    -0.004 A 
ATOM      5  C6  UNL d   1       2.609   0.348   0.892  0.00  0.00     0.002 A 
ATOM      6  C7  UNL d   1       1.305   0.277   0.401  0.00  0.00     0.002 A 
ENDROOT
BRANCH   1   7
ATOM      7  C1  UNL d   1      -0.958  -0.833   0.276  0.00  0.00     0.055 C 
ATOM      8  C   UNL d   1      -1.605   0.545   0.312  0.00  0.00     0.019 C 
ENDBRANCH   1   7
TORSDOF 1
ENDMDL
