MODEL 1
REMARK minimizedAffinity -0.942974031
REMARK minimizedRMSD -1
REMARK  0 active torsions:
REMARK  status: ('A' for Active; 'I' for Inactive)
ROOT
ATOM      1  C1  BNZ d   1       4.905   5.599   3.355  0.00  0.00     0.000 A 
ATOM      2  C2  BNZ d   1       3.806   5.999   2.642  0.00  0.00     0.000 A 
ATOM      3  C3  BNZ d   1       3.788   5.912   1.278  0.00  0.00     0.000 A 
ATOM      4  C4  BNZ d   1       4.880   5.463   0.627  0.00  0.00     0.000 A 
ATOM      5  C5  BNZ d   1       5.999   5.064   1.331  0.00  0.00     0.000 A 
ATOM      6  C6  BNZ d   1       6.000   5.117   2.706  0.00  0.00     0.000 A 
ENDROOT
TORSDOF 0
ENDMDL
