MODEL 1
REMARK minimizedAffinity -1.47706878
REMARK minimizedRMSD -1
REMARK  0 active torsions:
REMARK  status: ('A' for Active; 'I' for Inactive)
ROOT
ATOM      1  C1  BNZ d   1       3.899   5.998   1.181  0.00  0.00     0.000 A 
ATOM      2  C2  BNZ d   1       4.214   6.000   2.513  0.00  0.00     0.000 A 
ATOM      3  C3  BNZ d   1       5.259   5.256   2.987  0.00  0.00     0.000 A 
ATOM      4  C4  BNZ d   1       5.961   4.482   2.135  0.00  0.00     0.000 A 
ATOM      5  C5  BNZ d   1       5.649   4.462   0.790  0.00  0.00     0.000 A 
ATOM      6  C6  BNZ d   1       4.622   5.242   0.311  0.00  0.00     0.000 A 
ENDROOT
TORSDOF 0
ENDMDL
