MODEL 1
REMARK minimizedAffinity 5.78645802
REMARK minimizedRMSD -1
REMARK  0 active torsions:
REMARK  status: ('A' for Active; 'I' for Inactive)
ROOT
ATOM      1  C1  BNZ d   1      -2.597  -0.077   2.164  0.00  0.00     0.000 A 
ATOM      2  C2  BNZ d   1      -2.571   0.600   3.354  0.00  0.00     0.000 A 
ATOM      3  C3  BNZ d   1      -1.778   1.701   3.515  0.00  0.00     0.000 A 
ATOM      4  C4  BNZ d   1      -0.984   2.101   2.501  0.00  0.00     0.000 A 
ATOM      5  C5  BNZ d   1      -0.992   1.423   1.298  0.00  0.00     0.000 A 
ATOM      6  C6  BNZ d   1      -1.820   0.338   1.126  0.00  0.00     0.000 A 
ENDROOT
TORSDOF 0
ENDMDL
