MODEL 1
REMARK minimizedAffinity -1.86337709
REMARK minimizedRMSD -1
REMARK  0 active torsions:
REMARK  status: ('A' for Active; 'I' for Inactive)
ROOT
ATOM      1  C1  BNZ d   1       5.999   4.469   2.485  0.00  0.00     0.000 A 
ATOM      2  C2  BNZ d   1       5.997   4.518   3.853  0.00  0.00     0.000 A 
ATOM      3  C3  BNZ d   1       5.074   5.269   4.526  0.00  0.00     0.000 A 
ATOM      4  C4  BNZ d   1       4.179   5.999   3.829  0.00  0.00     0.000 A 
ATOM      5  C5  BNZ d   1       4.174   5.967   2.449  0.00  0.00     0.000 A 
ATOM      6  C6  BNZ d   1       5.080   5.180   1.776  0.00  0.00     0.000 A 
ENDROOT
TORSDOF 0
ENDMDL
