MODEL 1
REMARK minimizedAffinity 3.69622779
REMARK minimizedRMSD -1
REMARK  0 active torsions:
REMARK  status: ('A' for Active; 'I' for Inactive)
ROOT
ATOM      1  C1  BNZ d   1       4.742   5.980   1.647  0.00  0.00     0.000 A 
ATOM      2  C2  BNZ d   1       5.945   5.955   2.301  0.00  0.00     0.000 A 
ATOM      3  C3  BNZ d   1       5.999   5.904   3.666  0.00  0.00     0.000 A 
ATOM      4  C4  BNZ d   1       4.852   5.918   4.376  0.00  0.00     0.000 A 
ATOM      5  C5  BNZ d   1       3.632   5.952   3.732  0.00  0.00     0.000 A 
ATOM      6  C6  BNZ d   1       3.580   5.964   2.357  0.00  0.00     0.000 A 
ENDROOT
TORSDOF 0
ENDMDL
