MODEL 1
REMARK minimizedAffinity 1.05578744
REMARK minimizedRMSD -1
REMARK  0 active torsions:
REMARK  status: ('A' for Active; 'I' for Inactive)
ROOT
ATOM      1  C1  BNZ d   1       5.983   4.193   1.716  0.00  0.00     0.000 A 
ATOM      2  C2  BNZ d   1       5.999   4.262   3.084  0.00  0.00     0.000 A 
ATOM      3  C3  BNZ d   1       5.201   5.150   3.749  0.00  0.00     0.000 A 
ATOM      4  C4  BNZ d   1       4.418   5.994   3.045  0.00  0.00     0.000 A 
ATOM      5  C5  BNZ d   1       4.398   5.943   1.666  0.00  0.00     0.000 A 
ATOM      6  C6  BNZ d   1       5.174   5.021   1.001  0.00  0.00     0.000 A 
ENDROOT
TORSDOF 0
ENDMDL
