MODEL 1
REMARK minimizedAffinity 0.790109873
REMARK minimizedRMSD -1
REMARK  0 active torsions:
REMARK  status: ('A' for Active; 'I' for Inactive)
ROOT
ATOM      1  C1  BNZ d   1       3.958   5.992   3.292  0.00  0.00     0.000 A 
ATOM      2  C2  BNZ d   1       3.977   6.000   1.923  0.00  0.00     0.000 A 
ATOM      3  C3  BNZ d   1       4.989   5.392   1.233  0.00  0.00     0.000 A 
ATOM      4  C4  BNZ d   1       5.999   4.813   1.912  0.00  0.00     0.000 A 
ATOM      5  C5  BNZ d   1       6.000   4.805   3.293  0.00  0.00     0.000 A 
ATOM      6  C6  BNZ d   1       4.960   5.384   3.983  0.00  0.00     0.000 A 
ENDROOT
TORSDOF 0
ENDMDL
