MODEL 1
REMARK minimizedAffinity 4.86705923
REMARK minimizedRMSD -1
REMARK  0 active torsions:
REMARK  status: ('A' for Active; 'I' for Inactive)
ROOT
ATOM      1  C1  BNZ d   1      -1.853   1.228   3.292  0.00  0.00     0.000 A 
ATOM      2  C2  BNZ d   1      -1.451   1.560   2.026  0.00  0.00     0.000 A 
ATOM      3  C3  BNZ d   1      -1.763   0.762   0.960  0.00  0.00     0.000 A 
ATOM      4  C4  BNZ d   1      -2.441  -0.385   1.167  0.00  0.00     0.000 A 
ATOM      5  C5  BNZ d   1      -2.846  -0.738   2.439  0.00  0.00     0.000 A 
ATOM      6  C6  BNZ d   1      -2.564   0.086   3.503  0.00  0.00     0.000 A 
ENDROOT
TORSDOF 0
ENDMDL
