MODEL 1
REMARK minimizedAffinity -1.75343478
REMARK minimizedRMSD -1
REMARK  0 active torsions:
REMARK  status: ('A' for Active; 'I' for Inactive)
ROOT
ATOM      1  C1  BNZ d   1       6.000   5.697   2.014  0.00  0.00     0.000 A 
ATOM      2  C2  BNZ d   1       5.947   5.749   3.381  0.00  0.00     0.000 A 
ATOM      3  C3  BNZ d   1       4.751   5.880   4.030  0.00  0.00     0.000 A 
ATOM      4  C4  BNZ d   1       3.616   5.999   3.312  0.00  0.00     0.000 A 
ATOM      5  C5  BNZ d   1       3.654   5.958   1.933  0.00  0.00     0.000 A 
ATOM      6  C6  BNZ d   1       4.855   5.787   1.283  0.00  0.00     0.000 A 
ENDROOT
TORSDOF 0
ENDMDL
