MODEL 1
REMARK minimizedAffinity 6.89782238
REMARK minimizedRMSD -1
REMARK  0 active torsions:
REMARK  status: ('A' for Active; 'I' for Inactive)
ROOT
ATOM      1  C1  BNZ d   1      -1.566   1.643   3.495  0.00  0.00     0.000 A 
ATOM      2  C2  BNZ d   1      -2.451   0.667   3.871  0.00  0.00     0.000 A 
ATOM      3  C3  BNZ d   1      -2.796  -0.335   3.008  0.00  0.00     0.000 A 
ATOM      4  C4  BNZ d   1      -2.289  -0.337   1.758  0.00  0.00     0.000 A 
ATOM      5  C5  BNZ d   1      -1.404   0.645   1.361  0.00  0.00     0.000 A 
ATOM      6  C6  BNZ d   1      -1.028   1.630   2.245  0.00  0.00     0.000 A 
ENDROOT
TORSDOF 0
ENDMDL
