MODEL 1
REMARK minimizedAffinity 0.259758204
REMARK minimizedRMSD -1
REMARK  0 active torsions:
REMARK  status: ('A' for Active; 'I' for Inactive)
ROOT
ATOM      1  C1  BNZ d   1       4.048   5.997   1.805  0.00  0.00     0.000 A 
ATOM      2  C2  BNZ d   1       5.024   5.315   1.128  0.00  0.00     0.000 A 
ATOM      3  C3  BNZ d   1       5.988   4.619   1.802  0.00  0.00     0.000 A 
ATOM      4  C4  BNZ d   1       5.999   4.639   3.151  0.00  0.00     0.000 A 
ATOM      5  C5  BNZ d   1       5.028   5.330   3.848  0.00  0.00     0.000 A 
ATOM      6  C6  BNZ d   1       4.036   5.997   3.165  0.00  0.00     0.000 A 
ENDROOT
TORSDOF 0
ENDMDL
