MODEL 1
REMARK minimizedAffinity 2.26350808
REMARK minimizedRMSD -1
REMARK  0 active torsions:
REMARK  status: ('A' for Active; 'I' for Inactive)
ROOT
ATOM      1  C1  BNZ d   1       5.929   4.377   3.237  0.00  0.00     0.000 A 
ATOM      2  C2  BNZ d   1       5.990   4.395   4.605  0.00  0.00     0.000 A 
ATOM      3  C3  BNZ d   1       5.151   5.192   5.332  0.00  0.00     0.000 A 
ATOM      4  C4  BNZ d   1       4.282   6.000   4.690  0.00  0.00     0.000 A 
ATOM      5  C5  BNZ d   1       4.216   6.000   3.311  0.00  0.00     0.000 A 
ATOM      6  C6  BNZ d   1       5.034   5.167   2.584  0.00  0.00     0.000 A 
ENDROOT
TORSDOF 0
ENDMDL
