MODEL 1
REMARK minimizedAffinity -2.27798152
REMARK minimizedRMSD -1
REMARK  0 active torsions:
REMARK  status: ('A' for Active; 'I' for Inactive)
ROOT
ATOM      1  C1  BNZ d   1       5.946   4.422   2.310  0.00  0.00     0.000 A 
ATOM      2  C2  BNZ d   1       5.998   4.421   0.942  0.00  0.00     0.000 A 
ATOM      3  C3  BNZ d   1       5.169   5.224   0.210  0.00  0.00     0.000 A 
ATOM      4  C4  BNZ d   1       4.262   5.995   0.844  0.00  0.00     0.000 A 
ATOM      5  C5  BNZ d   1       4.191   6.000   2.223  0.00  0.00     0.000 A 
ATOM      6  C6  BNZ d   1       5.054   5.220   2.958  0.00  0.00     0.000 A 
ENDROOT
TORSDOF 0
ENDMDL
