MODEL 1
REMARK minimizedAffinity 4.89495325
REMARK minimizedRMSD -1
REMARK  0 active torsions:
REMARK  status: ('A' for Active; 'I' for Inactive)
ROOT
ATOM      1  C1  BNZ d   1       4.708   5.979   1.220  0.00  0.00     0.000 A 
ATOM      2  C2  BNZ d   1       3.568   5.999   1.979  0.00  0.00     0.000 A 
ATOM      3  C3  BNZ d   1       3.635   5.990   3.344  0.00  0.00     0.000 A 
ATOM      4  C4  BNZ d   1       4.839   5.921   3.948  0.00  0.00     0.000 A 
ATOM      5  C5  BNZ d   1       5.997   5.890   3.197  0.00  0.00     0.000 A 
ATOM      6  C6  BNZ d   1       5.927   5.939   1.824  0.00  0.00     0.000 A 
ENDROOT
TORSDOF 0
ENDMDL
