MODEL 1
REMARK minimizedAffinity 5.86193657
REMARK minimizedRMSD -1
REMARK  0 active torsions:
REMARK  status: ('A' for Active; 'I' for Inactive)
ROOT
ATOM      1  C1  BNZ d   1      -3.260   2.660   1.648  0.00  0.00     0.000 A 
ATOM      2  C2  BNZ d   1      -3.007   1.315   1.698  0.00  0.00     0.000 A 
ATOM      3  C3  BNZ d   1      -2.100   0.806   2.586  0.00  0.00     0.000 A 
ATOM      4  C4  BNZ d   1      -1.419   1.645   3.393  0.00  0.00     0.000 A 
ATOM      5  C5  BNZ d   1      -1.657   3.005   3.347  0.00  0.00     0.000 A 
ATOM      6  C6  BNZ d   1      -2.598   3.509   2.480  0.00  0.00     0.000 A 
ENDROOT
TORSDOF 0
ENDMDL
