MODEL 1
REMARK minimizedAffinity -2.69378638
REMARK minimizedRMSD -1
REMARK  1 active torsions:
REMARK  status: ('A' for Active; 'I' for Inactive)
REMARK    1  A    between atoms: C1_2  and  C2_3 
ROOT
ATOM      1  C2  UNL d   1       0.422  -0.016  -1.428  0.00  0.00    -0.077 A 
ATOM      2  C3  UNL d   1       1.487   0.840  -1.742  0.00  0.00     0.002 A 
ATOM      3  C4  UNL d   1       1.736   1.200  -3.068  0.00  0.00     0.002 A 
ATOM      4  C5  UNL d   1       0.921   0.713  -4.089  0.00  0.00    -0.004 A 
ATOM      5  C6  UNL d   1      -0.139  -0.140  -3.786  0.00  0.00     0.002 A 
ATOM      6  C7  UNL d   1      -0.388  -0.502  -2.462  0.00  0.00     0.002 A 
ENDROOT
BRANCH   1   7
ATOM      7  C1  UNL d   1       0.122  -0.366   0.006  0.00  0.00     0.055 C 
ATOM      8  C   UNL d   1      -1.187   0.257   0.466  0.00  0.00     0.019 C 
ENDBRANCH   1   7
TORSDOF 1
ENDMDL
