MODEL 1
REMARK minimizedAffinity -5.73303366
REMARK minimizedRMSD -1
REMARK  1 active torsions:
REMARK  status: ('A' for Active; 'I' for Inactive)
REMARK    1  A    between atoms: C1_2  and  C2_3 
ROOT
ATOM      1  C2  UNL d   1       0.118   0.016  -0.149  0.00  0.00    -0.077 A 
ATOM      2  C3  UNL d   1      -1.262   0.127   0.075  0.00  0.00     0.002 A 
ATOM      3  C4  UNL d   1      -1.742   0.720   1.245  0.00  0.00     0.002 A 
ATOM      4  C5  UNL d   1      -0.850   1.208   2.197  0.00  0.00    -0.004 A 
ATOM      5  C6  UNL d   1       0.524   1.100   1.984  0.00  0.00     0.002 A 
ATOM      6  C7  UNL d   1       1.006   0.507   0.816  0.00  0.00     0.002 A 
ENDROOT
BRANCH   1   7
ATOM      7  C1  UNL d   1       0.637  -0.578  -1.432  0.00  0.00     0.055 C 
ATOM      8  C   UNL d   1       1.040   0.506  -2.421  0.00  0.00     0.019 C 
ENDBRANCH   1   7
TORSDOF 1
ENDMDL
