MODEL 1
REMARK minimizedAffinity -3.06034374
REMARK minimizedRMSD -1
REMARK  1 active torsions:
REMARK  status: ('A' for Active; 'I' for Inactive)
REMARK    1  A    between atoms: C1_2  and  C2_3 
ROOT
ATOM      1  C2  UNL d   1      -0.063  -0.080  -0.159  0.00  0.00    -0.077 A 
ATOM      2  C3  UNL d   1       0.897   0.347   0.769  0.00  0.00     0.002 A 
ATOM      3  C4  UNL d   1       0.512   1.059   1.907  0.00  0.00     0.002 A 
ATOM      4  C5  UNL d   1      -0.833   1.347   2.129  0.00  0.00    -0.004 A 
ATOM      5  C6  UNL d   1      -1.795   0.928   1.211  0.00  0.00     0.002 A 
ATOM      6  C7  UNL d   1      -1.412   0.218   0.072  0.00  0.00     0.002 A 
ENDROOT
BRANCH   1   7
ATOM      7  C1  UNL d   1       0.345  -0.890  -1.361  0.00  0.00     0.055 C 
ATOM      8  C   UNL d   1       0.849   0.003  -2.486  0.00  0.00     0.019 C 
ENDBRANCH   1   7
TORSDOF 1
ENDMDL
