MODEL 1
REMARK minimizedAffinity -3.12866068
REMARK minimizedRMSD -1
REMARK  1 active torsions:
REMARK  status: ('A' for Active; 'I' for Inactive)
REMARK    1  A    between atoms: C1_2  and  C2_3 
ROOT
ATOM      1  C2  UNL d   1       0.183   0.453   1.217  0.00  0.00    -0.077 A 
ATOM      2  C3  UNL d   1      -0.926   0.824   1.989  0.00  0.00     0.002 A 
ATOM      3  C4  UNL d   1      -2.222   0.605   1.517  0.00  0.00     0.002 A 
ATOM      4  C5  UNL d   1      -2.419   0.009   0.273  0.00  0.00    -0.004 A 
ATOM      5  C6  UNL d   1      -1.322  -0.362  -0.504  0.00  0.00     0.002 A 
ATOM      6  C7  UNL d   1      -0.027  -0.142  -0.034  0.00  0.00     0.002 A 
ENDROOT
BRANCH   1   7
ATOM      7  C1  UNL d   1       1.580   0.644   1.746  0.00  0.00     0.055 C 
ATOM      8  C   UNL d   1       2.422  -0.608   1.552  0.00  0.00     0.019 C 
ENDBRANCH   1   7
TORSDOF 1
ENDMDL
