MODEL 1
REMARK minimizedAffinity -4.61597061
REMARK minimizedRMSD -1
REMARK  1 active torsions:
REMARK  status: ('A' for Active; 'I' for Inactive)
REMARK    1  A    between atoms: C1_2  and  C2_3 
ROOT
ATOM      1  C2  UNL d   1      -0.460  -0.148   0.780  0.00  0.00    -0.077 A 
ATOM      2  C3  UNL d   1      -1.644  -0.097   1.529  0.00  0.00     0.002 A 
ATOM      3  C4  UNL d   1      -1.674   0.566   2.758  0.00  0.00     0.002 A 
ATOM      4  C5  UNL d   1      -0.526   1.187   3.245  0.00  0.00    -0.004 A 
ATOM      5  C6  UNL d   1       0.657   1.141   2.507  0.00  0.00     0.002 A 
ATOM      6  C7  UNL d   1       0.689   0.477   1.280  0.00  0.00     0.002 A 
ENDROOT
BRANCH   1   7
ATOM      7  C1  UNL d   1      -0.438  -0.820  -0.568  0.00  0.00     0.055 C 
ATOM      8  C   UNL d   1       0.960  -1.305  -0.922  0.00  0.00     0.019 C 
ENDBRANCH   1   7
TORSDOF 1
ENDMDL
