MODEL 1
REMARK minimizedAffinity -5.90050507
REMARK minimizedRMSD -1
REMARK  1 active torsions:
REMARK  status: ('A' for Active; 'I' for Inactive)
REMARK    1  A    between atoms: C1_2  and  C2_3 
ROOT
ATOM      1  C2  UNL d   1       0.206  -0.015   0.038  0.00  0.00    -0.077 A 
ATOM      2  C3  UNL d   1       1.025   0.402   1.097  0.00  0.00     0.002 A 
ATOM      3  C4  UNL d   1       0.483   1.101   2.177  0.00  0.00     0.002 A 
ATOM      4  C5  UNL d   1      -0.880   1.386   2.211  0.00  0.00    -0.004 A 
ATOM      5  C6  UNL d   1      -1.703   0.977   1.162  0.00  0.00     0.002 A 
ATOM      6  C7  UNL d   1      -1.163   0.279   0.081  0.00  0.00     0.002 A 
ENDROOT
BRANCH   1   7
ATOM      7  C1  UNL d   1       0.780  -0.812  -1.104  0.00  0.00     0.055 C 
ATOM      8  C   UNL d   1       1.056   0.071  -2.312  0.00  0.00     0.019 C 
ENDBRANCH   1   7
TORSDOF 1
ENDMDL
