MODEL 1
REMARK minimizedAffinity -1.84445798
REMARK minimizedRMSD -1
REMARK  1 active torsions:
REMARK  status: ('A' for Active; 'I' for Inactive)
REMARK    1  A    between atoms: C1_2  and  C2_3 
ROOT
ATOM      1  C2  UNL d   1       0.746   0.269  -4.960  0.00  0.00    -0.077 A 
ATOM      2  C3  UNL d   1       2.047  -0.102  -5.325  0.00  0.00     0.002 A 
ATOM      3  C4  UNL d   1       3.142   0.326  -4.571  0.00  0.00     0.002 A 
ATOM      4  C5  UNL d   1       2.945   1.124  -3.446  0.00  0.00    -0.004 A 
ATOM      5  C6  UNL d   1       1.655   1.500  -3.076  0.00  0.00     0.002 A 
ATOM      6  C7  UNL d   1       0.560   1.074  -3.829  0.00  0.00     0.002 A 
ENDROOT
BRANCH   1   7
ATOM      7  C1  UNL d   1      -0.439  -0.232  -5.744  0.00  0.00     0.055 C 
ATOM      8  C   UNL d   1      -0.818  -1.647  -5.330  0.00  0.00     0.019 C 
ENDBRANCH   1   7
TORSDOF 1
ENDMDL
