MODEL 1
REMARK minimizedAffinity -1.41891599
REMARK minimizedRMSD -1
REMARK  0 active torsions:
REMARK  status: ('A' for Active; 'I' for Inactive)
ROOT
ATOM      1  C4' PXY d   1       1.751   2.726  -0.144  0.00  0.00     0.077 C 
ATOM      2  C1' PXY d   1      -0.354  -2.633   0.368  0.00  0.00     0.077 C 
ATOM      3  C1  PXY d   1       0.207  -1.232   0.226  0.00  0.00    -0.082 A 
ATOM      4  C2  PXY d   1      -0.002  -0.343   1.183  0.00  0.00     0.003 A 
ATOM      5  C3  PXY d   1       0.471   0.938   1.056  0.00  0.00     0.003 A 
ATOM      6  C4  PXY d   1       1.211   1.297  -0.038  0.00  0.00    -0.082 A 
ATOM      7  C5  PXY d   1       1.438   0.393  -1.015  0.00  0.00     0.003 A 
ATOM      8  C6  PXY d   1       0.914  -0.890  -0.886  0.00  0.00     0.003 A 
ENDROOT
TORSDOF 0
ENDMDL
