MODEL 1
REMARK minimizedAffinity -0.692587912
REMARK minimizedRMSD -1
REMARK  0 active torsions:
REMARK  status: ('A' for Active; 'I' for Inactive)
ROOT
ATOM      1  C4' PXY d   1      -1.963   0.484   2.478  0.00  0.00     0.077 C 
ATOM      2  C1' PXY d   1       2.393   0.579  -1.321  0.00  0.00     0.077 C 
ATOM      3  C1  PXY d   1       1.244   0.546  -0.333  0.00  0.00    -0.082 A 
ATOM      4  C2  PXY d   1       1.078   1.551   0.511  0.00  0.00     0.003 A 
ATOM      5  C3  PXY d   1       0.063   1.523   1.433  0.00  0.00     0.003 A 
ATOM      6  C4  PXY d   1      -0.823   0.479   1.456  0.00  0.00    -0.082 A 
ATOM      7  C5  PXY d   1      -0.667  -0.545   0.591  0.00  0.00     0.003 A 
ATOM      8  C6  PXY d   1       0.394  -0.517  -0.309  0.00  0.00     0.003 A 
ENDROOT
TORSDOF 0
ENDMDL
