MODEL 1
REMARK minimizedAffinity -3.85168338
REMARK minimizedRMSD -1
REMARK  0 active torsions:
REMARK  status: ('A' for Active; 'I' for Inactive)
ROOT
ATOM      1  C4' PXY d   1      -0.302  -0.230   2.248  0.00  0.00     0.077 C 
ATOM      2  C1' PXY d   1       1.947  -0.154  -3.076  0.00  0.00     0.077 C 
ATOM      3  C1  PXY d   1       1.349  -0.184  -1.683  0.00  0.00    -0.082 A 
ATOM      4  C2  PXY d   1       1.366   0.910  -0.941  0.00  0.00     0.003 A 
ATOM      5  C3  PXY d   1       0.859   0.892   0.333  0.00  0.00     0.003 A 
ATOM      6  C4  PXY d   1       0.281  -0.244   0.833  0.00  0.00    -0.082 A 
ATOM      7  C5  PXY d   1       0.250  -1.362   0.077  0.00  0.00     0.003 A 
ATOM      8  C6  PXY d   1       0.807  -1.334  -1.198  0.00  0.00     0.003 A 
ENDROOT
TORSDOF 0
ENDMDL
