MODEL 1
REMARK minimizedAffinity -2.58259916
REMARK minimizedRMSD -1
REMARK  0 active torsions:
REMARK  status: ('A' for Active; 'I' for Inactive)
ROOT
ATOM      1  C4' PXY d   1      -2.331   0.605  -0.377  0.00  0.00     0.077 C 
ATOM      2  C1' PXY d   1       3.366   0.900  -1.308  0.00  0.00     0.077 C 
ATOM      3  C1  PXY d   1       1.871   0.814  -1.073  0.00  0.00    -0.082 A 
ATOM      4  C2  PXY d   1       1.236   1.835  -0.522  0.00  0.00     0.003 A 
ATOM      5  C3  PXY d   1      -0.111   1.761  -0.273  0.00  0.00     0.003 A 
ATOM      6  C4  PXY d   1      -0.824   0.651  -0.642  0.00  0.00    -0.082 A 
ATOM      7  C5  PXY d   1      -0.184  -0.390  -1.214  0.00  0.00     0.003 A 
ATOM      8  C6  PXY d   1       1.190  -0.312  -1.421  0.00  0.00     0.003 A 
ENDROOT
TORSDOF 0
ENDMDL
