MODEL 1
REMARK minimizedAffinity 3.7378633
REMARK minimizedRMSD -1
REMARK  0 active torsions:
REMARK  status: ('A' for Active; 'I' for Inactive)
ROOT
ATOM      1  C4' PXY d   1      -5.342   5.787  -5.968  0.00  0.00     0.077 C 
ATOM      2  C1' PXY d   1      -2.281   0.884  -6.000  0.00  0.00     0.077 C 
ATOM      3  C1  PXY d   1      -3.094   2.164  -5.997  0.00  0.00    -0.082 A 
ATOM      4  C2  PXY d   1      -2.474   3.332  -5.989  0.00  0.00     0.003 A 
ATOM      5  C3  PXY d   1      -3.193   4.499  -5.954  0.00  0.00     0.003 A 
ATOM      6  C4  PXY d   1      -4.562   4.470  -5.981  0.00  0.00    -0.082 A 
ATOM      7  C5  PXY d   1      -5.202   3.282  -6.000  0.00  0.00     0.003 A 
ATOM      8  C6  PXY d   1      -4.453   2.108  -5.993  0.00  0.00     0.003 A 
ENDROOT
TORSDOF 0
ENDMDL
