MODEL 1
REMARK minimizedAffinity 2.77732921
REMARK minimizedRMSD -1
REMARK  0 active torsions:
REMARK  status: ('A' for Active; 'I' for Inactive)
ROOT
ATOM      1  C4' PXY d   1      -4.712   4.600  -5.966  0.00  0.00     0.077 C 
ATOM      2  C1' PXY d   1      -3.228  -0.987  -5.996  0.00  0.00     0.077 C 
ATOM      3  C1  PXY d   1      -3.629   0.476  -5.994  0.00  0.00    -0.082 A 
ATOM      4  C2  PXY d   1      -2.693   1.410  -5.992  0.00  0.00     0.003 A 
ATOM      5  C3  PXY d   1      -3.037   2.737  -5.958  0.00  0.00     0.003 A 
ATOM      6  C4  PXY d   1      -4.354   3.112  -5.978  0.00  0.00    -0.082 A 
ATOM      7  C5  PXY d   1      -5.315   2.164  -5.990  0.00  0.00     0.003 A 
ATOM      8  C6  PXY d   1      -4.945   0.822  -5.984  0.00  0.00     0.003 A 
ENDROOT
TORSDOF 0
ENDMDL
