MODEL 1
REMARK minimizedAffinity -2.10891867
REMARK minimizedRMSD -1
REMARK  0 active torsions:
REMARK  status: ('A' for Active; 'I' for Inactive)
ROOT
ATOM      1  C4' PXY d   1      -4.313  -0.148  -6.000  0.00  0.00     0.077 C 
ATOM      2  C1' PXY d   1      -3.861   5.615  -5.977  0.00  0.00     0.077 C 
ATOM      3  C1  PXY d   1      -3.992   4.105  -5.978  0.00  0.00    -0.082 A 
ATOM      4  C2  PXY d   1      -2.902   3.354  -5.966  0.00  0.00     0.003 A 
ATOM      5  C3  PXY d   1      -3.001   1.987  -5.999  0.00  0.00     0.003 A 
ATOM      6  C4  PXY d   1      -4.229   1.381  -5.990  0.00  0.00    -0.082 A 
ATOM      7  C5  PXY d   1      -5.345   2.140  -5.991  0.00  0.00     0.003 A 
ATOM      8  C6  PXY d   1      -5.223   3.526  -5.999  0.00  0.00     0.003 A 
ENDROOT
TORSDOF 0
ENDMDL
