MODEL 1
REMARK minimizedAffinity 0.771254301
REMARK minimizedRMSD -1
REMARK  0 active torsions:
REMARK  status: ('A' for Active; 'I' for Inactive)
ROOT
ATOM      1  C4' PXY d   1       1.715  -3.165  -2.966  0.00  0.00     0.077 C 
ATOM      2  C1' PXY d   1      -0.079   1.702  -0.414  0.00  0.00     0.077 C 
ATOM      3  C1  PXY d   1       0.385   0.429  -1.094  0.00  0.00    -0.082 A 
ATOM      4  C2  PXY d   1       0.716  -0.621  -0.361  0.00  0.00     0.003 A 
ATOM      5  C3  PXY d   1       1.169  -1.770  -0.958  0.00  0.00     0.003 A 
ATOM      6  C4  PXY d   1       1.232  -1.862  -2.322  0.00  0.00    -0.082 A 
ATOM      7  C5  PXY d   1       0.886  -0.799  -3.078  0.00  0.00     0.003 A 
ATOM      8  C6  PXY d   1       0.468   0.372  -2.451  0.00  0.00     0.003 A 
ENDROOT
TORSDOF 0
ENDMDL
