MODEL 1
REMARK minimizedAffinity -0.691917896
REMARK minimizedRMSD -1
REMARK  0 active torsions:
REMARK  status: ('A' for Active; 'I' for Inactive)
ROOT
ATOM      1  C4' PXY d   1       1.605   2.444  -0.121  0.00  0.00     0.077 C 
ATOM      2  C1' PXY d   1      -0.357  -2.660  -1.996  0.00  0.00     0.077 C 
ATOM      3  C1  PXY d   1       0.148  -1.322  -1.495  0.00  0.00    -0.082 A 
ATOM      4  C2  PXY d   1       0.827  -0.532  -2.311  0.00  0.00     0.003 A 
ATOM      5  C3  PXY d   1       1.319   0.668  -1.865  0.00  0.00     0.003 A 
ATOM      6  C4  PXY d   1       1.067   1.087  -0.587  0.00  0.00    -0.082 A 
ATOM      7  C5  PXY d   1       0.366   0.292   0.249  0.00  0.00     0.003 A 
ATOM      8  C6  PXY d   1      -0.089  -0.940  -0.211  0.00  0.00     0.003 A 
ENDROOT
TORSDOF 0
ENDMDL
