MODEL 1
REMARK minimizedAffinity -1.83046162
REMARK minimizedRMSD -1
REMARK  0 active torsions:
REMARK  status: ('A' for Active; 'I' for Inactive)
ROOT
ATOM      1  C4' PXY d   1      -3.350  -4.649  -5.998  0.00  0.00     0.077 C 
ATOM      2  C1' PXY d   1      -5.200   0.828  -5.980  0.00  0.00     0.077 C 
ATOM      3  C1  PXY d   1      -4.726  -0.612  -5.980  0.00  0.00    -0.082 A 
ATOM      4  C2  PXY d   1      -3.430  -0.874  -5.968  0.00  0.00     0.003 A 
ATOM      5  C3  PXY d   1      -2.983  -2.170  -6.000  0.00  0.00     0.003 A 
ATOM      6  C4  PXY d   1      -3.874  -3.210  -5.990  0.00  0.00    -0.082 A 
ATOM      7  C5  PXY d   1      -5.199  -2.951  -5.991  0.00  0.00     0.003 A 
ATOM      8  C6  PXY d   1      -5.631  -1.628  -6.000  0.00  0.00     0.003 A 
ENDROOT
TORSDOF 0
ENDMDL
