MODEL 1
REMARK minimizedAffinity 3.59067249
REMARK minimizedRMSD -1
REMARK  0 active torsions:
REMARK  status: ('A' for Active; 'I' for Inactive)
ROOT
ATOM      1  C4' PXY d   1      -3.168   4.243  -5.873  0.00  0.00     0.077 C 
ATOM      2  C1' PXY d   1      -3.746  -1.508  -5.999  0.00  0.00     0.077 C 
ATOM      3  C1  PXY d   1      -3.606   0.002  -5.972  0.00  0.00    -0.082 A 
ATOM      4  C2  PXY d   1      -2.402   0.546  -5.913  0.00  0.00     0.003 A 
ATOM      5  C3  PXY d   1      -2.258   1.908  -5.855  0.00  0.00     0.003 A 
ATOM      6  C4  PXY d   1      -3.357   2.724  -5.912  0.00  0.00    -0.082 A 
ATOM      7  C5  PXY d   1      -4.589   2.176  -5.984  0.00  0.00     0.003 A 
ATOM      8  C6  PXY d   1      -4.715   0.790  -5.999  0.00  0.00     0.003 A 
ENDROOT
TORSDOF 0
ENDMDL
