MODEL 1
REMARK minimizedAffinity 11.3595953
REMARK minimizedRMSD -1
REMARK  0 active torsions:
REMARK  status: ('A' for Active; 'I' for Inactive)
ROOT
ATOM      1  C4' PXY d   1      -0.516  -2.415  -1.596  0.00  0.00     0.077 C 
ATOM      2  C1' PXY d   1       2.388   2.497  -0.677  0.00  0.00     0.077 C 
ATOM      3  C1  PXY d   1       1.625   1.212  -0.931  0.00  0.00    -0.082 A 
ATOM      4  C2  PXY d   1       1.036   0.591   0.079  0.00  0.00     0.003 A 
ATOM      5  C3  PXY d   1       0.369  -0.589  -0.127  0.00  0.00     0.003 A 
ATOM      6  C4  PXY d   1       0.257  -1.110  -1.388  0.00  0.00    -0.082 A 
ATOM      7  C5  PXY d   1       0.846  -0.477  -2.425  0.00  0.00     0.003 A 
ATOM      8  C6  PXY d   1       1.554   0.698  -2.188  0.00  0.00     0.003 A 
ENDROOT
TORSDOF 0
ENDMDL
