MODEL 1
REMARK minimizedAffinity -2.78127098
REMARK minimizedRMSD -1
REMARK  0 active torsions:
REMARK  status: ('A' for Active; 'I' for Inactive)
ROOT
ATOM      1  C4' PXY d   1      -4.499   1.294  -5.968  0.00  0.00     0.077 C 
ATOM      2  C1' PXY d   1      -4.052  -4.469  -5.998  0.00  0.00     0.077 C 
ATOM      3  C1  PXY d   1      -4.157  -2.957  -5.985  0.00  0.00    -0.082 A 
ATOM      4  C2  PXY d   1      -5.350  -2.384  -5.975  0.00  0.00     0.003 A 
ATOM      5  C3  PXY d   1      -5.464  -1.018  -5.995  0.00  0.00     0.003 A 
ATOM      6  C4  PXY d   1      -4.345  -0.229  -5.972  0.00  0.00    -0.082 A 
ATOM      7  C5  PXY d   1      -3.124  -0.806  -5.972  0.00  0.00     0.003 A 
ATOM      8  C6  PXY d   1      -3.030  -2.194  -5.993  0.00  0.00     0.003 A 
ENDROOT
TORSDOF 0
ENDMDL
