MODEL 1
REMARK minimizedAffinity 6.60353422
REMARK minimizedRMSD -1
REMARK  0 active torsions:
REMARK  status: ('A' for Active; 'I' for Inactive)
ROOT
ATOM      1  C4' PXY d   1       2.681   5.269   3.167  0.00  0.00     0.077 C 
ATOM      2  C1' PXY d   1       0.384   2.171  -1.139  0.00  0.00     0.077 C 
ATOM      3  C1  PXY d   1       0.989   2.993  -0.018  0.00  0.00    -0.082 A 
ATOM      4  C2  PXY d   1       1.462   2.385   1.058  0.00  0.00     0.003 A 
ATOM      5  C3  PXY d   1       1.983   3.115   2.094  0.00  0.00     0.003 A 
ATOM      6  C4  PXY d   1       2.070   4.479   2.007  0.00  0.00    -0.082 A 
ATOM      7  C5  PXY d   1       1.600   5.106   0.908  0.00  0.00     0.003 A 
ATOM      8  C6  PXY d   1       1.037   4.349  -0.116  0.00  0.00     0.003 A 
ENDROOT
TORSDOF 0
ENDMDL
