MODEL 1
REMARK minimizedAffinity 16.8038788
REMARK minimizedRMSD -1
REMARK  0 active torsions:
REMARK  status: ('A' for Active; 'I' for Inactive)
ROOT
ATOM      1  C4' PXY d   1      -6.000   1.174   3.260  0.00  0.00     0.077 C 
ATOM      2  C1' PXY d   1      -0.817   3.627   2.527  0.00  0.00     0.077 C 
ATOM      3  C1  PXY d   1      -2.180   2.989   2.708  0.00  0.00    -0.082 A 
ATOM      4  C2  PXY d   1      -2.584   2.642   3.919  0.00  0.00     0.003 A 
ATOM      5  C3  PXY d   1      -3.801   2.035   4.097  0.00  0.00     0.003 A 
ATOM      6  C4  PXY d   1      -4.635   1.829   3.031  0.00  0.00    -0.082 A 
ATOM      7  C5  PXY d   1      -4.234   2.191   1.794  0.00  0.00     0.003 A 
ATOM      8  C6  PXY d   1      -2.979   2.768   1.629  0.00  0.00     0.003 A 
ENDROOT
TORSDOF 0
ENDMDL
