MODEL 1
REMARK minimizedAffinity 16.4500504
REMARK minimizedRMSD -1
REMARK  0 active torsions:
REMARK  status: ('A' for Active; 'I' for Inactive)
ROOT
ATOM      1  C4' PXY d   1      -2.967   1.308   5.948  0.00  0.00     0.077 C 
ATOM      2  C1' PXY d   1      -3.245   3.423   0.576  0.00  0.00     0.077 C 
ATOM      3  C1  PXY d   1      -3.184   2.863   1.983  0.00  0.00    -0.082 A 
ATOM      4  C2  PXY d   1      -2.398   3.435   2.881  0.00  0.00     0.003 A 
ATOM      5  C3  PXY d   1      -2.307   2.922   4.149  0.00  0.00     0.003 A 
ATOM      6  C4  PXY d   1      -3.067   1.845   4.518  0.00  0.00    -0.082 A 
ATOM      7  C5  PXY d   1      -3.880   1.263   3.610  0.00  0.00     0.003 A 
ATOM      8  C6  PXY d   1      -3.927   1.773   2.316  0.00  0.00     0.003 A 
ENDROOT
TORSDOF 0
ENDMDL
