MODEL 1
REMARK minimizedAffinity 5.47588301
REMARK minimizedRMSD -1
REMARK  0 active torsions:
REMARK  status: ('A' for Active; 'I' for Inactive)
ROOT
ATOM      1  C4' PXY d   1      -4.152   2.704  -6.000  0.00  0.00     0.077 C 
ATOM      2  C1' PXY d   1      -0.282   5.992  -3.237  0.00  0.00     0.077 C 
ATOM      3  C1  PXY d   1      -1.295   5.136  -3.972  0.00  0.00    -0.082 A 
ATOM      4  C2  PXY d   1      -2.267   4.546  -3.296  0.00  0.00     0.003 A 
ATOM      5  C3  PXY d   1      -3.172   3.743  -3.941  0.00  0.00     0.003 A 
ATOM      6  C4  PXY d   1      -3.113   3.585  -5.300  0.00  0.00    -0.082 A 
ATOM      7  C5  PXY d   1      -2.130   4.192  -5.998  0.00  0.00     0.003 A 
ATOM      8  C6  PXY d   1      -1.197   4.970  -5.319  0.00  0.00     0.003 A 
ENDROOT
TORSDOF 0
ENDMDL
