MODEL 1
REMARK minimizedAffinity 5.61032152
REMARK minimizedRMSD -1
REMARK  0 active torsions:
REMARK  status: ('A' for Active; 'I' for Inactive)
ROOT
ATOM      1  C4' PXY d   1      -4.136   2.240   0.566  0.00  0.00     0.077 C 
ATOM      2  C1' PXY d   1      -2.704   0.880   5.999  0.00  0.00     0.077 C 
ATOM      3  C1  PXY d   1      -3.083   1.224   4.572  0.00  0.00    -0.082 A 
ATOM      4  C2  PXY d   1      -2.505   2.252   3.971  0.00  0.00     0.003 A 
ATOM      5  C3  PXY d   1      -2.860   2.597   2.693  0.00  0.00     0.003 A 
ATOM      6  C4  PXY d   1      -3.777   1.850   2.002  0.00  0.00    -0.082 A 
ATOM      7  C5  PXY d   1      -4.363   0.794   2.604  0.00  0.00     0.003 A 
ATOM      8  C6  PXY d   1      -4.019   0.485   3.917  0.00  0.00     0.003 A 
ENDROOT
TORSDOF 0
ENDMDL
