MODEL 1
REMARK minimizedAffinity 7.92163658
REMARK minimizedRMSD -1
REMARK  0 active torsions:
REMARK  status: ('A' for Active; 'I' for Inactive)
ROOT
ATOM      1  C4' PXY d   1      -0.147   5.999  -3.008  0.00  0.00     0.077 C 
ATOM      2  C1' PXY d   1      -4.285   3.289  -5.999  0.00  0.00     0.077 C 
ATOM      3  C1  PXY d   1      -3.208   4.002  -5.205  0.00  0.00    -0.082 A 
ATOM      4  C2  PXY d   1      -2.197   4.572  -5.840  0.00  0.00     0.003 A 
ATOM      5  C3  PXY d   1      -1.198   5.192  -5.135  0.00  0.00     0.003 A 
ATOM      6  C4  PXY d   1      -1.262   5.277  -3.770  0.00  0.00    -0.082 A 
ATOM      7  C5  PXY d   1      -2.297   4.708  -3.116  0.00  0.00     0.003 A 
ATOM      8  C6  PXY d   1      -3.279   4.046  -3.847  0.00  0.00     0.003 A 
ENDROOT
TORSDOF 0
ENDMDL
