MODEL 1
REMARK minimizedAffinity -0.707471311
REMARK minimizedRMSD -1
REMARK  0 active torsions:
REMARK  status: ('A' for Active; 'I' for Inactive)
ROOT
ATOM      1  C4' PXY d   1      -0.830  -1.809  -0.366  0.00  0.00     0.077 C 
ATOM      2  C1' PXY d   1       2.455   2.847   0.606  0.00  0.00     0.077 C 
ATOM      3  C1  PXY d   1       1.594   1.623   0.364  0.00  0.00    -0.082 A 
ATOM      4  C2  PXY d   1       1.573   1.065  -0.836  0.00  0.00     0.003 A 
ATOM      5  C3  PXY d   1       0.775  -0.023  -1.080  0.00  0.00     0.003 A 
ATOM      6  C4  PXY d   1       0.032  -0.578  -0.073  0.00  0.00    -0.082 A 
ATOM      7  C5  PXY d   1       0.056  -0.021   1.156  0.00  0.00     0.003 A 
ATOM      8  C6  PXY d   1       0.841   1.108   1.374  0.00  0.00     0.003 A 
ENDROOT
TORSDOF 0
ENDMDL
