MODEL 1
REMARK minimizedAffinity 0.878791928
REMARK minimizedRMSD -1
REMARK  2 active torsions:
REMARK  status: ('A' for Active; 'I' for Inactive)
REMARK    1  A    between atoms: C2'_3  and  C1'_4 
REMARK    2  A    between atoms: C1'_4  and  C1_5 
ROOT
ATOM      1  C1  I4B d   1      -0.679   0.622   1.575  0.00  0.00    -0.075 A 
ATOM      2  C2  I4B d   1      -1.525  -0.182   2.298  0.00  0.00     0.003 A 
ATOM      3  C3  I4B d   1      -1.967   0.220   3.582  0.00  0.00     0.002 A 
ATOM      4  C4  I4B d   1      -1.501   1.401   4.122  0.00  0.00    -0.004 A 
ATOM      5  C5  I4B d   1      -0.661   2.226   3.379  0.00  0.00     0.002 A 
ATOM      6  C6  I4B d   1      -0.257   1.840   2.092  0.00  0.00     0.003 A 
ENDROOT
BRANCH   1   7
ATOM      7  C1' I4B d   1      -0.206   0.151   0.237  0.00  0.00     0.060 C 
BRANCH   7   8
ATOM      8  C2' I4B d   1      -0.055  -1.355   0.298  0.00  0.00    -0.013 C 
ATOM      9  C4' I4B d   1      -1.100  -2.042  -0.542  0.00  0.00     0.013 C 
ATOM     10  C3' I4B d   1       1.327  -1.701  -0.169  0.00  0.00     0.013 C 
ENDBRANCH   7   8
ENDBRANCH   1   7
TORSDOF 2
ENDMDL
