MODEL 1
REMARK minimizedAffinity -3.3226757
REMARK minimizedRMSD -1
REMARK  2 active torsions:
REMARK  status: ('A' for Active; 'I' for Inactive)
REMARK    1  A    between atoms: C2'_3  and  C1'_4 
REMARK    2  A    between atoms: C1'_4  and  C1_5 
ROOT
ATOM      1  C1  I4B d   1      -0.051   0.118  -0.043  0.00  0.00    -0.075 A 
ATOM      2  C2  I4B d   1       1.019   0.846  -0.500  0.00  0.00     0.003 A 
ATOM      3  C3  I4B d   1       2.179   0.186  -0.975  0.00  0.00     0.002 A 
ATOM      4  C4  I4B d   1       2.244  -1.191  -0.930  0.00  0.00    -0.004 A 
ATOM      5  C5  I4B d   1       1.149  -1.928  -0.488  0.00  0.00     0.002 A 
ATOM      6  C6  I4B d   1      -0.011  -1.270  -0.053  0.00  0.00     0.003 A 
ENDROOT
BRANCH   1   7
ATOM      7  C1' I4B d   1      -1.247   0.847   0.483  0.00  0.00     0.060 C 
BRANCH   7   8
ATOM      8  C2' I4B d   1      -1.358   0.553   1.965  0.00  0.00    -0.013 C 
ATOM      9  C4' I4B d   1      -1.199   1.807   2.783  0.00  0.00     0.013 C 
ATOM     10  C3' I4B d   1      -2.692  -0.088   2.210  0.00  0.00     0.013 C 
ENDBRANCH   7   8
ENDBRANCH   1   7
TORSDOF 2
ENDMDL
