MODEL 1
REMARK minimizedAffinity -3.19993901
REMARK minimizedRMSD -1
REMARK  2 active torsions:
REMARK  status: ('A' for Active; 'I' for Inactive)
REMARK    1  A    between atoms: C2'_3  and  C1'_4 
REMARK    2  A    between atoms: C1'_4  and  C1_5 
ROOT
ATOM      1  C1  I4B d   1      -0.293   0.015   0.138  0.00  0.00    -0.075 A 
ATOM      2  C2  I4B d   1       0.626   0.910  -0.351  0.00  0.00     0.003 A 
ATOM      3  C3  I4B d   1       1.802   0.446  -0.988  0.00  0.00     0.002 A 
ATOM      4  C4  I4B d   1       2.042  -0.910  -1.069  0.00  0.00    -0.004 A 
ATOM      5  C5  I4B d   1       1.099  -1.816  -0.592  0.00  0.00     0.002 A 
ATOM      6  C6  I4B d   1      -0.083  -1.351   0.004  0.00  0.00     0.003 A 
ENDROOT
BRANCH   1   7
ATOM      7  C1' I4B d   1      -1.509   0.539   0.835  0.00  0.00     0.060 C 
BRANCH   7   8
ATOM      8  C2' I4B d   1      -1.219   0.569   2.321  0.00  0.00    -0.013 C 
ATOM      9  C4' I4B d   1      -0.901   1.966   2.787  0.00  0.00     0.013 C 
ATOM     10  C3' I4B d   1      -2.416   0.019   3.038  0.00  0.00     0.013 C 
ENDBRANCH   7   8
ENDBRANCH   1   7
TORSDOF 2
ENDMDL
