MODEL 1
REMARK minimizedAffinity -5.82194281
REMARK minimizedRMSD -1
REMARK  2 active torsions:
REMARK  status: ('A' for Active; 'I' for Inactive)
REMARK    1  A    between atoms: C2'_3  and  C1'_4 
REMARK    2  A    between atoms: C1'_4  and  C1_5 
ROOT
ATOM      1  C1  I4B d   1       0.150  -0.085   0.331  0.00  0.00    -0.075 A 
ATOM      2  C2  I4B d   1       0.820   0.948  -0.276  0.00  0.00     0.003 A 
ATOM      3  C3  I4B d   1       1.988   0.693  -1.034  0.00  0.00     0.002 A 
ATOM      4  C4  I4B d   1       2.478  -0.595  -1.115  0.00  0.00    -0.004 A 
ATOM      5  C5  I4B d   1       1.785  -1.644  -0.517  0.00  0.00     0.002 A 
ATOM      6  C6  I4B d   1       0.607  -1.390   0.200  0.00  0.00     0.003 A 
ENDROOT
BRANCH   1   7
ATOM      7  C1' I4B d   1      -1.062   0.224   1.151  0.00  0.00     0.060 C 
BRANCH   7   8
ATOM      8  C2' I4B d   1      -0.596   0.724   2.503  0.00  0.00    -0.013 C 
ATOM      9  C4' I4B d   1      -1.375   1.938   2.934  0.00  0.00     0.013 C 
ATOM     10  C3' I4B d   1      -0.751  -0.396   3.489  0.00  0.00     0.013 C 
ENDBRANCH   7   8
ENDBRANCH   1   7
TORSDOF 2
ENDMDL
