MODEL 1
REMARK minimizedAffinity -4.69084072
REMARK minimizedRMSD -1
REMARK  2 active torsions:
REMARK  status: ('A' for Active; 'I' for Inactive)
REMARK    1  A    between atoms: C2'_3  and  C1'_4 
REMARK    2  A    between atoms: C1'_4  and  C1_5 
ROOT
ATOM      1  C1  I4B d   1       0.237   0.354   0.288  0.00  0.00    -0.075 A 
ATOM      2  C2  I4B d   1      -0.081  -0.845  -0.301  0.00  0.00     0.003 A 
ATOM      3  C3  I4B d   1       0.932  -1.642  -0.886  0.00  0.00     0.002 A 
ATOM      4  C4  I4B d   1       2.234  -1.183  -0.903  0.00  0.00    -0.004 A 
ATOM      5  C5  I4B d   1       2.557   0.021  -0.285  0.00  0.00     0.002 A 
ATOM      6  C6  I4B d   1       1.555   0.789   0.326  0.00  0.00     0.003 A 
ENDROOT
BRANCH   1   7
ATOM      7  C1' I4B d   1      -0.863   1.186   0.867  0.00  0.00     0.060 C 
BRANCH   7   8
ATOM      8  C2' I4B d   1      -0.847   1.001   2.370  0.00  0.00    -0.013 C 
ATOM      9  C4' I4B d   1      -0.575   2.303   3.077  0.00  0.00     0.013 C 
ATOM     10  C3' I4B d   1      -2.171   0.429   2.781  0.00  0.00     0.013 C 
ENDBRANCH   7   8
ENDBRANCH   1   7
TORSDOF 2
ENDMDL
