MODEL 1
REMARK minimizedAffinity -5.27884436
REMARK minimizedRMSD -1
REMARK  2 active torsions:
REMARK  status: ('A' for Active; 'I' for Inactive)
REMARK    1  A    between atoms: C2'_3  and  C1'_4 
REMARK    2  A    between atoms: C1'_4  and  C1_5 
ROOT
ATOM      1  C1  I4B d   1      -0.159   0.044  -0.067  0.00  0.00    -0.075 A 
ATOM      2  C2  I4B d   1       0.704   1.063  -0.385  0.00  0.00     0.003 A 
ATOM      3  C3  I4B d   1       2.022   0.774  -0.813  0.00  0.00     0.002 A 
ATOM      4  C4  I4B d   1       2.449  -0.538  -0.860  0.00  0.00    -0.004 A 
ATOM      5  C5  I4B d   1       1.566  -1.571  -0.559  0.00  0.00     0.002 A 
ATOM      6  C6  I4B d   1       0.250  -1.280  -0.172  0.00  0.00     0.003 A 
ENDROOT
BRANCH   1   7
ATOM      7  C1' I4B d   1      -1.533   0.386   0.413  0.00  0.00     0.060 C 
BRANCH   7   8
ATOM      8  C2' I4B d   1      -1.652  -0.070   1.853  0.00  0.00    -0.013 C 
ATOM      9  C4' I4B d   1      -1.189   1.002   2.805  0.00  0.00     0.013 C 
ATOM     10  C3' I4B d   1      -3.084  -0.437   2.107  0.00  0.00     0.013 C 
ENDBRANCH   7   8
ENDBRANCH   1   7
TORSDOF 2
ENDMDL
