MODEL 1
REMARK minimizedAffinity -6.91239262
REMARK minimizedRMSD -1
REMARK  2 active torsions:
REMARK  status: ('A' for Active; 'I' for Inactive)
REMARK    1  A    between atoms: C2'_3  and  C1'_4 
REMARK    2  A    between atoms: C1'_4  and  C1_5 
ROOT
ATOM      1  C1  I4B d   1       1.756   0.211  -0.992  0.00  0.00    -0.075 A 
ATOM      2  C2  I4B d   1       1.167   1.085  -1.871  0.00  0.00     0.003 A 
ATOM      3  C3  I4B d   1       1.874   1.531  -3.014  0.00  0.00     0.002 A 
ATOM      4  C4  I4B d   1       3.176   1.120  -3.211  0.00  0.00    -0.004 A 
ATOM      5  C5  I4B d   1       3.764   0.216  -2.331  0.00  0.00     0.002 A 
ATOM      6  C6  I4B d   1       3.045  -0.252  -1.221  0.00  0.00     0.003 A 
ENDROOT
BRANCH   1   7
ATOM      7  C1' I4B d   1       0.992  -0.214   0.222  0.00  0.00     0.060 C 
BRANCH   7   8
ATOM      8  C2' I4B d   1      -0.368  -0.704  -0.230  0.00  0.00    -0.013 C 
ATOM      9  C4' I4B d   1      -0.469  -2.203  -0.129  0.00  0.00     0.013 C 
ATOM     10  C3' I4B d   1      -1.407  -0.033   0.619  0.00  0.00     0.013 C 
ENDBRANCH   7   8
ENDBRANCH   1   7
TORSDOF 2
ENDMDL
