MODEL 1
REMARK minimizedAffinity -2.98772502
REMARK minimizedRMSD -1
REMARK  2 active torsions:
REMARK  status: ('A' for Active; 'I' for Inactive)
REMARK    1  A    between atoms: C2'_3  and  C1'_4 
REMARK    2  A    between atoms: C1'_4  and  C1_5 
ROOT
ATOM      1  C1  I4B d   1       0.118   0.048  -0.158  0.00  0.00    -0.075 A 
ATOM      2  C2  I4B d   1       1.257   0.795  -0.325  0.00  0.00     0.003 A 
ATOM      3  C3  I4B d   1       2.466   0.172  -0.720  0.00  0.00     0.002 A 
ATOM      4  C4  I4B d   1       2.502  -1.198  -0.886  0.00  0.00    -0.004 A 
ATOM      5  C5  I4B d   1       1.340  -1.950  -0.738  0.00  0.00     0.002 A 
ATOM      6  C6  I4B d   1       0.137  -1.322  -0.384  0.00  0.00     0.003 A 
ENDROOT
BRANCH   1   7
ATOM      7  C1' I4B d   1      -1.134   0.734   0.291  0.00  0.00     0.060 C 
BRANCH   7   8
ATOM      8  C2' I4B d   1      -1.313   0.456   1.769  0.00  0.00    -0.013 C 
ATOM      9  C4' I4B d   1      -1.052   1.691   2.592  0.00  0.00     0.013 C 
ATOM     10  C3' I4B d   1      -2.710  -0.049   1.979  0.00  0.00     0.013 C 
ENDBRANCH   7   8
ENDBRANCH   1   7
TORSDOF 2
ENDMDL
