MODEL 1
REMARK minimizedAffinity -2.9498899
REMARK minimizedRMSD -1
REMARK  2 active torsions:
REMARK  status: ('A' for Active; 'I' for Inactive)
REMARK    1  A    between atoms: C2'_3  and  C1'_4 
REMARK    2  A    between atoms: C1'_4  and  C1_5 
ROOT
ATOM      1  C1  I4B d   1      -0.647   0.161   0.398  0.00  0.00    -0.075 A 
ATOM      2  C2  I4B d   1       0.098   1.118  -0.245  0.00  0.00     0.003 A 
ATOM      3  C3  I4B d   1       1.169   0.740  -1.091  0.00  0.00     0.002 A 
ATOM      4  C4  I4B d   1       1.490  -0.596  -1.224  0.00  0.00    -0.004 A 
ATOM      5  C5  I4B d   1       0.719  -1.566  -0.590  0.00  0.00     0.002 A 
ATOM      6  C6  I4B d   1      -0.364  -1.186   0.216  0.00  0.00     0.003 A 
ENDROOT
BRANCH   1   7
ATOM      7  C1' I4B d   1      -1.749   0.598   1.309  0.00  0.00     0.060 C 
BRANCH   7   8
ATOM      8  C2' I4B d   1      -1.156   0.824   2.685  0.00  0.00    -0.013 C 
ATOM      9  C4' I4B d   1      -1.084   2.292   3.013  0.00  0.00     0.013 C 
ATOM     10  C3' I4B d   1      -2.001   0.088   3.681  0.00  0.00     0.013 C 
ENDBRANCH   7   8
ENDBRANCH   1   7
TORSDOF 2
ENDMDL
