MODEL 1
REMARK minimizedAffinity -1.79604435
REMARK minimizedRMSD -1
REMARK  2 active torsions:
REMARK  status: ('A' for Active; 'I' for Inactive)
REMARK    1  A    between atoms: C2'_3  and  C1'_4 
REMARK    2  A    between atoms: C1'_4  and  C1_5 
ROOT
ATOM      1  C1  I4B d   1      -0.671   0.455   1.921  0.00  0.00    -0.075 A 
ATOM      2  C2  I4B d   1       0.034   1.191   2.841  0.00  0.00     0.003 A 
ATOM      3  C3  I4B d   1      -0.609   1.686   4.001  0.00  0.00     0.002 A 
ATOM      4  C4  I4B d   1      -1.960   1.467   4.175  0.00  0.00    -0.004 A 
ATOM      5  C5  I4B d   1      -2.668   0.701   3.253  0.00  0.00     0.002 A 
ATOM      6  C6  I4B d   1      -2.017   0.182   2.125  0.00  0.00     0.003 A 
ENDROOT
BRANCH   1   7
ATOM      7  C1' I4B d   1       0.032  -0.025   0.691  0.00  0.00     0.060 C 
BRANCH   7   8
ATOM      8  C2' I4B d   1       0.499   1.191  -0.084  0.00  0.00    -0.013 C 
ATOM      9  C4' I4B d   1       1.599   0.833  -1.048  0.00  0.00     0.013 C 
ATOM     10  C3' I4B d   1      -0.686   1.764  -0.803  0.00  0.00     0.013 C 
ENDBRANCH   7   8
ENDBRANCH   1   7
TORSDOF 2
ENDMDL
