MODEL 1
REMARK minimizedAffinity -2.99973059
REMARK minimizedRMSD -1
REMARK  2 active torsions:
REMARK  status: ('A' for Active; 'I' for Inactive)
REMARK    1  A    between atoms: C2'_3  and  C1'_4 
REMARK    2  A    between atoms: C1'_4  and  C1_5 
ROOT
ATOM      1  C1  I4B d   1       0.065   0.279  -0.070  0.00  0.00    -0.075 A 
ATOM      2  C2  I4B d   1      -0.013  -0.988  -0.591  0.00  0.00     0.003 A 
ATOM      3  C3  I4B d   1       1.131  -1.597  -1.162  0.00  0.00     0.002 A 
ATOM      4  C4  I4B d   1       2.313  -0.887  -1.235  0.00  0.00    -0.004 A 
ATOM      5  C5  I4B d   1       2.396   0.389  -0.686  0.00  0.00     0.002 A 
ATOM      6  C6  I4B d   1       1.269   0.972  -0.089  0.00  0.00     0.003 A 
ENDROOT
BRANCH   1   7
ATOM      7  C1' I4B d   1      -1.171   0.904   0.495  0.00  0.00     0.060 C 
BRANCH   7   8
ATOM      8  C2' I4B d   1      -1.128   0.744   2.001  0.00  0.00    -0.013 C 
ATOM      9  C4' I4B d   1      -1.204   2.079   2.693  0.00  0.00     0.013 C 
ATOM     10  C3' I4B d   1      -2.269  -0.141   2.405  0.00  0.00     0.013 C 
ENDBRANCH   7   8
ENDBRANCH   1   7
TORSDOF 2
ENDMDL
