MODEL 1
REMARK minimizedAffinity -3.98309779
REMARK minimizedRMSD -1
REMARK  2 active torsions:
REMARK  status: ('A' for Active; 'I' for Inactive)
REMARK    1  A    between atoms: C2'_3  and  C1'_4 
REMARK    2  A    between atoms: C1'_4  and  C1_5 
ROOT
ATOM      1  C1  I4B d   1      -0.124   0.085  -0.066  0.00  0.00    -0.075 A 
ATOM      2  C2  I4B d   1       0.936   0.792  -0.577  0.00  0.00     0.003 A 
ATOM      3  C3  I4B d   1       2.090   0.113  -1.037  0.00  0.00     0.002 A 
ATOM      4  C4  I4B d   1       2.161  -1.260  -0.923  0.00  0.00    -0.004 A 
ATOM      5  C5  I4B d   1       1.077  -1.977  -0.427  0.00  0.00     0.002 A 
ATOM      6  C6  I4B d   1      -0.079  -1.301  -0.007  0.00  0.00     0.003 A 
ENDROOT
BRANCH   1   7
ATOM      7  C1' I4B d   1      -1.314   0.837   0.442  0.00  0.00     0.060 C 
BRANCH   7   8
ATOM      8  C2' I4B d   1      -1.335   0.712   1.951  0.00  0.00    -0.013 C 
ATOM      9  C4' I4B d   1      -1.293   2.065   2.611  0.00  0.00     0.013 C 
ATOM     10  C3' I4B d   1      -2.574  -0.040   2.336  0.00  0.00     0.013 C 
ENDBRANCH   7   8
ENDBRANCH   1   7
TORSDOF 2
ENDMDL
