MODEL 1
REMARK minimizedAffinity -2.10074782
REMARK minimizedRMSD -1
REMARK  2 active torsions:
REMARK  status: ('A' for Active; 'I' for Inactive)
REMARK    1  A    between atoms: C2'_3  and  C1'_4 
REMARK    2  A    between atoms: C1'_4  and  C1_5 
ROOT
ATOM      1  C1  I4B d   1      -0.801   0.329   0.401  0.00  0.00    -0.075 A 
ATOM      2  C2  I4B d   1      -0.044   1.146  -0.402  0.00  0.00     0.003 A 
ATOM      3  C3  I4B d   1       1.116   0.642  -1.039  0.00  0.00     0.002 A 
ATOM      4  C4  I4B d   1       1.507  -0.661  -0.807  0.00  0.00    -0.004 A 
ATOM      5  C5  I4B d   1       0.726  -1.494  -0.011  0.00  0.00     0.002 A 
ATOM      6  C6  I4B d   1      -0.443  -1.000   0.587  0.00  0.00     0.003 A 
ENDROOT
BRANCH   1   7
ATOM      7  C1' I4B d   1      -2.002   0.903   1.084  0.00  0.00     0.060 C 
BRANCH   7   8
ATOM      8  C2' I4B d   1      -1.835   0.693   2.575  0.00  0.00    -0.013 C 
ATOM      9  C4' I4B d   1      -1.828   2.005   3.313  0.00  0.00     0.013 C 
ATOM     10  C3' I4B d   1      -2.954  -0.188   3.047  0.00  0.00     0.013 C 
ENDBRANCH   7   8
ENDBRANCH   1   7
TORSDOF 2
ENDMDL
