MODEL 1
REMARK minimizedAffinity 0.533245325
REMARK minimizedRMSD -1
REMARK  2 active torsions:
REMARK  status: ('A' for Active; 'I' for Inactive)
REMARK    1  A    between atoms: C2'_3  and  C1'_4 
REMARK    2  A    between atoms: C1'_4  and  C1_5 
ROOT
ATOM      1  C1  I4B d   1       3.828   3.385  -5.943  0.00  0.00    -0.075 A 
ATOM      2  C2  I4B d   1       3.872   4.756  -5.973  0.00  0.00     0.003 A 
ATOM      3  C3  I4B d   1       2.672   5.508  -5.953  0.00  0.00     0.002 A 
ATOM      4  C4  I4B d   1       1.458   4.851  -5.955  0.00  0.00    -0.004 A 
ATOM      5  C5  I4B d   1       1.416   3.461  -5.902  0.00  0.00     0.002 A 
ATOM      6  C6  I4B d   1       2.608   2.723  -5.884  0.00  0.00     0.003 A 
ENDROOT
BRANCH   1   7
ATOM      7  C1' I4B d   1       5.113   2.621  -5.999  0.00  0.00     0.060 C 
BRANCH   7   8
ATOM      8  C2' I4B d   1       5.234   1.817  -4.721  0.00  0.00    -0.013 C 
ATOM      9  C4' I4B d   1       5.998   0.539  -4.951  0.00  0.00     0.013 C 
ATOM     10  C3' I4B d   1       5.912   2.676  -3.695  0.00  0.00     0.013 C 
ENDBRANCH   7   8
ENDBRANCH   1   7
TORSDOF 2
ENDMDL
