MODEL 1
REMARK minimizedAffinity 7.53408766
REMARK minimizedRMSD -1
REMARK  2 active torsions:
REMARK  status: ('A' for Active; 'I' for Inactive)
REMARK    1  A    between atoms: C2'_3  and  C1'_4 
REMARK    2  A    between atoms: C1'_4  and  C1_5 
ROOT
ATOM      1  C1  I4B d   1      -2.136  -3.338  -2.580  0.00  0.00    -0.075 A 
ATOM      2  C2  I4B d   1      -2.556  -2.169  -1.995  0.00  0.00     0.003 A 
ATOM      3  C3  I4B d   1      -2.017  -1.760  -0.751  0.00  0.00     0.002 A 
ATOM      4  C4  I4B d   1      -1.104  -2.570  -0.107  0.00  0.00    -0.004 A 
ATOM      5  C5  I4B d   1      -0.662  -3.743  -0.712  0.00  0.00     0.002 A 
ATOM      6  C6  I4B d   1      -1.172  -4.124  -1.962  0.00  0.00     0.003 A 
ENDROOT
BRANCH   1   7
ATOM      7  C1' I4B d   1      -2.750  -3.756  -3.878  0.00  0.00     0.060 C 
BRANCH   7   8
ATOM      8  C2' I4B d   1      -2.185  -2.869  -4.969  0.00  0.00    -0.013 C 
ATOM      9  C4' I4B d   1      -0.956  -3.481  -5.587  0.00  0.00     0.013 C 
ATOM     10  C3' I4B d   1      -3.259  -2.656  -5.994  0.00  0.00     0.013 C 
ENDBRANCH   7   8
ENDBRANCH   1   7
TORSDOF 2
ENDMDL
