MODEL 1
REMARK minimizedAffinity 9.26855373
REMARK minimizedRMSD -1
REMARK  2 active torsions:
REMARK  status: ('A' for Active; 'I' for Inactive)
REMARK    1  A    between atoms: C2'_3  and  C1'_4 
REMARK    2  A    between atoms: C1'_4  and  C1_5 
ROOT
ATOM      1  C1  I4B d   1      -1.883  -2.769  -2.268  0.00  0.00    -0.075 A 
ATOM      2  C2  I4B d   1      -1.540  -1.842  -1.316  0.00  0.00     0.003 A 
ATOM      3  C3  I4B d   1      -0.649  -2.190  -0.271  0.00  0.00     0.002 A 
ATOM      4  C4  I4B d   1      -0.169  -3.481  -0.189  0.00  0.00    -0.004 A 
ATOM      5  C5  I4B d   1      -0.500  -4.413  -1.169  0.00  0.00     0.002 A 
ATOM      6  C6  I4B d   1      -1.352  -4.051  -2.222  0.00  0.00     0.003 A 
ENDROOT
BRANCH   1   7
ATOM      7  C1' I4B d   1      -2.851  -2.377  -3.339  0.00  0.00     0.060 C 
BRANCH   7   8
ATOM      8  C2' I4B d   1      -2.393  -3.010  -4.637  0.00  0.00    -0.013 C 
ATOM      9  C4' I4B d   1      -3.400  -2.792  -5.735  0.00  0.00     0.013 C 
ATOM     10  C3' I4B d   1      -1.063  -2.417  -4.997  0.00  0.00     0.013 C 
ENDBRANCH   7   8
ENDBRANCH   1   7
TORSDOF 2
ENDMDL
