MODEL 1
REMARK minimizedAffinity 12.3053236
REMARK minimizedRMSD -1
REMARK  2 active torsions:
REMARK  status: ('A' for Active; 'I' for Inactive)
REMARK    1  A    between atoms: C2'_3  and  C1'_4 
REMARK    2  A    between atoms: C1'_4  and  C1_5 
ROOT
ATOM      1  C1  I4B d   1      -1.621  -3.381  -2.708  0.00  0.00    -0.075 A 
ATOM      2  C2  I4B d   1      -2.013  -2.123  -2.322  0.00  0.00     0.003 A 
ATOM      3  C3  I4B d   1      -1.569  -1.585  -1.090  0.00  0.00     0.002 A 
ATOM      4  C4  I4B d   1      -0.781  -2.353  -0.257  0.00  0.00    -0.004 A 
ATOM      5  C5  I4B d   1      -0.365  -3.618  -0.660  0.00  0.00     0.002 A 
ATOM      6  C6  I4B d   1      -0.777  -4.131  -1.899  0.00  0.00     0.003 A 
ENDROOT
BRANCH   1   7
ATOM      7  C1' I4B d   1      -2.134  -3.931  -4.000  0.00  0.00     0.060 C 
BRANCH   7   8
ATOM      8  C2' I4B d   1      -2.141  -2.807  -5.017  0.00  0.00    -0.013 C 
ATOM      9  C4' I4B d   1      -0.905  -2.843  -5.877  0.00  0.00     0.013 C 
ATOM     10  C3' I4B d   1      -3.382  -2.941  -5.847  0.00  0.00     0.013 C 
ENDBRANCH   7   8
ENDBRANCH   1   7
TORSDOF 2
ENDMDL
