MODEL 1
REMARK minimizedAffinity 5.98215437
REMARK minimizedRMSD -1
REMARK  2 active torsions:
REMARK  status: ('A' for Active; 'I' for Inactive)
REMARK    1  A    between atoms: C2'_3  and  C1'_4 
REMARK    2  A    between atoms: C1'_4  and  C1_5 
ROOT
ATOM      1  C1  I4B d   1      -1.709  -3.274  -2.676  0.00  0.00    -0.075 A 
ATOM      2  C2  I4B d   1      -2.206  -2.069  -2.246  0.00  0.00     0.003 A 
ATOM      3  C3  I4B d   1      -1.763  -1.512  -1.022  0.00  0.00     0.002 A 
ATOM      4  C4  I4B d   1      -0.867  -2.213  -0.241  0.00  0.00    -0.004 A 
ATOM      5  C5  I4B d   1      -0.347  -3.423  -0.690  0.00  0.00     0.002 A 
ATOM      6  C6  I4B d   1      -0.761  -3.952  -1.921  0.00  0.00     0.003 A 
ENDROOT
BRANCH   1   7
ATOM      7  C1' I4B d   1      -2.223  -3.849  -3.958  0.00  0.00     0.060 C 
BRANCH   7   8
ATOM      8  C2' I4B d   1      -2.054  -2.802  -5.040  0.00  0.00    -0.013 C 
ATOM      9  C4' I4B d   1      -0.735  -2.961  -5.751  0.00  0.00     0.013 C 
ATOM     10  C3' I4B d   1      -3.202  -2.933  -5.995  0.00  0.00     0.013 C 
ENDBRANCH   7   8
ENDBRANCH   1   7
TORSDOF 2
ENDMDL
