MODEL 1
REMARK minimizedAffinity 10.9829521
REMARK minimizedRMSD -1
REMARK  2 active torsions:
REMARK  status: ('A' for Active; 'I' for Inactive)
REMARK    1  A    between atoms: C2'_3  and  C1'_4 
REMARK    2  A    between atoms: C1'_4  and  C1_5 
ROOT
ATOM      1  C1  I4B d   1      -1.533  -3.368  -2.759  0.00  0.00    -0.075 A 
ATOM      2  C2  I4B d   1      -0.609  -4.107  -2.063  0.00  0.00     0.003 A 
ATOM      3  C3  I4B d   1      -0.217  -3.713  -0.761  0.00  0.00     0.002 A 
ATOM      4  C4  I4B d   1      -0.732  -2.555  -0.217  0.00  0.00    -0.004 A 
ATOM      5  C5  I4B d   1      -1.686  -1.820  -0.915  0.00  0.00     0.002 A 
ATOM      6  C6  I4B d   1      -2.099  -2.235  -2.189  0.00  0.00     0.003 A 
ENDROOT
BRANCH   1   7
ATOM      7  C1' I4B d   1      -1.900  -3.794  -4.145  0.00  0.00     0.060 C 
BRANCH   7   8
ATOM      8  C2' I4B d   1      -1.880  -2.566  -5.032  0.00  0.00    -0.013 C 
ATOM      9  C4' I4B d   1      -0.565  -2.437  -5.755  0.00  0.00     0.013 C 
ATOM     10  C3' I4B d   1      -3.021  -2.674  -5.999  0.00  0.00     0.013 C 
ENDBRANCH   7   8
ENDBRANCH   1   7
TORSDOF 2
ENDMDL
