MODEL 1
REMARK minimizedAffinity 8.77250195
REMARK minimizedRMSD -1
REMARK  2 active torsions:
REMARK  status: ('A' for Active; 'I' for Inactive)
REMARK    1  A    between atoms: C2'_3  and  C1'_4 
REMARK    2  A    between atoms: C1'_4  and  C1_5 
ROOT
ATOM      1  C1  I4B d   1      -1.533  -2.669  -2.830  0.00  0.00    -0.075 A 
ATOM      2  C2  I4B d   1      -1.138  -1.782  -1.860  0.00  0.00     0.003 A 
ATOM      3  C3  I4B d   1      -0.397  -2.234  -0.740  0.00  0.00     0.002 A 
ATOM      4  C4  I4B d   1      -0.120  -3.579  -0.607  0.00  0.00    -0.004 A 
ATOM      5  C5  I4B d   1      -0.501  -4.473  -1.604  0.00  0.00     0.002 A 
ATOM      6  C6  I4B d   1      -1.201  -4.014  -2.729  0.00  0.00     0.003 A 
ENDROOT
BRANCH   1   7
ATOM      7  C1' I4B d   1      -2.341  -2.163  -3.982  0.00  0.00     0.060 C 
BRANCH   7   8
ATOM      8  C2' I4B d   1      -2.052  -3.045  -5.179  0.00  0.00    -0.013 C 
ATOM      9  C4' I4B d   1      -3.294  -3.278  -5.998  0.00  0.00     0.013 C 
ATOM     10  C3' I4B d   1      -0.982  -2.383  -5.995  0.00  0.00     0.013 C 
ENDBRANCH   7   8
ENDBRANCH   1   7
TORSDOF 2
ENDMDL
