MODEL 1
REMARK minimizedAffinity 11.3015585
REMARK minimizedRMSD -1
REMARK  2 active torsions:
REMARK  status: ('A' for Active; 'I' for Inactive)
REMARK    1  A    between atoms: C2'_3  and  C1'_4 
REMARK    2  A    between atoms: C1'_4  and  C1_5 
ROOT
ATOM      1  C1  I4B d   1      -2.316  -3.072  -2.775  0.00  0.00    -0.075 A 
ATOM      2  C2  I4B d   1      -1.338  -3.772  -2.114  0.00  0.00     0.003 A 
ATOM      3  C3  I4B d   1      -0.804  -3.276  -0.899  0.00  0.00     0.002 A 
ATOM      4  C4  I4B d   1      -1.238  -2.060  -0.412  0.00  0.00    -0.004 A 
ATOM      5  C5  I4B d   1      -2.246  -1.363  -1.073  0.00  0.00     0.002 A 
ATOM      6  C6  I4B d   1      -2.797  -1.878  -2.255  0.00  0.00     0.003 A 
ENDROOT
BRANCH   1   7
ATOM      7  C1' I4B d   1      -2.834  -3.608  -4.072  0.00  0.00     0.060 C 
BRANCH   7   8
ATOM      8  C2' I4B d   1      -2.576  -2.568  -5.143  0.00  0.00    -0.013 C 
ATOM      9  C4' I4B d   1      -1.365  -2.920  -5.966  0.00  0.00     0.013 C 
ATOM     10  C3' I4B d   1      -3.804  -2.472  -6.000  0.00  0.00     0.013 C 
ENDBRANCH   7   8
ENDBRANCH   1   7
TORSDOF 2
ENDMDL
