MODEL 1
REMARK minimizedAffinity 10.891715
REMARK minimizedRMSD -1
REMARK  2 active torsions:
REMARK  status: ('A' for Active; 'I' for Inactive)
REMARK    1  A    between atoms: C2'_3  and  C1'_4 
REMARK    2  A    between atoms: C1'_4  and  C1_5 
ROOT
ATOM      1  C1  I4B d   1      -1.266  -2.126  -1.212  0.00  0.00    -0.075 A 
ATOM      2  C2  I4B d   1      -0.130  -2.799  -0.836  0.00  0.00     0.003 A 
ATOM      3  C3  I4B d   1       0.117  -3.072   0.531  0.00  0.00     0.002 A 
ATOM      4  C4  I4B d   1      -0.766  -2.613   1.486  0.00  0.00    -0.004 A 
ATOM      5  C5  I4B d   1      -1.929  -1.951   1.101  0.00  0.00     0.002 A 
ATOM      6  C6  I4B d   1      -2.187  -1.717  -0.257  0.00  0.00     0.003 A 
ENDROOT
BRANCH   1   7
ATOM      7  C1' I4B d   1      -1.479  -1.826  -2.662  0.00  0.00     0.060 C 
BRANCH   7   8
ATOM      8  C2' I4B d   1      -1.476  -3.140  -3.416  0.00  0.00    -0.013 C 
ATOM      9  C4' I4B d   1      -2.781  -3.872  -3.240  0.00  0.00     0.013 C 
ATOM     10  C3' I4B d   1      -1.213  -2.843  -4.863  0.00  0.00     0.013 C 
ENDBRANCH   7   8
ENDBRANCH   1   7
TORSDOF 2
ENDMDL
