MODEL 1
REMARK minimizedAffinity 12.7418098
REMARK minimizedRMSD -1
REMARK  2 active torsions:
REMARK  status: ('A' for Active; 'I' for Inactive)
REMARK    1  A    between atoms: C2'_3  and  C1'_4 
REMARK    2  A    between atoms: C1'_4  and  C1_5 
ROOT
ATOM      1  C1  I4B d   1       3.196   1.909  -5.968  0.00  0.00    -0.075 A 
ATOM      2  C2  I4B d   1       4.316   2.703  -5.973  0.00  0.00     0.003 A 
ATOM      3  C3  I4B d   1       5.605   2.117  -5.994  0.00  0.00     0.002 A 
ATOM      4  C4  I4B d   1       5.727   0.743  -5.958  0.00  0.00    -0.004 A 
ATOM      5  C5  I4B d   1       4.590  -0.060  -5.976  0.00  0.00     0.002 A 
ATOM      6  C6  I4B d   1       3.317   0.526  -5.994  0.00  0.00     0.003 A 
ENDROOT
BRANCH   1   7
ATOM      7  C1' I4B d   1       1.851   2.561  -5.913  0.00  0.00     0.060 C 
BRANCH   7   8
ATOM      8  C2' I4B d   1       2.018   3.924  -5.272  0.00  0.00    -0.013 C 
ATOM      9  C4' I4B d   1       1.215   4.971  -5.998  0.00  0.00     0.013 C 
ATOM     10  C3' I4B d   1       1.595   3.815  -3.837  0.00  0.00     0.013 C 
ENDBRANCH   7   8
ENDBRANCH   1   7
TORSDOF 2
ENDMDL
