MODEL 1
REMARK minimizedAffinity 7.73744392
REMARK minimizedRMSD -1
REMARK  2 active torsions:
REMARK  status: ('A' for Active; 'I' for Inactive)
REMARK    1  A    between atoms: C2'_3  and  C1'_4 
REMARK    2  A    between atoms: C1'_4  and  C1_5 
ROOT
ATOM      1  C1  I4B d   1      -1.902  -3.400  -2.772  0.00  0.00    -0.075 A 
ATOM      2  C2  I4B d   1      -2.433  -2.227  -2.294  0.00  0.00     0.003 A 
ATOM      3  C3  I4B d   1      -1.904  -1.629  -1.125  0.00  0.00     0.002 A 
ATOM      4  C4  I4B d   1      -0.884  -2.260  -0.441  0.00  0.00    -0.004 A 
ATOM      5  C5  I4B d   1      -0.332  -3.436  -0.939  0.00  0.00     0.002 A 
ATOM      6  C6  I4B d   1      -0.836  -4.004  -2.119  0.00  0.00     0.003 A 
ENDROOT
BRANCH   1   7
ATOM      7  C1' I4B d   1      -2.507  -4.021  -3.991  0.00  0.00     0.060 C 
BRANCH   7   8
ATOM      8  C2' I4B d   1      -2.162  -3.148  -5.180  0.00  0.00    -0.013 C 
ATOM      9  C4' I4B d   1      -1.054  -3.756  -5.999  0.00  0.00     0.013 C 
ATOM     10  C3' I4B d   1      -3.405  -2.967  -5.999  0.00  0.00     0.013 C 
ENDBRANCH   7   8
ENDBRANCH   1   7
TORSDOF 2
ENDMDL
