MODEL 1
REMARK minimizedAffinity 4.32137012
REMARK minimizedRMSD -1
REMARK  2 active torsions:
REMARK  status: ('A' for Active; 'I' for Inactive)
REMARK    1  A    between atoms: C2'_3  and  C1'_4 
REMARK    2  A    between atoms: C1'_4  and  C1_5 
ROOT
ATOM      1  C1  I4B d   1      -1.411  -2.421  -3.616  0.00  0.00    -0.075 A 
ATOM      2  C2  I4B d   1      -1.961  -3.660  -3.404  0.00  0.00     0.003 A 
ATOM      3  C3  I4B d   1      -2.280  -4.496  -4.502  0.00  0.00     0.002 A 
ATOM      4  C4  I4B d   1      -2.079  -4.036  -5.787  0.00  0.00    -0.004 A 
ATOM      5  C5  I4B d   1      -1.499  -2.788  -5.999  0.00  0.00     0.002 A 
ATOM      6  C6  I4B d   1      -1.151  -1.980  -4.907  0.00  0.00     0.003 A 
ENDROOT
BRANCH   1   7
ATOM      7  C1' I4B d   1      -1.117  -1.551  -2.435  0.00  0.00     0.060 C 
BRANCH   7   8
ATOM      8  C2' I4B d   1      -1.140  -2.423  -1.196  0.00  0.00    -0.013 C 
ATOM      9  C4' I4B d   1       0.244  -2.599  -0.628  0.00  0.00     0.013 C 
ATOM     10  C3' I4B d   1      -2.058  -1.784  -0.197  0.00  0.00     0.013 C 
ENDBRANCH   7   8
ENDBRANCH   1   7
TORSDOF 2
ENDMDL
