MODEL 1
REMARK minimizedAffinity -4.55600834
REMARK minimizedRMSD -1
REMARK  0 active torsions:
REMARK  status: ('A' for Active; 'I' for Inactive)
ROOT
ATOM      1  N1  IND d   1       2.260  -1.337  -1.111  0.00  0.00    -0.196 N 
ATOM      2  C2  IND d   1       3.181  -0.599  -1.801  0.00  0.00     0.054 A 
ATOM      3  C3  IND d   1       2.679   0.620  -2.098  0.00  0.00    -0.031 A 
ATOM      4  C4  IND d   1       0.408   1.653  -1.464  0.00  0.00     0.051 A 
ATOM      5  C5  IND d   1      -0.784   1.351  -0.868  0.00  0.00    -0.031 A 
ATOM      6  C6  IND d   1      -1.026   0.113  -0.309  0.00  0.00     0.015 A 
ATOM      7  C7  IND d   1      -0.077  -0.870  -0.315  0.00  0.00    -0.016 A 
ATOM      8  C8  IND d   1       1.132  -0.568  -0.926  0.00  0.00    -0.047 A 
ATOM      9  C9  IND d   1       1.369   0.672  -1.532  0.00  0.00    -0.096 A 
ATOM     10  HN1 IND d   1       2.367  -2.146  -0.839  0.00  0.00     0.298 HD
ENDROOT
TORSDOF 0
ENDMDL
