MODEL 1
REMARK minimizedAffinity -2.97707701
REMARK minimizedRMSD -1
REMARK  0 active torsions:
REMARK  status: ('A' for Active; 'I' for Inactive)
ROOT
ATOM      1  N1  IND d   1      -0.539  -1.402  -0.490  0.00  0.00    -0.196 N 
ATOM      2  C2  IND d   1      -1.135  -0.424   0.257  0.00  0.00     0.054 A 
ATOM      3  C3  IND d   1      -0.255   0.568   0.521  0.00  0.00    -0.031 A 
ATOM      4  C4  IND d   1       2.183   0.842  -0.259  0.00  0.00     0.051 A 
ATOM      5  C5  IND d   1       3.179   0.190  -0.930  0.00  0.00    -0.031 A 
ATOM      6  C6  IND d   1       2.982  -1.049  -1.502  0.00  0.00     0.015 A 
ATOM      7  C7  IND d   1       1.772  -1.681  -1.435  0.00  0.00    -0.016 A 
ATOM      8  C8  IND d   1       0.760  -1.025  -0.748  0.00  0.00    -0.047 A 
ATOM      9  C9  IND d   1       0.967   0.214  -0.128  0.00  0.00    -0.096 A 
ATOM     10  HN1 IND d   1      -0.914  -2.129  -0.754  0.00  0.00     0.298 HD
ENDROOT
TORSDOF 0
ENDMDL
