MODEL 1
REMARK minimizedAffinity -1.89132583
REMARK minimizedRMSD -1
REMARK  0 active torsions:
REMARK  status: ('A' for Active; 'I' for Inactive)
ROOT
ATOM      1  N1  IND d   1       1.150  -1.864  -1.858  0.00  0.00    -0.196 N 
ATOM      2  C2  IND d   1      -0.090  -2.372  -1.588  0.00  0.00     0.054 A 
ATOM      3  C3  IND d   1      -0.634  -1.744  -0.522  0.00  0.00    -0.031 A 
ATOM      4  C4  IND d   1       0.291   0.216   0.869  0.00  0.00     0.051 A 
ATOM      5  C5  IND d   1       1.402   0.995   1.025  0.00  0.00    -0.031 A 
ATOM      6  C6  IND d   1       2.508   0.861   0.210  0.00  0.00     0.015 A 
ATOM      7  C7  IND d   1       2.539  -0.055  -0.803  0.00  0.00    -0.016 A 
ATOM      8  C8  IND d   1       1.415  -0.853  -0.960  0.00  0.00    -0.047 A 
ATOM      9  C9  IND d   1       0.306  -0.750  -0.110  0.00  0.00    -0.096 A 
ATOM     10  HN1 IND d   1       1.677  -2.132  -2.483  0.00  0.00     0.298 HD
ENDROOT
TORSDOF 0
ENDMDL
