MODEL 1
REMARK minimizedAffinity -2.80510902
REMARK minimizedRMSD -1
REMARK  0 active torsions:
REMARK  status: ('A' for Active; 'I' for Inactive)
ROOT
ATOM      1  N1  IND d   1      -0.626  -1.451  -0.645  0.00  0.00    -0.196 N 
ATOM      2  C2  IND d   1      -1.302  -0.555   0.135  0.00  0.00     0.054 A 
ATOM      3  C3  IND d   1      -0.475   0.435   0.540  0.00  0.00    -0.031 A 
ATOM      4  C4  IND d   1       2.000   0.838  -0.041  0.00  0.00     0.051 A 
ATOM      5  C5  IND d   1       3.060   0.271  -0.691  0.00  0.00    -0.031 A 
ATOM      6  C6  IND d   1       2.943  -0.922  -1.375  0.00  0.00     0.015 A 
ATOM      7  C7  IND d   1       1.752  -1.589  -1.445  0.00  0.00    -0.016 A 
ATOM      8  C8  IND d   1       0.676  -1.020  -0.780  0.00  0.00    -0.047 A 
ATOM      9  C9  IND d   1       0.799   0.169  -0.048  0.00  0.00    -0.096 A 
ATOM     10  HN1 IND d   1      -0.958  -2.163  -0.993  0.00  0.00     0.298 HD
ENDROOT
TORSDOF 0
ENDMDL
