MODEL 1
REMARK minimizedAffinity -3.76145482
REMARK minimizedRMSD -1
REMARK  0 active torsions:
REMARK  status: ('A' for Active; 'I' for Inactive)
ROOT
ATOM      1  N1  IND d   1      -0.114   1.777  -0.825  0.00  0.00    -0.196 N 
ATOM      2  C2  IND d   1      -1.258   1.421  -0.165  0.00  0.00     0.054 A 
ATOM      3  C3  IND d   1      -1.151   0.161   0.315  0.00  0.00    -0.031 A 
ATOM      4  C4  IND d   1       0.846  -1.460   0.224  0.00  0.00     0.051 A 
ATOM      5  C5  IND d   1       2.099  -1.597  -0.305  0.00  0.00    -0.031 A 
ATOM      6  C6  IND d   1       2.692  -0.595  -1.046  0.00  0.00     0.015 A 
ATOM      7  C7  IND d   1       2.054   0.591  -1.278  0.00  0.00    -0.016 A 
ATOM      8  C8  IND d   1       0.779   0.731  -0.749  0.00  0.00    -0.047 A 
ATOM      9  C9  IND d   1       0.156  -0.299  -0.032  0.00  0.00    -0.096 A 
ATOM     10  HN1 IND d   1       0.023   2.527  -1.221  0.00  0.00     0.298 HD
ENDROOT
TORSDOF 0
ENDMDL
