MODEL 1
REMARK minimizedAffinity -3.69684291
REMARK minimizedRMSD -1
REMARK  0 active torsions:
REMARK  status: ('A' for Active; 'I' for Inactive)
ROOT
ATOM      1  N1  IND d   1      -1.870   3.334   4.500  0.00  0.00    -0.196 N 
ATOM      2  C2  IND d   1      -1.628   3.449   3.159  0.00  0.00     0.054 A 
ATOM      3  C3  IND d   1      -2.612   4.159   2.563  0.00  0.00    -0.031 A 
ATOM      4  C4  IND d   1      -4.662   5.312   3.610  0.00  0.00     0.051 A 
ATOM      5  C5  IND d   1      -5.329   5.457   4.794  0.00  0.00    -0.031 A 
ATOM      6  C6  IND d   1      -4.866   4.893   5.965  0.00  0.00     0.015 A 
ATOM      7  C7  IND d   1      -3.707   4.169   5.998  0.00  0.00    -0.016 A 
ATOM      8  C8  IND d   1      -3.032   4.014   4.796  0.00  0.00    -0.047 A 
ATOM      9  C9  IND d   1      -3.519   4.548   3.596  0.00  0.00    -0.096 A 
ATOM     10  HN1 IND d   1      -1.380   2.909   5.064  0.00  0.00     0.298 HD
ENDROOT
TORSDOF 0
ENDMDL
