MODEL 1
REMARK minimizedAffinity -3.43309188
REMARK minimizedRMSD -1
REMARK  0 active torsions:
REMARK  status: ('A' for Active; 'I' for Inactive)
ROOT
ATOM      1  N1  IND d   1      -0.838  -1.162  -0.780  0.00  0.00    -0.196 N 
ATOM      2  C2  IND d   1      -1.436  -0.277   0.074  0.00  0.00     0.054 A 
ATOM      3  C3  IND d   1      -0.509   0.520   0.651  0.00  0.00    -0.031 A 
ATOM      4  C4  IND d   1       2.034   0.616   0.264  0.00  0.00     0.051 A 
ATOM      5  C5  IND d   1       3.048  -0.020  -0.396  0.00  0.00    -0.031 A 
ATOM      6  C6  IND d   1       2.814  -1.088  -1.237  0.00  0.00     0.015 A 
ATOM      7  C7  IND d   1       1.549  -1.556  -1.459  0.00  0.00    -0.016 A 
ATOM      8  C8  IND d   1       0.518  -0.917  -0.785  0.00  0.00    -0.047 A 
ATOM      9  C9  IND d   1       0.755   0.140   0.103  0.00  0.00    -0.096 A 
ATOM     10  HN1 IND d   1      -1.240  -1.769  -1.237  0.00  0.00     0.298 HD
ENDROOT
TORSDOF 0
ENDMDL
