MODEL 1
REMARK minimizedAffinity -4.03572369
REMARK minimizedRMSD -1
REMARK  0 active torsions:
REMARK  status: ('A' for Active; 'I' for Inactive)
ROOT
ATOM      1  N1  IND d   1       1.809  -1.441  -1.145  0.00  0.00    -0.196 N 
ATOM      2  C2  IND d   1       2.717  -0.432  -1.309  0.00  0.00     0.054 A 
ATOM      3  C3  IND d   1       2.267   0.705  -0.732  0.00  0.00    -0.031 A 
ATOM      4  C4  IND d   1       0.114   1.111   0.620  0.00  0.00     0.051 A 
ATOM      5  C5  IND d   1      -1.046   0.501   1.008  0.00  0.00    -0.031 A 
ATOM      6  C6  IND d   1      -1.318  -0.815   0.694  0.00  0.00     0.015 A 
ATOM      7  C7  IND d   1      -0.431  -1.577  -0.013  0.00  0.00    -0.016 A 
ATOM      8  C8  IND d   1       0.745  -0.958  -0.415  0.00  0.00    -0.047 A 
ATOM      9  C9  IND d   1       1.008   0.389  -0.135  0.00  0.00    -0.096 A 
ATOM     10  HN1 IND d   1       1.888  -2.242  -1.448  0.00  0.00     0.298 HD
ENDROOT
TORSDOF 0
ENDMDL
