MODEL 1
REMARK minimizedAffinity -3.50332665
REMARK minimizedRMSD -1
REMARK  0 active torsions:
REMARK  status: ('A' for Active; 'I' for Inactive)
ROOT
ATOM      1  N1  IND d   1       1.834  -1.810  -1.260  0.00  0.00    -0.196 N 
ATOM      2  C2  IND d   1       2.640  -0.767  -1.622  0.00  0.00     0.054 A 
ATOM      3  C3  IND d   1       2.048   0.411  -1.321  0.00  0.00    -0.031 A 
ATOM      4  C4  IND d   1      -0.195   0.859  -0.140  0.00  0.00     0.051 A 
ATOM      5  C5  IND d   1      -1.303   0.222   0.346  0.00  0.00    -0.031 A 
ATOM      6  C6  IND d   1      -1.422  -1.152   0.325  0.00  0.00     0.015 A 
ATOM      7  C7  IND d   1      -0.429  -1.945  -0.177  0.00  0.00    -0.016 A 
ATOM      8  C8  IND d   1       0.694  -1.302  -0.678  0.00  0.00    -0.047 A 
ATOM      9  C9  IND d   1       0.802   0.094  -0.698  0.00  0.00    -0.096 A 
ATOM     10  HN1 IND d   1       2.010  -2.644  -1.376  0.00  0.00     0.298 HD
ENDROOT
TORSDOF 0
ENDMDL
