MODEL 1
REMARK minimizedAffinity -5.25402784
REMARK minimizedRMSD -1
REMARK  0 active torsions:
REMARK  status: ('A' for Active; 'I' for Inactive)
ROOT
ATOM      1  N1  IND d   1      -0.783   1.035  -0.231  0.00  0.00    -0.196 N 
ATOM      2  C2  IND d   1      -1.262  -0.160   0.230  0.00  0.00     0.054 A 
ATOM      3  C3  IND d   1      -0.390  -1.155  -0.047  0.00  0.00    -0.031 A 
ATOM      4  C4  IND d   1       1.930  -1.035  -1.156  0.00  0.00     0.051 A 
ATOM      5  C5  IND d   1       2.783  -0.167  -1.779  0.00  0.00    -0.031 A 
ATOM      6  C6  IND d   1       2.486   1.174  -1.917  0.00  0.00     0.015 A 
ATOM      7  C7  IND d   1       1.325   1.700  -1.426  0.00  0.00    -0.016 A 
ATOM      8  C8  IND d   1       0.453   0.821  -0.800  0.00  0.00    -0.047 A 
ATOM      9  C9  IND d   1       0.730  -0.549  -0.694  0.00  0.00    -0.096 A 
ATOM     10  HN1 IND d   1      -1.186   1.792  -0.174  0.00  0.00     0.298 HD
ENDROOT
TORSDOF 0
ENDMDL
