MODEL 1
REMARK minimizedAffinity -5.33757496
REMARK minimizedRMSD -1
REMARK  0 active torsions:
REMARK  status: ('A' for Active; 'I' for Inactive)
ROOT
ATOM      1  N1  IND d   1      -0.142   1.476   0.960  0.00  0.00    -0.196 N 
ATOM      2  C2  IND d   1      -1.164   0.708   1.445  0.00  0.00     0.054 A 
ATOM      3  C3  IND d   1      -1.095  -0.543   0.938  0.00  0.00    -0.031 A 
ATOM      4  C4  IND d   1       0.669  -1.579  -0.625  0.00  0.00     0.051 A 
ATOM      5  C5  IND d   1       1.774  -1.260  -1.364  0.00  0.00    -0.031 A 
ATOM      6  C6  IND d   1       2.309   0.012  -1.364  0.00  0.00     0.015 A 
ATOM      7  C7  IND d   1       1.763   1.015  -0.612  0.00  0.00    -0.016 A 
ATOM      8  C8  IND d   1       0.637   0.696   0.134  0.00  0.00    -0.047 A 
ATOM      9  C9  IND d   1       0.065  -0.582   0.104  0.00  0.00    -0.096 A 
ATOM     10  HN1 IND d   1      -0.008   2.306   1.140  0.00  0.00     0.298 HD
ENDROOT
TORSDOF 0
ENDMDL
