MODEL 1
REMARK minimizedAffinity -2.45774102
REMARK minimizedRMSD -1
REMARK  0 active torsions:
REMARK  status: ('A' for Active; 'I' for Inactive)
ROOT
ATOM      1  N1  IND d   1      -1.244   2.179  -1.664  0.00  0.00    -0.196 N 
ATOM      2  C2  IND d   1      -0.114   2.863  -2.016  0.00  0.00     0.054 A 
ATOM      3  C3  IND d   1       0.985   2.119  -1.758  0.00  0.00    -0.031 A 
ATOM      4  C4  IND d   1       1.158  -0.285  -0.854  0.00  0.00     0.051 A 
ATOM      5  C5  IND d   1       0.398  -1.306  -0.354  0.00  0.00    -0.031 A 
ATOM      6  C6  IND d   1      -0.977  -1.215  -0.266  0.00  0.00     0.015 A 
ATOM      7  C7  IND d   1      -1.646  -0.101  -0.687  0.00  0.00    -0.016 A 
ATOM      8  C8  IND d   1      -0.877   0.939  -1.189  0.00  0.00    -0.047 A 
ATOM      9  C9  IND d   1       0.522   0.870  -1.241  0.00  0.00    -0.096 A 
ATOM     10  HN1 IND d   1      -2.049   2.474  -1.728  0.00  0.00     0.298 HD
ENDROOT
TORSDOF 0
ENDMDL
