MODEL 1
REMARK minimizedAffinity -3.11749411
REMARK minimizedRMSD -1
REMARK  0 active torsions:
REMARK  status: ('A' for Active; 'I' for Inactive)
ROOT
ATOM      1  N1  IND d   1      -0.071   1.504   0.405  0.00  0.00    -0.196 N 
ATOM      2  C2  IND d   1      -1.218   0.830   0.720  0.00  0.00     0.054 A 
ATOM      3  C3  IND d   1      -1.123  -0.464   0.339  0.00  0.00    -0.031 A 
ATOM      4  C4  IND d   1       0.858  -1.714  -0.727  0.00  0.00     0.051 A 
ATOM      5  C5  IND d   1       2.110  -1.513  -1.237  0.00  0.00    -0.031 A 
ATOM      6  C6  IND d   1       2.712  -0.272  -1.223  0.00  0.00     0.015 A 
ATOM      7  C7  IND d   1       2.087   0.818  -0.686  0.00  0.00    -0.016 A 
ATOM      8  C8  IND d   1       0.812   0.619  -0.174  0.00  0.00    -0.047 A 
ATOM      9  C9  IND d   1       0.179  -0.630  -0.223  0.00  0.00    -0.096 A 
ATOM     10  HN1 IND d   1       0.074   2.340   0.544  0.00  0.00     0.298 HD
ENDROOT
TORSDOF 0
ENDMDL
