MODEL 1
REMARK minimizedAffinity -3.58836055
REMARK minimizedRMSD -1
REMARK  0 active torsions:
REMARK  status: ('A' for Active; 'I' for Inactive)
ROOT
ATOM      1  N1  IND d   1      -0.367   1.000   0.442  0.00  0.00    -0.196 N 
ATOM      2  C2  IND d   1      -1.481   0.260   0.724  0.00  0.00     0.054 A 
ATOM      3  C3  IND d   1      -1.353  -0.991   0.228  0.00  0.00    -0.031 A 
ATOM      4  C4  IND d   1       0.642  -2.071  -0.989  0.00  0.00     0.051 A 
ATOM      5  C5  IND d   1       1.873  -1.781  -1.508  0.00  0.00    -0.031 A 
ATOM      6  C6  IND d   1       2.432  -0.524  -1.399  0.00  0.00     0.015 A 
ATOM      7  C7  IND d   1       1.784   0.491  -0.754  0.00  0.00    -0.016 A 
ATOM      8  C8  IND d   1       0.531   0.202  -0.232  0.00  0.00    -0.047 A 
ATOM      9  C9  IND d   1      -0.060  -1.060  -0.377  0.00  0.00    -0.096 A 
ATOM     10  HN1 IND d   1      -0.247   1.826   0.651  0.00  0.00     0.298 HD
ENDROOT
TORSDOF 0
ENDMDL
