MODEL 1
REMARK minimizedAffinity -0.143078446
REMARK minimizedRMSD -1
REMARK  0 active torsions:
REMARK  status: ('A' for Active; 'I' for Inactive)
ROOT
ATOM      1  N1  IND d   1      -0.891   1.369   0.350  0.00  0.00    -0.196 N 
ATOM      2  C2  IND d   1      -1.131   0.218  -0.348  0.00  0.00     0.054 A 
ATOM      3  C3  IND d   1      -1.677  -0.717   0.461  0.00  0.00    -0.031 A 
ATOM      4  C4  IND d   1      -2.359  -0.542   2.937  0.00  0.00     0.051 A 
ATOM      5  C5  IND d   1      -2.304   0.300   4.013  0.00  0.00    -0.031 A 
ATOM      6  C6  IND d   1      -1.767   1.568   3.919  0.00  0.00     0.015 A 
ATOM      7  C7  IND d   1      -1.273   2.047   2.739  0.00  0.00    -0.016 A 
ATOM      8  C8  IND d   1      -1.321   1.193   1.647  0.00  0.00    -0.047 A 
ATOM      9  C9  IND d   1      -1.826  -0.110   1.746  0.00  0.00    -0.096 A 
ATOM     10  HN1 IND d   1      -0.533   2.083   0.032  0.00  0.00     0.298 HD
ENDROOT
TORSDOF 0
ENDMDL
