MODEL 1
REMARK minimizedAffinity -4.10565805
REMARK minimizedRMSD -1
REMARK  0 active torsions:
REMARK  status: ('A' for Active; 'I' for Inactive)
ROOT
ATOM      1  N1  IND d   1      -1.706  -0.224   0.884  0.00  0.00    -0.196 N 
ATOM      2  C2  IND d   1      -1.057  -1.325   1.369  0.00  0.00     0.054 A 
ATOM      3  C3  IND d   1       0.191  -1.401   0.855  0.00  0.00    -0.031 A 
ATOM      4  C4  IND d   1       1.412   0.227  -0.721  0.00  0.00     0.051 A 
ATOM      5  C5  IND d   1       1.217   1.358  -1.463  0.00  0.00    -0.031 A 
ATOM      6  C6  IND d   1       0.015   2.035  -1.459  0.00  0.00     0.015 A 
ATOM      7  C7  IND d   1      -1.039   1.610  -0.700  0.00  0.00    -0.016 A 
ATOM      8  C8  IND d   1      -0.847   0.458   0.050  0.00  0.00    -0.047 A 
ATOM      9  C9  IND d   1       0.357  -0.257   0.016  0.00  0.00    -0.096 A 
ATOM     10  HN1 IND d   1      -2.514   0.004   1.068  0.00  0.00     0.298 HD
ENDROOT
TORSDOF 0
ENDMDL
