MODEL 1
REMARK minimizedAffinity -0.274216354
REMARK minimizedRMSD -1
REMARK  0 active torsions:
REMARK  status: ('A' for Active; 'I' for Inactive)
ROOT
ATOM      1  N1  IND d   1      -0.218   1.139   1.157  0.00  0.00    -0.196 N 
ATOM      2  C2  IND d   1      -1.533   0.801   0.995  0.00  0.00     0.054 A 
ATOM      3  C3  IND d   1      -1.662  -0.143   0.036  0.00  0.00    -0.031 A 
ATOM      4  C4  IND d   1       0.160  -1.352  -1.323  0.00  0.00     0.051 A 
ATOM      5  C5  IND d   1       1.507  -1.358  -1.552  0.00  0.00    -0.031 A 
ATOM      6  C6  IND d   1       2.366  -0.517  -0.874  0.00  0.00     0.015 A 
ATOM      7  C7  IND d   1       1.908   0.357   0.071  0.00  0.00    -0.016 A 
ATOM      8  C8  IND d   1       0.540   0.371   0.301  0.00  0.00    -0.047 A 
ATOM      9  C9  IND d   1      -0.341  -0.450  -0.415  0.00  0.00    -0.096 A 
ATOM     10  HN1 IND d   1       0.084   1.731   1.703  0.00  0.00     0.298 HD
ENDROOT
TORSDOF 0
ENDMDL
