MODEL 1
REMARK minimizedAffinity -0.992625058
REMARK minimizedRMSD -1
REMARK  0 active torsions:
REMARK  status: ('A' for Active; 'I' for Inactive)
ROOT
ATOM      1  N1  IND d   1      -0.094   1.137   0.601  0.00  0.00    -0.196 N 
ATOM      2  C2  IND d   1      -0.342   0.030  -0.162  0.00  0.00     0.054 A 
ATOM      3  C3  IND d   1      -1.433  -0.623   0.297  0.00  0.00    -0.031 A 
ATOM      4  C4  IND d   1      -3.025   0.003   2.221  0.00  0.00     0.051 A 
ATOM      5  C5  IND d   1      -3.189   0.907   3.233  0.00  0.00    -0.031 A 
ATOM      6  C6  IND d   1      -2.313   1.957   3.421  0.00  0.00     0.015 A 
ATOM      7  C7  IND d   1      -1.243   2.149   2.594  0.00  0.00    -0.016 A 
ATOM      8  C8  IND d   1      -1.070   1.229   1.570  0.00  0.00    -0.047 A 
ATOM      9  C9  IND d   1      -1.930   0.137   1.400  0.00  0.00    -0.096 A 
ATOM     10  HN1 IND d   1       0.560   1.684   0.494  0.00  0.00     0.298 HD
ENDROOT
TORSDOF 0
ENDMDL
