MODEL 1
REMARK minimizedAffinity -3.432199
REMARK minimizedRMSD -1
REMARK  0 active torsions:
REMARK  status: ('A' for Active; 'I' for Inactive)
ROOT
ATOM      1  N1  IND d   1      -0.308   1.734  -1.314  0.00  0.00    -0.196 N 
ATOM      2  C2  IND d   1      -1.485   1.483  -0.665  0.00  0.00     0.054 A 
ATOM      3  C3  IND d   1      -1.429   0.288  -0.035  0.00  0.00    -0.031 A 
ATOM      4  C4  IND d   1       0.527  -1.375   0.149  0.00  0.00     0.051 A 
ATOM      5  C5  IND d   1       1.796  -1.600  -0.306  0.00  0.00    -0.031 A 
ATOM      6  C6  IND d   1       2.443  -0.706  -1.135  0.00  0.00     0.015 A 
ATOM      7  C7  IND d   1       1.846   0.457  -1.532  0.00  0.00    -0.016 A 
ATOM      8  C8  IND d   1       0.555   0.686  -1.078  0.00  0.00    -0.047 A 
ATOM      9  C9  IND d   1      -0.122  -0.238  -0.271  0.00  0.00    -0.096 A 
ATOM     10  HN1 IND d   1      -0.135   2.429  -1.790  0.00  0.00     0.298 HD
ENDROOT
TORSDOF 0
ENDMDL
