MODEL 1
REMARK minimizedAffinity 2.22551394
REMARK minimizedRMSD -1
REMARK  1 active torsions:
REMARK  status: ('A' for Active; 'I' for Inactive)
REMARK    1  A    between atoms: C1_2  and  C2_3 
ROOT
ATOM      1  C2  UNL d   1      -3.267   0.572   1.245  0.00  0.00    -0.076 A 
ATOM      2  C3  UNL d   1      -1.892   0.536   0.956  0.00  0.00     0.004 A 
ATOM      3  C4  UNL d   1      -1.314   1.472   0.099  0.00  0.00    -0.003 A 
ATOM      4  C5  UNL d   1      -2.103   2.458  -0.483  0.00  0.00     0.000 A 
ATOM      5  C6  UNL d   1      -3.466   2.519  -0.194  0.00  0.00     0.000 A 
ATOM      6  C7  UNL d   1      -4.061   1.594   0.681  0.00  0.00    -0.073 A 
ATOM      7  C8  UNL d   1      -5.536   1.702   0.952  0.00  0.00     0.078 C 
ENDROOT
BRANCH   1   8
ATOM      8  C1  UNL d   1      -3.843  -0.485   2.160  0.00  0.00     0.053 C 
ATOM      9  C   UNL d   1      -2.773  -1.198   2.972  0.00  0.00     0.018 C 
ENDBRANCH   1   8
TORSDOF 1
ENDMDL
