MODEL 1
REMARK minimizedAffinity 1.03687716
REMARK minimizedRMSD -1
REMARK  1 active torsions:
REMARK  status: ('A' for Active; 'I' for Inactive)
REMARK    1  A    between atoms: C1_2  and  C2_3 
ROOT
ATOM      1  C2  UNL d   1      -4.103   1.789   0.505  0.00  0.00    -0.076 A 
ATOM      2  C3  UNL d   1      -3.155   2.644  -0.085  0.00  0.00     0.004 A 
ATOM      3  C4  UNL d   1      -1.792   2.360  -0.015  0.00  0.00    -0.003 A 
ATOM      4  C5  UNL d   1      -1.355   1.217   0.644  0.00  0.00     0.000 A 
ATOM      5  C6  UNL d   1      -2.283   0.348   1.219  0.00  0.00     0.000 A 
ATOM      6  C7  UNL d   1      -3.661   0.611   1.144  0.00  0.00    -0.073 A 
ATOM      7  C8  UNL d   1      -4.617  -0.356   1.787  0.00  0.00     0.078 C 
ENDROOT
BRANCH   1   8
ATOM      8  C1  UNL d   1      -5.566   2.163   0.421  0.00  0.00     0.053 C 
ATOM      9  C   UNL d   1      -5.995   3.093   1.545  0.00  0.00     0.018 C 
ENDBRANCH   1   8
TORSDOF 1
ENDMDL
