MODEL 1
REMARK minimizedAffinity -2.40666413
REMARK minimizedRMSD -1
REMARK  1 active torsions:
REMARK  status: ('A' for Active; 'I' for Inactive)
REMARK    1  A    between atoms: C1_2  and  C2_3 
ROOT
ATOM      1  C2  UNL d   1      -2.973   1.699   0.362  0.00  0.00    -0.076 A 
ATOM      2  C3  UNL d   1      -2.929   0.454   1.014  0.00  0.00     0.004 A 
ATOM      3  C4  UNL d   1      -1.729  -0.241   1.152  0.00  0.00    -0.003 A 
ATOM      4  C5  UNL d   1      -0.553   0.297   0.642  0.00  0.00     0.000 A 
ATOM      5  C6  UNL d   1      -0.575   1.539   0.008  0.00  0.00     0.000 A 
ATOM      6  C7  UNL d   1      -1.774   2.261  -0.126  0.00  0.00    -0.073 A 
ATOM      7  C8  UNL d   1      -1.741   3.593  -0.824  0.00  0.00     0.078 C 
ENDROOT
BRANCH   1   8
ATOM      8  C1  UNL d   1      -4.308   2.394   0.218  0.00  0.00     0.053 C 
ATOM      9  C   UNL d   1      -5.436   1.638   0.902  0.00  0.00     0.018 C 
ENDBRANCH   1   8
TORSDOF 1
ENDMDL
