MODEL 1
REMARK minimizedAffinity 2.34689474
REMARK minimizedRMSD -1
REMARK  1 active torsions:
REMARK  status: ('A' for Active; 'I' for Inactive)
REMARK    1  A    between atoms: C1_2  and  C2_3 
ROOT
ATOM      1  C2  UNL d   1      -1.037   1.022   0.319  0.00  0.00    -0.076 A 
ATOM      2  C3  UNL d   1      -1.997   0.358   1.102  0.00  0.00     0.004 A 
ATOM      3  C4  UNL d   1      -1.616  -0.451   2.170  0.00  0.00    -0.003 A 
ATOM      4  C5  UNL d   1      -0.269  -0.609   2.474  0.00  0.00     0.000 A 
ATOM      5  C6  UNL d   1       0.697   0.056   1.719  0.00  0.00     0.000 A 
ATOM      6  C7  UNL d   1       0.329   0.889   0.649  0.00  0.00    -0.073 A 
ATOM      7  C8  UNL d   1       1.412   1.577  -0.136  0.00  0.00     0.078 C 
ENDROOT
BRANCH   1   8
ATOM      8  C1  UNL d   1      -1.508   1.865  -0.845  0.00  0.00     0.053 C 
ATOM      9  C   UNL d   1      -2.514   2.927  -0.426  0.00  0.00     0.018 C 
ENDBRANCH   1   8
TORSDOF 1
ENDMDL
