MODEL 1
REMARK minimizedAffinity 9.25198269
REMARK minimizedRMSD -1
REMARK  1 active torsions:
REMARK  status: ('A' for Active; 'I' for Inactive)
REMARK    1  A    between atoms: C1_2  and  C2_3 
ROOT
ATOM      1  C2  UNL d   1      -1.653   1.636   0.332  0.00  0.00    -0.076 A 
ATOM      2  C3  UNL d   1      -0.335   2.100   0.176  0.00  0.00     0.004 A 
ATOM      3  C4  UNL d   1       0.702   1.587   0.953  0.00  0.00    -0.003 A 
ATOM      4  C5  UNL d   1       0.439   0.602   1.898  0.00  0.00     0.000 A 
ATOM      5  C6  UNL d   1      -0.859   0.117   2.054  0.00  0.00     0.000 A 
ATOM      6  C7  UNL d   1      -1.914   0.612   1.267  0.00  0.00    -0.073 A 
ATOM      7  C8  UNL d   1      -3.296   0.058   1.482  0.00  0.00     0.078 C 
ENDROOT
BRANCH   1   8
ATOM      8  C1  UNL d   1      -2.742   2.249  -0.520  0.00  0.00     0.053 C 
ATOM      9  C   UNL d   1      -3.885   2.811   0.312  0.00  0.00     0.018 C 
ENDBRANCH   1   8
TORSDOF 1
ENDMDL
