MODEL 1
REMARK minimizedAffinity 6.44128323
REMARK minimizedRMSD -1
REMARK  1 active torsions:
REMARK  status: ('A' for Active; 'I' for Inactive)
REMARK    1  A    between atoms: C1_2  and  C2_3 
ROOT
ATOM      1  C2  UNL d   1      -2.447   0.918   0.953  0.00  0.00    -0.076 A 
ATOM      2  C3  UNL d   1      -2.259   1.870  -0.064  0.00  0.00     0.004 A 
ATOM      3  C4  UNL d   1      -1.063   2.578  -0.171  0.00  0.00    -0.003 A 
ATOM      4  C5  UNL d   1      -0.036   2.344   0.736  0.00  0.00     0.000 A 
ATOM      5  C6  UNL d   1      -0.198   1.390   1.740  0.00  0.00     0.000 A 
ATOM      6  C7  UNL d   1      -1.392   0.656   1.852  0.00  0.00    -0.073 A 
ATOM      7  C8  UNL d   1      -1.515  -0.356   2.958  0.00  0.00     0.078 C 
ENDROOT
BRANCH   1   8
ATOM      8  C1  UNL d   1      -3.776   0.200   1.036  0.00  0.00     0.053 C 
ATOM      9  C   UNL d   1      -4.956   1.131   0.806  0.00  0.00     0.018 C 
ENDBRANCH   1   8
TORSDOF 1
ENDMDL
