MODEL 1
REMARK minimizedAffinity -0.231801435
REMARK minimizedRMSD -1
REMARK  1 active torsions:
REMARK  status: ('A' for Active; 'I' for Inactive)
REMARK    1  A    between atoms: C1_2  and  C2_3 
ROOT
ATOM      1  C2  UNL d   1      -1.533   1.232   0.482  0.00  0.00    -0.076 A 
ATOM      2  C3  UNL d   1      -2.486   0.250   0.802  0.00  0.00     0.004 A 
ATOM      3  C4  UNL d   1      -3.836   0.574   0.929  0.00  0.00    -0.003 A 
ATOM      4  C5  UNL d   1      -4.254   1.887   0.739  0.00  0.00     0.000 A 
ATOM      5  C6  UNL d   1      -3.324   2.871   0.404  0.00  0.00     0.000 A 
ATOM      6  C7  UNL d   1      -1.962   2.557   0.256  0.00  0.00    -0.073 A 
ATOM      7  C8  UNL d   1      -1.003   3.659  -0.101  0.00  0.00     0.078 C 
ENDROOT
BRANCH   1   8
ATOM      8  C1  UNL d   1      -0.080   0.826   0.384  0.00  0.00     0.053 C 
ATOM      9  C   UNL d   1       0.432   0.178   1.661  0.00  0.00     0.018 C 
ENDBRANCH   1   8
TORSDOF 1
ENDMDL
