MODEL 1
REMARK minimizedAffinity -1.14120662
REMARK minimizedRMSD -1
REMARK  1 active torsions:
REMARK  status: ('A' for Active; 'I' for Inactive)
REMARK    1  A    between atoms: C1_2  and  C2_3 
ROOT
ATOM      1  C2  UNL d   1      -2.053   1.767   0.319  0.00  0.00    -0.076 A 
ATOM      2  C3  UNL d   1      -0.810   2.109  -0.240  0.00  0.00     0.004 A 
ATOM      3  C4  UNL d   1       0.338   1.379   0.064  0.00  0.00    -0.003 A 
ATOM      4  C5  UNL d   1       0.261   0.295   0.931  0.00  0.00     0.000 A 
ATOM      5  C6  UNL d   1      -0.968  -0.069   1.481  0.00  0.00     0.000 A 
ATOM      6  C7  UNL d   1      -2.137   0.646   1.173  0.00  0.00    -0.073 A 
ATOM      7  C8  UNL d   1      -3.435   0.214   1.799  0.00  0.00     0.078 C 
ENDROOT
BRANCH   1   8
ATOM      8  C1  UNL d   1      -3.259   2.612  -0.026  0.00  0.00     0.053 C 
ATOM      9  C   UNL d   1      -4.440   2.346   0.895  0.00  0.00     0.018 C 
ENDBRANCH   1   8
TORSDOF 1
ENDMDL
