MODEL 1
REMARK minimizedAffinity -3.32015872
REMARK minimizedRMSD -1
REMARK  1 active torsions:
REMARK  status: ('A' for Active; 'I' for Inactive)
REMARK    1  A    between atoms: C1_2  and  C2_3 
ROOT
ATOM      1  C2  UNL d   1      -1.264   1.184   0.738  0.00  0.00    -0.076 A 
ATOM      2  C3  UNL d   1      -2.598   0.969   1.125  0.00  0.00     0.004 A 
ATOM      3  C4  UNL d   1      -3.648   1.604   0.465  0.00  0.00    -0.003 A 
ATOM      4  C5  UNL d   1      -3.381   2.464  -0.595  0.00  0.00     0.000 A 
ATOM      5  C6  UNL d   1      -2.065   2.675  -1.004  0.00  0.00     0.000 A 
ATOM      6  C7  UNL d   1      -0.996   2.030  -0.359  0.00  0.00    -0.073 A 
ATOM      7  C8  UNL d   1       0.405   2.299  -0.837  0.00  0.00     0.078 C 
ENDROOT
BRANCH   1   8
ATOM      8  C1  UNL d   1      -0.165   0.488   1.510  0.00  0.00     0.053 C 
ATOM      9  C   UNL d   1       0.289   1.285   2.723  0.00  0.00     0.018 C 
ENDBRANCH   1   8
TORSDOF 1
ENDMDL
