MODEL 1
REMARK minimizedAffinity -2.96965909
REMARK minimizedRMSD -1
REMARK  1 active torsions:
REMARK  status: ('A' for Active; 'I' for Inactive)
REMARK    1  A    between atoms: C1_2  and  C2_3 
ROOT
ATOM      1  C2  UNL d   1      -2.216   1.532  -0.007  0.00  0.00    -0.076 A 
ATOM      2  C3  UNL d   1      -2.144   0.427   0.859  0.00  0.00     0.004 A 
ATOM      3  C4  UNL d   1      -0.915  -0.048   1.315  0.00  0.00    -0.003 A 
ATOM      4  C5  UNL d   1       0.261   0.575   0.913  0.00  0.00     0.000 A 
ATOM      5  C6  UNL d   1       0.207   1.683   0.068  0.00  0.00     0.000 A 
ATOM      6  C7  UNL d   1      -1.024   2.184  -0.388  0.00  0.00    -0.073 A 
ATOM      7  C8  UNL d   1      -1.023   3.378  -1.303  0.00  0.00     0.078 C 
ENDROOT
BRANCH   1   8
ATOM      8  C1  UNL d   1      -3.575   1.986  -0.490  0.00  0.00     0.053 C 
ATOM      9  C   UNL d   1      -4.660   1.793   0.557  0.00  0.00     0.018 C 
ENDBRANCH   1   8
TORSDOF 1
ENDMDL
