MODEL 1
REMARK minimizedAffinity 2.84456992
REMARK minimizedRMSD -1
REMARK  1 active torsions:
REMARK  status: ('A' for Active; 'I' for Inactive)
REMARK    1  A    between atoms: C1_2  and  C2_3 
ROOT
ATOM      1  C2  UNL d   1      -3.350   1.718   0.554  0.00  0.00    -0.076 A 
ATOM      2  C3  UNL d   1      -2.994   2.793  -0.278  0.00  0.00     0.004 A 
ATOM      3  C4  UNL d   1      -1.681   2.957  -0.716  0.00  0.00    -0.003 A 
ATOM      4  C5  UNL d   1      -0.702   2.049  -0.329  0.00  0.00     0.000 A 
ATOM      5  C6  UNL d   1      -1.041   0.966   0.482  0.00  0.00     0.000 A 
ATOM      6  C7  UNL d   1      -2.363   0.777   0.919  0.00  0.00    -0.073 A 
ATOM      7  C8  UNL d   1      -2.671  -0.405   1.798  0.00  0.00     0.078 C 
ENDROOT
BRANCH   1   8
ATOM      8  C1  UNL d   1      -4.784   1.606   1.020  0.00  0.00     0.053 C 
ATOM      9  C   UNL d   1      -5.643   2.766   0.543  0.00  0.00     0.018 C 
ENDBRANCH   1   8
TORSDOF 1
ENDMDL
