MODEL 1
REMARK minimizedAffinity 3.96492386
REMARK minimizedRMSD -1
REMARK  0 active torsions:
REMARK  status: ('A' for Active; 'I' for Inactive)
ROOT
ATOM      1  N1  IND d   1      -1.281  -0.675   1.460  0.00  0.00    -0.196 N 
ATOM      2  C2  IND d   1      -1.710   0.537   1.924  0.00  0.00     0.054 A 
ATOM      3  C3  IND d   1      -2.425   0.379   3.061  0.00  0.00    -0.031 A 
ATOM      4  C4  IND d   1      -2.928  -1.766   4.392  0.00  0.00     0.051 A 
ATOM      5  C5  IND d   1      -2.778  -3.124   4.344  0.00  0.00    -0.031 A 
ATOM      6  C6  IND d   1      -2.105  -3.747   3.313  0.00  0.00     0.015 A 
ATOM      7  C7  IND d   1      -1.544  -3.031   2.293  0.00  0.00    -0.016 A 
ATOM      8  C8  IND d   1      -1.701  -1.653   2.334  0.00  0.00    -0.047 A 
ATOM      9  C9  IND d   1      -2.420  -1.018   3.356  0.00  0.00    -0.096 A 
ATOM     10  HN1 IND d   1      -0.824  -0.804   0.743  0.00  0.00     0.298 HD
ENDROOT
TORSDOF 0
ENDMDL
