MODEL 1
REMARK minimizedAffinity 4.47946119
REMARK minimizedRMSD -1
REMARK  0 active torsions:
REMARK  status: ('A' for Active; 'I' for Inactive)
ROOT
ATOM      1  N1  IND d   1      -0.650   5.968  -5.840  0.00  0.00    -0.196 N 
ATOM      2  C2  IND d   1       0.708   5.971  -5.999  0.00  0.00     0.054 A 
ATOM      3  C3  IND d   1       1.322   5.999  -4.795  0.00  0.00    -0.031 A 
ATOM      4  C4  IND d   1       0.297   5.941  -2.434  0.00  0.00     0.051 A 
ATOM      5  C5  IND d   1      -0.902   5.971  -1.779  0.00  0.00    -0.031 A 
ATOM      6  C6  IND d   1      -2.103   5.999  -2.458  0.00  0.00     0.015 A 
ATOM      7  C7  IND d   1      -2.149   5.987  -3.823  0.00  0.00    -0.016 A 
ATOM      8  C8  IND d   1      -0.934   5.964  -4.492  0.00  0.00    -0.047 A 
ATOM      9  C9  IND d   1       0.289   5.978  -3.808  0.00  0.00    -0.096 A 
ATOM     10  HN1 IND d   1      -1.229   5.969  -6.475  0.00  0.00     0.298 HD
ENDROOT
TORSDOF 0
ENDMDL
