MODEL 1
REMARK minimizedAffinity 6.49405336
REMARK minimizedRMSD -1
REMARK  0 active torsions:
REMARK  status: ('A' for Active; 'I' for Inactive)
ROOT
ATOM      1  N1  IND d   1       0.788   3.938  -5.097  0.00  0.00    -0.196 N 
ATOM      2  C2  IND d   1       0.191   4.985  -5.743  0.00  0.00     0.054 A 
ATOM      3  C3  IND d   1       1.095   5.957  -5.997  0.00  0.00    -0.031 A 
ATOM      4  C4  IND d   1       3.627   5.999  -5.534  0.00  0.00     0.051 A 
ATOM      5  C5  IND d   1       4.623   5.285  -4.929  0.00  0.00    -0.031 A 
ATOM      6  C6  IND d   1       4.388   4.059  -4.340  0.00  0.00     0.015 A 
ATOM      7  C7  IND d   1       3.144   3.494  -4.344  0.00  0.00    -0.016 A 
ATOM      8  C8  IND d   1       2.128   4.220  -4.951  0.00  0.00    -0.047 A 
ATOM      9  C9  IND d   1       2.353   5.483  -5.513  0.00  0.00    -0.096 A 
ATOM     10  HN1 IND d   1       0.393   3.223  -4.828  0.00  0.00     0.298 HD
ENDROOT
TORSDOF 0
ENDMDL
