MODEL 1
REMARK minimizedAffinity -0.532862484
REMARK minimizedRMSD -1
REMARK  0 active torsions:
REMARK  status: ('A' for Active; 'I' for Inactive)
ROOT
ATOM      1  N1  IND d   1      -0.802   5.974  -5.280  0.00  0.00    -0.196 N 
ATOM      2  C2  IND d   1       0.465   5.976  -4.769  0.00  0.00     0.054 A 
ATOM      3  C3  IND d   1       0.428   6.000  -3.418  0.00  0.00    -0.031 A 
ATOM      4  C4  IND d   1      -1.603   5.937  -1.837  0.00  0.00     0.051 A 
ATOM      5  C5  IND d   1      -2.970   5.967  -1.837  0.00  0.00    -0.031 A 
ATOM      6  C6  IND d   1      -3.698   5.998  -3.008  0.00  0.00     0.015 A 
ATOM      7  C7  IND d   1      -3.085   5.990  -4.229  0.00  0.00    -0.016 A 
ATOM      8  C8  IND d   1      -1.697   5.967  -4.233  0.00  0.00    -0.047 A 
ATOM      9  C9  IND d   1      -0.952   5.977  -3.047  0.00  0.00    -0.096 A 
ATOM     10  HN1 IND d   1      -1.007   5.977  -6.115  0.00  0.00     0.298 HD
ENDROOT
TORSDOF 0
ENDMDL
