MODEL 1
REMARK minimizedAffinity -0.245435566
REMARK minimizedRMSD -1
REMARK  0 active torsions:
REMARK  status: ('A' for Active; 'I' for Inactive)
ROOT
ATOM      1  N1  IND d   1      -3.300   5.995  -2.219  0.00  0.00    -0.196 N 
ATOM      2  C2  IND d   1      -4.441   5.991  -2.973  0.00  0.00     0.054 A 
ATOM      3  C3  IND d   1      -4.135   6.000  -4.289  0.00  0.00    -0.031 A 
ATOM      4  C4  IND d   1      -1.829   5.919  -5.433  0.00  0.00     0.051 A 
ATOM      5  C5  IND d   1      -0.490   5.949  -5.161  0.00  0.00    -0.031 A 
ATOM      6  C6  IND d   1      -0.010   5.994  -3.868  0.00  0.00     0.015 A 
ATOM      7  C7  IND d   1      -0.854   5.999  -2.794  0.00  0.00    -0.016 A 
ATOM      8  C8  IND d   1      -2.215   5.976  -3.067  0.00  0.00    -0.047 A 
ATOM      9  C9  IND d   1      -2.709   5.974  -4.378  0.00  0.00    -0.096 A 
ATOM     10  HN1 IND d   1      -3.267   6.007  -1.360  0.00  0.00     0.298 HD
ENDROOT
TORSDOF 0
ENDMDL
