MODEL 1
REMARK minimizedAffinity 2.42201805
REMARK minimizedRMSD -1
REMARK  0 active torsions:
REMARK  status: ('A' for Active; 'I' for Inactive)
ROOT
ATOM      1  N1  IND d   1       1.449   5.914  -3.902  0.00  0.00    -0.196 N 
ATOM      2  C2  IND d   1       1.554   5.901  -5.265  0.00  0.00     0.054 A 
ATOM      3  C3  IND d   1       0.326   5.890  -5.831  0.00  0.00    -0.031 A 
ATOM      4  C4  IND d   1      -1.991   5.992  -4.713  0.00  0.00     0.051 A 
ATOM      5  C5  IND d   1      -2.598   5.979  -3.489  0.00  0.00    -0.031 A 
ATOM      6  C6  IND d   1      -1.872   5.946  -2.316  0.00  0.00     0.015 A 
ATOM      7  C7  IND d   1      -0.506   5.936  -2.323  0.00  0.00    -0.016 A 
ATOM      8  C8  IND d   1       0.114   5.942  -3.565  0.00  0.00    -0.047 A 
ATOM      9  C9  IND d   1      -0.618   5.933  -4.760  0.00  0.00    -0.096 A 
ATOM     10  HN1 IND d   1       2.107   5.906  -3.349  0.00  0.00     0.298 HD
ENDROOT
TORSDOF 0
ENDMDL
