MODEL 1
REMARK minimizedAffinity -0.435916156
REMARK minimizedRMSD -1
REMARK  0 active torsions:
REMARK  status: ('A' for Active; 'I' for Inactive)
ROOT
ATOM      1  N1  IND d   1      -1.176   5.960  -5.219  0.00  0.00    -0.196 N 
ATOM      2  C2  IND d   1       0.055   5.965  -4.625  0.00  0.00     0.054 A 
ATOM      3  C3  IND d   1      -0.072   5.999  -3.280  0.00  0.00    -0.031 A 
ATOM      4  C4  IND d   1      -2.203   5.946  -1.836  0.00  0.00     0.051 A 
ATOM      5  C5  IND d   1      -3.566   5.975  -1.927  0.00  0.00    -0.031 A 
ATOM      6  C6  IND d   1      -4.216   5.998  -3.144  0.00  0.00     0.015 A 
ATOM      7  C7  IND d   1      -3.523   5.982  -4.322  0.00  0.00    -0.016 A 
ATOM      8  C8  IND d   1      -2.138   5.959  -4.234  0.00  0.00    -0.047 A 
ATOM      9  C9  IND d   1      -1.473   5.978  -3.001  0.00  0.00    -0.096 A 
ATOM     10  HN1 IND d   1      -1.324   5.957  -6.066  0.00  0.00     0.298 HD
ENDROOT
TORSDOF 0
ENDMDL
