MODEL 1
REMARK minimizedAffinity -3.65920997
REMARK minimizedRMSD -1
REMARK  0 active torsions:
REMARK  status: ('A' for Active; 'I' for Inactive)
ROOT
ATOM      1  N1  IND d   1       2.358   0.392   3.168  0.00  0.00    -0.196 N 
ATOM      2  C2  IND d   1       3.514   0.756   2.536  0.00  0.00     0.054 A 
ATOM      3  C3  IND d   1       3.241   1.284   1.322  0.00  0.00    -0.031 A 
ATOM      4  C4  IND d   1       0.963   1.739   0.212  0.00  0.00     0.051 A 
ATOM      5  C5  IND d   1      -0.379   1.544   0.387  0.00  0.00    -0.031 A 
ATOM      6  C6  IND d   1      -0.887   0.945   1.522  0.00  0.00     0.015 A 
ATOM      7  C7  IND d   1      -0.069   0.528   2.534  0.00  0.00    -0.016 A 
ATOM      8  C8  IND d   1       1.294   0.718   2.357  0.00  0.00    -0.047 A 
ATOM      9  C9  IND d   1       1.818   1.286   1.189  0.00  0.00    -0.096 A 
ATOM     10  HN1 IND d   1       2.305   0.022   3.943  0.00  0.00     0.298 HD
ENDROOT
TORSDOF 0
ENDMDL
