MODEL 1
REMARK minimizedAffinity 4.02456379
REMARK minimizedRMSD -1
REMARK  0 active torsions:
REMARK  status: ('A' for Active; 'I' for Inactive)
ROOT
ATOM      1  N1  IND d   1      -3.346   6.000  -3.358  0.00  0.00    -0.196 N 
ATOM      2  C2  IND d   1      -3.627   5.964  -2.020  0.00  0.00     0.054 A 
ATOM      3  C3  IND d   1      -2.483   5.909  -1.301  0.00  0.00    -0.031 A 
ATOM      4  C4  IND d   1      -0.039   5.969  -2.108  0.00  0.00     0.051 A 
ATOM      5  C5  IND d   1       0.721   5.963  -3.244  0.00  0.00    -0.031 A 
ATOM      6  C6  IND d   1       0.153   5.971  -4.501  0.00  0.00     0.015 A 
ATOM      7  C7  IND d   1      -1.203   5.998  -4.670  0.00  0.00    -0.016 A 
ATOM      8  C8  IND d   1      -1.978   5.998  -3.519  0.00  0.00    -0.047 A 
ATOM      9  C9  IND d   1      -1.407   5.946  -2.240  0.00  0.00    -0.096 A 
ATOM     10  HN1 IND d   1      -3.926   6.020  -3.992  0.00  0.00     0.298 HD
ENDROOT
TORSDOF 0
ENDMDL
