MODEL 1
REMARK minimizedAffinity -2.41552234
REMARK minimizedRMSD -1
REMARK  0 active torsions:
REMARK  status: ('A' for Active; 'I' for Inactive)
ROOT
ATOM      1  N1  IND d   1       0.461   5.995  -4.057  0.00  0.00    -0.196 N 
ATOM      2  C2  IND d   1       0.538   5.976  -5.422  0.00  0.00     0.054 A 
ATOM      3  C3  IND d   1      -0.701   5.937  -5.962  0.00  0.00    -0.031 A 
ATOM      4  C4  IND d   1      -2.996   6.000  -4.797  0.00  0.00     0.051 A 
ATOM      5  C5  IND d   1      -3.577   5.982  -3.560  0.00  0.00    -0.031 A 
ATOM      6  C6  IND d   1      -2.827   5.970  -2.402  0.00  0.00     0.015 A 
ATOM      7  C7  IND d   1      -1.461   5.987  -2.438  0.00  0.00    -0.016 A 
ATOM      8  C8  IND d   1      -0.868   5.998  -3.692  0.00  0.00    -0.047 A 
ATOM      9  C9  IND d   1      -1.624   5.967  -4.871  0.00  0.00    -0.096 A 
ATOM     10  HN1 IND d   1       1.130   6.003  -3.517  0.00  0.00     0.298 HD
ENDROOT
TORSDOF 0
ENDMDL
