MODEL 1
REMARK minimizedAffinity 0.46293205
REMARK minimizedRMSD -1
REMARK  0 active torsions:
REMARK  status: ('A' for Active; 'I' for Inactive)
ROOT
ATOM      1  N1  IND d   1      -1.932   5.987  -2.556  0.00  0.00    -0.196 N 
ATOM      2  C2  IND d   1      -3.199   5.975  -3.069  0.00  0.00     0.054 A 
ATOM      3  C3  IND d   1      -3.159   5.978  -4.421  0.00  0.00    -0.031 A 
ATOM      4  C4  IND d   1      -1.125   5.900  -5.997  0.00  0.00     0.051 A 
ATOM      5  C5  IND d   1       0.241   5.936  -5.995  0.00  0.00    -0.031 A 
ATOM      6  C6  IND d   1       0.968   5.990  -4.823  0.00  0.00     0.015 A 
ATOM      7  C7  IND d   1       0.352   5.997  -3.604  0.00  0.00    -0.016 A 
ATOM      8  C8  IND d   1      -1.035   5.968  -3.602  0.00  0.00    -0.047 A 
ATOM      9  C9  IND d   1      -1.779   5.957  -4.789  0.00  0.00    -0.096 A 
ATOM     10  HN1 IND d   1      -1.729   6.004  -1.721  0.00  0.00     0.298 HD
ENDROOT
TORSDOF 0
ENDMDL
