MODEL 1
REMARK minimizedAffinity 10.0504322
REMARK minimizedRMSD -1
REMARK  0 active torsions:
REMARK  status: ('A' for Active; 'I' for Inactive)
ROOT
ATOM      1  N1  IND d   1      -2.791  -2.346  -4.253  0.00  0.00    -0.196 N 
ATOM      2  C2  IND d   1      -1.865  -1.398  -4.585  0.00  0.00     0.054 A 
ATOM      3  C3  IND d   1      -1.715  -0.512  -3.574  0.00  0.00    -0.031 A 
ATOM      4  C4  IND d   1      -2.814  -0.486  -1.247  0.00  0.00     0.051 A 
ATOM      5  C5  IND d   1      -3.757  -1.127  -0.493  0.00  0.00    -0.031 A 
ATOM      6  C6  IND d   1      -4.438  -2.231  -0.963  0.00  0.00     0.015 A 
ATOM      7  C7  IND d   1      -4.192  -2.745  -2.205  0.00  0.00    -0.016 A 
ATOM      8  C8  IND d   1      -3.240  -2.092  -2.975  0.00  0.00    -0.047 A 
ATOM      9  C9  IND d   1      -2.576  -0.945  -2.520  0.00  0.00    -0.096 A 
ATOM     10  HN1 IND d   1      -3.050  -2.993  -4.757  0.00  0.00     0.298 HD
ENDROOT
TORSDOF 0
ENDMDL
