MODEL 1
REMARK minimizedAffinity -2.17273402
REMARK minimizedRMSD -1
REMARK  0 active torsions:
REMARK  status: ('A' for Active; 'I' for Inactive)
ROOT
ATOM      1  N1  IND d   1      -0.735   5.830  -5.999  0.00  0.00    -0.196 N 
ATOM      2  C2  IND d   1       0.624   5.880  -5.864  0.00  0.00     0.054 A 
ATOM      3  C3  IND d   1       0.964   5.984  -4.560  0.00  0.00    -0.031 A 
ATOM      4  C4  IND d   1      -0.543   5.988  -2.473  0.00  0.00     0.051 A 
ATOM      5  C5  IND d   1      -1.856   5.999  -2.092  0.00  0.00    -0.031 A 
ATOM      6  C6  IND d   1      -2.883   5.951  -3.013  0.00  0.00     0.015 A 
ATOM      7  C7  IND d   1      -2.634   5.878  -4.354  0.00  0.00    -0.016 A 
ATOM      8  C8  IND d   1      -1.302   5.873  -4.745  0.00  0.00    -0.047 A 
ATOM      9  C9  IND d   1      -0.256   5.965  -3.817  0.00  0.00    -0.096 A 
ATOM     10  HN1 IND d   1      -1.164   5.781  -6.743  0.00  0.00     0.298 HD
ENDROOT
TORSDOF 0
ENDMDL
