MODEL 1
REMARK minimizedAffinity 3.6561048
REMARK minimizedRMSD -1
REMARK  0 active torsions:
REMARK  status: ('A' for Active; 'I' for Inactive)
ROOT
ATOM      1  N1  IND d   1       0.364   6.000  -2.753  0.00  0.00    -0.196 N 
ATOM      2  C2  IND d   1       0.519   5.978  -4.110  0.00  0.00     0.054 A 
ATOM      3  C3  IND d   1      -0.686   5.929  -4.721  0.00  0.00    -0.031 A 
ATOM      4  C4  IND d   1      -3.045   5.982  -3.692  0.00  0.00     0.051 A 
ATOM      5  C5  IND d   1      -3.696   5.964  -2.491  0.00  0.00    -0.031 A 
ATOM      6  C6  IND d   1      -3.014   5.960  -1.291  0.00  0.00     0.015 A 
ATOM      7  C7  IND d   1      -1.649   5.985  -1.248  0.00  0.00    -0.016 A 
ATOM      8  C8  IND d   1      -0.984   5.996  -2.466  0.00  0.00    -0.047 A 
ATOM      9  C9  IND d   1      -1.670   5.957  -3.686  0.00  0.00    -0.096 A 
ATOM     10  HN1 IND d   1       1.000   6.014  -2.175  0.00  0.00     0.298 HD
ENDROOT
TORSDOF 0
ENDMDL
