MODEL 1
REMARK minimizedAffinity 5.56722164
REMARK minimizedRMSD -1
REMARK  0 active torsions:
REMARK  status: ('A' for Active; 'I' for Inactive)
ROOT
ATOM      1  N1  IND d   1      -3.447  -1.819  -4.614  0.00  0.00    -0.196 N 
ATOM      2  C2  IND d   1      -2.295  -1.087  -4.687  0.00  0.00     0.054 A 
ATOM      3  C3  IND d   1      -1.859  -0.772  -3.446  0.00  0.00    -0.031 A 
ATOM      4  C4  IND d   1      -2.823  -1.439  -1.155  0.00  0.00     0.051 A 
ATOM      5  C5  IND d   1      -3.887  -2.074  -0.577  0.00  0.00    -0.031 A 
ATOM      6  C6  IND d   1      -4.877  -2.671  -1.331  0.00  0.00     0.015 A 
ATOM      7  C7  IND d   1      -4.834  -2.665  -2.696  0.00  0.00    -0.016 A 
ATOM      8  C8  IND d   1      -3.759  -2.015  -3.286  0.00  0.00    -0.047 A 
ATOM      9  C9  IND d   1      -2.774  -1.371  -2.527  0.00  0.00    -0.096 A 
ATOM     10  HN1 IND d   1      -3.901  -2.109  -5.284  0.00  0.00     0.298 HD
ENDROOT
TORSDOF 0
ENDMDL
