MODEL 1
REMARK minimizedAffinity -1.5454123
REMARK minimizedRMSD -1
REMARK  0 active torsions:
REMARK  status: ('A' for Active; 'I' for Inactive)
ROOT
ATOM      1  N1  IND d   1       4.380   5.719  -5.835  0.00  0.00    -0.196 N 
ATOM      2  C2  IND d   1       5.245   5.622  -4.781  0.00  0.00     0.054 A 
ATOM      3  C3  IND d   1       4.568   5.661  -3.612  0.00  0.00    -0.031 A 
ATOM      4  C4  IND d   1       2.031   5.778  -3.193  0.00  0.00     0.051 A 
ATOM      5  C5  IND d   1       0.837   5.920  -3.844  0.00  0.00    -0.031 A 
ATOM      6  C6  IND d   1       0.762   6.000  -5.219  0.00  0.00     0.015 A 
ATOM      7  C7  IND d   1       1.881   5.930  -6.000  0.00  0.00    -0.016 A 
ATOM      8  C8  IND d   1       3.096   5.794  -5.342  0.00  0.00    -0.047 A 
ATOM      9  C9  IND d   1       3.182   5.755  -3.944  0.00  0.00    -0.096 A 
ATOM     10  HN1 IND d   1       4.600   5.731  -6.666  0.00  0.00     0.298 HD
ENDROOT
TORSDOF 0
ENDMDL
