MODEL 1
REMARK minimizedAffinity 9.84517574
REMARK minimizedRMSD -1
REMARK  2 active torsions:
REMARK  status: ('A' for Active; 'I' for Inactive)
REMARK    1  A    between atoms: C1_2  and  C2_3 
REMARK    2  A    between atoms: C2_3  and  C3_4 
ROOT
ATOM      1  C3  UNL d   1      -0.970  -1.104   2.059  0.00  0.00    -0.075 A 
ATOM      2  C4  UNL d   1      -1.826  -0.835   0.981  0.00  0.00     0.002 A 
ATOM      3  C5  UNL d   1      -2.846   0.109   1.104  0.00  0.00     0.002 A 
ATOM      4  C6  UNL d   1      -3.031   0.786   2.308  0.00  0.00    -0.004 A 
ATOM      5  C7  UNL d   1      -2.198   0.514   3.391  0.00  0.00     0.002 A 
ATOM      6  C8  UNL d   1      -1.173  -0.426   3.269  0.00  0.00     0.002 A 
ENDROOT
BRANCH   1   7
ATOM      7  C2  UNL d   1       0.154  -2.102   1.923  0.00  0.00     0.056 C 
BRANCH   7   8
ATOM      8  C1  UNL d   1       1.227  -1.985   3.011  0.00  0.00     0.007 C 
ATOM      9  C   UNL d   1       1.100  -3.047   4.095  0.00  0.00     0.009 C 
ENDBRANCH   7   8
ENDBRANCH   1   7
TORSDOF 2
ENDMDL
