MODEL 1
REMARK minimizedAffinity 10.3218031
REMARK minimizedRMSD -1
REMARK  2 active torsions:
REMARK  status: ('A' for Active; 'I' for Inactive)
REMARK    1  A    between atoms: C1_2  and  C2_3 
REMARK    2  A    between atoms: C2_3  and  C3_4 
ROOT
ATOM      1  C3  UNL d   1      -0.839  -0.924   1.471  0.00  0.00    -0.075 A 
ATOM      2  C4  UNL d   1      -1.470  -2.038   0.897  0.00  0.00     0.002 A 
ATOM      3  C5  UNL d   1      -2.787  -1.950   0.444  0.00  0.00     0.002 A 
ATOM      4  C6  UNL d   1      -3.491  -0.755   0.568  0.00  0.00    -0.004 A 
ATOM      5  C7  UNL d   1      -2.880   0.353   1.151  0.00  0.00     0.002 A 
ATOM      6  C8  UNL d   1      -1.561   0.269   1.601  0.00  0.00     0.002 A 
ENDROOT
BRANCH   1   7
ATOM      7  C2  UNL d   1       0.596  -1.004   1.936  0.00  0.00     0.056 C 
BRANCH   7   8
ATOM      8  C1  UNL d   1       1.077  -2.428   2.231  0.00  0.00     0.007 C 
ATOM      9  C   UNL d   1       1.810  -2.551   3.561  0.00  0.00     0.009 C 
ENDBRANCH   7   8
ENDBRANCH   1   7
TORSDOF 2
ENDMDL
