MODEL 1
REMARK minimizedAffinity 13.2542562
REMARK minimizedRMSD -1
REMARK  2 active torsions:
REMARK  status: ('A' for Active; 'I' for Inactive)
REMARK    1  A    between atoms: C1_2  and  C2_3 
REMARK    2  A    between atoms: C2_3  and  C3_4 
ROOT
ATOM      1  C3  UNL d   1      -0.269  -0.988   2.326  0.00  0.00    -0.075 A 
ATOM      2  C4  UNL d   1      -0.835  -1.753   1.296  0.00  0.00     0.002 A 
ATOM      3  C5  UNL d   1      -2.123  -1.479   0.836  0.00  0.00     0.002 A 
ATOM      4  C6  UNL d   1      -2.864  -0.446   1.406  0.00  0.00    -0.004 A 
ATOM      5  C7  UNL d   1      -2.318   0.310   2.441  0.00  0.00     0.002 A 
ATOM      6  C8  UNL d   1      -1.027   0.040   2.900  0.00  0.00     0.002 A 
ENDROOT
BRANCH   1   7
ATOM      7  C2  UNL d   1       1.136  -1.261   2.808  0.00  0.00     0.056 C 
BRANCH   7   8
ATOM      8  C1  UNL d   1       1.470  -2.750   2.945  0.00  0.00     0.007 C 
ATOM      9  C   UNL d   1       1.666  -3.191   4.389  0.00  0.00     0.009 C 
ENDBRANCH   7   8
ENDBRANCH   1   7
TORSDOF 2
ENDMDL
