MODEL 1
REMARK minimizedAffinity 10.8446589
REMARK minimizedRMSD -1
REMARK  2 active torsions:
REMARK  status: ('A' for Active; 'I' for Inactive)
REMARK    1  A    between atoms: C1_2  and  C2_3 
REMARK    2  A    between atoms: C2_3  and  C3_4 
ROOT
ATOM      1  C3  UNL d   1       3.241   1.622  -1.555  0.00  0.00    -0.075 A 
ATOM      2  C4  UNL d   1       4.214   2.568  -1.909  0.00  0.00     0.002 A 
ATOM      3  C5  UNL d   1       4.021   3.404  -3.010  0.00  0.00     0.002 A 
ATOM      4  C6  UNL d   1       2.861   3.298  -3.774  0.00  0.00    -0.004 A 
ATOM      5  C7  UNL d   1       1.896   2.351  -3.440  0.00  0.00     0.002 A 
ATOM      6  C8  UNL d   1       2.084   1.516  -2.337  0.00  0.00     0.002 A 
ENDROOT
BRANCH   1   7
ATOM      7  C2  UNL d   1       3.430   0.735  -0.348  0.00  0.00     0.056 C 
BRANCH   7   8
ATOM      8  C1  UNL d   1       2.432   1.000   0.784  0.00  0.00     0.007 C 
ATOM      9  C   UNL d   1       1.865  -0.275   1.395  0.00  0.00     0.009 C 
ENDBRANCH   7   8
ENDBRANCH   1   7
TORSDOF 2
ENDMDL
