MODEL 1
REMARK minimizedAffinity 7.13368559
REMARK minimizedRMSD -1
REMARK  2 active torsions:
REMARK  status: ('A' for Active; 'I' for Inactive)
REMARK    1  A    between atoms: C1_2  and  C2_3 
REMARK    2  A    between atoms: C2_3  and  C3_4 
ROOT
ATOM      1  C3  UNL d   1       1.248  -3.310   0.649  0.00  0.00    -0.075 A 
ATOM      2  C4  UNL d   1       1.647  -2.451   1.684  0.00  0.00     0.002 A 
ATOM      3  C5  UNL d   1       0.703  -1.702   2.387  0.00  0.00     0.002 A 
ATOM      4  C6  UNL d   1      -0.648  -1.793   2.059  0.00  0.00    -0.004 A 
ATOM      5  C7  UNL d   1      -1.054  -2.631   1.022  0.00  0.00     0.002 A 
ATOM      6  C8  UNL d   1      -0.112  -3.385   0.320  0.00  0.00     0.002 A 
ENDROOT
BRANCH   1   7
ATOM      7  C2  UNL d   1       2.261  -4.145  -0.096  0.00  0.00     0.056 C 
BRANCH   7   8
ATOM      8  C1  UNL d   1       3.578  -3.418  -0.384  0.00  0.00     0.007 C 
ATOM      9  C   UNL d   1       4.705  -4.356  -0.795  0.00  0.00     0.009 C 
ENDBRANCH   7   8
ENDBRANCH   1   7
TORSDOF 2
ENDMDL
