MODEL 1
REMARK minimizedAffinity 4.06843758
REMARK minimizedRMSD -1
REMARK  2 active torsions:
REMARK  status: ('A' for Active; 'I' for Inactive)
REMARK    1  A    between atoms: C1_2  and  C2_3 
REMARK    2  A    between atoms: C2_3  and  C3_4 
ROOT
ATOM      1  C3  UNL d   1      -0.690  -1.300   2.923  0.00  0.00    -0.075 A 
ATOM      2  C4  UNL d   1      -1.006  -1.727   1.625  0.00  0.00     0.002 A 
ATOM      3  C5  UNL d   1      -1.917  -1.013   0.846  0.00  0.00     0.002 A 
ATOM      4  C6  UNL d   1      -2.530   0.129   1.357  0.00  0.00    -0.004 A 
ATOM      5  C7  UNL d   1      -2.236   0.553   2.651  0.00  0.00     0.002 A 
ATOM      6  C8  UNL d   1      -1.322  -0.157   3.431  0.00  0.00     0.002 A 
ENDROOT
BRANCH   1   7
ATOM      7  C2  UNL d   1       0.317  -2.052   3.760  0.00  0.00     0.056 C 
BRANCH   7   8
ATOM      8  C1  UNL d   1       1.433  -2.715   2.946  0.00  0.00     0.007 C 
ATOM      9  C   UNL d   1       2.642  -1.813   2.738  0.00  0.00     0.009 C 
ENDBRANCH   7   8
ENDBRANCH   1   7
TORSDOF 2
ENDMDL
