MODEL 1
REMARK minimizedAffinity 8.91004753
REMARK minimizedRMSD -1
REMARK  2 active torsions:
REMARK  status: ('A' for Active; 'I' for Inactive)
REMARK    1  A    between atoms: C1_2  and  C2_3 
REMARK    2  A    between atoms: C2_3  and  C3_4 
ROOT
ATOM      1  C3  UNL d   1      -4.513  -3.067   2.323  0.00  0.00    -0.075 A 
ATOM      2  C4  UNL d   1      -4.881  -2.987   3.674  0.00  0.00     0.002 A 
ATOM      3  C5  UNL d   1      -5.611  -4.014   4.272  0.00  0.00     0.002 A 
ATOM      4  C6  UNL d   1      -5.992  -5.127   3.526  0.00  0.00    -0.004 A 
ATOM      5  C7  UNL d   1      -5.647  -5.210   2.179  0.00  0.00     0.002 A 
ATOM      6  C8  UNL d   1      -4.912  -4.186   1.579  0.00  0.00     0.002 A 
ENDROOT
BRANCH   1   7
ATOM      7  C2  UNL d   1      -3.697  -1.973   1.677  0.00  0.00     0.056 C 
BRANCH   7   8
ATOM      8  C1  UNL d   1      -2.228  -2.342   1.449  0.00  0.00     0.007 C 
ATOM      9  C   UNL d   1      -1.269  -1.196   1.739  0.00  0.00     0.009 C 
ENDBRANCH   7   8
ENDBRANCH   1   7
TORSDOF 2
ENDMDL
