MODEL 1
REMARK minimizedAffinity 5.31801748
REMARK minimizedRMSD -1
REMARK  2 active torsions:
REMARK  status: ('A' for Active; 'I' for Inactive)
REMARK    1  A    between atoms: C1_2  and  C2_3 
REMARK    2  A    between atoms: C2_3  and  C3_4 
ROOT
ATOM      1  C3  UNL d   1      -3.695   1.341   4.557  0.00  0.00    -0.075 A 
ATOM      2  C4  UNL d   1      -4.079   2.670   4.329  0.00  0.00     0.002 A 
ATOM      3  C5  UNL d   1      -5.219   3.192   4.942  0.00  0.00     0.002 A 
ATOM      4  C6  UNL d   1      -5.993   2.391   5.779  0.00  0.00    -0.004 A 
ATOM      5  C7  UNL d   1      -5.629   1.064   5.999  0.00  0.00     0.002 A 
ATOM      6  C8  UNL d   1      -4.487   0.541   5.391  0.00  0.00     0.002 A 
ENDROOT
BRANCH   1   7
ATOM      7  C2  UNL d   1      -2.446   0.778   3.920  0.00  0.00     0.056 C 
BRANCH   7   8
ATOM      8  C1  UNL d   1      -2.445   0.839   2.389  0.00  0.00     0.007 C 
ATOM      9  C   UNL d   1      -1.432  -0.102   1.752  0.00  0.00     0.009 C 
ENDBRANCH   7   8
ENDBRANCH   1   7
TORSDOF 2
ENDMDL
