MODEL 1
REMARK minimizedAffinity 11.6063108
REMARK minimizedRMSD -1
REMARK  2 active torsions:
REMARK  status: ('A' for Active; 'I' for Inactive)
REMARK    1  A    between atoms: C1_2  and  C2_3 
REMARK    2  A    between atoms: C2_3  and  C3_4 
ROOT
ATOM      1  C3  UNL d   1      -0.754  -0.842   3.940  0.00  0.00    -0.075 A 
ATOM      2  C4  UNL d   1      -1.067  -1.022   2.585  0.00  0.00     0.002 A 
ATOM      3  C5  UNL d   1      -0.349  -1.930   1.807  0.00  0.00     0.002 A 
ATOM      4  C6  UNL d   1       0.695  -2.661   2.369  0.00  0.00    -0.004 A 
ATOM      5  C7  UNL d   1       1.026  -2.478   3.710  0.00  0.00     0.002 A 
ATOM      6  C8  UNL d   1       0.306  -1.573   4.492  0.00  0.00     0.002 A 
ENDROOT
BRANCH   1   7
ATOM      7  C2  UNL d   1      -1.545   0.118   4.796  0.00  0.00     0.056 C 
BRANCH   7   8
ATOM      8  C1  UNL d   1      -2.768   0.717   4.093  0.00  0.00     0.007 C 
ATOM      9  C   UNL d   1      -3.941   0.961   5.032  0.00  0.00     0.009 C 
ENDBRANCH   7   8
ENDBRANCH   1   7
TORSDOF 2
ENDMDL
