MODEL 1
REMARK minimizedAffinity 16.2365398
REMARK minimizedRMSD -1
REMARK  2 active torsions:
REMARK  status: ('A' for Active; 'I' for Inactive)
REMARK    1  A    between atoms: C1_2  and  C2_3 
REMARK    2  A    between atoms: C2_3  and  C3_4 
ROOT
ATOM      1  C3  UNL d   1       0.850  -0.303   1.275  0.00  0.00    -0.075 A 
ATOM      2  C4  UNL d   1       1.700  -0.949   2.185  0.00  0.00     0.002 A 
ATOM      3  C5  UNL d   1       1.254  -2.055   2.908  0.00  0.00     0.002 A 
ATOM      4  C6  UNL d   1      -0.047  -2.522   2.741  0.00  0.00    -0.004 A 
ATOM      5  C7  UNL d   1      -0.906  -1.878   1.852  0.00  0.00     0.002 A 
ATOM      6  C8  UNL d   1      -0.461  -0.774   1.123  0.00  0.00     0.002 A 
ENDROOT
BRANCH   1   7
ATOM      7  C2  UNL d   1       1.336   0.876   0.467  0.00  0.00     0.056 C 
BRANCH   7   8
ATOM      8  C1  UNL d   1       2.861   0.959   0.339  0.00  0.00     0.007 C 
ATOM      9  C   UNL d   1       3.428   2.304   0.771  0.00  0.00     0.009 C 
ENDBRANCH   7   8
ENDBRANCH   1   7
TORSDOF 2
ENDMDL
