MODEL 1
REMARK minimizedAffinity 12.671567
REMARK minimizedRMSD -1
REMARK  2 active torsions:
REMARK  status: ('A' for Active; 'I' for Inactive)
REMARK    1  A    between atoms: C1_2  and  C2_3 
REMARK    2  A    between atoms: C2_3  and  C3_4 
ROOT
ATOM      1  C3  UNL d   1       2.968   1.526  -0.614  0.00  0.00    -0.075 A 
ATOM      2  C4  UNL d   1       3.829   2.632  -0.663  0.00  0.00     0.002 A 
ATOM      3  C5  UNL d   1       4.010   3.336  -1.854  0.00  0.00     0.002 A 
ATOM      4  C6  UNL d   1       3.342   2.939  -3.010  0.00  0.00    -0.004 A 
ATOM      5  C7  UNL d   1       2.497   1.832  -2.977  0.00  0.00     0.002 A 
ATOM      6  C8  UNL d   1       2.311   1.128  -1.785  0.00  0.00     0.002 A 
ENDROOT
BRANCH   1   7
ATOM      7  C2  UNL d   1       2.745   0.778   0.679  0.00  0.00     0.056 C 
BRANCH   7   8
ATOM      8  C1  UNL d   1       1.349   0.162   0.810  0.00  0.00     0.007 C 
ATOM      9  C   UNL d   1       1.177  -0.673   2.072  0.00  0.00     0.009 C 
ENDBRANCH   7   8
ENDBRANCH   1   7
TORSDOF 2
ENDMDL
