MODEL 1
REMARK minimizedAffinity 5.89978981
REMARK minimizedRMSD -1
REMARK  2 active torsions:
REMARK  status: ('A' for Active; 'I' for Inactive)
REMARK    1  A    between atoms: C1_2  and  C2_3 
REMARK    2  A    between atoms: C2_3  and  C3_4 
ROOT
ATOM      1  C3  UNL d   1      -5.904  -4.811   3.193  0.00  0.00    -0.075 A 
ATOM      2  C4  UNL d   1      -5.946  -5.989   3.953  0.00  0.00     0.002 A 
ATOM      3  C5  UNL d   1      -5.996  -5.933   5.346  0.00  0.00     0.002 A 
ATOM      4  C6  UNL d   1      -5.995  -4.701   5.997  0.00  0.00    -0.004 A 
ATOM      5  C7  UNL d   1      -5.937  -3.524   5.253  0.00  0.00     0.002 A 
ATOM      6  C8  UNL d   1      -5.891  -3.578   3.858  0.00  0.00     0.002 A 
ENDROOT
BRANCH   1   7
ATOM      7  C2  UNL d   1      -5.879  -4.865   1.684  0.00  0.00     0.056 C 
BRANCH   7   8
ATOM      8  C1  UNL d   1      -4.682  -4.144   1.054  0.00  0.00     0.007 C 
ATOM      9  C   UNL d   1      -4.187  -2.967   1.883  0.00  0.00     0.009 C 
ENDBRANCH   7   8
ENDBRANCH   1   7
TORSDOF 2
ENDMDL
