MODEL 1
REMARK minimizedAffinity 6.69769859
REMARK minimizedRMSD -1
REMARK  2 active torsions:
REMARK  status: ('A' for Active; 'I' for Inactive)
REMARK    1  A    between atoms: C1_2  and  C2_3 
REMARK    2  A    between atoms: C2_3  and  C3_4 
ROOT
ATOM      1  C3  UNL d   1      -0.542  -1.780   1.994  0.00  0.00    -0.075 A 
ATOM      2  C4  UNL d   1       0.340  -2.861   1.848  0.00  0.00     0.002 A 
ATOM      3  C5  UNL d   1       1.318  -3.113   2.811  0.00  0.00     0.002 A 
ATOM      4  C6  UNL d   1       1.432  -2.284   3.925  0.00  0.00    -0.004 A 
ATOM      5  C7  UNL d   1       0.572  -1.198   4.072  0.00  0.00     0.002 A 
ATOM      6  C8  UNL d   1      -0.409  -0.946   3.112  0.00  0.00     0.002 A 
ENDROOT
BRANCH   1   7
ATOM      7  C2  UNL d   1      -1.621  -1.520   0.970  0.00  0.00     0.056 C 
BRANCH   7   8
ATOM      8  C1  UNL d   1      -2.281  -2.790   0.423  0.00  0.00     0.007 C 
ATOM      9  C   UNL d   1      -3.513  -3.213   1.212  0.00  0.00     0.009 C 
ENDBRANCH   7   8
ENDBRANCH   1   7
TORSDOF 2
ENDMDL
