MODEL 1
REMARK minimizedAffinity 6.31029367
REMARK minimizedRMSD -1
REMARK  2 active torsions:
REMARK  status: ('A' for Active; 'I' for Inactive)
REMARK    1  A    between atoms: C1_2  and  C2_3 
REMARK    2  A    between atoms: C2_3  and  C3_4 
ROOT
ATOM      1  C3  UNL d   1       0.618   4.291  -4.040  0.00  0.00    -0.075 A 
ATOM      2  C4  UNL d   1       0.110   5.599  -4.037  0.00  0.00     0.002 A 
ATOM      3  C5  UNL d   1      -0.818   6.000  -4.998  0.00  0.00     0.002 A 
ATOM      4  C6  UNL d   1      -1.243   5.105  -5.977  0.00  0.00    -0.004 A 
ATOM      5  C7  UNL d   1      -0.733   3.809  -6.000  0.00  0.00     0.002 A 
ATOM      6  C8  UNL d   1       0.193   3.403  -5.037  0.00  0.00     0.002 A 
ENDROOT
BRANCH   1   7
ATOM      7  C2  UNL d   1       1.600   3.842  -2.985  0.00  0.00     0.056 C 
BRANCH   7   8
ATOM      8  C1  UNL d   1       1.786   2.322  -2.912  0.00  0.00     0.007 C 
ATOM      9  C   UNL d   1       2.573   1.872  -1.689  0.00  0.00     0.009 C 
ENDBRANCH   7   8
ENDBRANCH   1   7
TORSDOF 2
ENDMDL
