MODEL 1
REMARK minimizedAffinity 15.0278358
REMARK minimizedRMSD -1
REMARK  2 active torsions:
REMARK  status: ('A' for Active; 'I' for Inactive)
REMARK    1  A    between atoms: C1_2  and  C2_3 
REMARK    2  A    between atoms: C2_3  and  C3_4 
ROOT
ATOM      1  C3  UNL d   1       0.809   5.165  -4.301  0.00  0.00    -0.075 A 
ATOM      2  C4  UNL d   1       1.497   6.000  -3.409  0.00  0.00     0.002 A 
ATOM      3  C5  UNL d   1       2.495   5.483  -2.582  0.00  0.00     0.002 A 
ATOM      4  C6  UNL d   1       2.811   4.127  -2.629  0.00  0.00    -0.004 A 
ATOM      5  C7  UNL d   1       2.122   3.285  -3.500  0.00  0.00     0.002 A 
ATOM      6  C8  UNL d   1       1.126   3.800  -4.332  0.00  0.00     0.002 A 
ENDROOT
BRANCH   1   7
ATOM      7  C2  UNL d   1      -0.252   5.723  -5.219  0.00  0.00     0.056 C 
BRANCH   7   8
ATOM      8  C1  UNL d   1      -1.320   4.704  -5.630  0.00  0.00     0.007 C 
ATOM      9  C   UNL d   1      -2.651   5.346  -6.000  0.00  0.00     0.009 C 
ENDBRANCH   7   8
ENDBRANCH   1   7
TORSDOF 2
ENDMDL
