MODEL 1
REMARK minimizedAffinity 16.5289326
REMARK minimizedRMSD -1
REMARK  2 active torsions:
REMARK  status: ('A' for Active; 'I' for Inactive)
REMARK    1  A    between atoms: C1_2  and  C2_3 
REMARK    2  A    between atoms: C2_3  and  C3_4 
ROOT
ATOM      1  C3  UNL d   1      -0.260  -1.722   3.248  0.00  0.00    -0.075 A 
ATOM      2  C4  UNL d   1      -0.264  -0.581   2.433  0.00  0.00     0.002 A 
ATOM      3  C5  UNL d   1      -0.658  -0.666   1.097  0.00  0.00     0.002 A 
ATOM      4  C6  UNL d   1      -1.043  -1.892   0.558  0.00  0.00    -0.004 A 
ATOM      5  C7  UNL d   1      -1.027  -3.035   1.355  0.00  0.00     0.002 A 
ATOM      6  C8  UNL d   1      -0.637  -2.952   2.693  0.00  0.00     0.002 A 
ENDROOT
BRANCH   1   7
ATOM      7  C2  UNL d   1       0.137  -1.631   4.702  0.00  0.00     0.056 C 
BRANCH   7   8
ATOM      8  C1  UNL d   1      -1.025  -1.831   5.680  0.00  0.00     0.007 C 
ATOM      9  C   UNL d   1      -1.799  -0.550   5.963  0.00  0.00     0.009 C 
ENDBRANCH   7   8
ENDBRANCH   1   7
TORSDOF 2
ENDMDL
