MODEL 1
REMARK minimizedAffinity 10.7888708
REMARK minimizedRMSD -1
REMARK  2 active torsions:
REMARK  status: ('A' for Active; 'I' for Inactive)
REMARK    1  A    between atoms: C1_2  and  C2_3 
REMARK    2  A    between atoms: C2_3  and  C3_4 
ROOT
ATOM      1  C3  UNL d   1       1.257  -1.040   2.172  0.00  0.00    -0.075 A 
ATOM      2  C4  UNL d   1       0.455  -1.358   1.066  0.00  0.00     0.002 A 
ATOM      3  C5  UNL d   1      -0.861  -1.786   1.246  0.00  0.00     0.002 A 
ATOM      4  C6  UNL d   1      -1.388  -1.909   2.530  0.00  0.00    -0.004 A 
ATOM      5  C7  UNL d   1      -0.595  -1.612   3.636  0.00  0.00     0.002 A 
ATOM      6  C8  UNL d   1       0.721  -1.180   3.459  0.00  0.00     0.002 A 
ENDROOT
BRANCH   1   7
ATOM      7  C2  UNL d   1       2.672  -0.549   1.983  0.00  0.00     0.056 C 
BRANCH   7   8
ATOM      8  C1  UNL d   1       3.720  -1.666   1.944  0.00  0.00     0.007 C 
ATOM      9  C   UNL d   1       4.985  -1.277   1.191  0.00  0.00     0.009 C 
ENDBRANCH   7   8
ENDBRANCH   1   7
TORSDOF 2
ENDMDL
