MODEL 1
REMARK minimizedAffinity 7.06836748
REMARK minimizedRMSD -1
REMARK  2 active torsions:
REMARK  status: ('A' for Active; 'I' for Inactive)
REMARK    1  A    between atoms: C1_2  and  C2_3 
REMARK    2  A    between atoms: C2_3  and  C3_4 
ROOT
ATOM      1  C3  UNL d   1       1.793   0.665  -0.005  0.00  0.00    -0.075 A 
ATOM      2  C4  UNL d   1       1.354   0.592  -1.335  0.00  0.00     0.002 A 
ATOM      3  C5  UNL d   1       1.958   1.370  -2.323  0.00  0.00     0.002 A 
ATOM      4  C6  UNL d   1       2.999   2.235  -1.994  0.00  0.00    -0.004 A 
ATOM      5  C7  UNL d   1       3.432   2.328  -0.673  0.00  0.00     0.002 A 
ATOM      6  C8  UNL d   1       2.832   1.547   0.317  0.00  0.00     0.002 A 
ENDROOT
BRANCH   1   7
ATOM      7  C2  UNL d   1       1.163  -0.196   1.065  0.00  0.00     0.056 C 
BRANCH   7   8
ATOM      8  C1  UNL d   1      -0.366  -0.102   1.121  0.00  0.00     0.007 C 
ATOM      9  C   UNL d   1      -1.060  -1.418   0.797  0.00  0.00     0.009 C 
ENDBRANCH   7   8
ENDBRANCH   1   7
TORSDOF 2
ENDMDL
