MODEL 1
REMARK minimizedAffinity 4.23413944
REMARK minimizedRMSD -1
REMARK  0 active torsions:
REMARK  status: ('A' for Active; 'I' for Inactive)
ROOT
ATOM      1  C1  DEN d   1      -3.938  -1.217  -1.296  0.00  0.00     0.130 A 
ATOM      2  C2  DEN d   1      -4.212  -2.534  -1.865  0.00  0.00    -0.031 A 
ATOM      3  C3  DEN d   1      -4.691  -2.343  -3.249  0.00  0.00     0.027 A 
ATOM      4  C4  DEN d   1      -5.029  -0.147  -4.560  0.00  0.00     0.027 A 
ATOM      5  C5  DEN d   1      -4.941   1.226  -4.493  0.00  0.00    -0.003 A 
ATOM      6  C6  DEN d   1      -4.548   1.877  -3.353  0.00  0.00     0.001 A 
ATOM      7  C7  DEN d   1      -4.185   1.153  -2.249  0.00  0.00     0.017 A 
ATOM      8  C8  DEN d   1      -4.278  -0.232  -2.307  0.00  0.00    -0.094 A 
ATOM      9  C9  DEN d   1      -4.666  -0.872  -3.472  0.00  0.00    -0.072 A 
ENDROOT
TORSDOF 0
ENDMDL
