MODEL 1
REMARK minimizedAffinity 14.1233797
REMARK minimizedRMSD -1
REMARK  0 active torsions:
REMARK  status: ('A' for Active; 'I' for Inactive)
ROOT
ATOM      1  C1  DEN d   1      -6.000   1.577  -4.107  0.00  0.00     0.130 A 
ATOM      2  C2  DEN d   1      -4.976   0.557  -3.899  0.00  0.00    -0.031 A 
ATOM      3  C3  DEN d   1      -3.664   1.233  -3.837  0.00  0.00     0.027 A 
ATOM      4  C4  DEN d   1      -3.124   3.747  -4.038  0.00  0.00     0.027 A 
ATOM      5  C5  DEN d   1      -3.663   4.999  -4.233  0.00  0.00    -0.003 A 
ATOM      6  C6  DEN d   1      -5.005   5.193  -4.431  0.00  0.00     0.001 A 
ATOM      7  C7  DEN d   1      -5.858   4.122  -4.395  0.00  0.00     0.017 A 
ATOM      8  C8  DEN d   1      -5.321   2.856  -4.206  0.00  0.00    -0.094 A 
ATOM      9  C9  DEN d   1      -3.963   2.682  -3.995  0.00  0.00    -0.072 A 
ENDROOT
TORSDOF 0
ENDMDL
