MODEL 1
REMARK minimizedAffinity 8.14678097
REMARK minimizedRMSD -1
REMARK  0 active torsions:
REMARK  status: ('A' for Active; 'I' for Inactive)
ROOT
ATOM      1  C1  DEN d   1       0.085   5.517   5.078  0.00  0.00     0.130 A 
ATOM      2  C2  DEN d   1       1.110   6.000   6.000  0.00  0.00    -0.031 A 
ATOM      3  C3  DEN d   1       2.267   5.086   5.916  0.00  0.00     0.027 A 
ATOM      4  C4  DEN d   1       2.572   2.985   4.452  0.00  0.00     0.027 A 
ATOM      5  C5  DEN d   1       1.971   2.171   3.518  0.00  0.00    -0.003 A 
ATOM      6  C6  DEN d   1       0.697   2.394   3.067  0.00  0.00     0.001 A 
ATOM      7  C7  DEN d   1      -0.001   3.483   3.516  0.00  0.00     0.017 A 
ATOM      8  C8  DEN d   1       0.595   4.304   4.464  0.00  0.00    -0.094 A 
ATOM      9  C9  DEN d   1       1.889   4.069   4.899  0.00  0.00    -0.072 A 
ENDROOT
TORSDOF 0
ENDMDL
