MODEL 1
REMARK minimizedAffinity 6.82959414
REMARK minimizedRMSD -1
REMARK  0 active torsions:
REMARK  status: ('A' for Active; 'I' for Inactive)
ROOT
ATOM      1  C1  DEN d   1       5.416  -3.309   2.127  0.00  0.00     0.130 A 
ATOM      2  C2  DEN d   1       5.815  -4.257   1.092  0.00  0.00    -0.031 A 
ATOM      3  C3  DEN d   1       4.611  -4.624   0.319  0.00  0.00     0.027 A 
ATOM      4  C4  DEN d   1       2.180  -3.815   0.623  0.00  0.00     0.027 A 
ATOM      5  C5  DEN d   1       1.349  -3.016   1.376  0.00  0.00    -0.003 A 
ATOM      6  C6  DEN d   1       1.805  -2.291   2.446  0.00  0.00     0.001 A 
ATOM      7  C7  DEN d   1       3.137  -2.315   2.764  0.00  0.00     0.017 A 
ATOM      8  C8  DEN d   1       3.980  -3.124   2.013  0.00  0.00    -0.094 A 
ATOM      9  C9  DEN d   1       3.502  -3.840   0.928  0.00  0.00    -0.072 A 
ENDROOT
TORSDOF 0
ENDMDL
