MODEL 1
REMARK minimizedAffinity 13.6685362
REMARK minimizedRMSD -1
REMARK  0 active torsions:
REMARK  status: ('A' for Active; 'I' for Inactive)
ROOT
ATOM      1  C1  DEN d   1       1.220  -5.106   1.905  0.00  0.00     0.130 A 
ATOM      2  C2  DEN d   1       2.390  -4.385   1.411  0.00  0.00    -0.031 A 
ATOM      3  C3  DEN d   1       2.168  -2.943   1.640  0.00  0.00     0.027 A 
ATOM      4  C4  DEN d   1       0.141  -1.764   2.713  0.00  0.00     0.027 A 
ATOM      5  C5  DEN d   1      -1.102  -1.957   3.275  0.00  0.00    -0.003 A 
ATOM      6  C6  DEN d   1      -1.667  -3.199   3.388  0.00  0.00     0.001 A 
ATOM      7  C7  DEN d   1      -0.970  -4.303   2.974  0.00  0.00     0.017 A 
ATOM      8  C8  DEN d   1       0.280  -4.116   2.399  0.00  0.00    -0.094 A 
ATOM      9  C9  DEN d   1       0.840  -2.853   2.304  0.00  0.00    -0.072 A 
ENDROOT
TORSDOF 0
ENDMDL
