MODEL 1
REMARK minimizedAffinity 6.07137299
REMARK minimizedRMSD -1
REMARK  0 active torsions:
REMARK  status: ('A' for Active; 'I' for Inactive)
ROOT
ATOM      1  C1  DEN d   1      -2.278   1.872  -1.944  0.00  0.00     0.130 A 
ATOM      2  C2  DEN d   1      -1.733   3.143  -2.414  0.00  0.00    -0.031 A 
ATOM      3  C3  DEN d   1      -0.260   3.029  -2.433  0.00  0.00     0.027 A 
ATOM      4  C4  DEN d   1       1.220   1.017  -1.788  0.00  0.00     0.027 A 
ATOM      5  C5  DEN d   1       1.211  -0.278  -1.319  0.00  0.00    -0.003 A 
ATOM      6  C6  DEN d   1       0.051  -0.930  -0.996  0.00  0.00     0.001 A 
ATOM      7  C7  DEN d   1      -1.153  -0.304  -1.181  0.00  0.00     0.017 A 
ATOM      8  C8  DEN d   1      -1.153   1.004  -1.646  0.00  0.00    -0.094 A 
ATOM      9  C9  DEN d   1       0.030   1.642  -1.978  0.00  0.00    -0.072 A 
ENDROOT
TORSDOF 0
ENDMDL
