MODEL 1
REMARK minimizedAffinity 15.1476269
REMARK minimizedRMSD -1
REMARK  0 active torsions:
REMARK  status: ('A' for Active; 'I' for Inactive)
ROOT
ATOM      1  C1  DEN d   1      -2.305   4.503  -6.000  0.00  0.00     0.130 A 
ATOM      2  C2  DEN d   1      -1.287   4.090  -5.037  0.00  0.00    -0.031 A 
ATOM      3  C3  DEN d   1      -1.970   3.422  -3.910  0.00  0.00     0.027 A 
ATOM      4  C4  DEN d   1      -4.489   2.985  -3.568  0.00  0.00     0.027 A 
ATOM      5  C5  DEN d   1      -5.742   3.163  -4.110  0.00  0.00    -0.003 A 
ATOM      6  C6  DEN d   1      -5.940   3.824  -5.293  0.00  0.00     0.001 A 
ATOM      7  C7  DEN d   1      -4.862   4.293  -5.996  0.00  0.00     0.017 A 
ATOM      8  C8  DEN d   1      -3.595   4.124  -5.453  0.00  0.00    -0.094 A 
ATOM      9  C9  DEN d   1      -3.415   3.442  -4.262  0.00  0.00    -0.072 A 
ENDROOT
TORSDOF 0
ENDMDL
