MODEL 1
REMARK minimizedAffinity 10.6139488
REMARK minimizedRMSD -1
REMARK  0 active torsions:
REMARK  status: ('A' for Active; 'I' for Inactive)
ROOT
ATOM      1  C1  DEN d   1      -1.991  -0.426   3.581  0.00  0.00     0.130 A 
ATOM      2  C2  DEN d   1      -2.961  -1.312   2.943  0.00  0.00    -0.031 A 
ATOM      3  C3  DEN d   1      -2.219  -2.410   2.293  0.00  0.00     0.027 A 
ATOM      4  C4  DEN d   1       0.326  -2.825   2.215  0.00  0.00     0.027 A 
ATOM      5  C5  DEN d   1       1.555  -2.338   2.602  0.00  0.00    -0.003 A 
ATOM      6  C6  DEN d   1       1.689  -1.172   3.307  0.00  0.00     0.001 A 
ATOM      7  C7  DEN d   1       0.572  -0.476   3.687  0.00  0.00     0.017 A 
ATOM      8  C8  DEN d   1      -0.670  -0.956   3.294  0.00  0.00    -0.094 A 
ATOM      9  C9  DEN d   1      -0.786  -2.144   2.592  0.00  0.00    -0.072 A 
ENDROOT
TORSDOF 0
ENDMDL
