MODEL 1
REMARK minimizedAffinity 5.1217742
REMARK minimizedRMSD -1
REMARK  0 active torsions:
REMARK  status: ('A' for Active; 'I' for Inactive)
ROOT
ATOM      1  C1  DEN d   1       3.826  -4.964   4.816  0.00  0.00     0.130 A 
ATOM      2  C2  DEN d   1       4.244  -3.923   5.752  0.00  0.00    -0.031 A 
ATOM      3  C3  DEN d   1       3.705  -2.635   5.273  0.00  0.00     0.027 A 
ATOM      4  C4  DEN d   1       2.268  -2.152   3.186  0.00  0.00     0.027 A 
ATOM      5  C5  DEN d   1       1.669  -2.716   2.081  0.00  0.00    -0.003 A 
ATOM      6  C6  DEN d   1       1.775  -4.051   1.794  0.00  0.00     0.001 A 
ATOM      7  C7  DEN d   1       2.458  -4.876   2.647  0.00  0.00     0.017 A 
ATOM      8  C8  DEN d   1       3.071  -4.315   3.759  0.00  0.00    -0.094 A 
ATOM      9  C9  DEN d   1       2.942  -2.965   4.039  0.00  0.00    -0.072 A 
ENDROOT
TORSDOF 0
ENDMDL
