MODEL 1
REMARK minimizedAffinity -3.50069094
REMARK minimizedRMSD -1
REMARK  0 active torsions:
REMARK  status: ('A' for Active; 'I' for Inactive)
ROOT
ATOM      1  C   UNL d   1      -1.309   0.641   2.842  0.00  0.00     0.020 A 
ATOM      2  C1  UNL d   1      -2.072   0.641   1.675  0.00  0.00     0.020 A 
ATOM      3  C2  UNL d   1      -1.519   0.177   0.479  0.00  0.00     0.034 A 
ATOM      4  C3  UNL d   1      -0.200  -0.289   0.448  0.00  0.00     0.017 A 
ATOM      5  C4  UNL d   1       0.565  -0.288   1.620  0.00  0.00     0.017 A 
ATOM      6  C5  UNL d   1       0.007   0.177   2.814  0.00  0.00     0.034 A 
ATOM      7 Cl   UNL d   1       2.200  -0.848   1.659  0.00  0.00    -0.070 Cl
ATOM      8 Cl1  UNL d   1       0.419  -0.848  -1.066  0.00  0.00    -0.070 Cl
ENDROOT
TORSDOF 0
ENDMDL
