MODEL 1
REMARK minimizedAffinity -1.79136872
REMARK minimizedRMSD -1
REMARK  0 active torsions:
REMARK  status: ('A' for Active; 'I' for Inactive)
ROOT
ATOM      1  C   UNL d   1       0.614  -1.278  -1.324  0.00  0.00     0.020 A 
ATOM      2  C1  UNL d   1      -0.710  -0.857  -1.204  0.00  0.00     0.020 A 
ATOM      3  C2  UNL d   1      -1.177  -0.362   0.016  0.00  0.00     0.034 A 
ATOM      4  C3  UNL d   1      -0.319  -0.288   1.120  0.00  0.00     0.017 A 
ATOM      5  C4  UNL d   1       1.009  -0.711   0.998  0.00  0.00     0.017 A 
ATOM      6  C5  UNL d   1       1.471  -1.205  -0.226  0.00  0.00     0.034 A 
ATOM      7 Cl   UNL d   1       2.126  -0.649   2.315  0.00  0.00    -0.070 Cl
ATOM      8 Cl1  UNL d   1      -0.964   0.335   2.597  0.00  0.00    -0.070 Cl
ENDROOT
TORSDOF 0
ENDMDL
