MODEL 1
REMARK minimizedAffinity -1.89720929
REMARK minimizedRMSD -1
REMARK  0 active torsions:
REMARK  status: ('A' for Active; 'I' for Inactive)
ROOT
ATOM      1  C   UNL d   1      -2.355   0.455   0.744  0.00  0.00     0.020 A 
ATOM      2  C1  UNL d   1      -1.968   0.720   2.057  0.00  0.00     0.020 A 
ATOM      3  C2  UNL d   1      -0.678   0.397   2.484  0.00  0.00     0.034 A 
ATOM      4  C3  UNL d   1       0.230  -0.193   1.596  0.00  0.00     0.017 A 
ATOM      5  C4  UNL d   1      -0.160  -0.460   0.279  0.00  0.00     0.017 A 
ATOM      6  C5  UNL d   1      -1.453  -0.134  -0.143  0.00  0.00     0.034 A 
ATOM      7 Cl   UNL d   1       0.903  -1.186  -0.874  0.00  0.00    -0.070 Cl
ATOM      8 Cl1  UNL d   1       1.808  -0.566   2.191  0.00  0.00    -0.070 Cl
ENDROOT
TORSDOF 0
ENDMDL
