MODEL 1
REMARK minimizedAffinity -0.0973035619
REMARK minimizedRMSD -1
REMARK  0 active torsions:
REMARK  status: ('A' for Active; 'I' for Inactive)
ROOT
ATOM      1  C   UNL d   1       1.238  -1.016  -1.019  0.00  0.00     0.020 A 
ATOM      2  C1  UNL d   1       1.792  -0.533   0.166  0.00  0.00     0.020 A 
ATOM      3  C2  UNL d   1       0.966   0.005   1.155  0.00  0.00     0.034 A 
ATOM      4  C3  UNL d   1      -0.419   0.061   0.960  0.00  0.00     0.017 A 
ATOM      5  C4  UNL d   1      -0.975  -0.424  -0.229  0.00  0.00     0.017 A 
ATOM      6  C5  UNL d   1      -0.143  -0.961  -1.216  0.00  0.00     0.034 A 
ATOM      7 Cl   UNL d   1      -2.674  -0.388  -0.541  0.00  0.00    -0.070 Cl
ATOM      8 Cl1  UNL d   1      -1.381   0.740   2.226  0.00  0.00    -0.070 Cl
ENDROOT
TORSDOF 0
ENDMDL
