MODEL 1
REMARK minimizedAffinity -1.30102122
REMARK minimizedRMSD -1
REMARK  0 active torsions:
REMARK  status: ('A' for Active; 'I' for Inactive)
ROOT
ATOM      1  C   UNL d   1       0.659   1.253  -2.802  0.00  0.00     0.020 A 
ATOM      2  C1  UNL d   1       0.662   0.083  -3.561  0.00  0.00     0.020 A 
ATOM      3  C2  UNL d   1       0.584  -1.160  -2.928  0.00  0.00     0.034 A 
ATOM      4  C3  UNL d   1       0.503  -1.235  -1.532  0.00  0.00     0.017 A 
ATOM      5  C4  UNL d   1       0.500  -0.060  -0.772  0.00  0.00     0.017 A 
ATOM      6  C5  UNL d   1       0.578   1.182  -1.411  0.00  0.00     0.034 A 
ATOM      7 Cl   UNL d   1       0.403  -0.073   0.954  0.00  0.00    -0.070 Cl
ATOM      8 Cl1  UNL d   1       0.410  -2.805  -0.817  0.00  0.00    -0.070 Cl
ENDROOT
TORSDOF 0
ENDMDL
