MODEL 1
REMARK minimizedAffinity 0.725815713
REMARK minimizedRMSD -1
REMARK  0 active torsions:
REMARK  status: ('A' for Active; 'I' for Inactive)
ROOT
ATOM      1  C   UNL d   1      -1.982   0.419   1.200  0.00  0.00     0.020 A 
ATOM      2  C1  UNL d   1      -1.184   0.224   0.074  0.00  0.00     0.020 A 
ATOM      3  C2  UNL d   1       0.182  -0.022   0.220  0.00  0.00     0.034 A 
ATOM      4  C3  UNL d   1       0.756  -0.073   1.496  0.00  0.00     0.017 A 
ATOM      5  C4  UNL d   1      -0.046   0.123   2.626  0.00  0.00     0.017 A 
ATOM      6  C5  UNL d   1      -1.414   0.368   2.474  0.00  0.00     0.034 A 
ATOM      7 Cl   UNL d   1       0.589   0.074   4.233  0.00  0.00    -0.070 Cl
ATOM      8 Cl1  UNL d   1       2.452  -0.382   1.602  0.00  0.00    -0.070 Cl
ENDROOT
TORSDOF 0
ENDMDL
