MODEL 1
REMARK minimizedAffinity -2.1082747
REMARK minimizedRMSD -1
REMARK  0 active torsions:
REMARK  status: ('A' for Active; 'I' for Inactive)
ROOT
ATOM      1  C   UNL d   1      -2.493   0.637   0.152  0.00  0.00     0.020 A 
ATOM      2  C1  UNL d   1      -2.373   0.766   1.535  0.00  0.00     0.020 A 
ATOM      3  C2  UNL d   1      -1.166   0.449   2.163  0.00  0.00     0.034 A 
ATOM      4  C3  UNL d   1      -0.076   0.002   1.409  0.00  0.00     0.017 A 
ATOM      5  C4  UNL d   1      -0.197  -0.126   0.020  0.00  0.00     0.017 A 
ATOM      6  C5  UNL d   1      -1.407   0.192  -0.604  0.00  0.00     0.034 A 
ATOM      7 Cl   UNL d   1       1.104  -0.671  -0.978  0.00  0.00    -0.070 Cl
ATOM      8 Cl1  UNL d   1       1.386  -0.371   2.252  0.00  0.00    -0.070 Cl
ENDROOT
TORSDOF 0
ENDMDL
