MODEL 1
REMARK minimizedAffinity -4.4749856
REMARK minimizedRMSD -1
REMARK  0 active torsions:
REMARK  status: ('A' for Active; 'I' for Inactive)
ROOT
ATOM      1  O1  BZF d   1      -1.393   0.777  -0.998  0.00  0.00    -0.204 OA
ATOM      2  C2  BZF d   1      -0.256   1.244  -1.628  0.00  0.00     0.174 A 
ATOM      3  C3  BZF d   1       0.795   1.242  -0.783  0.00  0.00    -0.012 A 
ATOM      4  C3A BZF d   1       0.304   0.656   0.427  0.00  0.00    -0.107 A 
ATOM      5  C4  BZF d   1       0.879   0.367   1.631  0.00  0.00     0.055 A 
ATOM      6  C5  BZF d   1       0.105  -0.137   2.628  0.00  0.00    -0.016 A 
ATOM      7  C6  BZF d   1      -1.246  -0.359   2.458  0.00  0.00     0.022 A 
ATOM      8  C7  BZF d   1      -1.860  -0.093   1.279  0.00  0.00     0.029 A 
ATOM      9  C7A BZF d   1      -1.074   0.386   0.259  0.00  0.00     0.058 A 
ENDROOT
TORSDOF 0
ENDMDL
