MODEL 1
REMARK minimizedAffinity -4.33982229
REMARK minimizedRMSD -1
REMARK  0 active torsions:
REMARK  status: ('A' for Active; 'I' for Inactive)
ROOT
ATOM      1  O1  BZF d   1      -0.169   0.410  -0.613  0.00  0.00    -0.204 OA
ATOM      2  C2  BZF d   1       1.000   1.146  -0.572  0.00  0.00     0.174 A 
ATOM      3  C3  BZF d   1       1.402   1.332   0.702  0.00  0.00    -0.012 A 
ATOM      4  C3A BZF d   1       0.474   0.593   1.502  0.00  0.00    -0.107 A 
ATOM      5  C4  BZF d   1       0.357   0.378   2.845  0.00  0.00     0.055 A 
ATOM      6  C5  BZF d   1      -0.705  -0.332   3.310  0.00  0.00    -0.016 A 
ATOM      7  C6  BZF d   1      -1.669  -0.835   2.461  0.00  0.00     0.022 A 
ATOM      8  C7  BZF d   1      -1.593  -0.652   1.120  0.00  0.00     0.029 A 
ATOM      9  C7A BZF d   1      -0.503   0.036   0.645  0.00  0.00     0.058 A 
ENDROOT
TORSDOF 0
ENDMDL
