MODEL 1
REMARK minimizedAffinity -5.78191662
REMARK minimizedRMSD -1
REMARK  0 active torsions:
REMARK  status: ('A' for Active; 'I' for Inactive)
ROOT
ATOM      1  O1  BZF d   1      -2.064   0.421  -0.443  0.00  0.00    -0.204 OA
ATOM      2  C2  BZF d   1      -1.231   0.811  -1.473  0.00  0.00     0.174 A 
ATOM      3  C3  BZF d   1       0.041   0.931  -1.041  0.00  0.00    -0.012 A 
ATOM      4  C3A BZF d   1       0.016   0.506   0.325  0.00  0.00    -0.107 A 
ATOM      5  C4  BZF d   1       0.976   0.385   1.288  0.00  0.00     0.055 A 
ATOM      6  C5  BZF d   1       0.610   0.011   2.542  0.00  0.00    -0.016 A 
ATOM      7  C6  BZF d   1      -0.706  -0.244   2.869  0.00  0.00     0.022 A 
ATOM      8  C7  BZF d   1      -1.693  -0.142   1.946  0.00  0.00     0.029 A 
ATOM      9  C7A BZF d   1      -1.322   0.203   0.669  0.00  0.00     0.058 A 
ENDROOT
TORSDOF 0
ENDMDL
