MODEL 1
REMARK minimizedAffinity -3.91405368
REMARK minimizedRMSD -1
REMARK  0 active torsions:
REMARK  status: ('A' for Active; 'I' for Inactive)
ROOT
ATOM      1  O1  BZF d   1       1.144   0.567   1.448  0.00  0.00    -0.204 OA
ATOM      2  C2  BZF d   1       0.672   0.346   2.727  0.00  0.00     0.174 A 
ATOM      3  C3  BZF d   1      -0.675   0.290   2.737  0.00  0.00    -0.012 A 
ATOM      4  C3A BZF d   1      -1.067   0.398   1.365  0.00  0.00    -0.107 A 
ATOM      5  C4  BZF d   1      -2.276   0.391   0.731  0.00  0.00     0.055 A 
ATOM      6  C5  BZF d   1      -2.318   0.590  -0.613  0.00  0.00    -0.016 A 
ATOM      7  C6  BZF d   1      -1.172   0.803  -1.351  0.00  0.00     0.022 A 
ATOM      8  C7  BZF d   1       0.051   0.813  -0.767  0.00  0.00     0.029 A 
ATOM      9  C7A BZF d   1       0.099   0.580   0.586  0.00  0.00     0.058 A 
ENDROOT
TORSDOF 0
ENDMDL
