MODEL 1
REMARK minimizedAffinity -5.92217112
REMARK minimizedRMSD -1
REMARK  0 active torsions:
REMARK  status: ('A' for Active; 'I' for Inactive)
ROOT
ATOM      1  O1  BZF d   1       0.522   1.087  -0.262  0.00  0.00    -0.204 OA
ATOM      2  C2  BZF d   1      -0.545   1.278  -1.118  0.00  0.00     0.174 A 
ATOM      3  C3  BZF d   1      -1.654   0.676  -0.643  0.00  0.00    -0.012 A 
ATOM      4  C3A BZF d   1      -1.278   0.149   0.634  0.00  0.00    -0.107 A 
ATOM      5  C4  BZF d   1      -1.952  -0.543   1.599  0.00  0.00     0.055 A 
ATOM      6  C5  BZF d   1      -1.276  -0.974   2.696  0.00  0.00    -0.016 A 
ATOM      7  C6  BZF d   1       0.073  -0.735   2.858  0.00  0.00     0.022 A 
ATOM      8  C7  BZF d   1       0.783  -0.048   1.930  0.00  0.00     0.029 A 
ATOM      9  C7A BZF d   1       0.096   0.417   0.836  0.00  0.00     0.058 A 
ENDROOT
TORSDOF 0
ENDMDL
