MODEL 1
REMARK minimizedAffinity -6.81246805
REMARK minimizedRMSD -1
REMARK  0 active torsions:
REMARK  status: ('A' for Active; 'I' for Inactive)
ROOT
ATOM      1  O1  BZF d   1      -2.144   0.759  -0.425  0.00  0.00    -0.204 OA
ATOM      2  C2  BZF d   1      -1.018   0.866  -1.218  0.00  0.00     0.174 A 
ATOM      3  C3  BZF d   1       0.097   0.619  -0.500  0.00  0.00    -0.012 A 
ATOM      4  C3A BZF d   1      -0.367   0.250   0.802  0.00  0.00    -0.107 A 
ATOM      5  C4  BZF d   1       0.265  -0.125   1.953  0.00  0.00     0.055 A 
ATOM      6  C5  BZF d   1      -0.475  -0.347   3.070  0.00  0.00    -0.016 A 
ATOM      7  C6  BZF d   1      -1.847  -0.200   3.074  0.00  0.00     0.022 A 
ATOM      8  C7  BZF d   1      -2.519   0.165   1.955  0.00  0.00     0.029 A 
ATOM      9  C7A BZF d   1      -1.777   0.359   0.816  0.00  0.00     0.058 A 
ENDROOT
TORSDOF 0
ENDMDL
