MODEL 1
REMARK minimizedAffinity -4.93107128
REMARK minimizedRMSD -1
REMARK  0 active torsions:
REMARK  status: ('A' for Active; 'I' for Inactive)
ROOT
ATOM      1  O1  BZF d   1       0.624   0.218   3.277  0.00  0.00    -0.204 OA
ATOM      2  C2  BZF d   1      -0.601  -0.382   3.496  0.00  0.00     0.174 A 
ATOM      3  C3  BZF d   1      -1.293  -0.490   2.343  0.00  0.00    -0.012 A 
ATOM      4  C3A BZF d   1      -0.409  -0.006   1.327  0.00  0.00    -0.107 A 
ATOM      5  C4  BZF d   1      -0.518   0.124  -0.028  0.00  0.00     0.055 A 
ATOM      6  C5  BZF d   1       0.499   0.700  -0.720  0.00  0.00    -0.016 A 
ATOM      7  C6  BZF d   1       1.636   1.162  -0.090  0.00  0.00     0.022 A 
ATOM      8  C7  BZF d   1       1.792   1.051   1.251  0.00  0.00     0.029 A 
ATOM      9  C7A BZF d   1       0.780   0.439   1.950  0.00  0.00     0.058 A 
ENDROOT
TORSDOF 0
ENDMDL
