MODEL 1
REMARK minimizedAffinity -4.92460537
REMARK minimizedRMSD -1
REMARK  0 active torsions:
REMARK  status: ('A' for Active; 'I' for Inactive)
ROOT
ATOM      1  O1  BZF d   1      -0.717   0.232  -0.933  0.00  0.00    -0.204 OA
ATOM      2  C2  BZF d   1       0.600   0.587  -1.154  0.00  0.00     0.174 A 
ATOM      3  C3  BZF d   1       1.261   0.724   0.014  0.00  0.00    -0.012 A 
ATOM      4  C3A BZF d   1       0.321   0.347   1.025  0.00  0.00    -0.107 A 
ATOM      5  C4  BZF d   1       0.390   0.261   2.386  0.00  0.00     0.055 A 
ATOM      6  C5  BZF d   1      -0.727  -0.069   3.085  0.00  0.00    -0.016 A 
ATOM      7  C6  BZF d   1      -1.930  -0.315   2.456  0.00  0.00     0.022 A 
ATOM      8  C7  BZF d   1      -2.047  -0.247   1.107  0.00  0.00     0.029 A 
ATOM      9  C7A BZF d   1      -0.911   0.054   0.396  0.00  0.00     0.058 A 
ENDROOT
TORSDOF 0
ENDMDL
