MODEL 1
REMARK minimizedAffinity -1.4534986
REMARK minimizedRMSD -1
REMARK  0 active torsions:
REMARK  status: ('A' for Active; 'I' for Inactive)
ROOT
ATOM      1  O1  BZF d   1       0.485   0.766  -0.136  0.00  0.00    -0.204 OA
ATOM      2  C2  BZF d   1      -0.343   0.444  -1.194  0.00  0.00     0.174 A 
ATOM      3  C3  BZF d   1      -1.327  -0.388  -0.796  0.00  0.00    -0.012 A 
ATOM      4  C3A BZF d   1      -1.153  -0.526   0.617  0.00  0.00    -0.107 A 
ATOM      5  C4  BZF d   1      -1.831  -1.214   1.583  0.00  0.00     0.055 A 
ATOM      6  C5  BZF d   1      -1.360  -1.198   2.858  0.00  0.00    -0.016 A 
ATOM      7  C6  BZF d   1      -0.214  -0.512   3.200  0.00  0.00     0.022 A 
ATOM      8  C7  BZF d   1       0.489   0.189   2.278  0.00  0.00     0.029 A 
ATOM      9  C7A BZF d   1      -0.002   0.203   0.995  0.00  0.00     0.058 A 
ENDROOT
TORSDOF 0
ENDMDL
