MODEL 1
REMARK minimizedAffinity 3.26799273
REMARK minimizedRMSD -1
REMARK  0 active torsions:
REMARK  status: ('A' for Active; 'I' for Inactive)
ROOT
ATOM      1  O1  BZF d   1      -0.666  -0.287  -0.355  0.00  0.00    -0.204 OA
ATOM      2  C2  BZF d   1      -0.247   0.329  -1.518  0.00  0.00     0.174 A 
ATOM      3  C3  BZF d   1       0.772   1.176  -1.270  0.00  0.00    -0.012 A 
ATOM      4  C3A BZF d   1       1.066   1.015   0.121  0.00  0.00    -0.107 A 
ATOM      5  C4  BZF d   1       1.990   1.575   0.956  0.00  0.00     0.055 A 
ATOM      6  C5  BZF d   1       1.964   1.256   2.277  0.00  0.00    -0.016 A 
ATOM      7  C6  BZF d   1       1.027   0.387   2.797  0.00  0.00     0.022 A 
ATOM      8  C7  BZF d   1       0.094  -0.197   2.006  0.00  0.00     0.029 A 
ATOM      9  C7A BZF d   1       0.138   0.097   0.665  0.00  0.00     0.058 A 
ENDROOT
TORSDOF 0
ENDMDL
