MODEL 1
REMARK minimizedAffinity -5.87192917
REMARK minimizedRMSD -1
REMARK  0 active torsions:
REMARK  status: ('A' for Active; 'I' for Inactive)
ROOT
ATOM      1  O1  BZF d   1      -0.983   0.392  -0.747  0.00  0.00    -0.204 OA
ATOM      2  C2  BZF d   1       0.394   0.475  -0.826  0.00  0.00     0.174 A 
ATOM      3  C3  BZF d   1       0.954   0.312   0.391  0.00  0.00    -0.012 A 
ATOM      4  C3A BZF d   1      -0.137   0.023   1.271  0.00  0.00    -0.107 A 
ATOM      5  C4  BZF d   1      -0.218  -0.250   2.606  0.00  0.00     0.055 A 
ATOM      6  C5  BZF d   1      -1.442  -0.414   3.174  0.00  0.00    -0.016 A 
ATOM      7  C6  BZF d   1      -2.604  -0.306   2.437  0.00  0.00     0.022 A 
ATOM      8  C7  BZF d   1      -2.573  -0.042   1.108  0.00  0.00     0.029 A 
ATOM      9  C7A BZF d   1      -1.337   0.092   0.526  0.00  0.00     0.058 A 
ENDROOT
TORSDOF 0
ENDMDL
