MODEL 1
REMARK minimizedAffinity -5.94753742
REMARK minimizedRMSD -1
REMARK  0 active torsions:
REMARK  status: ('A' for Active; 'I' for Inactive)
ROOT
ATOM      1  O1  BZF d   1       0.249   0.800  -0.359  0.00  0.00    -0.204 OA
ATOM      2  C2  BZF d   1      -0.916   0.953  -1.085  0.00  0.00     0.174 A 
ATOM      3  C3  BZF d   1      -1.973   0.472  -0.400  0.00  0.00    -0.012 A 
ATOM      4  C3A BZF d   1      -1.448   0.070   0.869  0.00  0.00    -0.107 A 
ATOM      5  C4  BZF d   1      -2.012  -0.471   1.989  0.00  0.00     0.055 A 
ATOM      6  C5  BZF d   1      -1.210  -0.814   3.032  0.00  0.00    -0.016 A 
ATOM      7  C6  BZF d   1       0.157  -0.635   2.986  0.00  0.00     0.022 A 
ATOM      8  C7  BZF d   1       0.761  -0.097   1.898  0.00  0.00     0.029 A 
ATOM      9  C7A BZF d   1      -0.050   0.281   0.856  0.00  0.00     0.058 A 
ENDROOT
TORSDOF 0
ENDMDL
