MODEL 1
REMARK minimizedAffinity -4.66326857
REMARK minimizedRMSD -1
REMARK  0 active torsions:
REMARK  status: ('A' for Active; 'I' for Inactive)
ROOT
ATOM      1  O1  BZF d   1       1.108   0.238   1.852  0.00  0.00    -0.204 OA
ATOM      2  C2  BZF d   1       0.379  -0.030   2.995  0.00  0.00     0.174 A 
ATOM      3  C3  BZF d   1      -0.945   0.038   2.744  0.00  0.00    -0.012 A 
ATOM      4  C3A BZF d   1      -1.049   0.278   1.337  0.00  0.00    -0.107 A 
ATOM      5  C4  BZF d   1      -2.107   0.427   0.486  0.00  0.00     0.055 A 
ATOM      6  C5  BZF d   1      -1.869   0.724  -0.818  0.00  0.00    -0.016 A 
ATOM      7  C6  BZF d   1      -0.587   0.884  -1.304  0.00  0.00     0.022 A 
ATOM      8  C7  BZF d   1       0.494   0.741  -0.499  0.00  0.00     0.029 A 
ATOM      9  C7A BZF d   1       0.257   0.408   0.812  0.00  0.00     0.058 A 
ENDROOT
TORSDOF 0
ENDMDL
