MODEL 1
REMARK minimizedAffinity -5.54038095
REMARK minimizedRMSD -1
REMARK  0 active torsions:
REMARK  status: ('A' for Active; 'I' for Inactive)
ROOT
ATOM      1  O1  BZF d   1       1.337   1.461  -0.865  0.00  0.00    -0.204 OA
ATOM      2  C2  BZF d   1       0.355   1.280  -1.820  0.00  0.00     0.174 A 
ATOM      3  C3  BZF d   1      -0.596   0.434  -1.374  0.00  0.00    -0.012 A 
ATOM      4  C3A BZF d   1      -0.230   0.136  -0.023  0.00  0.00    -0.107 A 
ATOM      5  C4  BZF d   1      -0.793  -0.637   0.953  0.00  0.00     0.055 A 
ATOM      6  C5  BZF d   1      -0.146  -0.775   2.140  0.00  0.00    -0.016 A 
ATOM      7  C6  BZF d   1       1.064  -0.160   2.384  0.00  0.00     0.022 A 
ATOM      8  C7  BZF d   1       1.659   0.620   1.448  0.00  0.00     0.029 A 
ATOM      9  C7A BZF d   1       0.992   0.788   0.259  0.00  0.00     0.058 A 
ENDROOT
TORSDOF 0
ENDMDL
