MODEL 1
REMARK minimizedAffinity -4.82198191
REMARK minimizedRMSD -1
REMARK  0 active torsions:
REMARK  status: ('A' for Active; 'I' for Inactive)
ROOT
ATOM      1  O1  BZF d   1       0.631   0.879  -0.182  0.00  0.00    -0.204 OA
ATOM      2  C2  BZF d   1      -0.297   0.826  -1.205  0.00  0.00     0.174 A 
ATOM      3  C3  BZF d   1      -1.443   0.256  -0.782  0.00  0.00    -0.012 A 
ATOM      4  C3A BZF d   1      -1.252   0.016   0.615  0.00  0.00    -0.107 A 
ATOM      5  C4  BZF d   1      -2.041  -0.517   1.593  0.00  0.00     0.055 A 
ATOM      6  C5  BZF d   1      -1.529  -0.678   2.841  0.00  0.00    -0.016 A 
ATOM      7  C6  BZF d   1      -0.231  -0.323   3.145  0.00  0.00     0.022 A 
ATOM      8  C7  BZF d   1       0.589   0.214   2.209  0.00  0.00     0.029 A 
ATOM      9  C7A BZF d   1       0.064   0.409   0.955  0.00  0.00     0.058 A 
ENDROOT
TORSDOF 0
ENDMDL
