MODEL 1
REMARK minimizedAffinity -2.05055451
REMARK minimizedRMSD -1
REMARK  0 active torsions:
REMARK  status: ('A' for Active; 'I' for Inactive)
ROOT
ATOM      1  C   UNL d   1       0.373  -0.511  -0.655  0.00  0.00     0.077 C 
ATOM      2  C1  UNL d   1      -0.924  -1.235  -0.445  0.00  0.00    -0.074 A 
ATOM      3  C2  UNL d   1      -1.920  -0.701   0.379  0.00  0.00    -0.005 A 
ATOM      4  C3  UNL d   1      -3.124  -1.381   0.558  0.00  0.00     0.006 A 
ATOM      5  C4  UNL d   1      -3.345  -2.600  -0.084  0.00  0.00    -0.005 A 
ATOM      6  C5  UNL d   1      -2.361  -3.149  -0.913  0.00  0.00    -0.074 A 
ATOM      7  C6  UNL d   1      -2.585  -4.453  -1.618  0.00  0.00     0.077 C 
ATOM      8  C7  UNL d   1      -1.156  -2.456  -1.093  0.00  0.00    -0.001 A 
ENDROOT
TORSDOF 0
ENDMDL
