MODEL 1
REMARK minimizedAffinity -0.356606394
REMARK minimizedRMSD -1
REMARK  0 active torsions:
REMARK  status: ('A' for Active; 'I' for Inactive)
ROOT
ATOM      1  C   UNL d   1      -3.001   0.008   1.000  0.00  0.00     0.077 C 
ATOM      2  C1  UNL d   1      -2.451  -0.979   0.014  0.00  0.00    -0.074 A 
ATOM      3  C2  UNL d   1      -2.567  -2.355   0.235  0.00  0.00    -0.005 A 
ATOM      4  C3  UNL d   1      -2.059  -3.262  -0.696  0.00  0.00     0.006 A 
ATOM      5  C4  UNL d   1      -1.430  -2.802  -1.854  0.00  0.00    -0.005 A 
ATOM      6  C5  UNL d   1      -1.306  -1.430  -2.092  0.00  0.00    -0.074 A 
ATOM      7  C6  UNL d   1      -0.642  -0.919  -3.336  0.00  0.00     0.077 C 
ATOM      8  C7  UNL d   1      -1.826  -0.525  -1.155  0.00  0.00    -0.001 A 
ENDROOT
TORSDOF 0
ENDMDL
