MODEL 1
REMARK minimizedAffinity 0.905871332
REMARK minimizedRMSD -1
REMARK  0 active torsions:
REMARK  status: ('A' for Active; 'I' for Inactive)
ROOT
ATOM      1  C   UNL d   1      -2.415  -3.968  -1.792  0.00  0.00     0.077 C 
ATOM      2  C1  UNL d   1      -2.242  -2.643  -1.111  0.00  0.00    -0.074 A 
ATOM      3  C2  UNL d   1      -3.207  -2.162  -0.220  0.00  0.00    -0.005 A 
ATOM      4  C3  UNL d   1      -3.028  -0.932   0.414  0.00  0.00     0.006 A 
ATOM      5  C4  UNL d   1      -1.885  -0.172   0.163  0.00  0.00    -0.005 A 
ATOM      6  C5  UNL d   1      -0.909  -0.638  -0.723  0.00  0.00    -0.074 A 
ATOM      7  C6  UNL d   1       0.331   0.161  -0.996  0.00  0.00     0.077 C 
ATOM      8  C7  UNL d   1      -1.093  -1.878  -1.351  0.00  0.00    -0.001 A 
ENDROOT
TORSDOF 0
ENDMDL
