MODEL 1
REMARK minimizedAffinity 3.35607743
REMARK minimizedRMSD -1
REMARK  0 active torsions:
REMARK  status: ('A' for Active; 'I' for Inactive)
ROOT
ATOM      1  C   UNL d   1      -0.775   0.295   0.146  0.00  0.00     0.077 C 
ATOM      2  C1  UNL d   1      -1.373  -1.007  -0.298  0.00  0.00    -0.074 A 
ATOM      3  C2  UNL d   1      -0.981  -1.605  -1.500  0.00  0.00    -0.005 A 
ATOM      4  C3  UNL d   1      -1.539  -2.821  -1.895  0.00  0.00     0.006 A 
ATOM      5  C4  UNL d   1      -2.493  -3.450  -1.093  0.00  0.00    -0.005 A 
ATOM      6  C5  UNL d   1      -2.896  -2.867   0.113  0.00  0.00    -0.074 A 
ATOM      7  C6  UNL d   1      -3.912  -3.535   0.991  0.00  0.00     0.077 C 
ATOM      8  C7  UNL d   1      -2.325  -1.649   0.506  0.00  0.00    -0.001 A 
ENDROOT
TORSDOF 0
ENDMDL
