MODEL 1
REMARK minimizedAffinity 3.00038266
REMARK minimizedRMSD -1
REMARK  0 active torsions:
REMARK  status: ('A' for Active; 'I' for Inactive)
ROOT
ATOM      1  C   UNL d   1      -2.619  -4.161  -1.477  0.00  0.00     0.077 C 
ATOM      2  C1  UNL d   1      -2.399  -2.812  -0.858  0.00  0.00    -0.074 A 
ATOM      3  C2  UNL d   1      -3.323  -2.276   0.044  0.00  0.00    -0.005 A 
ATOM      4  C3  UNL d   1      -3.100  -1.025   0.619  0.00  0.00     0.006 A 
ATOM      5  C4  UNL d   1      -1.953  -0.298   0.297  0.00  0.00    -0.005 A 
ATOM      6  C5  UNL d   1      -1.017  -0.819  -0.602  0.00  0.00    -0.074 A 
ATOM      7  C6  UNL d   1       0.226  -0.055  -0.951  0.00  0.00     0.077 C 
ATOM      8  C7  UNL d   1      -1.245  -2.080  -1.170  0.00  0.00    -0.001 A 
ENDROOT
TORSDOF 0
ENDMDL
