MODEL 1
REMARK minimizedAffinity 1.83495831
REMARK minimizedRMSD -1
REMARK  0 active torsions:
REMARK  status: ('A' for Active; 'I' for Inactive)
ROOT
ATOM      1  C   UNL d   1      -2.357  -4.122  -1.015  0.00  0.00     0.077 C 
ATOM      2  C1  UNL d   1      -1.774  -2.743  -1.108  0.00  0.00    -0.074 A 
ATOM      3  C2  UNL d   1      -1.254  -2.104   0.022  0.00  0.00    -0.005 A 
ATOM      4  C3  UNL d   1      -0.707  -0.826  -0.082  0.00  0.00     0.006 A 
ATOM      5  C4  UNL d   1      -0.674  -0.174  -1.315  0.00  0.00    -0.005 A 
ATOM      6  C5  UNL d   1      -1.188  -0.797  -2.456  0.00  0.00    -0.074 A 
ATOM      7  C6  UNL d   1      -1.151  -0.114  -3.791  0.00  0.00     0.077 C 
ATOM      8  C7  UNL d   1      -1.730  -2.084  -2.345  0.00  0.00    -0.001 A 
ENDROOT
TORSDOF 0
ENDMDL
