MODEL 1
REMARK minimizedAffinity -4.14016724
REMARK minimizedRMSD -1
REMARK  0 active torsions:
REMARK  status: ('A' for Active; 'I' for Inactive)
ROOT
ATOM      1  C   UNL d   1      -6.000   1.526   5.669  0.00  0.00     0.077 C 
ATOM      2  C1  UNL d   1      -5.379   2.714   4.997  0.00  0.00    -0.074 A 
ATOM      3  C2  UNL d   1      -4.229   3.315   5.518  0.00  0.00    -0.005 A 
ATOM      4  C3  UNL d   1      -3.657   4.414   4.875  0.00  0.00     0.006 A 
ATOM      5  C4  UNL d   1      -4.229   4.921   3.708  0.00  0.00    -0.005 A 
ATOM      6  C5  UNL d   1      -5.378   4.332   3.172  0.00  0.00    -0.074 A 
ATOM      7  C6  UNL d   1      -5.999   4.858   1.912  0.00  0.00     0.077 C 
ATOM      8  C7  UNL d   1      -5.943   3.224   3.819  0.00  0.00    -0.001 A 
ENDROOT
TORSDOF 0
ENDMDL
