MODEL 1
REMARK minimizedAffinity -3.12859297
REMARK minimizedRMSD -1
REMARK  0 active torsions:
REMARK  status: ('A' for Active; 'I' for Inactive)
ROOT
ATOM      1  C   UNL d   1      -5.999   5.406   1.574  0.00  0.00     0.077 C 
ATOM      2  C1  UNL d   1      -5.242   4.849   2.742  0.00  0.00    -0.074 A 
ATOM      3  C2  UNL d   1      -3.855   5.000   2.838  0.00  0.00    -0.005 A 
ATOM      4  C3  UNL d   1      -3.165   4.485   3.935  0.00  0.00     0.006 A 
ATOM      5  C4  UNL d   1      -3.855   3.814   4.946  0.00  0.00    -0.005 A 
ATOM      6  C5  UNL d   1      -5.242   3.654   4.868  0.00  0.00    -0.074 A 
ATOM      7  C6  UNL d   1      -5.999   2.944   5.951  0.00  0.00     0.077 C 
ATOM      8  C7  UNL d   1      -5.928   4.181   3.766  0.00  0.00    -0.001 A 
ENDROOT
TORSDOF 0
ENDMDL
