MODEL 1
REMARK minimizedAffinity -1.01998973
REMARK minimizedRMSD -1
REMARK  0 active torsions:
REMARK  status: ('A' for Active; 'I' for Inactive)
ROOT
ATOM      1  C   UNL d   1      -5.977   5.999  -0.014  0.00  0.00     0.077 C 
ATOM      2  C1  UNL d   1      -5.750   5.271   1.278  0.00  0.00    -0.074 A 
ATOM      3  C2  UNL d   1      -5.305   3.945   1.288  0.00  0.00    -0.005 A 
ATOM      4  C3  UNL d   1      -5.089   3.285   2.498  0.00  0.00     0.006 A 
ATOM      5  C4  UNL d   1      -5.315   3.943   3.707  0.00  0.00    -0.005 A 
ATOM      6  C5  UNL d   1      -5.759   5.269   3.717  0.00  0.00    -0.074 A 
ATOM      7  C6  UNL d   1      -5.997   5.993   5.009  0.00  0.00     0.077 C 
ATOM      8  C7  UNL d   1      -5.967   5.928   2.498  0.00  0.00    -0.001 A 
ENDROOT
TORSDOF 0
ENDMDL
