MODEL 1
REMARK minimizedAffinity -0.345532835
REMARK minimizedRMSD -1
REMARK  0 active torsions:
REMARK  status: ('A' for Active; 'I' for Inactive)
ROOT
ATOM      1  C   UNL d   1      -4.719   2.529   5.197  0.00  0.00     0.077 C 
ATOM      2  C1  UNL d   1      -5.109   3.734   4.393  0.00  0.00    -0.074 A 
ATOM      3  C2  UNL d   1      -5.651   4.865   5.012  0.00  0.00    -0.005 A 
ATOM      4  C3  UNL d   1      -6.000   5.982   4.252  0.00  0.00     0.006 A 
ATOM      5  C4  UNL d   1      -5.812   5.979   2.870  0.00  0.00    -0.005 A 
ATOM      6  C5  UNL d   1      -5.271   4.856   2.234  0.00  0.00    -0.074 A 
ATOM      7  C6  UNL d   1      -5.053   4.840   0.750  0.00  0.00     0.077 C 
ATOM      8  C7  UNL d   1      -4.916   3.741   3.005  0.00  0.00    -0.001 A 
ENDROOT
TORSDOF 0
ENDMDL
