MODEL 1
REMARK minimizedAffinity 0.307978302
REMARK minimizedRMSD -1
REMARK  0 active torsions:
REMARK  status: ('A' for Active; 'I' for Inactive)
ROOT
ATOM      1  C   UNL d   1      -4.623   1.924   0.754  0.00  0.00     0.077 C 
ATOM      2  C1  UNL d   1      -5.096   3.347   0.768  0.00  0.00    -0.074 A 
ATOM      3  C2  UNL d   1      -5.337   4.037  -0.425  0.00  0.00    -0.005 A 
ATOM      4  C3  UNL d   1      -5.786   5.357  -0.395  0.00  0.00     0.006 A 
ATOM      5  C4  UNL d   1      -5.999   6.000   0.825  0.00  0.00    -0.005 A 
ATOM      6  C5  UNL d   1      -5.765   5.326   2.028  0.00  0.00    -0.074 A 
ATOM      7  C6  UNL d   1      -5.998   5.999   3.347  0.00  0.00     0.077 C 
ATOM      8  C7  UNL d   1      -5.320   3.997   1.990  0.00  0.00    -0.001 A 
ENDROOT
TORSDOF 0
ENDMDL
