MODEL 1
REMARK minimizedAffinity -4.25823736
REMARK minimizedRMSD -1
REMARK  0 active torsions:
REMARK  status: ('A' for Active; 'I' for Inactive)
ROOT
ATOM      1  C   UNL d   1      -5.604   4.287   1.449  0.00  0.00     0.077 C 
ATOM      2  C1  UNL d   1      -5.121   4.172   2.864  0.00  0.00    -0.074 A 
ATOM      3  C2  UNL d   1      -4.059   4.957   3.327  0.00  0.00    -0.005 A 
ATOM      4  C3  UNL d   1      -3.627   4.846   4.648  0.00  0.00     0.006 A 
ATOM      5  C4  UNL d   1      -4.249   3.951   5.519  0.00  0.00    -0.005 A 
ATOM      6  C5  UNL d   1      -5.313   3.159   5.074  0.00  0.00    -0.074 A 
ATOM      7  C6  UNL d   1      -5.999   2.199   6.000  0.00  0.00     0.077 C 
ATOM      8  C7  UNL d   1      -5.746   3.281   3.747  0.00  0.00    -0.001 A 
ENDROOT
TORSDOF 0
ENDMDL
