MODEL 1
REMARK minimizedAffinity -3.1939342
REMARK minimizedRMSD -1
REMARK  0 active torsions:
REMARK  status: ('A' for Active; 'I' for Inactive)
ROOT
ATOM      1  C   UNL d   1      -5.790   2.295   6.000  0.00  0.00     0.077 C 
ATOM      2  C1  UNL d   1      -5.799   3.563   5.199  0.00  0.00    -0.074 A 
ATOM      3  C2  UNL d   1      -6.000   4.802   5.816  0.00  0.00    -0.005 A 
ATOM      4  C3  UNL d   1      -5.996   5.973   5.059  0.00  0.00     0.006 A 
ATOM      5  C4  UNL d   1      -5.792   5.918   3.680  0.00  0.00    -0.005 A 
ATOM      6  C5  UNL d   1      -5.588   4.689   3.045  0.00  0.00    -0.074 A 
ATOM      7  C6  UNL d   1      -5.358   4.612   1.565  0.00  0.00     0.077 C 
ATOM      8  C7  UNL d   1      -5.587   3.516   3.814  0.00  0.00    -0.001 A 
ENDROOT
TORSDOF 0
ENDMDL
