MODEL 1
REMARK minimizedAffinity -1.9983741
REMARK minimizedRMSD -1
REMARK  0 active torsions:
REMARK  status: ('A' for Active; 'I' for Inactive)
ROOT
ATOM      1  C   UNL d   1      -5.444   5.957   1.613  0.00  0.00     0.077 C 
ATOM      2  C1  UNL d   1      -5.366   4.692   2.415  0.00  0.00    -0.074 A 
ATOM      3  C2  UNL d   1      -4.943   3.495   1.829  0.00  0.00    -0.005 A 
ATOM      4  C3  UNL d   1      -4.866   2.328   2.591  0.00  0.00     0.006 A 
ATOM      5  C4  UNL d   1      -5.211   2.348   3.943  0.00  0.00    -0.005 A 
ATOM      6  C5  UNL d   1      -5.635   3.536   4.545  0.00  0.00    -0.074 A 
ATOM      7  C6  UNL d   1      -6.000   3.577   6.000  0.00  0.00     0.077 C 
ATOM      8  C7  UNL d   1      -5.703   4.705   3.776  0.00  0.00    -0.001 A 
ENDROOT
TORSDOF 0
ENDMDL
