MODEL 1
REMARK minimizedAffinity -2.87115479
REMARK minimizedRMSD -1
REMARK  0 active torsions:
REMARK  status: ('A' for Active; 'I' for Inactive)
ROOT
ATOM      1  C   UNL d   1      -4.443   2.598   5.212  0.00  0.00     0.077 C 
ATOM      2  C1  UNL d   1      -4.963   3.785   4.458  0.00  0.00    -0.074 A 
ATOM      3  C2  UNL d   1      -5.524   4.875   5.132  0.00  0.00    -0.005 A 
ATOM      4  C3  UNL d   1      -5.995   5.977   4.418  0.00  0.00     0.006 A 
ATOM      5  C4  UNL d   1      -5.910   6.000   3.025  0.00  0.00    -0.005 A 
ATOM      6  C5  UNL d   1      -5.351   4.920   2.334  0.00  0.00    -0.074 A 
ATOM      7  C6  UNL d   1      -5.243   4.934   0.838  0.00  0.00     0.077 C 
ATOM      8  C7  UNL d   1      -4.873   3.820   3.059  0.00  0.00    -0.001 A 
ENDROOT
TORSDOF 0
ENDMDL
