MODEL 1
REMARK minimizedAffinity -3.37603593
REMARK minimizedRMSD -1
REMARK  0 active torsions:
REMARK  status: ('A' for Active; 'I' for Inactive)
ROOT
ATOM      1  C   UNL d   1      -4.886   5.769   1.077  0.00  0.00     0.077 C 
ATOM      2  C1  UNL d   1      -5.245   5.065   2.351  0.00  0.00    -0.074 A 
ATOM      3  C2  UNL d   1      -5.374   3.673   2.392  0.00  0.00    -0.005 A 
ATOM      4  C3  UNL d   1      -5.699   3.031   3.587  0.00  0.00     0.006 A 
ATOM      5  C4  UNL d   1      -5.898   3.773   4.752  0.00  0.00    -0.005 A 
ATOM      6  C5  UNL d   1      -5.772   5.166   4.731  0.00  0.00    -0.074 A 
ATOM      7  C6  UNL d   1      -5.973   5.978   5.975  0.00  0.00     0.077 C 
ATOM      8  C7  UNL d   1      -5.438   5.803   3.527  0.00  0.00    -0.001 A 
ENDROOT
TORSDOF 0
ENDMDL
