MODEL 1
REMARK minimizedAffinity -2.90077305
REMARK minimizedRMSD -1
REMARK  0 active torsions:
REMARK  status: ('A' for Active; 'I' for Inactive)
ROOT
ATOM      1  C   UNL d   1      -5.999   4.752   1.511  0.00  0.00     0.077 C 
ATOM      2  C1  UNL d   1      -5.686   4.794   2.977  0.00  0.00    -0.074 A 
ATOM      3  C2  UNL d   1      -5.130   5.936   3.561  0.00  0.00    -0.005 A 
ATOM      4  C3  UNL d   1      -4.853   5.964   4.928  0.00  0.00     0.006 A 
ATOM      5  C4  UNL d   1      -5.130   4.851   5.724  0.00  0.00    -0.005 A 
ATOM      6  C5  UNL d   1      -5.687   3.700   5.158  0.00  0.00    -0.074 A 
ATOM      7  C6  UNL d   1      -6.000   2.499   6.000  0.00  0.00     0.077 C 
ATOM      8  C7  UNL d   1      -5.969   3.683   3.785  0.00  0.00    -0.001 A 
ENDROOT
TORSDOF 0
ENDMDL
