MODEL 1
REMARK minimizedAffinity 1.51027691
REMARK minimizedRMSD -1
REMARK  1 active torsions:
REMARK  status: ('A' for Active; 'I' for Inactive)
REMARK    1  A    between atoms: C3_4  and  O_7 
ROOT
ATOM      1  C   UNL d   1      -0.569  -2.952   0.567  0.00  0.00    -0.033 A 
ATOM      2  C1  UNL d   1      -0.922  -1.643   0.903  0.00  0.00     0.039 A 
ATOM      3  C2  UNL d   1       0.069  -0.679   1.096  0.00  0.00    -0.080 A 
ATOM      4  C3  UNL d   1       1.407  -1.035   0.950  0.00  0.00     0.150 A 
ATOM      5  C4  UNL d   1       1.765  -2.336   0.612  0.00  0.00    -0.007 A 
ATOM      6  C5  UNL d   1       0.774  -3.298   0.420  0.00  0.00     0.039 A 
ENDROOT
BRANCH   4   7
ATOM      7  O   UNL d   1       2.409  -0.130   1.134  0.00  0.00    -0.526 OA
ATOM      8  H5  UNL d   1       2.013   0.720   1.392  0.00  0.00     0.418 HD
ENDBRANCH   4   7
TORSDOF 1
ENDMDL
