MODEL 1
REMARK minimizedAffinity 3.47766685
REMARK minimizedRMSD -1
REMARK  1 active torsions:
REMARK  status: ('A' for Active; 'I' for Inactive)
REMARK    1  A    between atoms: C3_4  and  O_7 
ROOT
ATOM      1  C   UNL d   1       0.632  -0.132   1.032  0.00  0.00    -0.033 A 
ATOM      2  C1  UNL d   1       1.854  -0.583   0.529  0.00  0.00     0.039 A 
ATOM      3  C2  UNL d   1       1.945  -1.848  -0.056  0.00  0.00    -0.080 A 
ATOM      4  C3  UNL d   1       0.809  -2.649  -0.132  0.00  0.00     0.150 A 
ATOM      5  C4  UNL d   1      -0.412  -2.204   0.364  0.00  0.00    -0.007 A 
ATOM      6  C5  UNL d   1      -0.501  -0.941   0.948  0.00  0.00     0.039 A 
ENDROOT
BRANCH   4   7
ATOM      7  O   UNL d   1       0.850  -3.893  -0.689  0.00  0.00    -0.526 OA
ATOM      8  H5  UNL d   1       1.764  -4.078  -0.962  0.00  0.00     0.418 HD
ENDBRANCH   4   7
TORSDOF 1
ENDMDL
