MODEL 1
REMARK minimizedAffinity 2.11546636
REMARK minimizedRMSD -1
REMARK  1 active torsions:
REMARK  status: ('A' for Active; 'I' for Inactive)
REMARK    1  A    between atoms: C3_4  and  O_7 
ROOT
ATOM      1  C   UNL d   1      -0.188  -2.780   0.090  0.00  0.00    -0.033 A 
ATOM      2  C1  UNL d   1      -0.336  -1.725   0.993  0.00  0.00     0.039 A 
ATOM      3  C2  UNL d   1       0.781  -0.998   1.408  0.00  0.00    -0.080 A 
ATOM      4  C3  UNL d   1       2.038  -1.334   0.913  0.00  0.00     0.150 A 
ATOM      5  C4  UNL d   1       2.192  -2.381   0.011  0.00  0.00    -0.007 A 
ATOM      6  C5  UNL d   1       1.075  -3.107  -0.402  0.00  0.00     0.039 A 
ENDROOT
BRANCH   4   7
ATOM      7  O   UNL d   1       3.158  -0.656   1.293  0.00  0.00    -0.526 OA
ATOM      8  H5  UNL d   1       2.903   0.021   1.942  0.00  0.00     0.418 HD
ENDBRANCH   4   7
TORSDOF 1
ENDMDL
