MODEL 1
REMARK minimizedAffinity 7.87846756
REMARK minimizedRMSD -1
REMARK  1 active torsions:
REMARK  status: ('A' for Active; 'I' for Inactive)
REMARK    1  A    between atoms: C3_4  and  O_7 
ROOT
ATOM      1  C   UNL d   1      -4.857  -5.999   4.700  0.00  0.00    -0.033 A 
ATOM      2  C1  UNL d   1      -3.724  -5.954   3.886  0.00  0.00     0.039 A 
ATOM      3  C2  UNL d   1      -3.728  -5.180   2.724  0.00  0.00    -0.080 A 
ATOM      4  C3  UNL d   1      -4.869  -4.456   2.388  0.00  0.00     0.150 A 
ATOM      5  C4  UNL d   1      -6.000  -4.493   3.197  0.00  0.00    -0.007 A 
ATOM      6  C5  UNL d   1      -5.995  -5.267   4.357  0.00  0.00     0.039 A 
ENDROOT
BRANCH   4   7
ATOM      7  O   UNL d   1      -4.921  -3.691   1.261  0.00  0.00    -0.526 OA
ATOM      8  H5  UNL d   1      -4.079  -3.785   0.786  0.00  0.00     0.418 HD
ENDBRANCH   4   7
TORSDOF 1
ENDMDL
