MODEL 1
REMARK minimizedAffinity -2.54393935
REMARK minimizedRMSD -1
REMARK  1 active torsions:
REMARK  status: ('A' for Active; 'I' for Inactive)
REMARK    1  A    between atoms: C3_4  and  O_7 
ROOT
ATOM      1  C   UNL d   1      -0.308  -3.042  -0.292  0.00  0.00    -0.033 A 
ATOM      2  C1  UNL d   1       1.018  -3.258  -0.671  0.00  0.00     0.039 A 
ATOM      3  C2  UNL d   1       2.010  -2.349  -0.295  0.00  0.00    -0.080 A 
ATOM      4  C3  UNL d   1       1.663  -1.232   0.459  0.00  0.00     0.150 A 
ATOM      5  C4  UNL d   1       0.345  -1.013   0.844  0.00  0.00    -0.007 A 
ATOM      6  C5  UNL d   1      -0.645  -1.921   0.467  0.00  0.00     0.039 A 
ENDROOT
BRANCH   4   7
ATOM      7  O   UNL d   1       2.596  -0.316   0.845  0.00  0.00    -0.526 OA
ATOM      8  H5  UNL d   1       3.457  -0.582   0.483  0.00  0.00     0.418 HD
ENDBRANCH   4   7
TORSDOF 1
ENDMDL
