MODEL 1
REMARK minimizedAffinity 0.287163794
REMARK minimizedRMSD -1
REMARK  1 active torsions:
REMARK  status: ('A' for Active; 'I' for Inactive)
REMARK    1  A    between atoms: C3_4  and  O_7 
ROOT
ATOM      1  C   UNL d   1      -1.167  -1.815   0.841  0.00  0.00    -0.033 A 
ATOM      2  C1  UNL d   1      -1.183  -2.852  -0.094  0.00  0.00     0.039 A 
ATOM      3  C2  UNL d   1       0.017  -3.404  -0.547  0.00  0.00    -0.080 A 
ATOM      4  C3  UNL d   1       1.223  -2.912  -0.058  0.00  0.00     0.150 A 
ATOM      5  C4  UNL d   1       1.246  -1.881   0.876  0.00  0.00    -0.007 A 
ATOM      6  C5  UNL d   1       0.047  -1.330   1.326  0.00  0.00     0.039 A 
ENDROOT
BRANCH   4   7
ATOM      7  O   UNL d   1       2.420  -3.415  -0.475  0.00  0.00    -0.526 OA
ATOM      8  H5  UNL d   1       2.250  -4.101  -1.141  0.00  0.00     0.418 HD
ENDBRANCH   4   7
TORSDOF 1
ENDMDL
