MODEL 1
REMARK minimizedAffinity -4.5682807
REMARK minimizedRMSD -1
REMARK  1 active torsions:
REMARK  status: ('A' for Active; 'I' for Inactive)
REMARK    1  A    between atoms: C3_4  and  O_7 
ROOT
ATOM      1  C   UNL d   1      -1.022  -0.540   0.634  0.00  0.00    -0.033 A 
ATOM      2  C1  UNL d   1      -1.227  -1.755  -0.022  0.00  0.00     0.039 A 
ATOM      3  C2  UNL d   1      -0.168  -2.651  -0.183  0.00  0.00    -0.080 A 
ATOM      4  C3  UNL d   1       1.088  -2.320   0.316  0.00  0.00     0.150 A 
ATOM      5  C4  UNL d   1       1.299  -1.113   0.973  0.00  0.00    -0.007 A 
ATOM      6  C5  UNL d   1       0.241  -0.220   1.133  0.00  0.00     0.039 A 
ENDROOT
BRANCH   4   7
ATOM      7  O   UNL d   1       2.153  -3.160   0.178  0.00  0.00    -0.526 OA
ATOM      8  H5  UNL d   1       1.866  -3.943  -0.322  0.00  0.00     0.418 HD
ENDBRANCH   4   7
TORSDOF 1
ENDMDL
