MODEL 1
REMARK minimizedAffinity -3.20082664
REMARK minimizedRMSD -1
REMARK  1 active torsions:
REMARK  status: ('A' for Active; 'I' for Inactive)
REMARK    1  A    between atoms: C3_4  and  O_7 
ROOT
ATOM      1  C   UNL d   1      -5.650  -4.360   5.991  0.00  0.00    -0.033 A 
ATOM      2  C1  UNL d   1      -5.882  -3.258   5.166  0.00  0.00     0.039 A 
ATOM      3  C2  UNL d   1      -5.839  -3.401   3.778  0.00  0.00    -0.080 A 
ATOM      4  C3  UNL d   1      -5.563  -4.650   3.228  0.00  0.00     0.150 A 
ATOM      5  C4  UNL d   1      -5.335  -5.753   4.044  0.00  0.00    -0.007 A 
ATOM      6  C5  UNL d   1      -5.378  -5.608   5.430  0.00  0.00     0.039 A 
ENDROOT
BRANCH   4   7
ATOM      7  O   UNL d   1      -5.505  -4.838   1.879  0.00  0.00    -0.526 OA
ATOM      8  H5  UNL d   1      -5.655  -3.982   1.443  0.00  0.00     0.418 HD
ENDBRANCH   4   7
TORSDOF 1
ENDMDL
