MODEL 1
REMARK minimizedAffinity -1.4995414
REMARK minimizedRMSD -1
REMARK  1 active torsions:
REMARK  status: ('A' for Active; 'I' for Inactive)
REMARK    1  A    between atoms: C3_4  and  O_7 
ROOT
ATOM      1  C   UNL d   1       0.227  -0.610   1.096  0.00  0.00    -0.033 A 
ATOM      2  C1  UNL d   1       1.485  -0.562   0.491  0.00  0.00     0.039 A 
ATOM      3  C2  UNL d   1       1.938  -1.643  -0.268  0.00  0.00    -0.080 A 
ATOM      4  C3  UNL d   1       1.126  -2.764  -0.413  0.00  0.00     0.150 A 
ATOM      5  C4  UNL d   1      -0.129  -2.818   0.185  0.00  0.00    -0.007 A 
ATOM      6  C5  UNL d   1      -0.580  -1.737   0.942  0.00  0.00     0.039 A 
ENDROOT
BRANCH   4   7
ATOM      7  O   UNL d   1       1.527  -3.846  -1.139  0.00  0.00    -0.526 OA
ATOM      8  H5  UNL d   1       2.426  -3.679  -1.469  0.00  0.00     0.418 HD
ENDBRANCH   4   7
TORSDOF 1
ENDMDL
