MODEL 1
REMARK minimizedAffinity -1.19176543
REMARK minimizedRMSD -1
REMARK  1 active torsions:
REMARK  status: ('A' for Active; 'I' for Inactive)
REMARK    1  A    between atoms: C3_4  and  O_7 
ROOT
ATOM      1  C   UNL d   1       0.162  -0.177   1.027  0.00  0.00    -0.033 A 
ATOM      2  C1  UNL d   1       1.537  -0.190   0.781  0.00  0.00     0.039 A 
ATOM      3  C2  UNL d   1       2.148  -1.340   0.280  0.00  0.00    -0.080 A 
ATOM      4  C3  UNL d   1       1.375  -2.470   0.027  0.00  0.00     0.150 A 
ATOM      5  C4  UNL d   1       0.004  -2.463   0.265  0.00  0.00    -0.007 A 
ATOM      6  C5  UNL d   1      -0.604  -1.314   0.767  0.00  0.00     0.039 A 
ENDROOT
BRANCH   4   7
ATOM      7  O   UNL d   1       1.927  -3.618  -0.458  0.00  0.00    -0.526 OA
ATOM      8  H5  UNL d   1       2.886  -3.485  -0.546  0.00  0.00     0.418 HD
ENDBRANCH   4   7
TORSDOF 1
ENDMDL
