MODEL 1
REMARK minimizedAffinity -1.51754129
REMARK minimizedRMSD -1
REMARK  1 active torsions:
REMARK  status: ('A' for Active; 'I' for Inactive)
REMARK    1  A    between atoms: C3_4  and  O_7 
ROOT
ATOM      1  C   UNL d   1      -1.926   1.620   3.228  0.00  0.00    -0.033 A 
ATOM      2  C1  UNL d   1      -1.566   0.525   4.016  0.00  0.00     0.039 A 
ATOM      3  C2  UNL d   1      -1.307  -0.711   3.421  0.00  0.00    -0.080 A 
ATOM      4  C3  UNL d   1      -1.410  -0.839   2.038  0.00  0.00     0.150 A 
ATOM      5  C4  UNL d   1      -1.764   0.249   1.247  0.00  0.00    -0.007 A 
ATOM      6  C5  UNL d   1      -2.024   1.482   1.843  0.00  0.00     0.039 A 
ENDROOT
BRANCH   4   7
ATOM      7  O   UNL d   1      -1.172  -2.026   1.412  0.00  0.00    -0.526 OA
ATOM      8  H5  UNL d   1      -0.966  -2.694   2.088  0.00  0.00     0.418 HD
ENDBRANCH   4   7
TORSDOF 1
ENDMDL
