MODEL 1
REMARK minimizedAffinity -2.25752616
REMARK minimizedRMSD -1
REMARK  1 active torsions:
REMARK  status: ('A' for Active; 'I' for Inactive)
REMARK    1  A    between atoms: C3_4  and  O_7 
ROOT
ATOM      1  C   UNL d   1      -4.830  -2.639   2.179  0.00  0.00    -0.033 A 
ATOM      2  C1  UNL d   1      -5.292  -3.769   1.501  0.00  0.00     0.039 A 
ATOM      3  C2  UNL d   1      -5.662  -4.910   2.216  0.00  0.00    -0.080 A 
ATOM      4  C3  UNL d   1      -5.566  -4.908   3.604  0.00  0.00     0.150 A 
ATOM      5  C4  UNL d   1      -5.111  -3.784   4.286  0.00  0.00    -0.007 A 
ATOM      6  C5  UNL d   1      -4.742  -2.646   3.571  0.00  0.00     0.039 A 
ENDROOT
BRANCH   4   7
ATOM      7  O   UNL d   1      -5.911  -6.000   4.344  0.00  0.00    -0.526 OA
ATOM      8  H5  UNL d   1      -6.180  -6.710   3.738  0.00  0.00     0.418 HD
ENDBRANCH   4   7
TORSDOF 1
ENDMDL
