MODEL 1
REMARK minimizedAffinity 0.0545747951
REMARK minimizedRMSD -1
REMARK  1 active torsions:
REMARK  status: ('A' for Active; 'I' for Inactive)
REMARK    1  A    between atoms: C3_4  and  O_7 
ROOT
ATOM      1  C   UNL d   1      -0.414  -1.642  -0.216  0.00  0.00    -0.033 A 
ATOM      2  C1  UNL d   1      -0.675  -0.915   0.947  0.00  0.00     0.039 A 
ATOM      3  C2  UNL d   1       0.378  -0.368   1.682  0.00  0.00    -0.080 A 
ATOM      4  C3  UNL d   1       1.686  -0.553   1.243  0.00  0.00     0.150 A 
ATOM      5  C4  UNL d   1       1.954  -1.273   0.082  0.00  0.00    -0.007 A 
ATOM      6  C5  UNL d   1       0.900  -1.819  -0.649  0.00  0.00     0.039 A 
ENDROOT
BRANCH   4   7
ATOM      7  O   UNL d   1       2.748  -0.042   1.929  0.00  0.00    -0.526 OA
ATOM      8  H5  UNL d   1       2.413   0.405   2.724  0.00  0.00     0.418 HD
ENDBRANCH   4   7
TORSDOF 1
ENDMDL
