MODEL 1
REMARK minimizedAffinity 6.0345664
REMARK minimizedRMSD -1
REMARK  1 active torsions:
REMARK  status: ('A' for Active; 'I' for Inactive)
REMARK    1  A    between atoms: C3_4  and  O_7 
ROOT
ATOM      1  C   UNL d   1       2.785   1.597  -3.285  0.00  0.00    -0.033 A 
ATOM      2  C1  UNL d   1       2.138   2.820  -3.100  0.00  0.00     0.039 A 
ATOM      3  C2  UNL d   1       2.625   3.735  -2.164  0.00  0.00    -0.080 A 
ATOM      4  C3  UNL d   1       3.758   3.415  -1.422  0.00  0.00     0.150 A 
ATOM      5  C4  UNL d   1       4.410   2.200  -1.604  0.00  0.00    -0.007 A 
ATOM      6  C5  UNL d   1       3.922   1.288  -2.538  0.00  0.00     0.039 A 
ENDROOT
BRANCH   4   7
ATOM      7  O   UNL d   1       4.267   4.274  -0.494  0.00  0.00    -0.526 OA
ATOM      8  H5  UNL d   1       3.698   5.060  -0.456  0.00  0.00     0.418 HD
ENDBRANCH   4   7
TORSDOF 1
ENDMDL
