MODEL 1
REMARK minimizedAffinity 1.45270801
REMARK minimizedRMSD -1
REMARK  1 active torsions:
REMARK  status: ('A' for Active; 'I' for Inactive)
REMARK    1  A    between atoms: C3_4  and  O_7 
ROOT
ATOM      1  C   UNL d   1       1.429  -0.917   1.589  0.00  0.00    -0.033 A 
ATOM      2  C1  UNL d   1       0.039  -1.039   1.566  0.00  0.00     0.039 A 
ATOM      3  C2  UNL d   1      -0.564  -2.038   0.799  0.00  0.00    -0.080 A 
ATOM      4  C3  UNL d   1       0.234  -2.908   0.061  0.00  0.00     0.150 A 
ATOM      5  C4  UNL d   1       1.620  -2.795   0.082  0.00  0.00    -0.007 A 
ATOM      6  C5  UNL d   1       2.220  -1.796   0.848  0.00  0.00     0.039 A 
ENDROOT
BRANCH   4   7
ATOM      7  O   UNL d   1      -0.309  -3.895  -0.707  0.00  0.00    -0.526 OA
ATOM      8  H5  UNL d   1      -1.277  -3.834  -0.647  0.00  0.00     0.418 HD
ENDBRANCH   4   7
TORSDOF 1
ENDMDL
