MODEL 1
REMARK minimizedAffinity -3.20246148
REMARK minimizedRMSD -1
REMARK  0 active torsions:
REMARK  status: ('A' for Active; 'I' for Inactive)
ROOT
ATOM      1  C   UNL d   1       1.183  -2.549  -1.623  0.00  0.00     0.078 C 
ATOM      2  C1  UNL d   1       0.808  -1.154  -1.221  0.00  0.00    -0.077 A 
ATOM      3  C2  UNL d   1      -0.388  -0.896  -0.540  0.00  0.00    -0.001 A 
ATOM      4  C3  UNL d   1      -0.729   0.408  -0.180  0.00  0.00     0.003 A 
ATOM      5  C4  UNL d   1       0.121   1.466  -0.497  0.00  0.00    -0.005 A 
ATOM      6  C5  UNL d   1       1.313   1.220  -1.176  0.00  0.00     0.003 A 
ATOM      7  C6  UNL d   1       1.655  -0.084  -1.537  0.00  0.00    -0.001 A 
ENDROOT
TORSDOF 0
ENDMDL
