MODEL 1
REMARK minimizedAffinity -2.97734642
REMARK minimizedRMSD -1
REMARK  0 active torsions:
REMARK  status: ('A' for Active; 'I' for Inactive)
ROOT
ATOM      1  C   UNL d   1       1.028  -1.239  -1.021  0.00  0.00     0.078 C 
ATOM      2  C1  UNL d   1       0.172  -0.397  -0.123  0.00  0.00    -0.077 A 
ATOM      3  C2  UNL d   1      -0.125  -0.808   1.182  0.00  0.00    -0.001 A 
ATOM      4  C3  UNL d   1      -0.931  -0.020   2.005  0.00  0.00     0.003 A 
ATOM      5  C4  UNL d   1      -1.447   1.185   1.531  0.00  0.00    -0.005 A 
ATOM      6  C5  UNL d   1      -1.159   1.601   0.233  0.00  0.00     0.003 A 
ATOM      7  C6  UNL d   1      -0.353   0.814  -0.591  0.00  0.00    -0.001 A 
ENDROOT
TORSDOF 0
ENDMDL
