MODEL 1
REMARK minimizedAffinity -5.97956848
REMARK minimizedRMSD -1
REMARK  0 active torsions:
REMARK  status: ('A' for Active; 'I' for Inactive)
ROOT
ATOM      1  C   UNL d   1       0.063  -0.098  -0.863  0.00  0.00     0.078 C 
ATOM      2  C1  UNL d   1      -0.605   1.158  -0.387  0.00  0.00    -0.077 A 
ATOM      3  C2  UNL d   1      -0.332   2.392  -0.990  0.00  0.00    -0.001 A 
ATOM      4  C3  UNL d   1      -0.954   3.555  -0.531  0.00  0.00     0.003 A 
ATOM      5  C4  UNL d   1      -1.850   3.495   0.534  0.00  0.00    -0.005 A 
ATOM      6  C5  UNL d   1      -2.126   2.271   1.142  0.00  0.00     0.003 A 
ATOM      7  C6  UNL d   1      -1.505   1.108   0.684  0.00  0.00    -0.001 A 
ENDROOT
TORSDOF 0
ENDMDL
