MODEL 1
REMARK minimizedAffinity -4.5430665
REMARK minimizedRMSD -1
REMARK  0 active torsions:
REMARK  status: ('A' for Active; 'I' for Inactive)
ROOT
ATOM      1  C   UNL d   1      -2.128   2.302   0.957  0.00  0.00     0.078 C 
ATOM      2  C1  UNL d   1      -1.032   1.518   0.299  0.00  0.00    -0.077 A 
ATOM      3  C2  UNL d   1      -0.358   2.020  -0.821  0.00  0.00    -0.001 A 
ATOM      4  C3  UNL d   1       0.654   1.275  -1.429  0.00  0.00     0.003 A 
ATOM      5  C4  UNL d   1       1.000   0.023  -0.924  0.00  0.00    -0.005 A 
ATOM      6  C5  UNL d   1       0.333  -0.486   0.188  0.00  0.00     0.003 A 
ATOM      7  C6  UNL d   1      -0.679   0.257   0.797  0.00  0.00    -0.001 A 
ENDROOT
TORSDOF 0
ENDMDL
