MODEL 1
REMARK minimizedAffinity -4.84189272
REMARK minimizedRMSD -1
REMARK  0 active torsions:
REMARK  status: ('A' for Active; 'I' for Inactive)
ROOT
ATOM      1  C   UNL d   1      -2.090   2.591   1.062  0.00  0.00     0.078 C 
ATOM      2  C1  UNL d   1      -1.101   1.521   0.712  0.00  0.00    -0.077 A 
ATOM      3  C2  UNL d   1      -0.554   1.437  -0.575  0.00  0.00    -0.001 A 
ATOM      4  C3  UNL d   1       0.359   0.429  -0.890  0.00  0.00     0.003 A 
ATOM      5  C4  UNL d   1       0.733  -0.503   0.076  0.00  0.00    -0.005 A 
ATOM      6  C5  UNL d   1       0.193  -0.429   1.358  0.00  0.00     0.003 A 
ATOM      7  C6  UNL d   1      -0.720   0.578   1.675  0.00  0.00    -0.001 A 
ENDROOT
TORSDOF 0
ENDMDL
