MODEL 1
REMARK minimizedAffinity -2.37572193
REMARK minimizedRMSD -1
REMARK  0 active torsions:
REMARK  status: ('A' for Active; 'I' for Inactive)
ROOT
ATOM      1  C   UNL d   1       1.206  -4.637  -1.101  0.00  0.00     0.078 C 
ATOM      2  C1  UNL d   1       1.108  -3.211  -1.554  0.00  0.00    -0.077 A 
ATOM      3  C2  UNL d   1       1.409  -2.155  -0.685  0.00  0.00    -0.001 A 
ATOM      4  C3  UNL d   1       1.304  -0.832  -1.117  0.00  0.00     0.003 A 
ATOM      5  C4  UNL d   1       0.897  -0.553  -2.420  0.00  0.00    -0.005 A 
ATOM      6  C5  UNL d   1       0.594  -1.596  -3.292  0.00  0.00     0.003 A 
ATOM      7  C6  UNL d   1       0.698  -2.920  -2.861  0.00  0.00    -0.001 A 
ENDROOT
TORSDOF 0
ENDMDL
