MODEL 1
REMARK minimizedAffinity -4.32189417
REMARK minimizedRMSD -1
REMARK  0 active torsions:
REMARK  status: ('A' for Active; 'I' for Inactive)
ROOT
ATOM      1  C   UNL d   1      -2.118   1.954   1.470  0.00  0.00     0.078 C 
ATOM      2  C1  UNL d   1      -1.100   0.984   0.948  0.00  0.00    -0.077 A 
ATOM      3  C2  UNL d   1      -0.508   1.167  -0.308  0.00  0.00    -0.001 A 
ATOM      4  C3  UNL d   1       0.431   0.251  -0.786  0.00  0.00     0.003 A 
ATOM      5  C4  UNL d   1       0.784  -0.855  -0.015  0.00  0.00    -0.005 A 
ATOM      6  C5  UNL d   1       0.198  -1.047   1.235  0.00  0.00     0.003 A 
ATOM      7  C6  UNL d   1      -0.740  -0.132   1.714  0.00  0.00    -0.001 A 
ENDROOT
TORSDOF 0
ENDMDL
