MODEL 1
REMARK minimizedAffinity -1.38378084
REMARK minimizedRMSD -1
REMARK  0 active torsions:
REMARK  status: ('A' for Active; 'I' for Inactive)
ROOT
ATOM      1  C   UNL d   1       0.764   0.746  -1.884  0.00  0.00     0.078 C 
ATOM      2  C1  UNL d   1       0.751  -0.740  -2.079  0.00  0.00    -0.077 A 
ATOM      3  C2  UNL d   1       0.208  -1.312  -3.236  0.00  0.00    -0.001 A 
ATOM      4  C3  UNL d   1       0.194  -2.698  -3.399  0.00  0.00     0.003 A 
ATOM      5  C4  UNL d   1       0.720  -3.524  -2.409  0.00  0.00    -0.005 A 
ATOM      6  C5  UNL d   1       1.261  -2.965  -1.253  0.00  0.00     0.003 A 
ATOM      7  C6  UNL d   1       1.276  -1.579  -1.088  0.00  0.00    -0.001 A 
ENDROOT
TORSDOF 0
ENDMDL
