MODEL 1
REMARK minimizedAffinity -3.24038577
REMARK minimizedRMSD -1
REMARK  0 active torsions:
REMARK  status: ('A' for Active; 'I' for Inactive)
ROOT
ATOM      1  C   UNL d   1      -1.537   2.598   1.618  0.00  0.00     0.078 C 
ATOM      2  C1  UNL d   1      -0.625   1.745   0.787  0.00  0.00    -0.077 A 
ATOM      3  C2  UNL d   1      -0.017   2.252  -0.368  0.00  0.00    -0.001 A 
ATOM      4  C3  UNL d   1       0.823   1.445  -1.136  0.00  0.00     0.003 A 
ATOM      5  C4  UNL d   1       1.061   0.125  -0.759  0.00  0.00    -0.005 A 
ATOM      6  C5  UNL d   1       0.459  -0.390   0.387  0.00  0.00     0.003 A 
ATOM      7  C6  UNL d   1      -0.381   0.417   1.157  0.00  0.00    -0.001 A 
ENDROOT
TORSDOF 0
ENDMDL
