MODEL 1
REMARK minimizedAffinity -4.83417225
REMARK minimizedRMSD -1
REMARK  0 active torsions:
REMARK  status: ('A' for Active; 'I' for Inactive)
ROOT
ATOM      1  C   UNL d   1       0.433  -0.351  -0.566  0.00  0.00     0.078 C 
ATOM      2  C1  UNL d   1      -0.182   0.964  -0.190  0.00  0.00    -0.077 A 
ATOM      3  C2  UNL d   1       0.189   2.147  -0.842  0.00  0.00    -0.001 A 
ATOM      4  C3  UNL d   1      -0.385   3.365  -0.475  0.00  0.00     0.003 A 
ATOM      5  C4  UNL d   1      -1.332   3.413   0.546  0.00  0.00    -0.005 A 
ATOM      6  C5  UNL d   1      -1.706   2.242   1.202  0.00  0.00     0.003 A 
ATOM      7  C6  UNL d   1      -1.133   1.023   0.836  0.00  0.00    -0.001 A 
ENDROOT
TORSDOF 0
ENDMDL
