MODEL 1
REMARK minimizedAffinity -5.93894339
REMARK minimizedRMSD -1
REMARK  0 active torsions:
REMARK  status: ('A' for Active; 'I' for Inactive)
ROOT
ATOM      1  C   UNL d   1       0.909  -0.631  -0.271  0.00  0.00     0.078 C 
ATOM      2  C1  UNL d   1       0.099   0.538   0.205  0.00  0.00    -0.077 A 
ATOM      3  C2  UNL d   1      -0.561   0.502   1.439  0.00  0.00    -0.001 A 
ATOM      4  C3  UNL d   1      -1.320   1.594   1.866  0.00  0.00     0.003 A 
ATOM      5  C4  UNL d   1      -1.426   2.728   1.063  0.00  0.00    -0.005 A 
ATOM      6  C5  UNL d   1      -0.774   2.772  -0.167  0.00  0.00     0.003 A 
ATOM      7  C6  UNL d   1      -0.015   1.681  -0.595  0.00  0.00    -0.001 A 
ENDROOT
TORSDOF 0
ENDMDL
