MODEL 1
REMARK minimizedAffinity -4.53040218
REMARK minimizedRMSD -1
REMARK  0 active torsions:
REMARK  status: ('A' for Active; 'I' for Inactive)
ROOT
ATOM      1  C   UNL d   1      -1.673   1.888   1.624  0.00  0.00     0.078 C 
ATOM      2  C1  UNL d   1      -0.727   1.028   0.839  0.00  0.00    -0.077 A 
ATOM      3  C2  UNL d   1      -0.230  -0.168   1.371  0.00  0.00    -0.001 A 
ATOM      4  C3  UNL d   1       0.657  -0.954   0.633  0.00  0.00     0.003 A 
ATOM      5  C4  UNL d   1       1.055  -0.551  -0.640  0.00  0.00    -0.005 A 
ATOM      6  C5  UNL d   1       0.568   0.639  -1.176  0.00  0.00     0.003 A 
ATOM      7  C6  UNL d   1      -0.319   1.425  -0.440  0.00  0.00    -0.001 A 
ENDROOT
TORSDOF 0
ENDMDL
