MODEL 1
REMARK minimizedAffinity -5.44054699
REMARK minimizedRMSD -1
REMARK  0 active torsions:
REMARK  status: ('A' for Active; 'I' for Inactive)
ROOT
ATOM      1  C   UNL d   1       0.802  -0.428  -0.775  0.00  0.00     0.078 C 
ATOM      2  C1  UNL d   1      -0.082   0.628  -0.183  0.00  0.00    -0.077 A 
ATOM      3  C2  UNL d   1      -0.013   1.956  -0.622  0.00  0.00    -0.001 A 
ATOM      4  C3  UNL d   1      -0.835   2.931  -0.055  0.00  0.00     0.003 A 
ATOM      5  C4  UNL d   1      -1.732   2.588   0.955  0.00  0.00    -0.005 A 
ATOM      6  C5  UNL d   1      -1.806   1.270   1.400  0.00  0.00     0.003 A 
ATOM      7  C6  UNL d   1      -0.985   0.294   0.834  0.00  0.00    -0.001 A 
ENDROOT
TORSDOF 0
ENDMDL
