MODEL 1
REMARK minimizedAffinity -4.89527798
REMARK minimizedRMSD -1
REMARK  0 active torsions:
REMARK  status: ('A' for Active; 'I' for Inactive)
ROOT
ATOM      1  C   UNL d   1       1.066  -0.468  -0.699  0.00  0.00     0.078 C 
ATOM      2  C1  UNL d   1      -0.009   0.189   0.114  0.00  0.00    -0.077 A 
ATOM      3  C2  UNL d   1      -0.975   1.002  -0.490  0.00  0.00    -0.001 A 
ATOM      4  C3  UNL d   1      -1.964   1.615   0.281  0.00  0.00     0.003 A 
ATOM      5  C4  UNL d   1      -1.996   1.423   1.661  0.00  0.00    -0.005 A 
ATOM      6  C5  UNL d   1      -1.036   0.617   2.271  0.00  0.00     0.003 A 
ATOM      7  C6  UNL d   1      -0.047   0.004   1.502  0.00  0.00    -0.001 A 
ENDROOT
TORSDOF 0
ENDMDL
