MODEL 1
REMARK minimizedAffinity -5.68339825
REMARK minimizedRMSD -1
REMARK  0 active torsions:
REMARK  status: ('A' for Active; 'I' for Inactive)
ROOT
ATOM      1  C   UNL d   1       0.909  -0.431  -0.760  0.00  0.00     0.078 C 
ATOM      2  C1  UNL d   1       0.056   0.675  -0.214  0.00  0.00    -0.077 A 
ATOM      3  C2  UNL d   1       0.036   1.937  -0.820  0.00  0.00    -0.001 A 
ATOM      4  C3  UNL d   1      -0.756   2.960  -0.296  0.00  0.00     0.003 A 
ATOM      5  C4  UNL d   1      -1.532   2.732   0.839  0.00  0.00    -0.005 A 
ATOM      6  C5  UNL d   1      -1.516   1.480   1.451  0.00  0.00     0.003 A 
ATOM      7  C6  UNL d   1      -0.725   0.456   0.928  0.00  0.00    -0.001 A 
ENDROOT
TORSDOF 0
ENDMDL
