MODEL 1
REMARK minimizedAffinity -4.56720257
REMARK minimizedRMSD -1
REMARK  0 active torsions:
REMARK  status: ('A' for Active; 'I' for Inactive)
ROOT
ATOM      1  C   UNL d   1      -0.694   3.256  -0.651  0.00  0.00     0.078 C 
ATOM      2  C1  UNL d   1      -0.562   1.976   0.120  0.00  0.00    -0.077 A 
ATOM      3  C2  UNL d   1       0.237   0.929  -0.354  0.00  0.00    -0.001 A 
ATOM      4  C3  UNL d   1       0.343  -0.261   0.369  0.00  0.00     0.003 A 
ATOM      5  C4  UNL d   1      -0.348  -0.414   1.569  0.00  0.00    -0.005 A 
ATOM      6  C5  UNL d   1      -1.147   0.622   2.047  0.00  0.00     0.003 A 
ATOM      7  C6  UNL d   1      -1.255   1.812   1.326  0.00  0.00    -0.001 A 
ENDROOT
TORSDOF 0
ENDMDL
