MODEL 1
REMARK minimizedAffinity -5.71045971
REMARK minimizedRMSD -1
REMARK  0 active torsions:
REMARK  status: ('A' for Active; 'I' for Inactive)
ROOT
ATOM      1  C   UNL d   1       0.636  -0.450  -0.755  0.00  0.00     0.078 C 
ATOM      2  C1  UNL d   1      -0.168   0.641  -0.113  0.00  0.00    -0.077 A 
ATOM      3  C2  UNL d   1      -0.210   1.927  -0.666  0.00  0.00    -0.001 A 
ATOM      4  C3  UNL d   1      -0.955   2.935  -0.052  0.00  0.00     0.003 A 
ATOM      5  C4  UNL d   1      -1.664   2.668   1.118  0.00  0.00    -0.005 A 
ATOM      6  C5  UNL d   1      -1.627   1.392   1.676  0.00  0.00     0.003 A 
ATOM      7  C6  UNL d   1      -0.882   0.382   1.064  0.00  0.00    -0.001 A 
ENDROOT
TORSDOF 0
ENDMDL
