MODEL 1
REMARK minimizedAffinity 1.0093019
REMARK minimizedRMSD -1
REMARK  0 active torsions:
REMARK  status: ('A' for Active; 'I' for Inactive)
ROOT
ATOM      1  C   UNL d   1       1.867   2.001  -1.663  0.00  0.00     0.078 C 
ATOM      2  C1  UNL d   1       2.299   0.579  -1.463  0.00  0.00    -0.077 A 
ATOM      3  C2  UNL d   1       1.846  -0.439  -2.311  0.00  0.00    -0.001 A 
ATOM      4  C3  UNL d   1       2.249  -1.760  -2.107  0.00  0.00     0.003 A 
ATOM      5  C4  UNL d   1       3.106  -2.075  -1.054  0.00  0.00    -0.005 A 
ATOM      6  C5  UNL d   1       3.561  -1.069  -0.204  0.00  0.00     0.003 A 
ATOM      7  C6  UNL d   1       3.159   0.252  -0.406  0.00  0.00    -0.001 A 
ENDROOT
TORSDOF 0
ENDMDL
