MODEL 1
REMARK minimizedAffinity 3.09397936
REMARK minimizedRMSD -1
REMARK  0 active torsions:
REMARK  status: ('A' for Active; 'I' for Inactive)
ROOT
ATOM      1  C   UNL d   1       1.607   1.150  -1.575  0.00  0.00     0.078 C 
ATOM      2  C1  UNL d   1       0.715   1.707  -0.505  0.00  0.00    -0.077 A 
ATOM      3  C2  UNL d   1       1.224   2.041   0.756  0.00  0.00    -0.001 A 
ATOM      4  C3  UNL d   1       0.381   2.549   1.745  0.00  0.00     0.003 A 
ATOM      5  C4  UNL d   1      -0.976   2.727   1.485  0.00  0.00    -0.005 A 
ATOM      6  C5  UNL d   1      -1.492   2.395   0.234  0.00  0.00     0.003 A 
ATOM      7  C6  UNL d   1      -0.650   1.887  -0.757  0.00  0.00    -0.001 A 
ENDROOT
TORSDOF 0
ENDMDL
