MODEL 1
REMARK minimizedAffinity 7.30055046
REMARK minimizedRMSD -1
REMARK  0 active torsions:
REMARK  status: ('A' for Active; 'I' for Inactive)
ROOT
ATOM      1  C   UNL d   1       0.775  -0.018  -1.481  0.00  0.00     0.078 C 
ATOM      2  C1  UNL d   1       1.050   1.264  -2.210  0.00  0.00    -0.077 A 
ATOM      3  C2  UNL d   1       1.144   1.293  -3.607  0.00  0.00    -0.001 A 
ATOM      4  C3  UNL d   1       1.410   2.491  -4.271  0.00  0.00     0.003 A 
ATOM      5  C4  UNL d   1       1.585   3.669  -3.547  0.00  0.00    -0.005 A 
ATOM      6  C5  UNL d   1       1.495   3.649  -2.157  0.00  0.00     0.003 A 
ATOM      7  C6  UNL d   1       1.229   2.452  -1.490  0.00  0.00    -0.001 A 
ENDROOT
TORSDOF 0
ENDMDL
