MODEL 1
REMARK minimizedAffinity 6.62402391
REMARK minimizedRMSD -1
REMARK  0 active torsions:
REMARK  status: ('A' for Active; 'I' for Inactive)
ROOT
ATOM      1  C   UNL d   1       1.157   1.613  -1.489  0.00  0.00     0.078 C 
ATOM      2  C1  UNL d   1       1.667   2.461  -0.362  0.00  0.00    -0.077 A 
ATOM      3  C2  UNL d   1       1.633   3.859  -0.439  0.00  0.00    -0.001 A 
ATOM      4  C3  UNL d   1       2.121   4.636   0.613  0.00  0.00     0.003 A 
ATOM      5  C4  UNL d   1       2.647   4.024   1.749  0.00  0.00    -0.005 A 
ATOM      6  C5  UNL d   1       2.687   2.634   1.834  0.00  0.00     0.003 A 
ATOM      7  C6  UNL d   1       2.200   1.856   0.783  0.00  0.00    -0.001 A 
ENDROOT
TORSDOF 0
ENDMDL
