MODEL 1
REMARK minimizedAffinity -1.22319376
REMARK minimizedRMSD -1
REMARK  0 active torsions:
REMARK  status: ('A' for Active; 'I' for Inactive)
ROOT
ATOM      1  C   UNL d   1       5.255  -0.710   3.678  0.00  0.00     0.078 C 
ATOM      2  C1  UNL d   1       5.505  -2.106   4.164  0.00  0.00    -0.077 A 
ATOM      3  C2  UNL d   1       5.779  -3.145   3.266  0.00  0.00    -0.001 A 
ATOM      4  C3  UNL d   1       6.000  -4.442   3.733  0.00  0.00     0.003 A 
ATOM      5  C4  UNL d   1       5.949  -4.712   5.099  0.00  0.00    -0.005 A 
ATOM      6  C5  UNL d   1       5.675  -3.686   6.000  0.00  0.00     0.003 A 
ATOM      7  C6  UNL d   1       5.454  -2.388   5.535  0.00  0.00    -0.001 A 
ENDROOT
TORSDOF 0
ENDMDL
