MODEL 1
REMARK minimizedAffinity -0.534993112
REMARK minimizedRMSD -1
REMARK  0 active torsions:
REMARK  status: ('A' for Active; 'I' for Inactive)
ROOT
ATOM      1  C   UNL d   1       2.322   0.944  -2.633  0.00  0.00     0.078 C 
ATOM      2  C1  UNL d   1       2.160  -0.322  -1.846  0.00  0.00    -0.077 A 
ATOM      3  C2  UNL d   1       0.950  -1.027  -1.855  0.00  0.00    -0.001 A 
ATOM      4  C3  UNL d   1       0.811  -2.199  -1.110  0.00  0.00     0.003 A 
ATOM      5  C4  UNL d   1       1.877  -2.675  -0.350  0.00  0.00    -0.005 A 
ATOM      6  C5  UNL d   1       3.084  -1.980  -0.333  0.00  0.00     0.003 A 
ATOM      7  C6  UNL d   1       3.225  -0.807  -1.077  0.00  0.00    -0.001 A 
ENDROOT
TORSDOF 0
ENDMDL
