MODEL 1
REMARK minimizedAffinity 0.0937249139
REMARK minimizedRMSD -1
REMARK  0 active torsions:
REMARK  status: ('A' for Active; 'I' for Inactive)
ROOT
ATOM      1  C   UNL d   1       2.092   1.206  -2.262  0.00  0.00     0.078 C 
ATOM      2  C1  UNL d   1       2.018  -0.120  -1.565  0.00  0.00    -0.077 A 
ATOM      3  C2  UNL d   1       0.835  -0.870  -1.567  0.00  0.00    -0.001 A 
ATOM      4  C3  UNL d   1       0.777  -2.098  -0.906  0.00  0.00     0.003 A 
ATOM      5  C4  UNL d   1       1.898  -2.587  -0.238  0.00  0.00    -0.005 A 
ATOM      6  C5  UNL d   1       3.079  -1.847  -0.229  0.00  0.00     0.003 A 
ATOM      7  C6  UNL d   1       3.139  -0.619  -0.890  0.00  0.00    -0.001 A 
ENDROOT
TORSDOF 0
ENDMDL
