MODEL 1
REMARK minimizedAffinity 7.39688253
REMARK minimizedRMSD -1
REMARK  0 active torsions:
REMARK  status: ('A' for Active; 'I' for Inactive)
ROOT
ATOM      1  C   UNL d   1       1.872   2.376  -2.252  0.00  0.00     0.078 C 
ATOM      2  C1  UNL d   1       2.102   0.922  -1.967  0.00  0.00    -0.077 A 
ATOM      3  C2  UNL d   1       1.381  -0.069  -2.646  0.00  0.00    -0.001 A 
ATOM      4  C3  UNL d   1       1.599  -1.418  -2.364  0.00  0.00     0.003 A 
ATOM      5  C4  UNL d   1       2.536  -1.790  -1.401  0.00  0.00    -0.005 A 
ATOM      6  C5  UNL d   1       3.256  -0.811  -0.719  0.00  0.00     0.003 A 
ATOM      7  C6  UNL d   1       3.039   0.539  -1.000  0.00  0.00    -0.001 A 
ENDROOT
TORSDOF 0
ENDMDL
