MODEL 1
REMARK minimizedAffinity 1.40524805
REMARK minimizedRMSD -1
REMARK  0 active torsions:
REMARK  status: ('A' for Active; 'I' for Inactive)
ROOT
ATOM      1  C   UNL d   1       1.874   1.026  -2.505  0.00  0.00     0.078 C 
ATOM      2  C1  UNL d   1       1.850  -0.252  -1.720  0.00  0.00    -0.077 A 
ATOM      3  C2  UNL d   1       0.646  -0.778  -1.235  0.00  0.00    -0.001 A 
ATOM      4  C3  UNL d   1       0.640  -1.963  -0.498  0.00  0.00     0.003 A 
ATOM      5  C4  UNL d   1       1.834  -2.632  -0.238  0.00  0.00    -0.005 A 
ATOM      6  C5  UNL d   1       3.037  -2.115  -0.715  0.00  0.00     0.003 A 
ATOM      7  C6  UNL d   1       3.046  -0.930  -1.452  0.00  0.00    -0.001 A 
ENDROOT
TORSDOF 0
ENDMDL
