MODEL 1
REMARK minimizedAffinity 4.09858894
REMARK minimizedRMSD -1
REMARK  0 active torsions:
REMARK  status: ('A' for Active; 'I' for Inactive)
ROOT
ATOM      1  C   UNL d   1       0.314  -2.907  -3.004  0.00  0.00     0.078 C 
ATOM      2  C1  UNL d   1       1.264  -2.207  -2.079  0.00  0.00    -0.077 A 
ATOM      3  C2  UNL d   1       1.652  -0.882  -2.312  0.00  0.00    -0.001 A 
ATOM      4  C3  UNL d   1       2.544  -0.245  -1.447  0.00  0.00     0.003 A 
ATOM      5  C4  UNL d   1       3.056  -0.926  -0.345  0.00  0.00    -0.005 A 
ATOM      6  C5  UNL d   1       2.677  -2.245  -0.106  0.00  0.00     0.003 A 
ATOM      7  C6  UNL d   1       1.786  -2.884  -0.969  0.00  0.00    -0.001 A 
ENDROOT
TORSDOF 0
ENDMDL
