MODEL 1
REMARK minimizedAffinity -1.12544405
REMARK minimizedRMSD -1
REMARK  0 active torsions:
REMARK  status: ('A' for Active; 'I' for Inactive)
ROOT
ATOM      1  C   UNL d   1       2.449   1.188  -2.599  0.00  0.00     0.078 C 
ATOM      2  C1  UNL d   1       2.251  -0.074  -1.814  0.00  0.00    -0.077 A 
ATOM      3  C2  UNL d   1       1.386  -1.077  -2.267  0.00  0.00    -0.001 A 
ATOM      4  C3  UNL d   1       1.204  -2.242  -1.521  0.00  0.00     0.003 A 
ATOM      5  C4  UNL d   1       1.883  -2.415  -0.316  0.00  0.00    -0.005 A 
ATOM      6  C5  UNL d   1       2.744  -1.421   0.144  0.00  0.00     0.003 A 
ATOM      7  C6  UNL d   1       2.927  -0.255  -0.601  0.00  0.00    -0.001 A 
ENDROOT
TORSDOF 0
ENDMDL
