MODEL 1
REMARK minimizedAffinity 9.02765083
REMARK minimizedRMSD -1
REMARK  0 active torsions:
REMARK  status: ('A' for Active; 'I' for Inactive)
ROOT
ATOM      1  C   UNL d   1       1.998   0.749  -1.644  0.00  0.00     0.078 C 
ATOM      2  C1  UNL d   1       1.073   1.433  -0.681  0.00  0.00    -0.077 A 
ATOM      3  C2  UNL d   1       1.492   1.753   0.616  0.00  0.00    -0.001 A 
ATOM      4  C3  UNL d   1       0.617   2.381   1.505  0.00  0.00     0.003 A 
ATOM      5  C4  UNL d   1      -0.681   2.692   1.106  0.00  0.00    -0.005 A 
ATOM      6  C5  UNL d   1      -1.107   2.375  -0.182  0.00  0.00     0.003 A 
ATOM      7  C6  UNL d   1      -0.234   1.748  -1.072  0.00  0.00    -0.001 A 
ENDROOT
TORSDOF 0
ENDMDL
