MODEL 1
REMARK minimizedAffinity 1.28960669
REMARK minimizedRMSD -1
REMARK  0 active torsions:
REMARK  status: ('A' for Active; 'I' for Inactive)
ROOT
ATOM      1  C   UNL d   1       2.527   0.975  -2.008  0.00  0.00     0.078 C 
ATOM      2  C1  UNL d   1       1.843   1.312  -0.717  0.00  0.00    -0.077 A 
ATOM      3  C2  UNL d   1       2.581   1.622   0.431  0.00  0.00    -0.001 A 
ATOM      4  C3  UNL d   1       1.931   1.924   1.628  0.00  0.00     0.003 A 
ATOM      5  C4  UNL d   1       0.539   1.918   1.689  0.00  0.00    -0.005 A 
ATOM      6  C5  UNL d   1      -0.205   1.607   0.552  0.00  0.00     0.003 A 
ATOM      7  C6  UNL d   1       0.444   1.305  -0.646  0.00  0.00    -0.001 A 
ENDROOT
TORSDOF 0
ENDMDL
