MODEL 1
REMARK minimizedAffinity 9.2750721
REMARK minimizedRMSD -1
REMARK  0 active torsions:
REMARK  status: ('A' for Active; 'I' for Inactive)
ROOT
ATOM      1  C   UNL d   1       0.030   2.309  -1.867  0.00  0.00     0.078 C 
ATOM      2  C1  UNL d   1       0.955   1.129  -1.871  0.00  0.00    -0.077 A 
ATOM      3  C2  UNL d   1       0.458  -0.178  -1.783  0.00  0.00    -0.001 A 
ATOM      4  C3  UNL d   1       1.331  -1.266  -1.778  0.00  0.00     0.003 A 
ATOM      5  C4  UNL d   1       2.707  -1.060  -1.861  0.00  0.00    -0.005 A 
ATOM      6  C5  UNL d   1       3.211   0.236  -1.947  0.00  0.00     0.003 A 
ATOM      7  C6  UNL d   1       2.339   1.326  -1.952  0.00  0.00    -0.001 A 
ENDROOT
TORSDOF 0
ENDMDL
