MODEL 1
REMARK minimizedAffinity -0.0151685011
REMARK minimizedRMSD -1
REMARK  0 active torsions:
REMARK  status: ('A' for Active; 'I' for Inactive)
ROOT
ATOM      1  C   UNL d   1       1.895   0.519  -1.483  0.00  0.00     0.078 C 
ATOM      2  C1  UNL d   1       1.095   1.300  -0.484  0.00  0.00    -0.077 A 
ATOM      3  C2  UNL d   1       1.655   1.698   0.736  0.00  0.00    -0.001 A 
ATOM      4  C3  UNL d   1       0.896   2.417   1.661  0.00  0.00     0.003 A 
ATOM      5  C4  UNL d   1      -0.429   2.743   1.376  0.00  0.00    -0.005 A 
ATOM      6  C5  UNL d   1      -0.996   2.349   0.166  0.00  0.00     0.003 A 
ATOM      7  C6  UNL d   1      -0.238   1.630  -0.760  0.00  0.00    -0.001 A 
ENDROOT
TORSDOF 0
ENDMDL
