MODEL 1
REMARK minimizedAffinity 8.28950214
REMARK minimizedRMSD -1
REMARK  0 active torsions:
REMARK  status: ('A' for Active; 'I' for Inactive)
ROOT
ATOM      1  C   UNL d   1      -0.004   1.546  -1.555  0.00  0.00     0.078 C 
ATOM      2  C1  UNL d   1       0.388   1.967  -0.170  0.00  0.00    -0.077 A 
ATOM      3  C2  UNL d   1      -0.581   2.320   0.777  0.00  0.00    -0.001 A 
ATOM      4  C3  UNL d   1      -0.201   2.719   2.060  0.00  0.00     0.003 A 
ATOM      5  C4  UNL d   1       1.148   2.771   2.406  0.00  0.00    -0.005 A 
ATOM      6  C5  UNL d   1       2.119   2.424   1.468  0.00  0.00     0.003 A 
ATOM      7  C6  UNL d   1       1.741   2.024   0.186  0.00  0.00    -0.001 A 
ENDROOT
TORSDOF 0
ENDMDL
