MODEL 1
REMARK minimizedAffinity -0.212704673
REMARK minimizedRMSD -1
REMARK  0 active torsions:
REMARK  status: ('A' for Active; 'I' for Inactive)
ROOT
ATOM      1  C   UNL d   1       1.174   2.073  -2.415  0.00  0.00     0.078 C 
ATOM      2  C1  UNL d   1       2.083   0.934  -2.060  0.00  0.00    -0.077 A 
ATOM      3  C2  UNL d   1       1.694  -0.393  -2.278  0.00  0.00    -0.001 A 
ATOM      4  C3  UNL d   1       2.547  -1.444  -1.934  0.00  0.00     0.003 A 
ATOM      5  C4  UNL d   1       3.792  -1.178  -1.368  0.00  0.00    -0.005 A 
ATOM      6  C5  UNL d   1       4.186   0.140  -1.145  0.00  0.00     0.003 A 
ATOM      7  C6  UNL d   1       3.336   1.192  -1.489  0.00  0.00    -0.001 A 
ENDROOT
TORSDOF 0
ENDMDL
