MODEL 1
REMARK minimizedAffinity -1.55562425
REMARK minimizedRMSD -1
REMARK  0 active torsions:
REMARK  status: ('A' for Active; 'I' for Inactive)
ROOT
ATOM      1  C   UNL d   1       1.133   2.089   2.451  0.00  0.00     0.078 C 
ATOM      2  C1  UNL d   1       0.554   2.529   1.140  0.00  0.00    -0.077 A 
ATOM      3  C2  UNL d   1      -0.191   3.711   1.041  0.00  0.00    -0.001 A 
ATOM      4  C3  UNL d   1      -0.733   4.104  -0.183  0.00  0.00     0.003 A 
ATOM      5  C4  UNL d   1      -0.538   3.319  -1.318  0.00  0.00    -0.005 A 
ATOM      6  C5  UNL d   1       0.200   2.140  -1.229  0.00  0.00     0.003 A 
ATOM      7  C6  UNL d   1       0.743   1.746  -0.005  0.00  0.00    -0.001 A 
ENDROOT
TORSDOF 0
ENDMDL
