MODEL 1
REMARK minimizedAffinity -4.91905212
REMARK minimizedRMSD -1
REMARK  0 active torsions:
REMARK  status: ('A' for Active; 'I' for Inactive)
ROOT
ATOM      1  C4' PXY d   1       1.621  -3.063   1.727  0.00  0.00     0.077 C 
ATOM      2  C1' PXY d   1      -1.311   1.255  -0.758  0.00  0.00     0.077 C 
ATOM      3  C1  PXY d   1      -0.551   0.123  -0.096  0.00  0.00    -0.082 A 
ATOM      4  C2  PXY d   1       0.723  -0.073  -0.397  0.00  0.00     0.003 A 
ATOM      5  C3  PXY d   1       1.417  -1.112   0.168  0.00  0.00     0.003 A 
ATOM      6  C4  PXY d   1       0.816  -1.927   1.090  0.00  0.00    -0.082 A 
ATOM      7  C5  PXY d   1      -0.480  -1.727   1.410  0.00  0.00     0.003 A 
ATOM      8  C6  PXY d   1      -1.179  -0.692   0.795  0.00  0.00     0.003 A 
ENDROOT
TORSDOF 0
ENDMDL
