MODEL 1
REMARK minimizedAffinity -5.87540531
REMARK minimizedRMSD -1
REMARK  0 active torsions:
REMARK  status: ('A' for Active; 'I' for Inactive)
ROOT
ATOM      1  C4' PXY d   1       2.466  -3.252   2.183  0.00  0.00     0.077 C 
ATOM      2  C1' PXY d   1      -0.760   0.786  -0.405  0.00  0.00     0.077 C 
ATOM      3  C1  PXY d   1       0.076  -0.274   0.283  0.00  0.00    -0.082 A 
ATOM      4  C2  PXY d   1       1.385  -0.300   0.092  0.00  0.00     0.003 A 
ATOM      5  C3  PXY d   1       2.153  -1.272   0.681  0.00  0.00     0.003 A 
ATOM      6  C4  PXY d   1       1.582  -2.194   1.516  0.00  0.00    -0.082 A 
ATOM      7  C5  PXY d   1       0.249  -2.167   1.725  0.00  0.00     0.003 A 
ATOM      8  C6  PXY d   1      -0.518  -1.198   1.085  0.00  0.00     0.003 A 
ENDROOT
TORSDOF 0
ENDMDL
