MODEL 1
REMARK minimizedAffinity -5.71675301
REMARK minimizedRMSD -1
REMARK  0 active torsions:
REMARK  status: ('A' for Active; 'I' for Inactive)
ROOT
ATOM      1  C4' PXY d   1       0.008   1.037  -0.412  0.00  0.00     0.077 C 
ATOM      2  C1' PXY d   1       1.131  -3.703   2.700  0.00  0.00     0.077 C 
ATOM      3  C1  PXY d   1       0.849  -2.460   1.880  0.00  0.00    -0.082 A 
ATOM      4  C2  PXY d   1      -0.161  -1.673   2.212  0.00  0.00     0.003 A 
ATOM      5  C3  PXY d   1      -0.450  -0.561   1.462  0.00  0.00     0.003 A 
ATOM      6  C4  PXY d   1       0.336  -0.224   0.393  0.00  0.00    -0.082 A 
ATOM      7  C5  PXY d   1       1.375  -1.016   0.054  0.00  0.00     0.003 A 
ATOM      8  C6  PXY d   1       1.626  -2.162   0.803  0.00  0.00     0.003 A 
ENDROOT
TORSDOF 0
ENDMDL
