MODEL 1
REMARK minimizedAffinity -4.11441231
REMARK minimizedRMSD -1
REMARK  0 active torsions:
REMARK  status: ('A' for Active; 'I' for Inactive)
ROOT
ATOM      1  C4' PXY d   1       1.043  -3.563   1.806  0.00  0.00     0.077 C 
ATOM      2  C1' PXY d   1      -0.051   1.468  -0.823  0.00  0.00     0.077 C 
ATOM      3  C1  PXY d   1       0.246   0.146  -0.142  0.00  0.00    -0.082 A 
ATOM      4  C2  PXY d   1      -0.707  -0.464   0.544  0.00  0.00     0.003 A 
ATOM      5  C3  PXY d   1      -0.447  -1.644   1.193  0.00  0.00     0.003 A 
ATOM      6  C4  PXY d   1       0.786  -2.232   1.095  0.00  0.00    -0.082 A 
ATOM      7  C5  PXY d   1       1.760  -1.620   0.388  0.00  0.00     0.003 A 
ATOM      8  C6  PXY d   1       1.488  -0.403  -0.229  0.00  0.00     0.003 A 
ENDROOT
TORSDOF 0
ENDMDL
