MODEL 1
REMARK minimizedAffinity -5.61666584
REMARK minimizedRMSD -1
REMARK  0 active torsions:
REMARK  status: ('A' for Active; 'I' for Inactive)
ROOT
ATOM      1  C4' PXY d   1       0.972  -4.035   3.304  0.00  0.00     0.077 C 
ATOM      2  C1' PXY d   1       1.301   0.363  -0.432  0.00  0.00     0.077 C 
ATOM      3  C1  PXY d   1       1.227  -0.794   0.545  0.00  0.00    -0.082 A 
ATOM      4  C2  PXY d   1       0.051  -1.311   0.858  0.00  0.00     0.003 A 
ATOM      5  C3  PXY d   1      -0.037  -2.336   1.765  0.00  0.00     0.003 A 
ATOM      6  C4  PXY d   1       1.096  -2.873   2.315  0.00  0.00    -0.082 A 
ATOM      7  C5  PXY d   1       2.301  -2.358   1.992  0.00  0.00     0.003 A 
ATOM      8  C6  PXY d   1       2.365  -1.290   1.102  0.00  0.00     0.003 A 
ENDROOT
TORSDOF 0
ENDMDL
