MODEL 1
REMARK minimizedAffinity -4.44126415
REMARK minimizedRMSD -1
REMARK  0 active torsions:
REMARK  status: ('A' for Active; 'I' for Inactive)
ROOT
ATOM      1  C4' PXY d   1      -0.769   0.317  -0.006  0.00  0.00     0.077 C 
ATOM      2  C1' PXY d   1       1.338  -4.158   2.985  0.00  0.00     0.077 C 
ATOM      3  C1  PXY d   1       0.797  -2.982   2.195  0.00  0.00    -0.082 A 
ATOM      4  C2  PXY d   1      -0.285  -2.351   2.621  0.00  0.00     0.003 A 
ATOM      5  C3  PXY d   1      -0.806  -1.306   1.902  0.00  0.00     0.003 A 
ATOM      6  C4  PXY d   1      -0.182  -0.869   0.764  0.00  0.00    -0.082 A 
ATOM      7  C5  PXY d   1       0.928  -1.501   0.329  0.00  0.00     0.003 A 
ATOM      8  C6  PXY d   1       1.418  -2.586   1.051  0.00  0.00     0.003 A 
ENDROOT
TORSDOF 0
ENDMDL
