MODEL 1
REMARK minimizedAffinity -5.7751174
REMARK minimizedRMSD -1
REMARK  0 active torsions:
REMARK  status: ('A' for Active; 'I' for Inactive)
ROOT
ATOM      1  C4' PXY d   1       2.151  -0.348  -0.835  0.00  0.00     0.077 C 
ATOM      2  C1' PXY d   1      -2.085  -1.393   2.956  0.00  0.00     0.077 C 
ATOM      3  C1  PXY d   1      -0.966  -1.127   1.969  0.00  0.00    -0.082 A 
ATOM      4  C2  PXY d   1      -0.980  -0.017   1.248  0.00  0.00     0.003 A 
ATOM      5  C3  PXY d   1       0.007   0.225   0.327  0.00  0.00     0.003 A 
ATOM      6  C4  PXY d   1       1.047  -0.653   0.181  0.00  0.00    -0.082 A 
ATOM      7  C5  PXY d   1       1.074  -1.783   0.920  0.00  0.00     0.003 A 
ATOM      8  C6  PXY d   1       0.041  -2.029   1.819  0.00  0.00     0.003 A 
ENDROOT
TORSDOF 0
ENDMDL
