MODEL 1
REMARK minimizedAffinity -4.99546385
REMARK minimizedRMSD -1
REMARK  0 active torsions:
REMARK  status: ('A' for Active; 'I' for Inactive)
ROOT
ATOM      1  C4' PXY d   1      -0.082   0.344  -0.394  0.00  0.00     0.077 C 
ATOM      2  C1' PXY d   1       1.656  -4.290   2.593  0.00  0.00     0.077 C 
ATOM      3  C1  PXY d   1       1.188  -3.076   1.815  0.00  0.00    -0.082 A 
ATOM      4  C2  PXY d   1       1.833  -2.714   0.717  0.00  0.00     0.003 A 
ATOM      5  C3  PXY d   1       1.443  -1.601   0.019  0.00  0.00     0.003 A 
ATOM      6  C4  PXY d   1       0.349  -0.880   0.418  0.00  0.00    -0.082 A 
ATOM      7  C5  PXY d   1      -0.320  -1.249   1.531  0.00  0.00     0.003 A 
ATOM      8  C6  PXY d   1       0.117  -2.358   2.249  0.00  0.00     0.003 A 
ENDROOT
TORSDOF 0
ENDMDL
