MODEL 1
REMARK minimizedAffinity -2.91922307
REMARK minimizedRMSD -1
REMARK  0 active torsions:
REMARK  status: ('A' for Active; 'I' for Inactive)
ROOT
ATOM      1  C4' PXY d   1       0.568   5.398  -4.093  0.00  0.00     0.077 C 
ATOM      2  C1' PXY d   1      -2.996   1.250  -2.221  0.00  0.00     0.077 C 
ATOM      3  C1  PXY d   1      -2.060   2.332  -2.724  0.00  0.00    -0.082 A 
ATOM      4  C2  PXY d   1      -1.346   3.032  -1.858  0.00  0.00     0.003 A 
ATOM      5  C3  PXY d   1      -0.519   4.036  -2.293  0.00  0.00     0.003 A 
ATOM      6  C4  PXY d   1      -0.382   4.289  -3.632  0.00  0.00    -0.082 A 
ATOM      7  C5  PXY d   1      -1.100   3.572  -4.522  0.00  0.00     0.003 A 
ATOM      8  C6  PXY d   1      -1.965   2.585  -4.057  0.00  0.00     0.003 A 
ENDROOT
TORSDOF 0
ENDMDL
