MODEL 1
REMARK minimizedAffinity -3.07061839
REMARK minimizedRMSD -1
REMARK  0 active torsions:
REMARK  status: ('A' for Active; 'I' for Inactive)
ROOT
ATOM      1  C4' PXY d   1      -2.332   1.429  -1.996  0.00  0.00     0.077 C 
ATOM      2  C1' PXY d   1       2.185  -1.303   0.361  0.00  0.00     0.077 C 
ATOM      3  C1  PXY d   1       1.003  -0.576  -0.250  0.00  0.00    -0.082 A 
ATOM      4  C2  PXY d   1       0.010  -1.272  -0.780  0.00  0.00     0.003 A 
ATOM      5  C3  PXY d   1      -1.052  -0.630  -1.364  0.00  0.00     0.003 A 
ATOM      6  C4  PXY d   1      -1.123   0.737  -1.360  0.00  0.00    -0.082 A 
ATOM      7  C5  PXY d   1      -0.119   1.454  -0.812  0.00  0.00     0.003 A 
ATOM      8  C6  PXY d   1       0.970   0.784  -0.260  0.00  0.00     0.003 A 
ENDROOT
TORSDOF 0
ENDMDL
