MODEL 1
REMARK minimizedAffinity -3.64518356
REMARK minimizedRMSD -1
REMARK  0 active torsions:
REMARK  status: ('A' for Active; 'I' for Inactive)
ROOT
ATOM      1  C4' PXY d   1       1.517  -1.498   0.456  0.00  0.00     0.077 C 
ATOM      2  C1' PXY d   1      -1.992   0.988  -3.407  0.00  0.00     0.077 C 
ATOM      3  C1  PXY d   1      -1.074   0.346  -2.386  0.00  0.00    -0.082 A 
ATOM      4  C2  PXY d   1      -0.105  -0.459  -2.791  0.00  0.00     0.003 A 
ATOM      5  C3  PXY d   1       0.713  -1.074  -1.879  0.00  0.00     0.003 A 
ATOM      6  C4  PXY d   1       0.573  -0.820  -0.541  0.00  0.00    -0.082 A 
ATOM      7  C5  PXY d   1      -0.406   0.008  -0.120  0.00  0.00     0.003 A 
ATOM      8  C6  PXY d   1      -1.253   0.590  -1.059  0.00  0.00     0.003 A 
ENDROOT
TORSDOF 0
ENDMDL
