MODEL 1
REMARK minimizedAffinity -2.96356797
REMARK minimizedRMSD -1
REMARK  0 active torsions:
REMARK  status: ('A' for Active; 'I' for Inactive)
ROOT
ATOM      1  C4' PXY d   1      -1.717   1.096  -1.678  0.00  0.00     0.077 C 
ATOM      2  C1' PXY d   1       2.204  -2.057   1.169  0.00  0.00     0.077 C 
ATOM      3  C1  PXY d   1       1.184  -1.220   0.423  0.00  0.00    -0.082 A 
ATOM      4  C2  PXY d   1      -0.084  -1.598   0.404  0.00  0.00     0.003 A 
ATOM      5  C3  PXY d   1      -1.015  -0.870  -0.292  0.00  0.00     0.003 A 
ATOM      6  C4  PXY d   1      -0.654   0.286  -0.930  0.00  0.00    -0.082 A 
ATOM      7  C5  PXY d   1       0.636   0.685  -0.906  0.00  0.00     0.003 A 
ATOM      8  C6  PXY d   1       1.573  -0.090  -0.228  0.00  0.00     0.003 A 
ENDROOT
TORSDOF 0
ENDMDL
