MODEL 1
REMARK minimizedAffinity -4.1358881
REMARK minimizedRMSD -1
REMARK  0 active torsions:
REMARK  status: ('A' for Active; 'I' for Inactive)
ROOT
ATOM      1  C4' PXY d   1       0.030  -2.100   3.322  0.00  0.00     0.077 C 
ATOM      2  C1' PXY d   1       1.483   0.046  -1.846  0.00  0.00     0.077 C 
ATOM      3  C1  PXY d   1       1.111  -0.526  -0.492  0.00  0.00    -0.082 A 
ATOM      4  C2  PXY d   1      -0.095  -0.300   0.005  0.00  0.00     0.003 A 
ATOM      5  C3  PXY d   1      -0.437  -0.783   1.242  0.00  0.00     0.003 A 
ATOM      6  C4  PXY d   1       0.446  -1.550   1.954  0.00  0.00    -0.082 A 
ATOM      7  C5  PXY d   1       1.674  -1.793   1.450  0.00  0.00     0.003 A 
ATOM      8  C6  PXY d   1       2.016  -1.260   0.211  0.00  0.00     0.003 A 
ENDROOT
TORSDOF 0
ENDMDL
