MODEL 1
REMARK minimizedAffinity -3.36837244
REMARK minimizedRMSD -1
REMARK  0 active torsions:
REMARK  status: ('A' for Active; 'I' for Inactive)
ROOT
ATOM      1  C4' PXY d   1       2.010  -1.367   0.571  0.00  0.00     0.077 C 
ATOM      2  C1' PXY d   1      -1.906   1.664  -2.411  0.00  0.00     0.077 C 
ATOM      3  C1  PXY d   1      -0.876   0.880  -1.622  0.00  0.00    -0.082 A 
ATOM      4  C2  PXY d   1      -0.291  -0.171  -2.173  0.00  0.00     0.003 A 
ATOM      5  C3  PXY d   1       0.618  -0.911  -1.461  0.00  0.00     0.003 A 
ATOM      6  C4  PXY d   1       0.972  -0.539  -0.192  0.00  0.00    -0.082 A 
ATOM      7  C5  PXY d   1       0.388   0.538   0.373  0.00  0.00     0.003 A 
ATOM      8  C6  PXY d   1      -0.564   1.251  -0.351  0.00  0.00     0.003 A 
ENDROOT
TORSDOF 0
ENDMDL
