MODEL 1
REMARK minimizedAffinity -4.28096628
REMARK minimizedRMSD -1
REMARK  0 active torsions:
REMARK  status: ('A' for Active; 'I' for Inactive)
ROOT
ATOM      1  C4' PXY d   1       0.222  -1.893   3.234  0.00  0.00     0.077 C 
ATOM      2  C1' PXY d   1      -0.918   1.860  -1.012  0.00  0.00     0.077 C 
ATOM      3  C1  PXY d   1      -0.613   0.868   0.093  0.00  0.00    -0.082 A 
ATOM      4  C2  PXY d   1      -1.367   0.847   1.180  0.00  0.00     0.003 A 
ATOM      5  C3  PXY d   1      -1.086  -0.022   2.203  0.00  0.00     0.003 A 
ATOM      6  C4  PXY d   1      -0.054  -0.915   2.089  0.00  0.00    -0.082 A 
ATOM      7  C5  PXY d   1       0.713  -0.907   0.978  0.00  0.00     0.003 A 
ATOM      8  C6  PXY d   1       0.436   0.011  -0.031  0.00  0.00     0.003 A 
ENDROOT
TORSDOF 0
ENDMDL
