MODEL 1
REMARK minimizedAffinity 0.316321015
REMARK minimizedRMSD -1
REMARK  0 active torsions:
REMARK  status: ('A' for Active; 'I' for Inactive)
ROOT
ATOM      1  C4' PXY d   1       2.216  -1.913   1.512  0.00  0.00     0.077 C 
ATOM      2  C1' PXY d   1      -1.344   1.565  -1.428  0.00  0.00     0.077 C 
ATOM      3  C1  PXY d   1      -0.402   0.653  -0.667  0.00  0.00    -0.082 A 
ATOM      4  C2  PXY d   1      -0.869  -0.089   0.324  0.00  0.00     0.003 A 
ATOM      5  C3  PXY d   1      -0.025  -0.896   1.043  0.00  0.00     0.003 A 
ATOM      6  C4  PXY d   1       1.300  -0.984   0.710  0.00  0.00    -0.082 A 
ATOM      7  C5  PXY d   1       1.781  -0.239  -0.306  0.00  0.00     0.003 A 
ATOM      8  C6  PXY d   1       0.917   0.605  -0.997  0.00  0.00     0.003 A 
ENDROOT
TORSDOF 0
ENDMDL
