MODEL 1
REMARK minimizedAffinity -4.65397167
REMARK minimizedRMSD -1
REMARK  0 active torsions:
REMARK  status: ('A' for Active; 'I' for Inactive)
ROOT
ATOM      1  C4' PXY d   1      -0.501   1.168  -0.805  0.00  0.00     0.077 C 
ATOM      2  C1' PXY d   1       0.886  -3.511   2.293  0.00  0.00     0.077 C 
ATOM      3  C1  PXY d   1       0.535  -2.283   1.477  0.00  0.00    -0.082 A 
ATOM      4  C2  PXY d   1      -0.538  -1.575   1.789  0.00  0.00     0.003 A 
ATOM      5  C3  PXY d   1      -0.889  -0.480   1.042  0.00  0.00     0.003 A 
ATOM      6  C4  PXY d   1      -0.102  -0.074  -0.003  0.00  0.00    -0.082 A 
ATOM      7  C5  PXY d   1       1.000  -0.785  -0.321  0.00  0.00     0.003 A 
ATOM      8  C6  PXY d   1       1.316  -1.917   0.424  0.00  0.00     0.003 A 
ENDROOT
TORSDOF 0
ENDMDL
