MODEL 1
REMARK minimizedAffinity -2.15681744
REMARK minimizedRMSD -1
REMARK  0 active torsions:
REMARK  status: ('A' for Active; 'I' for Inactive)
ROOT
ATOM      1  C4' PXY d   1       0.680  -2.637   2.779  0.00  0.00     0.077 C 
ATOM      2  C1' PXY d   1      -0.659   1.495  -1.035  0.00  0.00     0.077 C 
ATOM      3  C1  PXY d   1      -0.301   0.405  -0.044  0.00  0.00    -0.082 A 
ATOM      4  C2  PXY d   1      -1.047   0.232   1.035  0.00  0.00     0.003 A 
ATOM      5  C3  PXY d   1      -0.720  -0.728   1.958  0.00  0.00     0.003 A 
ATOM      6  C4  PXY d   1       0.351  -1.555   1.747  0.00  0.00    -0.082 A 
ATOM      7  C5  PXY d   1       1.110  -1.392   0.643  0.00  0.00     0.003 A 
ATOM      8  C6  PXY d   1       0.785  -0.384  -0.261  0.00  0.00     0.003 A 
ENDROOT
TORSDOF 0
ENDMDL
