MODEL 1
REMARK minimizedAffinity -3.20508623
REMARK minimizedRMSD -1
REMARK  0 active torsions:
REMARK  status: ('A' for Active; 'I' for Inactive)
ROOT
ATOM      1  C4' PXY d   1       1.037  -0.735   0.151  0.00  0.00     0.077 C 
ATOM      2  C1' PXY d   1      -2.973   2.088  -2.910  0.00  0.00     0.077 C 
ATOM      3  C1  PXY d   1      -1.916   1.359  -2.104  0.00  0.00    -0.082 A 
ATOM      4  C2  PXY d   1      -1.596   0.115  -2.419  0.00  0.00     0.003 A 
ATOM      5  C3  PXY d   1      -0.665  -0.570  -1.680  0.00  0.00     0.003 A 
ATOM      6  C4  PXY d   1      -0.018   0.043  -0.641  0.00  0.00    -0.082 A 
ATOM      7  C5  PXY d   1      -0.332   1.316  -0.320  0.00  0.00     0.003 A 
ATOM      8  C6  PXY d   1      -1.309   1.980  -1.056  0.00  0.00     0.003 A 
ENDROOT
TORSDOF 0
ENDMDL
