MODEL 1
REMARK minimizedAffinity -5.64809895
REMARK minimizedRMSD -1
REMARK  3 active torsions:
REMARK  status: ('A' for Active; 'I' for Inactive)
REMARK    1  A    between atoms: C3'_2  and  C2'_3 
REMARK    2  A    between atoms: C2'_3  and  C1'_4 
REMARK    3  A    between atoms: C1'_4  and  C1_5 
ROOT
ATOM      1  C1  N4B d   1      -3.136   1.588   2.995  0.00  0.00    -0.075 A 
ATOM      2  C2  N4B d   1      -1.853   1.194   2.554  0.00  0.00     0.002 A 
ATOM      3  C3  N4B d   1      -1.727   0.229   1.585  0.00  0.00     0.002 A 
ATOM      4  C4  N4B d   1      -2.862  -0.366   1.057  0.00  0.00    -0.004 A 
ATOM      5  C5  N4B d   1      -4.098   0.038   1.470  0.00  0.00     0.002 A 
ATOM      6  C6  N4B d   1      -4.241   1.009   2.440  0.00  0.00     0.002 A 
ENDROOT
BRANCH   1   7
ATOM      7  C1' N4B d   1      -3.322   2.576   4.113  0.00  0.00     0.057 C 
BRANCH   7   8
ATOM      8  C2' N4B d   1      -1.954   3.017   4.625  0.00  0.00     0.009 C 
BRANCH   8   9
ATOM      9  C3' N4B d   1      -2.054   3.752   5.951  0.00  0.00     0.004 C 
ATOM     10  C4' N4B d   1      -1.197   4.982   5.999  0.00  0.00     0.003 C 
ENDBRANCH   8   9
ENDBRANCH   7   8
ENDBRANCH   1   7
TORSDOF 3
ENDMDL
