MODEL 1
REMARK minimizedAffinity -3.66941786
REMARK minimizedRMSD -1
REMARK  3 active torsions:
REMARK  status: ('A' for Active; 'I' for Inactive)
REMARK    1  A    between atoms: C3'_2  and  C2'_3 
REMARK    2  A    between atoms: C2'_3  and  C1'_4 
REMARK    3  A    between atoms: C1'_4  and  C1_5 
ROOT
ATOM      1  C1  N4B d   1      -0.745  -0.019   0.562  0.00  0.00    -0.075 A 
ATOM      2  C2  N4B d   1      -0.754  -1.360   0.118  0.00  0.00     0.002 A 
ATOM      3  C3  N4B d   1      -0.005  -1.726  -0.974  0.00  0.00     0.002 A 
ATOM      4  C4  N4B d   1       0.742  -0.770  -1.645  0.00  0.00    -0.004 A 
ATOM      5  C5  N4B d   1       0.765   0.517  -1.195  0.00  0.00     0.002 A 
ATOM      6  C6  N4B d   1       0.021   0.899  -0.097  0.00  0.00     0.002 A 
ENDROOT
BRANCH   1   7
ATOM      7  C1' N4B d   1      -1.614   0.447   1.698  0.00  0.00     0.057 C 
BRANCH   7   8
ATOM      8  C2' N4B d   1      -3.078   0.202   1.341  0.00  0.00     0.009 C 
BRANCH   8   9
ATOM      9  C3' N4B d   1      -3.986   1.285   1.898  0.00  0.00     0.004 C 
ATOM     10  C4' N4B d   1      -3.502   1.834   3.207  0.00  0.00     0.003 C 
ENDBRANCH   8   9
ENDBRANCH   7   8
ENDBRANCH   1   7
TORSDOF 3
ENDMDL
