MODEL 1
REMARK minimizedAffinity -2.76091242
REMARK minimizedRMSD -1
REMARK  3 active torsions:
REMARK  status: ('A' for Active; 'I' for Inactive)
REMARK    1  A    between atoms: C3'_2  and  C2'_3 
REMARK    2  A    between atoms: C2'_3  and  C1'_4 
REMARK    3  A    between atoms: C1'_4  and  C1_5 
ROOT
ATOM      1  C1  N4B d   1       0.568   0.416  -0.694  0.00  0.00    -0.075 A 
ATOM      2  C2  N4B d   1       1.833   0.756  -1.221  0.00  0.00     0.002 A 
ATOM      3  C3  N4B d   1       2.329   0.080  -2.309  0.00  0.00     0.002 A 
ATOM      4  C4  N4B d   1       1.588  -0.949  -2.872  0.00  0.00    -0.004 A 
ATOM      5  C5  N4B d   1       0.356  -1.254  -2.373  0.00  0.00     0.002 A 
ATOM      6  C6  N4B d   1      -0.156  -0.580  -1.283  0.00  0.00     0.002 A 
ENDROOT
BRANCH   1   7
ATOM      7  C1' N4B d   1       0.022   1.069   0.546  0.00  0.00     0.057 C 
BRANCH   7   8
ATOM      8  C2' N4B d   1      -1.247   0.342   0.978  0.00  0.00     0.009 C 
BRANCH   8   9
ATOM      9  C3' N4B d   1      -1.955   1.059   2.115  0.00  0.00     0.004 C 
ATOM     10  C4' N4B d   1      -3.414   1.276   1.846  0.00  0.00     0.003 C 
ENDBRANCH   8   9
ENDBRANCH   7   8
ENDBRANCH   1   7
TORSDOF 3
ENDMDL
