MODEL 1
REMARK minimizedAffinity 2.66054487
REMARK minimizedRMSD -1
REMARK  3 active torsions:
REMARK  status: ('A' for Active; 'I' for Inactive)
REMARK    1  A    between atoms: C3'_2  and  C2'_3 
REMARK    2  A    between atoms: C2'_3  and  C1'_4 
REMARK    3  A    between atoms: C1'_4  and  C1_5 
ROOT
ATOM      1  C1  N4B d   1       0.170   0.334   0.496  0.00  0.00    -0.075 A 
ATOM      2  C2  N4B d   1      -1.173   0.723   0.294  0.00  0.00     0.002 A 
ATOM      3  C3  N4B d   1      -1.828   1.454   1.254  0.00  0.00     0.002 A 
ATOM      4  C4  N4B d   1      -1.171   1.790   2.428  0.00  0.00    -0.004 A 
ATOM      5  C5  N4B d   1       0.134   1.432   2.605  0.00  0.00     0.002 A 
ATOM      6  C6  N4B d   1       0.806   0.701   1.647  0.00  0.00     0.002 A 
ENDROOT
BRANCH   1   7
ATOM      7  C1' N4B d   1       0.901  -0.538  -0.487  0.00  0.00     0.057 C 
BRANCH   7   8
ATOM      8  C2' N4B d   1       2.275   0.063  -0.766  0.00  0.00     0.009 C 
BRANCH   8   9
ATOM      9  C3' N4B d   1       2.531   0.231  -2.254  0.00  0.00     0.004 C 
ATOM     10  C4' N4B d   1       2.095   1.570  -2.770  0.00  0.00     0.003 C 
ENDBRANCH   8   9
ENDBRANCH   7   8
ENDBRANCH   1   7
TORSDOF 3
ENDMDL
