MODEL 1
REMARK minimizedAffinity -2.40874863
REMARK minimizedRMSD -1
REMARK  3 active torsions:
REMARK  status: ('A' for Active; 'I' for Inactive)
REMARK    1  A    between atoms: C3'_2  and  C2'_3 
REMARK    2  A    between atoms: C2'_3  and  C1'_4 
REMARK    3  A    between atoms: C1'_4  and  C1_5 
ROOT
ATOM      1  C1  N4B d   1      -0.494   0.271   0.867  0.00  0.00    -0.075 A 
ATOM      2  C2  N4B d   1      -0.548  -0.837  -0.006  0.00  0.00     0.002 A 
ATOM      3  C3  N4B d   1       0.312  -0.912  -1.074  0.00  0.00     0.002 A 
ATOM      4  C4  N4B d   1       1.218   0.113  -1.298  0.00  0.00    -0.004 A 
ATOM      5  C5  N4B d   1       1.281   1.168  -0.435  0.00  0.00     0.002 A 
ATOM      6  C6  N4B d   1       0.426   1.255   0.644  0.00  0.00     0.002 A 
ENDROOT
BRANCH   1   7
ATOM      7  C1' N4B d   1      -1.471   0.439   1.999  0.00  0.00     0.057 C 
BRANCH   7   8
ATOM      8  C2' N4B d   1      -2.754  -0.319   1.669  0.00  0.00     0.009 C 
BRANCH   8   9
ATOM      9  C3' N4B d   1      -3.995   0.480   2.029  0.00  0.00     0.004 C 
ATOM     10  C4' N4B d   1      -3.776   1.962   1.944  0.00  0.00     0.003 C 
ENDBRANCH   8   9
ENDBRANCH   7   8
ENDBRANCH   1   7
TORSDOF 3
ENDMDL
