MODEL 1
REMARK minimizedAffinity -5.64589787
REMARK minimizedRMSD -1
REMARK  3 active torsions:
REMARK  status: ('A' for Active; 'I' for Inactive)
REMARK    1  A    between atoms: C3'_2  and  C2'_3 
REMARK    2  A    between atoms: C2'_3  and  C1'_4 
REMARK    3  A    between atoms: C1'_4  and  C1_5 
ROOT
ATOM      1  C1  N4B d   1       0.080  -0.300  -0.047  0.00  0.00    -0.075 A 
ATOM      2  C2  N4B d   1       0.614   1.007  -0.083  0.00  0.00     0.002 A 
ATOM      3  C3  N4B d   1       1.386   1.404  -1.147  0.00  0.00     0.002 A 
ATOM      4  C4  N4B d   1       1.654   0.509  -2.172  0.00  0.00    -0.004 A 
ATOM      5  C5  N4B d   1       1.114  -0.744  -2.142  0.00  0.00     0.002 A 
ATOM      6  C6  N4B d   1       0.332  -1.155  -1.081  0.00  0.00     0.002 A 
ENDROOT
BRANCH   1   7
ATOM      7  C1' N4B d   1      -0.699  -0.807   1.136  0.00  0.00     0.057 C 
BRANCH   7   8
ATOM      8  C2' N4B d   1      -1.529   0.334   1.715  0.00  0.00     0.009 C 
BRANCH   8   9
ATOM      9  C3' N4B d   1      -3.019   0.097   1.541  0.00  0.00     0.004 C 
ATOM     10  C4' N4B d   1      -3.839   1.321   1.825  0.00  0.00     0.003 C 
ENDBRANCH   8   9
ENDBRANCH   7   8
ENDBRANCH   1   7
TORSDOF 3
ENDMDL
