MODEL 1
REMARK minimizedAffinity -5.97314072
REMARK minimizedRMSD -1
REMARK  3 active torsions:
REMARK  status: ('A' for Active; 'I' for Inactive)
REMARK    1  A    between atoms: C3'_2  and  C2'_3 
REMARK    2  A    between atoms: C2'_3  and  C1'_4 
REMARK    3  A    between atoms: C1'_4  and  C1_5 
ROOT
ATOM      1  C1  N4B d   1       0.645   0.499  -0.406  0.00  0.00    -0.075 A 
ATOM      2  C2  N4B d   1       0.267  -0.728  -0.995  0.00  0.00     0.002 A 
ATOM      3  C3  N4B d   1       0.993  -1.239  -2.043  0.00  0.00     0.002 A 
ATOM      4  C4  N4B d   1       2.085  -0.534  -2.529  0.00  0.00    -0.004 A 
ATOM      5  C5  N4B d   1       2.458   0.637  -1.938  0.00  0.00     0.002 A 
ATOM      6  C6  N4B d   1       1.740   1.160  -0.881  0.00  0.00     0.002 A 
ENDROOT
BRANCH   1   7
ATOM      7  C1' N4B d   1      -0.168   1.140   0.686  0.00  0.00     0.057 C 
BRANCH   7   8
ATOM      8  C2' N4B d   1      -0.976   0.064   1.405  0.00  0.00     0.009 C 
BRANCH   8   9
ATOM      9  C3' N4B d   1      -2.472   0.288   1.264  0.00  0.00     0.004 C 
ATOM     10  C4' N4B d   1      -3.116   0.735   2.543  0.00  0.00     0.003 C 
ENDBRANCH   8   9
ENDBRANCH   7   8
ENDBRANCH   1   7
TORSDOF 3
ENDMDL
