MODEL 1
REMARK minimizedAffinity -4.69515562
REMARK minimizedRMSD -1
REMARK  1 active torsions:
REMARK  status: ('A' for Active; 'I' for Inactive)
REMARK    1  A    between atoms: C3_4  and  O_7 
ROOT
ATOM      1  C   UNL d   1      -1.205   2.669   1.029  0.00  0.00    -0.033 A 
ATOM      2  C1  UNL d   1      -1.352   1.450   1.695  0.00  0.00     0.039 A 
ATOM      3  C2  UNL d   1      -0.782   0.290   1.167  0.00  0.00    -0.080 A 
ATOM      4  C3  UNL d   1      -0.068   0.362  -0.026  0.00  0.00     0.150 A 
ATOM      5  C4  UNL d   1       0.086   1.573  -0.692  0.00  0.00    -0.007 A 
ATOM      6  C5  UNL d   1      -0.484   2.730  -0.164  0.00  0.00     0.039 A 
ENDROOT
BRANCH   4   7
ATOM      7  O   UNL d   1       0.503  -0.744  -0.583  0.00  0.00    -0.526 OA
ATOM      8  H5  UNL d   1       0.290  -1.512  -0.027  0.00  0.00     0.418 HD
ENDBRANCH   4   7
TORSDOF 1
ENDMDL
