MODEL 1
REMARK minimizedAffinity -3.87263632
REMARK minimizedRMSD -1
REMARK  1 active torsions:
REMARK  status: ('A' for Active; 'I' for Inactive)
REMARK    1  A    between atoms: C3_4  and  O_7 
ROOT
ATOM      1  C   UNL d   1      -1.552   3.549   0.574  0.00  0.00    -0.033 A 
ATOM      2  C1  UNL d   1      -0.586   3.599  -0.433  0.00  0.00     0.039 A 
ATOM      3  C2  UNL d   1       0.062   2.431  -0.839  0.00  0.00    -0.080 A 
ATOM      4  C3  UNL d   1      -0.265   1.221  -0.232  0.00  0.00     0.150 A 
ATOM      5  C4  UNL d   1      -1.229   1.164   0.769  0.00  0.00    -0.007 A 
ATOM      6  C5  UNL d   1      -1.875   2.332   1.174  0.00  0.00     0.039 A 
ENDROOT
BRANCH   4   7
ATOM      7  O   UNL d   1       0.344   0.056  -0.591  0.00  0.00    -0.526 OA
ATOM      8  H5  UNL d   1       1.008   0.253  -1.273  0.00  0.00     0.418 HD
ENDBRANCH   4   7
TORSDOF 1
ENDMDL
