MODEL 1
REMARK minimizedAffinity -4.30017471
REMARK minimizedRMSD -1
REMARK  1 active torsions:
REMARK  status: ('A' for Active; 'I' for Inactive)
REMARK    1  A    between atoms: C3_4  and  O_7 
ROOT
ATOM      1  C   UNL d   1      -1.631   1.790   1.200  0.00  0.00    -0.033 A 
ATOM      2  C1  UNL d   1      -1.189   0.769   2.044  0.00  0.00     0.039 A 
ATOM      3  C2  UNL d   1      -0.379  -0.252   1.543  0.00  0.00    -0.080 A 
ATOM      4  C3  UNL d   1      -0.019  -0.240   0.198  0.00  0.00     0.150 A 
ATOM      5  C4  UNL d   1      -0.452   0.776  -0.647  0.00  0.00    -0.007 A 
ATOM      6  C5  UNL d   1      -1.261   1.795  -0.145  0.00  0.00     0.039 A 
ENDROOT
BRANCH   4   7
ATOM      7  O   UNL d   1       0.766  -1.217  -0.338  0.00  0.00    -0.526 OA
ATOM      8  H5  UNL d   1       0.965  -1.867   0.356  0.00  0.00     0.418 HD
ENDBRANCH   4   7
TORSDOF 1
ENDMDL
