MODEL 1
REMARK minimizedAffinity -4.32360458
REMARK minimizedRMSD -1
REMARK  1 active torsions:
REMARK  status: ('A' for Active; 'I' for Inactive)
REMARK    1  A    between atoms: C3_4  and  O_7 
ROOT
ATOM      1  C   UNL d   1       0.331  -0.296   0.333  0.00  0.00    -0.033 A 
ATOM      2  C1  UNL d   1      -0.041   0.817  -0.423  0.00  0.00     0.039 A 
ATOM      3  C2  UNL d   1      -1.108   1.619  -0.010  0.00  0.00    -0.080 A 
ATOM      4  C3  UNL d   1      -1.791   1.297   1.159  0.00  0.00     0.150 A 
ATOM      5  C4  UNL d   1      -1.423   0.191   1.919  0.00  0.00    -0.007 A 
ATOM      6  C5  UNL d   1      -0.359  -0.608   1.505  0.00  0.00     0.039 A 
ENDROOT
BRANCH   4   7
ATOM      7  O   UNL d   1      -2.841   2.046   1.600  0.00  0.00    -0.526 OA
ATOM      8  H5  UNL d   1      -3.000   2.760   0.960  0.00  0.00     0.418 HD
ENDBRANCH   4   7
TORSDOF 1
ENDMDL
