MODEL 1
REMARK minimizedAffinity -4.65107536
REMARK minimizedRMSD -1
REMARK  1 active torsions:
REMARK  status: ('A' for Active; 'I' for Inactive)
REMARK    1  A    between atoms: C3_4  and  O_7 
ROOT
ATOM      1  C   UNL d   1       0.539   0.820  -0.684  0.00  0.00    -0.033 A 
ATOM      2  C1  UNL d   1      -0.109   2.025  -0.960  0.00  0.00     0.039 A 
ATOM      3  C2  UNL d   1      -1.069   2.522  -0.076  0.00  0.00    -0.080 A 
ATOM      4  C3  UNL d   1      -1.371   1.806   1.078  0.00  0.00     0.150 A 
ATOM      5  C4  UNL d   1      -0.726   0.606   1.362  0.00  0.00    -0.007 A 
ATOM      6  C5  UNL d   1       0.232   0.111   0.478  0.00  0.00     0.039 A 
ENDROOT
BRANCH   4   7
ATOM      7  O   UNL d   1      -2.304   2.248   1.968  0.00  0.00    -0.526 OA
ATOM      8  H5  UNL d   1      -2.687   3.074   1.627  0.00  0.00     0.418 HD
ENDBRANCH   4   7
TORSDOF 1
ENDMDL
