MODEL 1
REMARK minimizedAffinity -2.10382056
REMARK minimizedRMSD -1
REMARK  1 active torsions:
REMARK  status: ('A' for Active; 'I' for Inactive)
REMARK    1  A    between atoms: C3_4  and  O_7 
ROOT
ATOM      1  C   UNL d   1       0.647   0.739  -0.942  0.00  0.00    -0.033 A 
ATOM      2  C1  UNL d   1       0.307   2.076  -1.155  0.00  0.00     0.039 A 
ATOM      3  C2  UNL d   1      -0.713   2.667  -0.407  0.00  0.00    -0.080 A 
ATOM      4  C3  UNL d   1      -1.384   1.911   0.550  0.00  0.00     0.150 A 
ATOM      5  C4  UNL d   1      -1.048   0.579   0.770  0.00  0.00    -0.007 A 
ATOM      6  C5  UNL d   1      -0.030  -0.009   0.022  0.00  0.00     0.039 A 
ENDROOT
BRANCH   4   7
ATOM      7  O   UNL d   1      -2.389   2.443   1.302  0.00  0.00    -0.526 OA
ATOM      8  H5  UNL d   1      -2.531   3.362   1.020  0.00  0.00     0.418 HD
ENDBRANCH   4   7
TORSDOF 1
ENDMDL
