MODEL 1
REMARK minimizedAffinity -3.87378073
REMARK minimizedRMSD -1
REMARK  1 active torsions:
REMARK  status: ('A' for Active; 'I' for Inactive)
REMARK    1  A    between atoms: C3_4  and  O_7 
ROOT
ATOM      1  C   UNL d   1       0.543  -0.255  -0.145  0.00  0.00    -0.033 A 
ATOM      2  C1  UNL d   1      -0.016   0.768  -0.914  0.00  0.00     0.039 A 
ATOM      3  C2  UNL d   1      -1.061   1.539  -0.401  0.00  0.00    -0.080 A 
ATOM      4  C3  UNL d   1      -1.537   1.278   0.881  0.00  0.00     0.150 A 
ATOM      5  C4  UNL d   1      -0.982   0.263   1.654  0.00  0.00    -0.007 A 
ATOM      6  C5  UNL d   1       0.060  -0.506   1.140  0.00  0.00     0.039 A 
ENDROOT
BRANCH   4   7
ATOM      7  O   UNL d   1      -2.558   2.001   1.423  0.00  0.00    -0.526 OA
ATOM      8  H5  UNL d   1      -2.860   2.648   0.764  0.00  0.00     0.418 HD
ENDBRANCH   4   7
TORSDOF 1
ENDMDL
