MODEL 1
REMARK minimizedAffinity -3.57899833
REMARK minimizedRMSD -1
REMARK  1 active torsions:
REMARK  status: ('A' for Active; 'I' for Inactive)
REMARK    1  A    between atoms: C3_4  and  O_7 
ROOT
ATOM      1  C   UNL d   1       0.455  -0.129  -0.376  0.00  0.00    -0.033 A 
ATOM      2  C1  UNL d   1      -0.009   1.031  -0.998  0.00  0.00     0.039 A 
ATOM      3  C2  UNL d   1      -1.008   1.798  -0.395  0.00  0.00    -0.080 A 
ATOM      4  C3  UNL d   1      -1.532   1.394   0.830  0.00  0.00     0.150 A 
ATOM      5  C4  UNL d   1      -1.072   0.241   1.458  0.00  0.00    -0.007 A 
ATOM      6  C5  UNL d   1      -0.075  -0.523   0.853  0.00  0.00     0.039 A 
ENDROOT
BRANCH   4   7
ATOM      7  O   UNL d   1      -2.512   2.107   1.456  0.00  0.00    -0.526 OA
ATOM      8  H5  UNL d   1      -2.751   2.862   0.892  0.00  0.00     0.418 HD
ENDBRANCH   4   7
TORSDOF 1
ENDMDL
