MODEL 1
REMARK minimizedAffinity -1.69192767
REMARK minimizedRMSD -1
REMARK  1 active torsions:
REMARK  status: ('A' for Active; 'I' for Inactive)
REMARK    1  A    between atoms: C3_4  and  O_7 
ROOT
ATOM      1  C   UNL d   1      -0.523   1.505   0.800  0.00  0.00    -0.033 A 
ATOM      2  C1  UNL d   1      -0.467   0.332   1.555  0.00  0.00     0.039 A 
ATOM      3  C2  UNL d   1      -0.022  -0.855   0.971  0.00  0.00    -0.080 A 
ATOM      4  C3  UNL d   1       0.364  -0.856  -0.367  0.00  0.00     0.150 A 
ATOM      5  C4  UNL d   1       0.314   0.310  -1.124  0.00  0.00    -0.007 A 
ATOM      6  C5  UNL d   1      -0.131   1.495  -0.539  0.00  0.00     0.039 A 
ENDROOT
BRANCH   4   7
ATOM      7  O   UNL d   1       0.801  -1.991  -0.982  0.00  0.00    -0.526 OA
ATOM      8  H5  UNL d   1       0.755  -2.724  -0.345  0.00  0.00     0.418 HD
ENDBRANCH   4   7
TORSDOF 1
ENDMDL
