MODEL 1
REMARK minimizedAffinity -4.28984642
REMARK minimizedRMSD -1
REMARK  1 active torsions:
REMARK  status: ('A' for Active; 'I' for Inactive)
REMARK    1  A    between atoms: C3_4  and  O_7 
ROOT
ATOM      1  C   UNL d   1       0.662  -0.884   0.071  0.00  0.00    -0.033 A 
ATOM      2  C1  UNL d   1       0.379   0.193  -0.771  0.00  0.00     0.039 A 
ATOM      3  C2  UNL d   1      -0.553   1.158  -0.384  0.00  0.00    -0.080 A 
ATOM      4  C3  UNL d   1      -1.192   1.036   0.847  0.00  0.00     0.150 A 
ATOM      5  C4  UNL d   1      -0.912  -0.032   1.693  0.00  0.00    -0.007 A 
ATOM      6  C5  UNL d   1       0.018  -0.996   1.304  0.00  0.00     0.039 A 
ENDROOT
BRANCH   4   7
ATOM      7  O   UNL d   1      -2.112   1.950   1.266  0.00  0.00    -0.526 OA
ATOM      8  H5  UNL d   1      -2.225   2.616   0.567  0.00  0.00     0.418 HD
ENDBRANCH   4   7
TORSDOF 1
ENDMDL
