MODEL 1
REMARK minimizedAffinity -1.8406384
REMARK minimizedRMSD -1
REMARK  1 active torsions:
REMARK  status: ('A' for Active; 'I' for Inactive)
REMARK    1  A    between atoms: C3_4  and  O_7 
ROOT
ATOM      1  C   UNL d   1       0.324  -0.382  -0.154  0.00  0.00    -0.033 A 
ATOM      2  C1  UNL d   1      -0.300   0.603  -0.922  0.00  0.00     0.039 A 
ATOM      3  C2  UNL d   1      -1.332   1.368  -0.375  0.00  0.00    -0.080 A 
ATOM      4  C3  UNL d   1      -1.729   1.140   0.940  0.00  0.00     0.150 A 
ATOM      5  C4  UNL d   1      -1.109   0.163   1.712  0.00  0.00    -0.007 A 
ATOM      6  C5  UNL d   1      -0.079  -0.601   1.163  0.00  0.00     0.039 A 
ENDROOT
BRANCH   4   7
ATOM      7  O   UNL d   1      -2.734   1.858   1.516  0.00  0.00    -0.526 OA
ATOM      8  H5  UNL d   1      -3.088   2.476   0.855  0.00  0.00     0.418 HD
ENDBRANCH   4   7
TORSDOF 1
ENDMDL
