MODEL 1
REMARK minimizedAffinity -2.98170161
REMARK minimizedRMSD -1
REMARK  1 active torsions:
REMARK  status: ('A' for Active; 'I' for Inactive)
REMARK    1  A    between atoms: C3_4  and  O_7 
ROOT
ATOM      1  C   UNL d   1       0.957  -3.455  -1.996  0.00  0.00    -0.033 A 
ATOM      2  C1  UNL d   1       1.511  -2.845  -0.869  0.00  0.00     0.039 A 
ATOM      3  C2  UNL d   1       1.124  -1.552  -0.511  0.00  0.00    -0.080 A 
ATOM      4  C3  UNL d   1       0.182  -0.882  -1.286  0.00  0.00     0.150 A 
ATOM      5  C4  UNL d   1      -0.377  -1.485  -2.408  0.00  0.00    -0.007 A 
ATOM      6  C5  UNL d   1       0.012  -2.775  -2.765  0.00  0.00     0.039 A 
ENDROOT
BRANCH   4   7
ATOM      7  O   UNL d   1      -0.224   0.383  -0.979  0.00  0.00    -0.526 OA
ATOM      8  H5  UNL d   1       0.267   0.682  -0.196  0.00  0.00     0.418 HD
ENDBRANCH   4   7
TORSDOF 1
ENDMDL
