MODEL 1
REMARK minimizedAffinity -5.32845163
REMARK minimizedRMSD -1
REMARK  1 active torsions:
REMARK  status: ('A' for Active; 'I' for Inactive)
REMARK    1  A    between atoms: C3_4  and  O_7 
ROOT
ATOM      1  C   UNL d   1       0.482  -0.404   0.096  0.00  0.00    -0.033 A 
ATOM      2  C1  UNL d   1      -0.058  -0.578   1.372  0.00  0.00     0.039 A 
ATOM      3  C2  UNL d   1      -1.062   0.277   1.829  0.00  0.00    -0.080 A 
ATOM      4  C3  UNL d   1      -1.517   1.301   1.002  0.00  0.00     0.150 A 
ATOM      5  C4  UNL d   1      -0.987   1.477  -0.271  0.00  0.00    -0.007 A 
ATOM      6  C5  UNL d   1       0.017   0.623  -0.726  0.00  0.00     0.039 A 
ENDROOT
BRANCH   4   7
ATOM      7  O   UNL d   1      -2.492   2.163   1.407  0.00  0.00    -0.526 OA
ATOM      8  H5  UNL d   1      -2.743   1.938   2.318  0.00  0.00     0.418 HD
ENDBRANCH   4   7
TORSDOF 1
ENDMDL
