MODEL 1
REMARK minimizedAffinity -5.32756329
REMARK minimizedRMSD -1
REMARK  1 active torsions:
REMARK  status: ('A' for Active; 'I' for Inactive)
REMARK    1  A    between atoms: C3_4  and  O_7 
ROOT
ATOM      1  C   UNL d   1      -1.668   2.096   1.466  0.00  0.00    -0.033 A 
ATOM      2  C1  UNL d   1      -1.043   1.004   2.071  0.00  0.00     0.039 A 
ATOM      3  C2  UNL d   1      -0.372   0.060   1.291  0.00  0.00    -0.080 A 
ATOM      4  C3  UNL d   1      -0.332   0.220  -0.091  0.00  0.00     0.150 A 
ATOM      5  C4  UNL d   1      -0.949   1.307  -0.701  0.00  0.00    -0.007 A 
ATOM      6  C5  UNL d   1      -1.619   2.248   0.080  0.00  0.00     0.039 A 
ENDROOT
BRANCH   4   7
ATOM      7  O   UNL d   1       0.306  -0.678  -0.894  0.00  0.00    -0.526 OA
ATOM      8  H5  UNL d   1       0.661  -1.391  -0.338  0.00  0.00     0.418 HD
ENDBRANCH   4   7
TORSDOF 1
ENDMDL
