MODEL 1
REMARK minimizedAffinity -3.92935181
REMARK minimizedRMSD -1
REMARK  1 active torsions:
REMARK  status: ('A' for Active; 'I' for Inactive)
REMARK    1  A    between atoms: C3_4  and  O_7 
ROOT
ATOM      1  C   UNL d   1      -1.698   2.298   1.597  0.00  0.00    -0.033 A 
ATOM      2  C1  UNL d   1      -1.790   2.273   0.204  0.00  0.00     0.039 A 
ATOM      3  C2  UNL d   1      -1.210   1.228  -0.517  0.00  0.00    -0.080 A 
ATOM      4  C3  UNL d   1      -0.543   0.214   0.166  0.00  0.00     0.150 A 
ATOM      5  C4  UNL d   1      -0.451   0.231   1.554  0.00  0.00    -0.007 A 
ATOM      6  C5  UNL d   1      -1.030   1.276   2.272  0.00  0.00     0.039 A 
ENDROOT
BRANCH   4   7
ATOM      7  O   UNL d   1       0.043  -0.824  -0.494  0.00  0.00    -0.526 OA
ATOM      8  H5  UNL d   1      -0.076  -0.688  -1.449  0.00  0.00     0.418 HD
ENDBRANCH   4   7
TORSDOF 1
ENDMDL
