MODEL 1
REMARK minimizedAffinity -0.365792155
REMARK minimizedRMSD -1
REMARK  1 active torsions:
REMARK  status: ('A' for Active; 'I' for Inactive)
REMARK    1  A    between atoms: C3_4  and  O_7 
ROOT
ATOM      1  C   UNL d   1      -0.679   2.278  -0.491  0.00  0.00    -0.033 A 
ATOM      2  C1  UNL d   1       0.487   2.056  -1.225  0.00  0.00     0.039 A 
ATOM      3  C2  UNL d   1       1.168   0.842  -1.108  0.00  0.00    -0.080 A 
ATOM      4  C3  UNL d   1       0.671  -0.140  -0.256  0.00  0.00     0.150 A 
ATOM      5  C4  UNL d   1      -0.493   0.073   0.475  0.00  0.00    -0.007 A 
ATOM      6  C5  UNL d   1      -1.170   1.286   0.358  0.00  0.00     0.039 A 
ENDROOT
BRANCH   4   7
ATOM      7  O   UNL d   1       1.302  -1.339  -0.106  0.00  0.00    -0.526 OA
ATOM      8  H5  UNL d   1       2.108  -1.333  -0.650  0.00  0.00     0.418 HD
ENDBRANCH   4   7
TORSDOF 1
ENDMDL
