MODEL 1
REMARK minimizedAffinity -1.04437816
REMARK minimizedRMSD -1
REMARK  1 active torsions:
REMARK  status: ('A' for Active; 'I' for Inactive)
REMARK    1  A    between atoms: C3_4  and  O_7 
ROOT
ATOM      1  C   UNL d   1      -1.195   2.880  -1.011  0.00  0.00    -0.033 A 
ATOM      2  C1  UNL d   1       0.181   2.682  -1.142  0.00  0.00     0.039 A 
ATOM      3  C2  UNL d   1       0.719   1.401  -1.014  0.00  0.00    -0.080 A 
ATOM      4  C3  UNL d   1      -0.128   0.326  -0.758  0.00  0.00     0.150 A 
ATOM      5  C4  UNL d   1      -1.500   0.515  -0.631  0.00  0.00    -0.007 A 
ATOM      6  C5  UNL d   1      -2.036   1.796  -0.757  0.00  0.00     0.039 A 
ENDROOT
BRANCH   4   7
ATOM      7  O   UNL d   1       0.352  -0.943  -0.620  0.00  0.00    -0.526 OA
ATOM      8  H5  UNL d   1       1.320  -0.917  -0.704  0.00  0.00     0.418 HD
ENDBRANCH   4   7
TORSDOF 1
ENDMDL
