MODEL 1
REMARK minimizedAffinity -3.35293126
REMARK minimizedRMSD -1
REMARK  1 active torsions:
REMARK  status: ('A' for Active; 'I' for Inactive)
REMARK    1  A    between atoms: C3_4  and  O_7 
ROOT
ATOM      1  C   UNL d   1       1.396  -0.243  -1.080  0.00  0.00    -0.033 A 
ATOM      2  C1  UNL d   1       0.721  -0.885  -0.040  0.00  0.00     0.039 A 
ATOM      3  C2  UNL d   1      -0.334  -0.243   0.611  0.00  0.00    -0.080 A 
ATOM      4  C3  UNL d   1      -0.704   1.039   0.212  0.00  0.00     0.150 A 
ATOM      5  C4  UNL d   1      -0.038   1.682  -0.826  0.00  0.00    -0.007 A 
ATOM      6  C5  UNL d   1       1.016   1.040  -1.474  0.00  0.00     0.039 A 
ENDROOT
BRANCH   4   7
ATOM      7  O   UNL d   1      -1.725   1.708   0.820  0.00  0.00    -0.526 OA
ATOM      8  H5  UNL d   1      -2.073   1.152   1.537  0.00  0.00     0.418 HD
ENDBRANCH   4   7
TORSDOF 1
ENDMDL
