MODEL 1
REMARK minimizedAffinity -3.64252806
REMARK minimizedRMSD -1
REMARK  1 active torsions:
REMARK  status: ('A' for Active; 'I' for Inactive)
REMARK    1  A    between atoms: C3_4  and  O_7 
ROOT
ATOM      1  C   UNL d   1      -0.839   2.492  -1.061  0.00  0.00    -0.033 A 
ATOM      2  C1  UNL d   1       0.474   2.063  -1.263  0.00  0.00     0.039 A 
ATOM      3  C2  UNL d   1       0.854   0.773  -0.888  0.00  0.00    -0.080 A 
ATOM      4  C3  UNL d   1      -0.087  -0.077  -0.314  0.00  0.00     0.150 A 
ATOM      5  C4  UNL d   1      -1.398   0.342  -0.114  0.00  0.00    -0.007 A 
ATOM      6  C5  UNL d   1      -1.775   1.631  -0.488  0.00  0.00     0.039 A 
ENDROOT
BRANCH   4   7
ATOM      7  O   UNL d   1       0.238  -1.344   0.072  0.00  0.00    -0.526 OA
ATOM      8  H5  UNL d   1       1.184  -1.485  -0.101  0.00  0.00     0.418 HD
ENDBRANCH   4   7
TORSDOF 1
ENDMDL
