MODEL 1
REMARK minimizedAffinity -2.88348818
REMARK minimizedRMSD -1
REMARK  2 active torsions:
REMARK  status: ('A' for Active; 'I' for Inactive)
REMARK    1  A    between atoms: C1_2  and  C2_3 
REMARK    2  A    between atoms: C2_3  and  C3_4 
ROOT
ATOM      1  C3  UNL d   1      -0.674  -0.419   0.382  0.00  0.00    -0.075 A 
ATOM      2  C4  UNL d   1      -0.501   0.244  -0.842  0.00  0.00     0.002 A 
ATOM      3  C5  UNL d   1       0.062  -0.418  -1.933  0.00  0.00     0.002 A 
ATOM      4  C6  UNL d   1       0.467  -1.746  -1.813  0.00  0.00    -0.004 A 
ATOM      5  C7  UNL d   1       0.315  -2.409  -0.597  0.00  0.00     0.002 A 
ATOM      6  C8  UNL d   1      -0.252  -1.750   0.495  0.00  0.00     0.002 A 
ENDROOT
BRANCH   1   7
ATOM      7  C2  UNL d   1      -1.310   0.283   1.558  0.00  0.00     0.056 C 
BRANCH   7   8
ATOM      8  C1  UNL d   1      -2.842   0.285   1.530  0.00  0.00     0.007 C 
ATOM      9  C   UNL d   1      -3.462   1.122   2.640  0.00  0.00     0.009 C 
ENDBRANCH   7   8
ENDBRANCH   1   7
TORSDOF 2
ENDMDL
