MODEL 1
REMARK minimizedAffinity -5.38826942
REMARK minimizedRMSD -1
REMARK  2 active torsions:
REMARK  status: ('A' for Active; 'I' for Inactive)
REMARK    1  A    between atoms: C1_2  and  C2_3 
REMARK    2  A    between atoms: C2_3  and  C3_4 
ROOT
ATOM      1  C3  UNL d   1       0.719   0.076  -0.791  0.00  0.00    -0.075 A 
ATOM      2  C4  UNL d   1       0.873  -1.317  -0.855  0.00  0.00     0.002 A 
ATOM      3  C5  UNL d   1       1.531  -1.908  -1.934  0.00  0.00     0.002 A 
ATOM      4  C6  UNL d   1       2.033  -1.118  -2.965  0.00  0.00    -0.004 A 
ATOM      5  C7  UNL d   1       1.871   0.265  -2.921  0.00  0.00     0.002 A 
ATOM      6  C8  UNL d   1       1.217   0.860  -1.840  0.00  0.00     0.002 A 
ENDROOT
BRANCH   1   7
ATOM      7  C2  UNL d   1       0.034   0.724   0.388  0.00  0.00     0.056 C 
BRANCH   7   8
ATOM      8  C1  UNL d   1      -0.659  -0.267   1.329  0.00  0.00     0.007 C 
ATOM      9  C   UNL d   1      -2.059   0.171   1.737  0.00  0.00     0.009 C 
ENDBRANCH   7   8
ENDBRANCH   1   7
TORSDOF 2
ENDMDL
