MODEL 1
REMARK minimizedAffinity -5.73546124
REMARK minimizedRMSD -1
REMARK  2 active torsions:
REMARK  status: ('A' for Active; 'I' for Inactive)
REMARK    1  A    between atoms: C1_2  and  C2_3 
REMARK    2  A    between atoms: C2_3  and  C3_4 
ROOT
ATOM      1  C3  UNL d   1       0.536  -0.335  -0.678  0.00  0.00    -0.075 A 
ATOM      2  C4  UNL d   1       0.577  -1.735  -0.602  0.00  0.00     0.002 A 
ATOM      3  C5  UNL d   1       1.393  -2.468  -1.464  0.00  0.00     0.002 A 
ATOM      4  C6  UNL d   1       2.168  -1.813  -2.419  0.00  0.00    -0.004 A 
ATOM      5  C7  UNL d   1       2.122  -0.424  -2.515  0.00  0.00     0.002 A 
ATOM      6  C8  UNL d   1       1.311   0.312  -1.650  0.00  0.00     0.002 A 
ENDROOT
BRANCH   1   7
ATOM      7  C2  UNL d   1      -0.322   0.466   0.272  0.00  0.00     0.056 C 
BRANCH   7   8
ATOM      8  C1  UNL d   1      -0.742  -0.301   1.530  0.00  0.00     0.007 C 
ATOM      9  C   UNL d   1      -2.041   0.211   2.139  0.00  0.00     0.009 C 
ENDBRANCH   7   8
ENDBRANCH   1   7
TORSDOF 2
ENDMDL
