MODEL 1
REMARK minimizedAffinity -5.1662569
REMARK minimizedRMSD -1
REMARK  2 active torsions:
REMARK  status: ('A' for Active; 'I' for Inactive)
REMARK    1  A    between atoms: C1_2  and  C2_3 
REMARK    2  A    between atoms: C2_3  and  C3_4 
ROOT
ATOM      1  C3  UNL d   1      -0.370  -0.751   0.231  0.00  0.00    -0.075 A 
ATOM      2  C4  UNL d   1      -0.157  -1.590  -0.872  0.00  0.00     0.002 A 
ATOM      3  C5  UNL d   1       0.621  -1.162  -1.948  0.00  0.00     0.002 A 
ATOM      4  C6  UNL d   1       1.187   0.111  -1.939  0.00  0.00    -0.004 A 
ATOM      5  C7  UNL d   1       0.968   0.959  -0.856  0.00  0.00     0.002 A 
ATOM      6  C8  UNL d   1       0.194   0.531   0.224  0.00  0.00     0.002 A 
ENDROOT
BRANCH   1   7
ATOM      7  C2  UNL d   1      -1.186  -1.220   1.412  0.00  0.00     0.056 C 
BRANCH   7   8
ATOM      8  C1  UNL d   1      -2.237  -0.209   1.884  0.00  0.00     0.007 C 
ATOM      9  C   UNL d   1      -3.665  -0.716   1.740  0.00  0.00     0.009 C 
ENDBRANCH   7   8
ENDBRANCH   1   7
TORSDOF 2
ENDMDL
