MODEL 1
REMARK minimizedAffinity -4.91045952
REMARK minimizedRMSD -1
REMARK  2 active torsions:
REMARK  status: ('A' for Active; 'I' for Inactive)
REMARK    1  A    between atoms: C1_2  and  C2_3 
REMARK    2  A    between atoms: C2_3  and  C3_4 
ROOT
ATOM      1  C3  UNL d   1       0.479  -0.328  -0.669  0.00  0.00    -0.075 A 
ATOM      2  C4  UNL d   1       0.560  -1.723  -0.785  0.00  0.00     0.002 A 
ATOM      3  C5  UNL d   1       1.302  -2.306  -1.813  0.00  0.00     0.002 A 
ATOM      4  C6  UNL d   1       1.963  -1.504  -2.741  0.00  0.00    -0.004 A 
ATOM      5  C7  UNL d   1       1.876  -0.117  -2.644  0.00  0.00     0.002 A 
ATOM      6  C8  UNL d   1       1.138   0.469  -1.614  0.00  0.00     0.002 A 
ENDROOT
BRANCH   1   7
ATOM      7  C2  UNL d   1      -0.298   0.309   0.459  0.00  0.00     0.056 C 
BRANCH   7   8
ATOM      8  C1  UNL d   1      -0.862  -0.693   1.471  0.00  0.00     0.007 C 
ATOM      9  C   UNL d   1      -2.189  -0.253   2.075  0.00  0.00     0.009 C 
ENDBRANCH   7   8
ENDBRANCH   1   7
TORSDOF 2
ENDMDL
