MODEL 1
REMARK minimizedAffinity -4.31615114
REMARK minimizedRMSD -1
REMARK  2 active torsions:
REMARK  status: ('A' for Active; 'I' for Inactive)
REMARK    1  A    between atoms: C1_2  and  C2_3 
REMARK    2  A    between atoms: C2_3  and  C3_4 
ROOT
ATOM      1  C3  UNL d   1       0.109  -0.426   0.498  0.00  0.00    -0.075 A 
ATOM      2  C4  UNL d   1       0.706   0.828   0.302  0.00  0.00     0.002 A 
ATOM      3  C5  UNL d   1       1.104   1.231  -0.973  0.00  0.00     0.002 A 
ATOM      4  C6  UNL d   1       0.921   0.384  -2.064  0.00  0.00    -0.004 A 
ATOM      5  C7  UNL d   1       0.345  -0.871  -1.877  0.00  0.00     0.002 A 
ATOM      6  C8  UNL d   1      -0.058  -1.275  -0.604  0.00  0.00     0.002 A 
ENDROOT
BRANCH   1   7
ATOM      7  C2  UNL d   1      -0.350  -0.856   1.871  0.00  0.00     0.056 C 
BRANCH   7   8
ATOM      8  C1  UNL d   1      -1.398   0.071   2.497  0.00  0.00     0.007 C 
ATOM      9  C   UNL d   1      -2.688   0.150   1.691  0.00  0.00     0.009 C 
ENDBRANCH   7   8
ENDBRANCH   1   7
TORSDOF 2
ENDMDL
