MODEL 1
REMARK minimizedAffinity -6.3413167
REMARK minimizedRMSD -1
REMARK  2 active torsions:
REMARK  status: ('A' for Active; 'I' for Inactive)
REMARK    1  A    between atoms: C1_2  and  C2_3 
REMARK    2  A    between atoms: C2_3  and  C3_4 
ROOT
ATOM      1  C3  UNL d   1      -0.151   0.324  -0.485  0.00  0.00    -0.075 A 
ATOM      2  C4  UNL d   1       0.451   1.506  -0.940  0.00  0.00     0.002 A 
ATOM      3  C5  UNL d   1       1.350   1.477  -2.007  0.00  0.00     0.002 A 
ATOM      4  C6  UNL d   1       1.666   0.269  -2.623  0.00  0.00    -0.004 A 
ATOM      5  C7  UNL d   1       1.087  -0.914  -2.168  0.00  0.00     0.002 A 
ATOM      6  C8  UNL d   1       0.183  -0.887  -1.104  0.00  0.00     0.002 A 
ENDROOT
BRANCH   1   7
ATOM      7  C2  UNL d   1      -1.147   0.352   0.650  0.00  0.00     0.056 C 
BRANCH   7   8
ATOM      8  C1  UNL d   1      -2.585   0.035   0.225  0.00  0.00     0.007 C 
ATOM      9  C   UNL d   1      -3.592   1.080   0.689  0.00  0.00     0.009 C 
ENDBRANCH   7   8
ENDBRANCH   1   7
TORSDOF 2
ENDMDL
