MODEL 1
REMARK minimizedAffinity -2.40686917
REMARK minimizedRMSD -1
REMARK  2 active torsions:
REMARK  status: ('A' for Active; 'I' for Inactive)
REMARK    1  A    between atoms: C1_2  and  C2_3 
REMARK    2  A    between atoms: C2_3  and  C3_4 
ROOT
ATOM      1  C3  UNL d   1       1.155   0.669  -0.298  0.00  0.00    -0.075 A 
ATOM      2  C4  UNL d   1       0.374  -0.493  -0.385  0.00  0.00     0.002 A 
ATOM      3  C5  UNL d   1      -0.743  -0.658   0.434  0.00  0.00     0.002 A 
ATOM      4  C6  UNL d   1      -1.088   0.329   1.354  0.00  0.00    -0.004 A 
ATOM      5  C7  UNL d   1      -0.310   1.480   1.461  0.00  0.00     0.002 A 
ATOM      6  C8  UNL d   1       0.806   1.650   0.640  0.00  0.00     0.002 A 
ENDROOT
BRANCH   1   7
ATOM      7  C2  UNL d   1       2.349   0.866  -1.202  0.00  0.00     0.056 C 
BRANCH   7   8
ATOM      8  C1  UNL d   1       2.216   0.185  -2.568  0.00  0.00     0.007 C 
ATOM      9  C   UNL d   1       2.874  -1.187  -2.621  0.00  0.00     0.009 C 
ENDBRANCH   7   8
ENDBRANCH   1   7
TORSDOF 2
ENDMDL
