MODEL 1
REMARK minimizedAffinity -3.23205972
REMARK minimizedRMSD -1
REMARK  2 active torsions:
REMARK  status: ('A' for Active; 'I' for Inactive)
REMARK    1  A    between atoms: C1_2  and  C2_3 
REMARK    2  A    between atoms: C2_3  and  C3_4 
ROOT
ATOM      1  C3  UNL d   1      -2.870   2.104   3.161  0.00  0.00    -0.075 A 
ATOM      2  C4  UNL d   1      -1.614   1.497   3.018  0.00  0.00     0.002 A 
ATOM      3  C5  UNL d   1      -1.424   0.469   2.095  0.00  0.00     0.002 A 
ATOM      4  C6  UNL d   1      -2.488   0.027   1.311  0.00  0.00    -0.004 A 
ATOM      5  C7  UNL d   1      -3.745   0.611   1.457  0.00  0.00     0.002 A 
ATOM      6  C8  UNL d   1      -3.936   1.643   2.376  0.00  0.00     0.002 A 
ENDROOT
BRANCH   1   7
ATOM      7  C2  UNL d   1      -3.075   3.237   4.137  0.00  0.00     0.056 C 
BRANCH   7   8
ATOM      8  C1  UNL d   1      -2.214   3.135   5.401  0.00  0.00     0.007 C 
ATOM      9  C   UNL d   1      -1.864   4.491   6.000  0.00  0.00     0.009 C 
ENDBRANCH   7   8
ENDBRANCH   1   7
TORSDOF 2
ENDMDL
