MODEL 1
REMARK minimizedAffinity -0.32913512
REMARK minimizedRMSD -1
REMARK  2 active torsions:
REMARK  status: ('A' for Active; 'I' for Inactive)
REMARK    1  A    between atoms: C1_2  and  C2_3 
REMARK    2  A    between atoms: C2_3  and  C3_4 
ROOT
ATOM      1  C3  UNL d   1       0.716   0.865  -0.017  0.00  0.00    -0.075 A 
ATOM      2  C4  UNL d   1       0.867   2.024  -0.792  0.00  0.00     0.002 A 
ATOM      3  C5  UNL d   1       1.841   2.087  -1.789  0.00  0.00     0.002 A 
ATOM      4  C6  UNL d   1       2.681   0.999  -2.016  0.00  0.00    -0.004 A 
ATOM      5  C7  UNL d   1       2.550  -0.151  -1.242  0.00  0.00     0.002 A 
ATOM      6  C8  UNL d   1       1.574  -0.219  -0.246  0.00  0.00     0.002 A 
ENDROOT
BRANCH   1   7
ATOM      7  C2  UNL d   1      -0.356   0.779   1.044  0.00  0.00     0.056 C 
BRANCH   7   8
ATOM      8  C1  UNL d   1      -1.784   0.794   0.489  0.00  0.00     0.007 C 
ATOM      9  C   UNL d   1      -2.838   1.077   1.552  0.00  0.00     0.009 C 
ENDBRANCH   7   8
ENDBRANCH   1   7
TORSDOF 2
ENDMDL
