MODEL 1
REMARK minimizedAffinity -6.15643549
REMARK minimizedRMSD -1
REMARK  2 active torsions:
REMARK  status: ('A' for Active; 'I' for Inactive)
REMARK    1  A    between atoms: C1_2  and  C2_3 
REMARK    2  A    between atoms: C2_3  and  C3_4 
ROOT
ATOM      1  C3  UNL d   1       0.576  -0.273  -0.379  0.00  0.00    -0.075 A 
ATOM      2  C4  UNL d   1       1.346   0.415  -1.328  0.00  0.00     0.002 A 
ATOM      3  C5  UNL d   1       1.970  -0.276  -2.368  0.00  0.00     0.002 A 
ATOM      4  C6  UNL d   1       1.842  -1.659  -2.465  0.00  0.00    -0.004 A 
ATOM      5  C7  UNL d   1       1.093  -2.354  -1.518  0.00  0.00     0.002 A 
ATOM      6  C8  UNL d   1       0.464  -1.666  -0.479  0.00  0.00     0.002 A 
ENDROOT
BRANCH   1   7
ATOM      7  C2  UNL d   1      -0.126   0.472   0.731  0.00  0.00     0.056 C 
BRANCH   7   8
ATOM      8  C1  UNL d   1      -1.132  -0.379   1.515  0.00  0.00     0.007 C 
ATOM      9  C   UNL d   1      -2.312   0.423   2.047  0.00  0.00     0.009 C 
ENDBRANCH   7   8
ENDBRANCH   1   7
TORSDOF 2
ENDMDL
