MODEL 1
REMARK minimizedAffinity -4.84761906
REMARK minimizedRMSD -1
REMARK  2 active torsions:
REMARK  status: ('A' for Active; 'I' for Inactive)
REMARK    1  A    between atoms: C1_2  and  C2_3 
REMARK    2  A    between atoms: C2_3  and  C3_4 
ROOT
ATOM      1  C3  UNL d   1       0.807   0.160  -0.668  0.00  0.00    -0.075 A 
ATOM      2  C4  UNL d   1       1.765   0.582  -1.601  0.00  0.00     0.002 A 
ATOM      3  C5  UNL d   1       2.022  -0.176  -2.744  0.00  0.00     0.002 A 
ATOM      4  C6  UNL d   1       1.334  -1.367  -2.963  0.00  0.00    -0.004 A 
ATOM      5  C7  UNL d   1       0.393  -1.805  -2.034  0.00  0.00     0.002 A 
ATOM      6  C8  UNL d   1       0.130  -1.046  -0.892  0.00  0.00     0.002 A 
ENDROOT
BRANCH   1   7
ATOM      7  C2  UNL d   1       0.502   0.991   0.556  0.00  0.00     0.056 C 
BRANCH   7   8
ATOM      8  C1  UNL d   1      -0.212   0.220   1.671  0.00  0.00     0.007 C 
ATOM      9  C   UNL d   1      -1.678   0.602   1.822  0.00  0.00     0.009 C 
ENDBRANCH   7   8
ENDBRANCH   1   7
TORSDOF 2
ENDMDL
