MODEL 1
REMARK minimizedAffinity 18.2618484
REMARK minimizedRMSD -1
REMARK  0 active torsions:
REMARK  status: ('A' for Active; 'I' for Inactive)
ROOT
ATOM      1  N1  IND d   1       2.263   3.234   1.623  0.00  0.00    -0.196 N 
ATOM      2  C2  IND d   1       2.251   3.351   2.985  0.00  0.00     0.054 A 
ATOM      3  C3  IND d   1       3.163   4.265   3.386  0.00  0.00    -0.031 A 
ATOM      4  C4  IND d   1       4.710   5.762   1.974  0.00  0.00     0.051 A 
ATOM      5  C5  IND d   1       5.106   5.990   0.686  0.00  0.00    -0.031 A 
ATOM      6  C6  IND d   1       4.562   5.299  -0.377  0.00  0.00     0.015 A 
ATOM      7  C7  IND d   1       3.588   4.358  -0.192  0.00  0.00    -0.016 A 
ATOM      8  C8  IND d   1       3.189   4.119   1.115  0.00  0.00    -0.047 A 
ATOM      9  C9  IND d   1       3.768   4.786   2.202  0.00  0.00    -0.096 A 
ATOM     10  HN1 IND d   1       1.775   2.698   1.161  0.00  0.00     0.298 HD
ENDROOT
TORSDOF 0
ENDMDL
