MODEL 1
REMARK minimizedAffinity 7.92773676
REMARK minimizedRMSD -1
REMARK  0 active torsions:
REMARK  status: ('A' for Active; 'I' for Inactive)
ROOT
ATOM      1  N1  IND d   1      -5.469   2.498   0.751  0.00  0.00    -0.196 N 
ATOM      2  C2  IND d   1      -5.587   1.139   0.829  0.00  0.00     0.054 A 
ATOM      3  C3  IND d   1      -5.840   0.617  -0.392  0.00  0.00    -0.031 A 
ATOM      4  C4  IND d   1      -5.999   1.799  -2.674  0.00  0.00     0.051 A 
ATOM      5  C5  IND d   1      -5.997   3.040  -3.247  0.00  0.00    -0.031 A 
ATOM      6  C6  IND d   1      -5.813   4.187  -2.502  0.00  0.00     0.015 A 
ATOM      7  C7  IND d   1      -5.611   4.134  -1.152  0.00  0.00    -0.016 A 
ATOM      8  C8  IND d   1      -5.619   2.876  -0.565  0.00  0.00    -0.047 A 
ATOM      9  C9  IND d   1      -5.849   1.712  -1.310  0.00  0.00    -0.096 A 
ATOM     10  HN1 IND d   1      -5.325   3.029   1.412  0.00  0.00     0.298 HD
ENDROOT
TORSDOF 0
ENDMDL
