MODEL 1
REMARK minimizedAffinity 17.3328381
REMARK minimizedRMSD -1
REMARK  0 active torsions:
REMARK  status: ('A' for Active; 'I' for Inactive)
ROOT
ATOM      1  N1  IND d   1       0.660  -0.267   5.023  0.00  0.00    -0.196 N 
ATOM      2  C2  IND d   1       0.221   0.269   3.844  0.00  0.00     0.054 A 
ATOM      3  C3  IND d   1      -0.355  -0.685   3.079  0.00  0.00    -0.031 A 
ATOM      4  C4  IND d   1      -0.775  -3.170   3.603  0.00  0.00     0.051 A 
ATOM      5  C5  IND d   1      -0.520  -4.131   4.541  0.00  0.00    -0.031 A 
ATOM      6  C6  IND d   1       0.153  -3.847   5.712  0.00  0.00     0.015 A 
ATOM      7  C7  IND d   1       0.588  -2.583   5.995  0.00  0.00    -0.016 A 
ATOM      8  C8  IND d   1       0.336  -1.606   5.042  0.00  0.00    -0.047 A 
ATOM      9  C9  IND d   1      -0.308  -1.897   3.833  0.00  0.00    -0.096 A 
ATOM     10  HN1 IND d   1       1.069   0.160   5.647  0.00  0.00     0.298 HD
ENDROOT
TORSDOF 0
ENDMDL
