MODEL 1
REMARK minimizedAffinity 7.78026199
REMARK minimizedRMSD -1
REMARK  0 active torsions:
REMARK  status: ('A' for Active; 'I' for Inactive)
ROOT
ATOM      1  N1  IND d   1       2.672   1.164  -0.390  0.00  0.00    -0.196 N 
ATOM      2  C2  IND d   1       3.106   1.685   0.797  0.00  0.00     0.054 A 
ATOM      3  C3  IND d   1       3.013   0.760   1.779  0.00  0.00    -0.031 A 
ATOM      4  C4  IND d   1       2.275  -1.702   1.641  0.00  0.00     0.051 A 
ATOM      5  C5  IND d   1       1.755  -2.624   0.776  0.00  0.00    -0.031 A 
ATOM      6  C6  IND d   1       1.511  -2.325  -0.549  0.00  0.00     0.015 A 
ATOM      7  C7  IND d   1       1.791  -1.090  -1.063  0.00  0.00    -0.016 A 
ATOM      8  C8  IND d   1       2.312  -0.150  -0.187  0.00  0.00    -0.047 A 
ATOM      9  C9  IND d   1       2.522  -0.435   1.169  0.00  0.00    -0.096 A 
ATOM     10  HN1 IND d   1       2.630   1.587  -1.138  0.00  0.00     0.298 HD
ENDROOT
TORSDOF 0
ENDMDL
