MODEL 1
REMARK minimizedAffinity 8.7877264
REMARK minimizedRMSD -1
REMARK  0 active torsions:
REMARK  status: ('A' for Active; 'I' for Inactive)
ROOT
ATOM      1  N1  IND d   1       2.943  -1.130  -1.237  0.00  0.00    -0.196 N 
ATOM      2  C2  IND d   1       2.073  -1.423  -0.224  0.00  0.00     0.054 A 
ATOM      3  C3  IND d   1       1.954  -0.369   0.614  0.00  0.00    -0.031 A 
ATOM      4  C4  IND d   1       3.016   1.972   0.459  0.00  0.00     0.051 A 
ATOM      5  C5  IND d   1       3.912   2.702  -0.270  0.00  0.00    -0.031 A 
ATOM      6  C6  IND d   1       4.542   2.183  -1.383  0.00  0.00     0.015 A 
ATOM      7  C7  IND d   1       4.289   0.912  -1.816  0.00  0.00    -0.016 A 
ATOM      8  C8  IND d   1       3.385   0.165  -1.074  0.00  0.00    -0.047 A 
ATOM      9  C9  IND d   1       2.775   0.672   0.081  0.00  0.00    -0.096 A 
ATOM     10  HN1 IND d   1       3.175  -1.664  -1.869  0.00  0.00     0.298 HD
ENDROOT
TORSDOF 0
ENDMDL
