MODEL 1
REMARK minimizedAffinity 14.022644
REMARK minimizedRMSD -1
REMARK  0 active torsions:
REMARK  status: ('A' for Active; 'I' for Inactive)
ROOT
ATOM      1  N1  IND d   1       1.617   0.527  -1.123  0.00  0.00    -0.196 N 
ATOM      2  C2  IND d   1       1.182  -0.478  -0.305  0.00  0.00     0.054 A 
ATOM      3  C3  IND d   1       2.184  -0.896   0.500  0.00  0.00    -0.031 A 
ATOM      4  C4  IND d   1       4.589  -0.003   0.716  0.00  0.00     0.051 A 
ATOM      5  C5  IND d   1       5.463   0.886   0.155  0.00  0.00    -0.031 A 
ATOM      6  C6  IND d   1       5.091   1.719  -0.881  0.00  0.00     0.015 A 
ATOM      7  C7  IND d   1       3.822   1.702  -1.388  0.00  0.00    -0.016 A 
ATOM      8  C8  IND d   1       2.934   0.797  -0.824  0.00  0.00    -0.047 A 
ATOM      9  C9  IND d   1       3.318  -0.081   0.198  0.00  0.00    -0.096 A 
ATOM     10  HN1 IND d   1       1.146   0.925  -1.723  0.00  0.00     0.298 HD
ENDROOT
TORSDOF 0
ENDMDL
