MODEL 1
REMARK minimizedAffinity -4.21643972
REMARK minimizedRMSD -1
REMARK  1 active torsions:
REMARK  status: ('A' for Active; 'I' for Inactive)
REMARK    1  A    between atoms: N_2  and  C1_3 
ROOT
ATOM      1  C1  UNL d   1      -0.623   0.807   0.487  0.00  0.00     0.143 A 
ATOM      2  C2  UNL d   1      -0.194   2.135   0.387  0.00  0.00    -0.057 A 
ATOM      3  C3  UNL d   1      -0.114   2.780  -0.853  0.00  0.00     0.033 A 
ATOM      4  C4  UNL d   1      -0.435   2.097  -2.022  0.00  0.00    -0.042 A 
ATOM      5  C5  UNL d   1      -0.840   0.769  -1.948  0.00  0.00     0.033 A 
ATOM      6  C6  UNL d   1      -0.924   0.132  -0.706  0.00  0.00    -0.057 A 
ENDROOT
BRANCH   1   7
ATOM      7  N   UNL d   1      -0.630   0.080   1.680  0.00  0.00    -0.732 N 
ATOM      8  C   UNL d   1       0.358  -0.949   1.922  0.00  0.00     0.284 C 
ATOM      9  H3  UNL d   1      -0.829   0.663   2.489  0.00  0.00     0.395 HD
ENDBRANCH   1   7
TORSDOF 1
ENDMDL
