MODEL 1
REMARK minimizedAffinity -4.39525032
REMARK minimizedRMSD -1
REMARK  1 active torsions:
REMARK  status: ('A' for Active; 'I' for Inactive)
REMARK    1  A    between atoms: N_2  and  C1_3 
ROOT
ATOM      1  C1  UNL d   1      -1.218   0.376  -0.242  0.00  0.00     0.143 A 
ATOM      2  C2  UNL d   1      -1.902  -0.212   0.827  0.00  0.00    -0.057 A 
ATOM      3  C3  UNL d   1      -1.234  -0.583   2.000  0.00  0.00     0.033 A 
ATOM      4  C4  UNL d   1       0.139  -0.398   2.114  0.00  0.00    -0.042 A 
ATOM      5  C5  UNL d   1       0.844   0.163   1.055  0.00  0.00     0.033 A 
ATOM      6  C6  UNL d   1       0.171   0.537  -0.112  0.00  0.00    -0.057 A 
ENDROOT
BRANCH   1   7
ATOM      7  N   UNL d   1      -1.807   0.677  -1.472  0.00  0.00    -0.732 N 
ATOM      8  C   UNL d   1      -1.245   1.698  -2.330  0.00  0.00     0.284 C 
ATOM      9  H3  UNL d   1      -2.119  -0.156  -1.967  0.00  0.00     0.395 HD
ENDBRANCH   1   7
TORSDOF 1
ENDMDL
