MODEL 1
REMARK minimizedAffinity -2.9903357
REMARK minimizedRMSD -1
REMARK  1 active torsions:
REMARK  status: ('A' for Active; 'I' for Inactive)
REMARK    1  A    between atoms: N_2  and  C1_3 
ROOT
ATOM      1  C1  UNL d   1      -0.832   1.419  -1.950  0.00  0.00     0.143 A 
ATOM      2  C2  UNL d   1      -2.091   1.973  -2.203  0.00  0.00    -0.057 A 
ATOM      3  C3  UNL d   1      -2.237   3.327  -2.528  0.00  0.00     0.033 A 
ATOM      4  C4  UNL d   1      -1.125   4.161  -2.576  0.00  0.00    -0.042 A 
ATOM      5  C5  UNL d   1       0.134   3.638  -2.303  0.00  0.00     0.033 A 
ATOM      6  C6  UNL d   1       0.274   2.283  -1.986  0.00  0.00    -0.057 A 
ENDROOT
BRANCH   1   7
ATOM      7  N   UNL d   1      -0.631   0.103  -1.526  0.00  0.00    -0.732 N 
ATOM      8  C   UNL d   1      -0.111  -0.175  -0.204  0.00  0.00     0.284 C 
ATOM      9  H3  UNL d   1      -1.385  -0.517  -1.815  0.00  0.00     0.395 HD
ENDBRANCH   1   7
TORSDOF 1
ENDMDL
