MODEL 1
REMARK minimizedAffinity -4.5878129
REMARK minimizedRMSD -1
REMARK  1 active torsions:
REMARK  status: ('A' for Active; 'I' for Inactive)
REMARK    1  A    between atoms: N_2  and  C1_3 
ROOT
ATOM      1  C1  UNL d   1       0.097  -0.106   0.215  0.00  0.00     0.143 A 
ATOM      2  C2  UNL d   1      -0.459  -0.130   1.498  0.00  0.00    -0.057 A 
ATOM      3  C3  UNL d   1       0.222  -0.713   2.574  0.00  0.00     0.033 A 
ATOM      4  C4  UNL d   1       1.464  -1.308   2.378  0.00  0.00    -0.042 A 
ATOM      5  C5  UNL d   1       2.025  -1.317   1.106  0.00  0.00     0.033 A 
ATOM      6  C6  UNL d   1       1.343  -0.728   0.037  0.00  0.00    -0.057 A 
ENDROOT
BRANCH   1   7
ATOM      7  N   UNL d   1      -0.573   0.370  -0.915  0.00  0.00    -0.732 N 
ATOM      8  C   UNL d   1      -0.328   1.709  -1.408  0.00  0.00     0.284 C 
ATOM      9  H3  UNL d   1      -0.653  -0.334  -1.645  0.00  0.00     0.395 HD
ENDBRANCH   1   7
TORSDOF 1
ENDMDL
