MODEL 1
REMARK minimizedAffinity 2.16889262
REMARK minimizedRMSD -1
REMARK  1 active torsions:
REMARK  status: ('A' for Active; 'I' for Inactive)
REMARK    1  A    between atoms: N_2  and  C1_3 
ROOT
ATOM      1  C1  UNL d   1      -0.663  -0.755   2.422  0.00  0.00     0.143 A 
ATOM      2  C2  UNL d   1      -1.163  -1.080   1.157  0.00  0.00    -0.057 A 
ATOM      3  C3  UNL d   1      -2.321  -0.473   0.656  0.00  0.00     0.033 A 
ATOM      4  C4  UNL d   1      -3.018   0.452   1.426  0.00  0.00    -0.042 A 
ATOM      5  C5  UNL d   1      -2.554   0.772   2.697  0.00  0.00     0.033 A 
ATOM      6  C6  UNL d   1      -1.393   0.168   3.189  0.00  0.00    -0.057 A 
ENDROOT
BRANCH   1   7
ATOM      7  N   UNL d   1       0.427  -1.395   3.016  0.00  0.00    -0.732 N 
ATOM      8  C   UNL d   1       1.749  -0.810   2.955  0.00  0.00     0.284 C 
ATOM      9  H3  UNL d   1       0.194  -1.802   3.920  0.00  0.00     0.395 HD
ENDBRANCH   1   7
TORSDOF 1
ENDMDL
