MODEL 1
REMARK minimizedAffinity 4.31410646
REMARK minimizedRMSD -1
REMARK  1 active torsions:
REMARK  status: ('A' for Active; 'I' for Inactive)
REMARK    1  A    between atoms: N_2  and  C1_3 
ROOT
ATOM      1  C1  UNL d   1       5.270  -2.830  -3.765  0.00  0.00     0.143 A 
ATOM      2  C2  UNL d   1       5.624  -3.551  -2.620  0.00  0.00    -0.057 A 
ATOM      3  C3  UNL d   1       6.000  -4.897  -2.696  0.00  0.00     0.033 A 
ATOM      4  C4  UNL d   1       6.000  -5.557  -3.921  0.00  0.00    -0.042 A 
ATOM      5  C5  UNL d   1       5.628  -4.867  -5.069  0.00  0.00     0.033 A 
ATOM      6  C6  UNL d   1       5.260  -3.521  -4.987  0.00  0.00    -0.057 A 
ENDROOT
BRANCH   1   7
ATOM      7  N   UNL d   1       4.793  -1.517  -3.742  0.00  0.00    -0.732 N 
ATOM      8  C   UNL d   1       3.425  -1.237  -3.362  0.00  0.00     0.284 C 
ATOM      9  H3  UNL d   1       5.473  -0.863  -3.360  0.00  0.00     0.395 HD
ENDBRANCH   1   7
TORSDOF 1
ENDMDL
