MODEL 1
REMARK minimizedAffinity 0.13899374
REMARK minimizedRMSD -1
REMARK  1 active torsions:
REMARK  status: ('A' for Active; 'I' for Inactive)
REMARK    1  A    between atoms: N_2  and  C1_3 
ROOT
ATOM      1  C1  UNL d   1       0.576   3.140  -0.134  0.00  0.00     0.143 A 
ATOM      2  C2  UNL d   1       0.453   2.433   1.066  0.00  0.00    -0.057 A 
ATOM      3  C3  UNL d   1       1.182   2.800   2.204  0.00  0.00     0.033 A 
ATOM      4  C4  UNL d   1       2.072   3.868   2.152  0.00  0.00    -0.042 A 
ATOM      5  C5  UNL d   1       2.229   4.571   0.962  0.00  0.00     0.033 A 
ATOM      6  C6  UNL d   1       1.493   4.203  -0.168  0.00  0.00    -0.057 A 
ENDROOT
BRANCH   1   7
ATOM      7  N   UNL d   1      -0.047   2.764  -1.326  0.00  0.00    -0.732 N 
ATOM      8  C   UNL d   1      -0.403   1.382  -1.567  0.00  0.00     0.284 C 
ATOM      9  H3  UNL d   1      -0.753   3.433  -1.624  0.00  0.00     0.395 HD
ENDBRANCH   1   7
TORSDOF 1
ENDMDL
