MODEL 1
REMARK minimizedAffinity -1.01696026
REMARK minimizedRMSD -1
REMARK  1 active torsions:
REMARK  status: ('A' for Active; 'I' for Inactive)
REMARK    1  A    between atoms: N_2  and  C1_3 
ROOT
ATOM      1  C1  UNL d   1       0.731   4.799  -0.720  0.00  0.00     0.143 A 
ATOM      2  C2  UNL d   1       1.559   4.588   0.388  0.00  0.00    -0.057 A 
ATOM      3  C3  UNL d   1       1.497   3.398   1.124  0.00  0.00     0.033 A 
ATOM      4  C4  UNL d   1       0.583   2.408   0.782  0.00  0.00    -0.042 A 
ATOM      5  C5  UNL d   1      -0.267   2.606  -0.300  0.00  0.00     0.033 A 
ATOM      6  C6  UNL d   1      -0.196   3.793  -1.036  0.00  0.00    -0.057 A 
ENDROOT
BRANCH   1   7
ATOM      7  N   UNL d   1       0.676   5.999  -1.433  0.00  0.00    -0.732 N 
ATOM      8  C   UNL d   1       0.609   5.996  -2.878  0.00  0.00     0.284 C 
ATOM      9  H3  UNL d   1       0.070   6.686  -0.990  0.00  0.00     0.395 HD
ENDBRANCH   1   7
TORSDOF 1
ENDMDL
