MODEL 1
REMARK minimizedAffinity -2.94996691
REMARK minimizedRMSD -1
REMARK  1 active torsions:
REMARK  status: ('A' for Active; 'I' for Inactive)
REMARK    1  A    between atoms: N_2  and  C1_3 
ROOT
ATOM      1  C1  UNL d   1      -0.088   2.156  -0.420  0.00  0.00     0.143 A 
ATOM      2  C2  UNL d   1       0.700   2.268   0.730  0.00  0.00    -0.057 A 
ATOM      3  C3  UNL d   1       1.629   3.306   0.876  0.00  0.00     0.033 A 
ATOM      4  C4  UNL d   1       1.807   4.236  -0.143  0.00  0.00    -0.042 A 
ATOM      5  C5  UNL d   1       1.052   4.129  -1.306  0.00  0.00     0.033 A 
ATOM      6  C6  UNL d   1       0.122   3.095  -1.443  0.00  0.00    -0.057 A 
ENDROOT
BRANCH   1   7
ATOM      7  N   UNL d   1      -0.958   1.091  -0.666  0.00  0.00    -0.732 N 
ATOM      8  C   UNL d   1      -2.183   1.296  -1.409  0.00  0.00     0.284 C 
ATOM      9  H3  UNL d   1      -0.465   0.234  -0.906  0.00  0.00     0.395 HD
ENDBRANCH   1   7
TORSDOF 1
ENDMDL
