MODEL 1
REMARK minimizedAffinity 0.561639249
REMARK minimizedRMSD -1
REMARK  1 active torsions:
REMARK  status: ('A' for Active; 'I' for Inactive)
REMARK    1  A    between atoms: N_2  and  C1_3 
ROOT
ATOM      1  C1  UNL d   1       4.473  -3.285  -1.102  0.00  0.00     0.143 A 
ATOM      2  C2  UNL d   1       5.424  -4.010  -0.376  0.00  0.00    -0.057 A 
ATOM      3  C3  UNL d   1       5.698  -5.351  -0.674  0.00  0.00     0.033 A 
ATOM      4  C4  UNL d   1       5.002  -6.000  -1.689  0.00  0.00    -0.042 A 
ATOM      5  C5  UNL d   1       4.035  -5.306  -2.407  0.00  0.00     0.033 A 
ATOM      6  C6  UNL d   1       3.770  -3.966  -2.108  0.00  0.00    -0.057 A 
ENDROOT
BRANCH   1   7
ATOM      7  N   UNL d   1       4.085  -1.980  -0.789  0.00  0.00    -0.732 N 
ATOM      8  C   UNL d   1       4.061  -1.527   0.585  0.00  0.00     0.284 C 
ATOM      9  H3  UNL d   1       4.457  -1.297  -1.445  0.00  0.00     0.395 HD
ENDBRANCH   1   7
TORSDOF 1
ENDMDL
