MODEL 1
REMARK minimizedAffinity 5.85783768
REMARK minimizedRMSD -1
REMARK  1 active torsions:
REMARK  status: ('A' for Active; 'I' for Inactive)
REMARK    1  A    between atoms: N_2  and  C1_3 
ROOT
ATOM      1  C1  UNL d   1       1.854  -2.802   5.316  0.00  0.00     0.143 A 
ATOM      2  C2  UNL d   1       2.115  -2.293   4.039  0.00  0.00    -0.057 A 
ATOM      3  C3  UNL d   1       3.377  -2.430   3.447  0.00  0.00     0.033 A 
ATOM      4  C4  UNL d   1       4.410  -3.056   4.136  0.00  0.00    -0.042 A 
ATOM      5  C5  UNL d   1       4.180  -3.547   5.416  0.00  0.00     0.033 A 
ATOM      6  C6  UNL d   1       2.917  -3.413   5.999  0.00  0.00    -0.057 A 
ENDROOT
BRANCH   1   7
ATOM      7  N   UNL d   1       0.650  -2.610   5.998  0.00  0.00    -0.732 N 
ATOM      8  C   UNL d   1      -0.105  -1.386   5.832  0.00  0.00     0.284 C 
ATOM      9  H3  UNL d   1       0.078  -3.451   6.020  0.00  0.00     0.395 HD
ENDBRANCH   1   7
TORSDOF 1
ENDMDL
