MODEL 1
REMARK minimizedAffinity 5.33920574
REMARK minimizedRMSD -1
REMARK  1 active torsions:
REMARK  status: ('A' for Active; 'I' for Inactive)
REMARK    1  A    between atoms: N_2  and  C1_3 
ROOT
ATOM      1  C1  UNL d   1       4.009  -4.468  -1.845  0.00  0.00     0.143 A 
ATOM      2  C2  UNL d   1       2.851  -4.812  -1.139  0.00  0.00    -0.057 A 
ATOM      3  C3  UNL d   1       2.168  -3.870  -0.360  0.00  0.00     0.033 A 
ATOM      4  C4  UNL d   1       2.650  -2.570  -0.249  0.00  0.00    -0.042 A 
ATOM      5  C5  UNL d   1       3.813  -2.212  -0.922  0.00  0.00     0.033 A 
ATOM      6  C6  UNL d   1       4.487  -3.155  -1.703  0.00  0.00    -0.057 A 
ENDROOT
BRANCH   1   7
ATOM      7  N   UNL d   1       4.787  -5.384  -2.557  0.00  0.00    -0.732 N 
ATOM      8  C   UNL d   1       4.821  -5.355  -4.003  0.00  0.00     0.284 C 
ATOM      9  H3  UNL d   1       5.693  -5.543  -2.123  0.00  0.00     0.395 HD
ENDBRANCH   1   7
TORSDOF 1
ENDMDL
