MODEL 1
REMARK minimizedAffinity 3.9091742
REMARK minimizedRMSD -1
REMARK  1 active torsions:
REMARK  status: ('A' for Active; 'I' for Inactive)
REMARK    1  A    between atoms: N_2  and  C1_3 
ROOT
ATOM      1  C1  UNL d   1       2.413  -4.462  -0.725  0.00  0.00     0.143 A 
ATOM      2  C2  UNL d   1       3.695  -3.924  -0.883  0.00  0.00    -0.057 A 
ATOM      3  C3  UNL d   1       4.485  -4.243  -1.994  0.00  0.00     0.033 A 
ATOM      4  C4  UNL d   1       4.016  -5.131  -2.957  0.00  0.00    -0.042 A 
ATOM      5  C5  UNL d   1       2.755  -5.697  -2.808  0.00  0.00     0.033 A 
ATOM      6  C6  UNL d   1       1.968  -5.370  -1.699  0.00  0.00    -0.057 A 
ENDROOT
BRANCH   1   7
ATOM      7  N   UNL d   1       1.619  -4.261   0.406  0.00  0.00    -0.732 N 
ATOM      8  C   UNL d   1       2.220  -3.918   1.677  0.00  0.00     0.284 C 
ATOM      9  H3  UNL d   1       0.767  -3.746   0.196  0.00  0.00     0.395 HD
ENDBRANCH   1   7
TORSDOF 1
ENDMDL
