MODEL 1
REMARK minimizedAffinity -1.73924172
REMARK minimizedRMSD -1
REMARK  1 active torsions:
REMARK  status: ('A' for Active; 'I' for Inactive)
REMARK    1  A    between atoms: C1_2  and  C2_3 
ROOT
ATOM      1  C2  UNL d   1       0.592   0.065  -0.338  0.00  0.00    -0.081 A 
ATOM      2  C3  UNL d   1      -0.259   0.204  -1.441  0.00  0.00     0.006 A 
ATOM      3  C4  UNL d   1      -1.588  -0.220  -1.368  0.00  0.00     0.002 A 
ATOM      4  C5  UNL d   1      -2.091  -0.782  -0.189  0.00  0.00    -0.080 A 
ATOM      5  C6  UNL d   1      -3.524  -1.213  -0.088  0.00  0.00     0.076 C 
ATOM      6  C7  UNL d   1      -1.236  -0.937   0.907  0.00  0.00     0.002 A 
ATOM      7  C8  UNL d   1       0.093  -0.514   0.835  0.00  0.00     0.006 A 
ENDROOT
BRANCH   1   8
ATOM      8  C1  UNL d   1       2.007   0.580  -0.392  0.00  0.00     0.054 C 
ATOM      9  C   UNL d   1       2.154   1.878   0.388  0.00  0.00     0.018 C 
ENDBRANCH   1   8
TORSDOF 1
ENDMDL
