MODEL 1
REMARK minimizedAffinity -2.29849672
REMARK minimizedRMSD -1
REMARK  1 active torsions:
REMARK  status: ('A' for Active; 'I' for Inactive)
REMARK    1  A    between atoms: C1_2  and  C2_3 
ROOT
ATOM      1  C2  UNL d   1       3.515   3.739  -0.139  0.00  0.00    -0.081 A 
ATOM      2  C3  UNL d   1       3.844   2.476  -0.647  0.00  0.00     0.006 A 
ATOM      3  C4  UNL d   1       4.572   2.358  -1.833  0.00  0.00     0.002 A 
ATOM      4  C5  UNL d   1       4.989   3.499  -2.526  0.00  0.00    -0.080 A 
ATOM      5  C6  UNL d   1       5.797   3.386  -3.785  0.00  0.00     0.076 C 
ATOM      6  C7  UNL d   1       4.646   4.760  -2.028  0.00  0.00     0.002 A 
ATOM      7  C8  UNL d   1       3.917   4.879  -0.843  0.00  0.00     0.006 A 
ENDROOT
BRANCH   1   8
ATOM      8  C1  UNL d   1       2.786   3.871   1.174  0.00  0.00     0.054 C 
ATOM      9  C   UNL d   1       3.085   2.695   2.093  0.00  0.00     0.018 C 
ENDBRANCH   1   8
TORSDOF 1
ENDMDL
