MODEL 1
REMARK minimizedAffinity -4.33901978
REMARK minimizedRMSD -1
REMARK  1 active torsions:
REMARK  status: ('A' for Active; 'I' for Inactive)
REMARK    1  A    between atoms: C1_2  and  C2_3 
ROOT
ATOM      1  C2  UNL d   1       0.840   0.057   0.011  0.00  0.00    -0.081 A 
ATOM      2  C3  UNL d   1       0.086   0.273  -1.149  0.00  0.00     0.006 A 
ATOM      3  C4  UNL d   1      -1.285   0.009  -1.162  0.00  0.00     0.002 A 
ATOM      4  C5  UNL d   1      -1.927  -0.467  -0.013  0.00  0.00    -0.080 A 
ATOM      5  C6  UNL d   1      -3.404  -0.726  -0.004  0.00  0.00     0.076 C 
ATOM      6  C7  UNL d   1      -1.170  -0.699   1.141  0.00  0.00     0.002 A 
ATOM      7  C8  UNL d   1       0.201  -0.436   1.153  0.00  0.00     0.006 A 
ENDROOT
BRANCH   1   8
ATOM      8  C1  UNL d   1       2.307   0.402   0.046  0.00  0.00     0.054 C 
ATOM      9  C   UNL d   1       2.544   1.746   0.721  0.00  0.00     0.018 C 
ENDBRANCH   1   8
TORSDOF 1
ENDMDL
