MODEL 1
REMARK minimizedAffinity 6.77515364
REMARK minimizedRMSD -1
REMARK  1 active torsions:
REMARK  status: ('A' for Active; 'I' for Inactive)
REMARK    1  A    between atoms: C1_2  and  C2_3 
ROOT
ATOM      1  C2  UNL d   1      -5.370   5.121   2.316  0.00  0.00    -0.081 A 
ATOM      2  C3  UNL d   1      -5.316   3.744   2.068  0.00  0.00     0.006 A 
ATOM      3  C4  UNL d   1      -4.686   3.256   0.921  0.00  0.00     0.002 A 
ATOM      4  C5  UNL d   1      -4.092   4.134   0.008  0.00  0.00    -0.080 A 
ATOM      5  C6  UNL d   1      -3.386   3.621  -1.211  0.00  0.00     0.076 C 
ATOM      6  C7  UNL d   1      -4.162   5.511   0.247  0.00  0.00     0.002 A 
ATOM      7  C8  UNL d   1      -4.793   6.000   1.394  0.00  0.00     0.006 A 
ENDROOT
BRANCH   1   8
ATOM      8  C1  UNL d   1      -5.993   5.647   3.584  0.00  0.00     0.054 C 
ATOM      9  C   UNL d   1      -4.958   5.788   4.691  0.00  0.00     0.018 C 
ENDBRANCH   1   8
TORSDOF 1
ENDMDL
