MODEL 1
REMARK minimizedAffinity -5.45193577
REMARK minimizedRMSD -1
REMARK  1 active torsions:
REMARK  status: ('A' for Active; 'I' for Inactive)
REMARK    1  A    between atoms: C1_2  and  C2_3 
ROOT
ATOM      1  C2  UNL d   1       3.858   3.520  -1.873  0.00  0.00    -0.081 A 
ATOM      2  C3  UNL d   1       3.678   4.462  -0.853  0.00  0.00     0.006 A 
ATOM      3  C4  UNL d   1       3.066   4.097   0.348  0.00  0.00     0.002 A 
ATOM      4  C5  UNL d   1       2.632   2.782   0.553  0.00  0.00    -0.080 A 
ATOM      5  C6  UNL d   1       2.002   2.370   1.850  0.00  0.00     0.076 C 
ATOM      6  C7  UNL d   1       2.797   1.845  -0.472  0.00  0.00     0.002 A 
ATOM      7  C8  UNL d   1       3.407   2.210  -1.674  0.00  0.00     0.006 A 
ENDROOT
BRANCH   1   8
ATOM      8  C1  UNL d   1       4.575   3.895  -3.145  0.00  0.00     0.054 C 
ATOM      9  C   UNL d   1       5.996   3.351  -3.160  0.00  0.00     0.018 C 
ENDBRANCH   1   8
TORSDOF 1
ENDMDL
