MODEL 1
REMARK minimizedAffinity -3.95674849
REMARK minimizedRMSD -1
REMARK  1 active torsions:
REMARK  status: ('A' for Active; 'I' for Inactive)
REMARK    1  A    between atoms: C1_2  and  C2_3 
ROOT
ATOM      1  C2  UNL d   1       1.297   0.302   0.063  0.00  0.00    -0.081 A 
ATOM      2  C3  UNL d   1       0.748   0.622  -1.185  0.00  0.00     0.006 A 
ATOM      3  C4  UNL d   1      -0.572   0.281  -1.487  0.00  0.00     0.002 A 
ATOM      4  C5  UNL d   1      -1.368  -0.379  -0.545  0.00  0.00    -0.080 A 
ATOM      5  C6  UNL d   1      -2.796  -0.725  -0.845  0.00  0.00     0.076 C 
ATOM      6  C7  UNL d   1      -0.815  -0.715   0.696  0.00  0.00     0.002 A 
ATOM      7  C8  UNL d   1       0.505  -0.374   0.998  0.00  0.00     0.006 A 
ENDROOT
BRANCH   1   8
ATOM      8  C1  UNL d   1       2.699   0.726   0.416  0.00  0.00     0.054 C 
ATOM      9  C   UNL d   1       2.704   2.045   1.176  0.00  0.00     0.018 C 
ENDBRANCH   1   8
TORSDOF 1
ENDMDL
