MODEL 1
REMARK minimizedAffinity -3.58944702
REMARK minimizedRMSD -1
REMARK  1 active torsions:
REMARK  status: ('A' for Active; 'I' for Inactive)
REMARK    1  A    between atoms: C1_2  and  C2_3 
ROOT
ATOM      1  C2  UNL d   1       0.994   0.661  -0.260  0.00  0.00    -0.081 A 
ATOM      2  C3  UNL d   1       0.289   0.879  -1.450  0.00  0.00     0.006 A 
ATOM      3  C4  UNL d   1      -1.014   0.399  -1.599  0.00  0.00     0.002 A 
ATOM      4  C5  UNL d   1      -1.636  -0.300  -0.560  0.00  0.00    -0.080 A 
ATOM      5  C6  UNL d   1      -3.046  -0.794  -0.696  0.00  0.00     0.076 C 
ATOM      6  C7  UNL d   1      -0.926  -0.534   0.623  0.00  0.00     0.002 A 
ATOM      7  C8  UNL d   1       0.377  -0.054   0.773  0.00  0.00     0.006 A 
ENDROOT
BRANCH   1   8
ATOM      8  C1  UNL d   1       2.376   1.233  -0.071  0.00  0.00     0.054 C 
ATOM      9  C   UNL d   1       2.410   2.228   1.080  0.00  0.00     0.018 C 
ENDBRANCH   1   8
TORSDOF 1
ENDMDL
