MODEL 1
REMARK minimizedAffinity -2.4815743
REMARK minimizedRMSD -1
REMARK  1 active torsions:
REMARK  status: ('A' for Active; 'I' for Inactive)
REMARK    1  A    between atoms: C1_2  and  C2_3 
ROOT
ATOM      1  C2  UNL d   1      -0.205  -0.334   0.249  0.00  0.00    -0.076 A 
ATOM      2  C3  UNL d   1       0.071   0.737  -0.619  0.00  0.00     0.004 A 
ATOM      3  C4  UNL d   1       1.123   0.667  -1.532  0.00  0.00    -0.003 A 
ATOM      4  C5  UNL d   1       1.915  -0.474  -1.591  0.00  0.00     0.000 A 
ATOM      5  C6  UNL d   1       1.644  -1.553  -0.749  0.00  0.00     0.000 A 
ATOM      6  C7  UNL d   1       0.577  -1.505   0.165  0.00  0.00    -0.073 A 
ATOM      7  C8  UNL d   1       0.334  -2.695   1.053  0.00  0.00     0.078 C 
ENDROOT
BRANCH   1   8
ATOM      8  C1  UNL d   1      -1.341  -0.190   1.236  0.00  0.00     0.053 C 
ATOM      9  C   UNL d   1      -1.084   0.898   2.267  0.00  0.00     0.018 C 
ENDBRANCH   1   8
TORSDOF 1
ENDMDL
