MODEL 1
REMARK minimizedAffinity -3.6062789
REMARK minimizedRMSD -1
REMARK  1 active torsions:
REMARK  status: ('A' for Active; 'I' for Inactive)
REMARK    1  A    between atoms: C1_2  and  C2_3 
ROOT
ATOM      1  C2  UNL d   1      -0.488  -0.065   0.375  0.00  0.00    -0.076 A 
ATOM      2  C3  UNL d   1       0.398  -1.034   0.879  0.00  0.00     0.004 A 
ATOM      3  C4  UNL d   1       1.532  -1.410   0.162  0.00  0.00    -0.003 A 
ATOM      4  C5  UNL d   1       1.801  -0.823  -1.070  0.00  0.00     0.000 A 
ATOM      5  C6  UNL d   1       0.942   0.152  -1.576  0.00  0.00     0.000 A 
ATOM      6  C7  UNL d   1      -0.197   0.555  -0.859  0.00  0.00    -0.073 A 
ATOM      7  C8  UNL d   1      -1.091   1.607  -1.455  0.00  0.00     0.078 C 
ENDROOT
BRANCH   1   8
ATOM      8  C1  UNL d   1      -1.716   0.283   1.184  0.00  0.00     0.053 C 
ATOM      9  C   UNL d   1      -1.372   0.847   2.554  0.00  0.00     0.018 C 
ENDBRANCH   1   8
TORSDOF 1
ENDMDL
