MODEL 1
REMARK minimizedAffinity -5.23131371
REMARK minimizedRMSD -1
REMARK  1 active torsions:
REMARK  status: ('A' for Active; 'I' for Inactive)
REMARK    1  A    between atoms: C1_2  and  C2_3 
ROOT
ATOM      1  C2  UNL d   1      -0.343  -0.323   0.122  0.00  0.00    -0.076 A 
ATOM      2  C3  UNL d   1      -0.182  -1.657   0.534  0.00  0.00     0.004 A 
ATOM      3  C4  UNL d   1       0.957  -2.382   0.188  0.00  0.00    -0.003 A 
ATOM      4  C5  UNL d   1       1.954  -1.784  -0.574  0.00  0.00     0.000 A 
ATOM      5  C6  UNL d   1       1.819  -0.455  -0.976  0.00  0.00     0.000 A 
ATOM      6  C7  UNL d   1       0.685   0.295  -0.622  0.00  0.00    -0.073 A 
ATOM      7  C8  UNL d   1       0.589   1.722  -1.087  0.00  0.00     0.078 C 
ENDROOT
BRANCH   1   8
ATOM      8  C1  UNL d   1      -1.612   0.405   0.505  0.00  0.00     0.053 C 
ATOM      9  C   UNL d   1      -1.664   0.748   1.985  0.00  0.00     0.018 C 
ENDBRANCH   1   8
TORSDOF 1
ENDMDL
