MODEL 1
REMARK minimizedAffinity -5.55469418
REMARK minimizedRMSD -1
REMARK  1 active torsions:
REMARK  status: ('A' for Active; 'I' for Inactive)
REMARK    1  A    between atoms: C1_2  and  C2_3 
ROOT
ATOM      1  C2  UNL d   1       0.570  -0.411  -0.765  0.00  0.00    -0.076 A 
ATOM      2  C3  UNL d   1       0.580   0.970  -1.027  0.00  0.00     0.004 A 
ATOM      3  C4  UNL d   1      -0.510   1.772  -0.692  0.00  0.00    -0.003 A 
ATOM      4  C5  UNL d   1      -1.627   1.206  -0.088  0.00  0.00     0.000 A 
ATOM      5  C6  UNL d   1      -1.647  -0.159   0.195  0.00  0.00     0.000 A 
ATOM      6  C7  UNL d   1      -0.551  -0.979  -0.122  0.00  0.00    -0.073 A 
ATOM      7  C8  UNL d   1      -0.629  -2.446   0.201  0.00  0.00     0.078 C 
ENDROOT
BRANCH   1   8
ATOM      8  C1  UNL d   1       1.769  -1.234  -1.176  0.00  0.00     0.053 C 
ATOM      9  C   UNL d   1       3.046  -0.411  -1.245  0.00  0.00     0.018 C 
ENDBRANCH   1   8
TORSDOF 1
ENDMDL
