MODEL 1
REMARK minimizedAffinity -4.05851984
REMARK minimizedRMSD -1
REMARK  1 active torsions:
REMARK  status: ('A' for Active; 'I' for Inactive)
REMARK    1  A    between atoms: C1_2  and  C2_3 
ROOT
ATOM      1  C2  UNL d   1      -2.451   0.560   1.834  0.00  0.00    -0.076 A 
ATOM      2  C3  UNL d   1      -3.076  -0.673   2.088  0.00  0.00     0.004 A 
ATOM      3  C4  UNL d   1      -3.669  -0.936   3.322  0.00  0.00    -0.003 A 
ATOM      4  C5  UNL d   1      -3.647   0.031   4.322  0.00  0.00     0.000 A 
ATOM      5  C6  UNL d   1      -3.047   1.266   4.080  0.00  0.00     0.000 A 
ATOM      6  C7  UNL d   1      -2.459   1.553   2.836  0.00  0.00    -0.073 A 
ATOM      7  C8  UNL d   1      -1.821   2.900   2.633  0.00  0.00     0.078 C 
ENDROOT
BRANCH   1   8
ATOM      8  C1  UNL d   1      -1.802   0.778   0.486  0.00  0.00     0.053 C 
ATOM      9  C   UNL d   1      -0.751  -0.275   0.168  0.00  0.00     0.018 C 
ENDBRANCH   1   8
TORSDOF 1
ENDMDL
