MODEL 1
REMARK minimizedAffinity -3.16689372
REMARK minimizedRMSD -1
REMARK  1 active torsions:
REMARK  status: ('A' for Active; 'I' for Inactive)
REMARK    1  A    between atoms: C1_2  and  C2_3 
ROOT
ATOM      1  C2  UNL d   1      -2.560  -0.249   2.390  0.00  0.00    -0.076 A 
ATOM      2  C3  UNL d   1      -3.130   0.780   3.160  0.00  0.00     0.004 A 
ATOM      3  C4  UNL d   1      -2.641   2.083   3.090  0.00  0.00    -0.003 A 
ATOM      4  C5  UNL d   1      -1.575   2.379   2.247  0.00  0.00     0.000 A 
ATOM      5  C6  UNL d   1      -1.010   1.375   1.463  0.00  0.00     0.000 A 
ATOM      6  C7  UNL d   1      -1.501   0.059   1.509  0.00  0.00    -0.073 A 
ATOM      7  C8  UNL d   1      -0.849  -0.986   0.646  0.00  0.00     0.078 C 
ENDROOT
BRANCH   1   8
ATOM      8  C1  UNL d   1      -3.115  -1.649   2.528  0.00  0.00     0.053 C 
ATOM      9  C   UNL d   1      -4.239  -1.732   3.548  0.00  0.00     0.018 C 
ENDBRANCH   1   8
TORSDOF 1
ENDMDL
