MODEL 1
REMARK minimizedAffinity -2.42920136
REMARK minimizedRMSD -1
REMARK  1 active torsions:
REMARK  status: ('A' for Active; 'I' for Inactive)
REMARK    1  A    between atoms: C1_2  and  C2_3 
ROOT
ATOM      1  C2  UNL d   1      -2.241   0.316   1.895  0.00  0.00    -0.076 A 
ATOM      2  C3  UNL d   1      -3.203  -0.707   1.958  0.00  0.00     0.004 A 
ATOM      3  C4  UNL d   1      -3.819  -1.039   3.164  0.00  0.00    -0.003 A 
ATOM      4  C5  UNL d   1      -3.484  -0.353   4.325  0.00  0.00     0.000 A 
ATOM      5  C6  UNL d   1      -2.545   0.677   4.278  0.00  0.00     0.000 A 
ATOM      6  C7  UNL d   1      -1.926   1.035   3.068  0.00  0.00    -0.073 A 
ATOM      7  C8  UNL d   1      -0.916   2.150   3.075  0.00  0.00     0.078 C 
ENDROOT
BRANCH   1   8
ATOM      8  C1  UNL d   1      -1.587   0.614   0.565  0.00  0.00     0.053 C 
ATOM      9  C   UNL d   1      -0.527  -0.413   0.194  0.00  0.00     0.018 C 
ENDBRANCH   1   8
TORSDOF 1
ENDMDL
