MODEL 1
REMARK minimizedAffinity 9.71572304
REMARK minimizedRMSD -1
REMARK  1 active torsions:
REMARK  status: ('A' for Active; 'I' for Inactive)
REMARK    1  A    between atoms: C1_2  and  C2_3 
ROOT
ATOM      1  C2  UNL d   1      -1.334  -0.139  -0.194  0.00  0.00    -0.076 A 
ATOM      2  C3  UNL d   1      -0.184  -0.236  -0.997  0.00  0.00     0.004 A 
ATOM      3  C4  UNL d   1       0.876   0.657  -0.843  0.00  0.00    -0.003 A 
ATOM      4  C5  UNL d   1       0.803   1.660   0.116  0.00  0.00     0.000 A 
ATOM      5  C6  UNL d   1      -0.323   1.760   0.933  0.00  0.00     0.000 A 
ATOM      6  C7  UNL d   1      -1.393   0.858   0.802  0.00  0.00    -0.073 A 
ATOM      7  C8  UNL d   1      -2.585   1.016   1.706  0.00  0.00     0.078 C 
ENDROOT
BRANCH   1   8
ATOM      8  C1  UNL d   1      -2.462  -1.119  -0.425  0.00  0.00     0.053 C 
ATOM      9  C   UNL d   1      -1.996  -2.566  -0.381  0.00  0.00     0.018 C 
ENDBRANCH   1   8
TORSDOF 1
ENDMDL
