MODEL 1
REMARK minimizedAffinity -4.22687101
REMARK minimizedRMSD -1
REMARK  1 active torsions:
REMARK  status: ('A' for Active; 'I' for Inactive)
REMARK    1  A    between atoms: C1_2  and  C2_3 
ROOT
ATOM      1  C2  UNL d   1       0.715   0.182  -0.609  0.00  0.00    -0.076 A 
ATOM      2  C3  UNL d   1      -0.320  -0.633  -0.118  0.00  0.00     0.004 A 
ATOM      3  C4  UNL d   1      -1.619  -0.145   0.009  0.00  0.00    -0.003 A 
ATOM      4  C5  UNL d   1      -1.905   1.167  -0.353  0.00  0.00     0.000 A 
ATOM      5  C6  UNL d   1      -0.895   1.984  -0.858  0.00  0.00     0.000 A 
ATOM      6  C7  UNL d   1       0.417   1.503  -1.008  0.00  0.00    -0.073 A 
ATOM      7  C8  UNL d   1       1.468   2.430  -1.552  0.00  0.00     0.078 C 
ENDROOT
BRANCH   1   8
ATOM      8  C1  UNL d   1       2.110  -0.394  -0.699  0.00  0.00     0.053 C 
ATOM      9  C   UNL d   1       2.222  -1.487  -1.750  0.00  0.00     0.018 C 
ENDBRANCH   1   8
TORSDOF 1
ENDMDL
