MODEL 1
REMARK minimizedAffinity -5.66146708
REMARK minimizedRMSD -1
REMARK  1 active torsions:
REMARK  status: ('A' for Active; 'I' for Inactive)
REMARK    1  A    between atoms: C1_2  and  C2_3 
ROOT
ATOM      1  C2  UNL d   1       0.542   0.193  -0.700  0.00  0.00    -0.076 A 
ATOM      2  C3  UNL d   1       0.327   1.444  -1.306  0.00  0.00     0.004 A 
ATOM      3  C4  UNL d   1       1.188   1.919  -2.294  0.00  0.00    -0.003 A 
ATOM      4  C5  UNL d   1       2.276   1.151  -2.693  0.00  0.00     0.000 A 
ATOM      5  C6  UNL d   1       2.494  -0.099  -2.116  0.00  0.00     0.000 A 
ATOM      6  C7  UNL d   1       1.627  -0.600  -1.130  0.00  0.00    -0.073 A 
ATOM      7  C8  UNL d   1       1.912  -1.953  -0.537  0.00  0.00     0.078 C 
ENDROOT
BRANCH   1   8
ATOM      8  C1  UNL d   1      -0.409  -0.258   0.385  0.00  0.00     0.053 C 
ATOM      9  C   UNL d   1      -1.565   0.710   0.587  0.00  0.00     0.018 C 
ENDBRANCH   1   8
TORSDOF 1
ENDMDL
