MODEL 1
REMARK minimizedAffinity 0.692011774
REMARK minimizedRMSD -1
REMARK  0 active torsions:
REMARK  status: ('A' for Active; 'I' for Inactive)
ROOT
ATOM      1  C   UNL d   1       2.076  -5.758  -5.934  0.00  0.00     0.078 C 
ATOM      2  C1  UNL d   1       3.439  -5.393  -5.426  0.00  0.00    -0.077 A 
ATOM      3  C2  UNL d   1       3.600  -4.440  -4.413  0.00  0.00    -0.001 A 
ATOM      4  C3  UNL d   1       4.876  -4.103  -3.956  0.00  0.00     0.003 A 
ATOM      5  C4  UNL d   1       6.000  -4.714  -4.508  0.00  0.00    -0.005 A 
ATOM      6  C5  UNL d   1       5.850  -5.662  -5.518  0.00  0.00     0.003 A 
ATOM      7  C6  UNL d   1       4.575  -6.000  -5.976  0.00  0.00    -0.001 A 
ENDROOT
TORSDOF 0
ENDMDL
