MODEL 1
REMARK minimizedAffinity 7.19202805
REMARK minimizedRMSD -1
REMARK  0 active torsions:
REMARK  status: ('A' for Active; 'I' for Inactive)
ROOT
ATOM      1  C   UNL d   1       3.723   2.036   3.257  0.00  0.00     0.078 C 
ATOM      2  C1  UNL d   1       2.625   2.192   2.249  0.00  0.00    -0.077 A 
ATOM      3  C2  UNL d   1       2.839   2.884   1.051  0.00  0.00    -0.001 A 
ATOM      4  C3  UNL d   1       1.804   3.030   0.125  0.00  0.00     0.003 A 
ATOM      5  C4  UNL d   1       0.548   2.488   0.389  0.00  0.00    -0.005 A 
ATOM      6  C5  UNL d   1       0.325   1.799   1.579  0.00  0.00     0.003 A 
ATOM      7  C6  UNL d   1       1.358   1.652   2.506  0.00  0.00    -0.001 A 
ENDROOT
TORSDOF 0
ENDMDL
