MODEL 1
REMARK minimizedAffinity 5.52964258
REMARK minimizedRMSD -1
REMARK  0 active torsions:
REMARK  status: ('A' for Active; 'I' for Inactive)
ROOT
ATOM      1  C   UNL d   1       5.313   2.723  -0.566  0.00  0.00     0.078 C 
ATOM      2  C1  UNL d   1       4.684   2.345   0.741  0.00  0.00    -0.077 A 
ATOM      3  C2  UNL d   1       3.297   2.184   0.854  0.00  0.00    -0.001 A 
ATOM      4  C3  UNL d   1       2.724   1.841   2.079  0.00  0.00     0.003 A 
ATOM      5  C4  UNL d   1       3.529   1.656   3.202  0.00  0.00    -0.005 A 
ATOM      6  C5  UNL d   1       4.909   1.816   3.100  0.00  0.00     0.003 A 
ATOM      7  C6  UNL d   1       5.485   2.159   1.875  0.00  0.00    -0.001 A 
ENDROOT
TORSDOF 0
ENDMDL
