MODEL 1
REMARK minimizedAffinity 16.6678867
REMARK minimizedRMSD -1
REMARK  0 active torsions:
REMARK  status: ('A' for Active; 'I' for Inactive)
ROOT
ATOM      1  C   UNL d   1       0.553  -4.533  -2.929  0.00  0.00     0.078 C 
ATOM      2  C1  UNL d   1      -0.348  -4.034  -1.839  0.00  0.00    -0.077 A 
ATOM      3  C2  UNL d   1      -0.044  -2.866  -1.130  0.00  0.00    -0.001 A 
ATOM      4  C3  UNL d   1      -0.887  -2.419  -0.111  0.00  0.00     0.003 A 
ATOM      5  C4  UNL d   1      -2.039  -3.134   0.209  0.00  0.00    -0.005 A 
ATOM      6  C5  UNL d   1      -2.349  -4.299  -0.490  0.00  0.00     0.003 A 
ATOM      7  C6  UNL d   1      -1.507  -4.748  -1.509  0.00  0.00    -0.001 A 
ENDROOT
TORSDOF 0
ENDMDL
