MODEL 1
REMARK minimizedAffinity 1.66017389
REMARK minimizedRMSD -1
REMARK  0 active torsions:
REMARK  status: ('A' for Active; 'I' for Inactive)
ROOT
ATOM      1  C   UNL d   1       3.948   2.580  -0.460  0.00  0.00     0.078 C 
ATOM      2  C1  UNL d   1       2.528   2.582   0.023  0.00  0.00    -0.077 A 
ATOM      3  C2  UNL d   1       1.592   3.486  -0.494  0.00  0.00    -0.001 A 
ATOM      4  C3  UNL d   1       0.276   3.483  -0.028  0.00  0.00     0.003 A 
ATOM      5  C4  UNL d   1      -0.115   2.579   0.958  0.00  0.00    -0.005 A 
ATOM      6  C5  UNL d   1       0.810   1.677   1.479  0.00  0.00     0.003 A 
ATOM      7  C6  UNL d   1       2.127   1.678   1.015  0.00  0.00    -0.001 A 
ENDROOT
TORSDOF 0
ENDMDL
