MODEL 1
REMARK minimizedAffinity 5.24695253
REMARK minimizedRMSD -1
REMARK  0 active torsions:
REMARK  status: ('A' for Active; 'I' for Inactive)
ROOT
ATOM      1  C   UNL d   1      -0.967   3.337   0.070  0.00  0.00     0.078 C 
ATOM      2  C1  UNL d   1       0.156   2.862   0.943  0.00  0.00    -0.077 A 
ATOM      3  C2  UNL d   1       1.446   2.689   0.427  0.00  0.00    -0.001 A 
ATOM      4  C3  UNL d   1       2.480   2.237   1.249  0.00  0.00     0.003 A 
ATOM      5  C4  UNL d   1       2.234   1.953   2.591  0.00  0.00    -0.005 A 
ATOM      6  C5  UNL d   1       0.953   2.120   3.112  0.00  0.00     0.003 A 
ATOM      7  C6  UNL d   1      -0.082   2.572   2.292  0.00  0.00    -0.001 A 
ENDROOT
TORSDOF 0
ENDMDL
