MODEL 1
REMARK minimizedAffinity 2.58360529
REMARK minimizedRMSD -1
REMARK  0 active torsions:
REMARK  status: ('A' for Active; 'I' for Inactive)
ROOT
ATOM      1  C   UNL d   1      -1.014   2.553   1.512  0.00  0.00     0.078 C 
ATOM      2  C1  UNL d   1       0.428   2.175   1.678  0.00  0.00    -0.077 A 
ATOM      3  C2  UNL d   1       1.234   1.901   0.567  0.00  0.00    -0.001 A 
ATOM      4  C3  UNL d   1       2.572   1.540   0.737  0.00  0.00     0.003 A 
ATOM      5  C4  UNL d   1       3.114   1.449   2.018  0.00  0.00    -0.005 A 
ATOM      6  C5  UNL d   1       2.319   1.718   3.129  0.00  0.00     0.003 A 
ATOM      7  C6  UNL d   1       0.981   2.078   2.961  0.00  0.00    -0.001 A 
ENDROOT
TORSDOF 0
ENDMDL
