MODEL 1
REMARK minimizedAffinity 2.71387172
REMARK minimizedRMSD -1
REMARK  0 active torsions:
REMARK  status: ('A' for Active; 'I' for Inactive)
ROOT
ATOM      1  C   UNL d   1       2.545   2.191   1.235  0.00  0.00     0.078 C 
ATOM      2  C1  UNL d   1       1.051   2.315   1.217  0.00  0.00    -0.077 A 
ATOM      3  C2  UNL d   1       0.394   2.972   0.169  0.00  0.00    -0.001 A 
ATOM      4  C3  UNL d   1      -0.997   3.088   0.170  0.00  0.00     0.003 A 
ATOM      5  C4  UNL d   1      -1.743   2.551   1.218  0.00  0.00    -0.005 A 
ATOM      6  C5  UNL d   1      -1.098   1.898   2.266  0.00  0.00     0.003 A 
ATOM      7  C6  UNL d   1       0.293   1.781   2.266  0.00  0.00    -0.001 A 
ENDROOT
TORSDOF 0
ENDMDL
