MODEL 1
REMARK minimizedAffinity 12.2921343
REMARK minimizedRMSD -1
REMARK  0 active torsions:
REMARK  status: ('A' for Active; 'I' for Inactive)
ROOT
ATOM      1  C   UNL d   1       1.918   5.966   0.053  0.00  0.00     0.078 C 
ATOM      2  C1  UNL d   1       1.668   4.542   0.450  0.00  0.00    -0.077 A 
ATOM      3  C2  UNL d   1       0.412   3.952   0.265  0.00  0.00    -0.001 A 
ATOM      4  C3  UNL d   1       0.190   2.628   0.648  0.00  0.00     0.003 A 
ATOM      5  C4  UNL d   1       1.220   1.884   1.220  0.00  0.00    -0.005 A 
ATOM      6  C5  UNL d   1       2.473   2.463   1.410  0.00  0.00     0.003 A 
ATOM      7  C6  UNL d   1       2.696   3.787   1.027  0.00  0.00    -0.001 A 
ENDROOT
TORSDOF 0
ENDMDL
