MODEL 1
REMARK minimizedAffinity 0.977501273
REMARK minimizedRMSD -1
REMARK  0 active torsions:
REMARK  status: ('A' for Active; 'I' for Inactive)
ROOT
ATOM      1  C   UNL d   1       1.610   2.520   0.949  0.00  0.00     0.078 C 
ATOM      2  C1  UNL d   1       3.072   2.834   0.849  0.00  0.00    -0.077 A 
ATOM      3  C2  UNL d   1       3.963   1.937   0.247  0.00  0.00    -0.001 A 
ATOM      4  C3  UNL d   1       5.324   2.238   0.170  0.00  0.00     0.003 A 
ATOM      5  C4  UNL d   1       5.806   3.436   0.693  0.00  0.00    -0.005 A 
ATOM      6  C5  UNL d   1       4.928   4.334   1.296  0.00  0.00     0.003 A 
ATOM      7  C6  UNL d   1       3.567   4.035   1.374  0.00  0.00    -0.001 A 
ENDROOT
TORSDOF 0
ENDMDL
