MODEL 1
REMARK minimizedAffinity 8.14725685
REMARK minimizedRMSD -1
REMARK  0 active torsions:
REMARK  status: ('A' for Active; 'I' for Inactive)
ROOT
ATOM      1  C   UNL d   1       4.394   1.550   4.901  0.00  0.00     0.078 C 
ATOM      2  C1  UNL d   1       3.398   1.420   3.788  0.00  0.00    -0.077 A 
ATOM      3  C2  UNL d   1       2.100   0.954   4.033  0.00  0.00    -0.001 A 
ATOM      4  C3  UNL d   1       1.186   0.829   2.986  0.00  0.00     0.003 A 
ATOM      5  C4  UNL d   1       1.559   1.167   1.687  0.00  0.00    -0.005 A 
ATOM      6  C5  UNL d   1       2.849   1.629   1.433  0.00  0.00     0.003 A 
ATOM      7  C6  UNL d   1       3.765   1.755   2.479  0.00  0.00    -0.001 A 
ENDROOT
TORSDOF 0
ENDMDL
