MODEL 1
REMARK minimizedAffinity -0.563007176
REMARK minimizedRMSD -1
REMARK  0 active torsions:
REMARK  status: ('A' for Active; 'I' for Inactive)
ROOT
ATOM      1  C   UNL d   1       4.429   1.924   4.133  0.00  0.00     0.078 C 
ATOM      2  C1  UNL d   1       4.818   3.340   4.436  0.00  0.00    -0.077 A 
ATOM      3  C2  UNL d   1       5.195   3.723   5.729  0.00  0.00    -0.001 A 
ATOM      4  C3  UNL d   1       5.545   5.047   6.000  0.00  0.00     0.003 A 
ATOM      5  C4  UNL d   1       5.521   5.999   4.982  0.00  0.00    -0.005 A 
ATOM      6  C5  UNL d   1       5.146   5.628   3.693  0.00  0.00     0.003 A 
ATOM      7  C6  UNL d   1       4.795   4.304   3.421  0.00  0.00    -0.001 A 
ENDROOT
TORSDOF 0
ENDMDL
