MODEL 1
REMARK minimizedAffinity 0.49391827
REMARK minimizedRMSD -1
REMARK  0 active torsions:
REMARK  status: ('A' for Active; 'I' for Inactive)
ROOT
ATOM      1  C   UNL d   1       1.712  -5.130  -5.423  0.00  0.00     0.078 C 
ATOM      2  C1  UNL d   1       3.207  -5.074  -5.323  0.00  0.00    -0.077 A 
ATOM      3  C2  UNL d   1       4.010  -6.000  -6.000  0.00  0.00    -0.001 A 
ATOM      4  C3  UNL d   1       5.400  -5.942  -5.889  0.00  0.00     0.003 A 
ATOM      5  C4  UNL d   1       5.999  -4.961  -5.102  0.00  0.00    -0.005 A 
ATOM      6  C5  UNL d   1       5.208  -4.036  -4.423  0.00  0.00     0.003 A 
ATOM      7  C6  UNL d   1       3.818  -4.093  -4.532  0.00  0.00    -0.001 A 
ENDROOT
TORSDOF 0
ENDMDL
