MODEL 1
REMARK minimizedAffinity 1.14590502
REMARK minimizedRMSD -1
REMARK  0 active torsions:
REMARK  status: ('A' for Active; 'I' for Inactive)
ROOT
ATOM      1  C   UNL d   1      -5.907   5.888  -5.953  0.00  0.00     0.078 C 
ATOM      2  C1  UNL d   1      -4.641   5.086  -5.919  0.00  0.00    -0.077 A 
ATOM      3  C2  UNL d   1      -4.671   3.688  -5.999  0.00  0.00    -0.001 A 
ATOM      4  C3  UNL d   1      -3.485   2.954  -5.956  0.00  0.00     0.003 A 
ATOM      5  C4  UNL d   1      -2.261   3.608  -5.832  0.00  0.00    -0.005 A 
ATOM      6  C5  UNL d   1      -2.221   4.998  -5.750  0.00  0.00     0.003 A 
ATOM      7  C6  UNL d   1      -3.406   5.734  -5.792  0.00  0.00    -0.001 A 
ENDROOT
TORSDOF 0
ENDMDL
