MODEL 1
REMARK minimizedAffinity 6.31883144
REMARK minimizedRMSD -1
REMARK  0 active torsions:
REMARK  status: ('A' for Active; 'I' for Inactive)
ROOT
ATOM      1  C   UNL d   1       2.614   2.500   1.525  0.00  0.00     0.078 C 
ATOM      2  C1  UNL d   1       3.483   3.716   1.646  0.00  0.00    -0.077 A 
ATOM      3  C2  UNL d   1       4.790   3.722   1.144  0.00  0.00    -0.001 A 
ATOM      4  C3  UNL d   1       5.590   4.859   1.272  0.00  0.00     0.003 A 
ATOM      5  C4  UNL d   1       5.092   5.997   1.903  0.00  0.00    -0.005 A 
ATOM      6  C5  UNL d   1       3.793   6.000   2.408  0.00  0.00     0.003 A 
ATOM      7  C6  UNL d   1       2.992   4.864   2.280  0.00  0.00    -0.001 A 
ENDROOT
TORSDOF 0
ENDMDL
