MODEL 1
REMARK minimizedAffinity -0.438843429
REMARK minimizedRMSD -1
REMARK  0 active torsions:
REMARK  status: ('A' for Active; 'I' for Inactive)
ROOT
ATOM      1  C   UNL d   1       4.505   5.988   3.540  0.00  0.00     0.078 C 
ATOM      2  C1  UNL d   1       4.415   5.708   2.070  0.00  0.00    -0.077 A 
ATOM      3  C2  UNL d   1       5.501   5.169   1.370  0.00  0.00    -0.001 A 
ATOM      4  C3  UNL d   1       5.406   4.923  -0.001  0.00  0.00     0.003 A 
ATOM      5  C4  UNL d   1       4.227   5.214  -0.684  0.00  0.00    -0.005 A 
ATOM      6  C5  UNL d   1       3.142   5.753   0.004  0.00  0.00     0.003 A 
ATOM      7  C6  UNL d   1       3.235   6.000   1.374  0.00  0.00    -0.001 A 
ENDROOT
TORSDOF 0
ENDMDL
