MODEL 1
REMARK minimizedAffinity 1.82141387
REMARK minimizedRMSD -1
REMARK  0 active torsions:
REMARK  status: ('A' for Active; 'I' for Inactive)
ROOT
ATOM      1  C1  DEN d   1       1.921  -1.886   4.293  0.00  0.00     0.130 A 
ATOM      2  C2  DEN d   1       1.930  -1.321   2.946  0.00  0.00    -0.031 A 
ATOM      3  C3  DEN d   1       3.336  -1.210   2.507  0.00  0.00     0.027 A 
ATOM      4  C4  DEN d   1       5.487  -1.858   3.774  0.00  0.00     0.027 A 
ATOM      5  C5  DEN d   1       5.985  -2.366   4.954  0.00  0.00    -0.003 A 
ATOM      6  C6  DEN d   1       5.172  -2.715   5.999  0.00  0.00     0.001 A 
ATOM      7  C7  DEN d   1       3.813  -2.603   5.870  0.00  0.00     0.017 A 
ATOM      8  C8  DEN d   1       3.304  -2.084   4.686  0.00  0.00    -0.094 A 
ATOM      9  C9  DEN d   1       4.141  -1.749   3.636  0.00  0.00    -0.072 A 
ENDROOT
TORSDOF 0
ENDMDL
