MODEL 1
REMARK minimizedAffinity 12.6432734
REMARK minimizedRMSD -1
REMARK  0 active torsions:
REMARK  status: ('A' for Active; 'I' for Inactive)
ROOT
ATOM      1  C1  DEN d   1       2.279  -2.133   5.185  0.00  0.00     0.130 A 
ATOM      2  C2  DEN d   1       1.435  -1.801   4.040  0.00  0.00    -0.031 A 
ATOM      3  C3  DEN d   1       2.300  -1.704   2.848  0.00  0.00     0.027 A 
ATOM      4  C4  DEN d   1       4.851  -2.039   2.662  0.00  0.00     0.027 A 
ATOM      5  C5  DEN d   1       6.000  -2.322   3.366  0.00  0.00    -0.003 A 
ATOM      6  C6  DEN d   1       5.994  -2.526   4.721  0.00  0.00     0.001 A 
ATOM      7  C7  DEN d   1       4.809  -2.496   5.407  0.00  0.00     0.017 A 
ATOM      8  C8  DEN d   1       3.647  -2.203   4.705  0.00  0.00    -0.094 A 
ATOM      9  C9  DEN d   1       3.672  -2.012   3.334  0.00  0.00    -0.072 A 
ENDROOT
TORSDOF 0
ENDMDL
