MODEL 1
REMARK minimizedAffinity 1.43475556
REMARK minimizedRMSD -1
REMARK  0 active torsions:
REMARK  status: ('A' for Active; 'I' for Inactive)
ROOT
ATOM      1  C1  DEN d   1       2.070  -1.036   4.527  0.00  0.00     0.130 A 
ATOM      2  C2  DEN d   1       2.161  -0.304   3.267  0.00  0.00    -0.031 A 
ATOM      3  C3  DEN d   1       3.560  -0.372   2.799  0.00  0.00     0.027 A 
ATOM      4  C4  DEN d   1       5.583  -1.537   3.897  0.00  0.00     0.027 A 
ATOM      5  C5  DEN d   1       6.000  -2.277   4.981  0.00  0.00    -0.003 A 
ATOM      6  C6  DEN d   1       5.151  -2.623   5.999  0.00  0.00     0.001 A 
ATOM      7  C7  DEN d   1       3.830  -2.268   5.931  0.00  0.00     0.017 A 
ATOM      8  C8  DEN d   1       3.403  -1.516   4.844  0.00  0.00    -0.094 A 
ATOM      9  C9  DEN d   1       4.274  -1.186   3.820  0.00  0.00    -0.072 A 
ENDROOT
TORSDOF 0
ENDMDL
