MODEL 1
REMARK minimizedAffinity 16.6019497
REMARK minimizedRMSD -1
REMARK  0 active torsions:
REMARK  status: ('A' for Active; 'I' for Inactive)
ROOT
ATOM      1  C1  DEN d   1       4.585  -3.044   5.999  0.00  0.00     0.130 A 
ATOM      2  C2  DEN d   1       5.900  -2.572   5.574  0.00  0.00    -0.031 A 
ATOM      3  C3  DEN d   1       5.724  -1.780   4.340  0.00  0.00     0.027 A 
ATOM      4  C4  DEN d   1       3.554  -1.239   3.055  0.00  0.00     0.027 A 
ATOM      5  C5  DEN d   1       2.190  -1.430   3.024  0.00  0.00    -0.003 A 
ATOM      6  C6  DEN d   1       1.539  -2.194   3.956  0.00  0.00     0.001 A 
ATOM      7  C7  DEN d   1       2.246  -2.759   4.985  0.00  0.00     0.017 A 
ATOM      8  C8  DEN d   1       3.622  -2.577   5.018  0.00  0.00    -0.094 A 
ATOM      9  C9  DEN d   1       4.260  -1.791   4.074  0.00  0.00    -0.072 A 
ENDROOT
TORSDOF 0
ENDMDL
