MODEL 1
REMARK minimizedAffinity 6.2728591
REMARK minimizedRMSD -1
REMARK  0 active torsions:
REMARK  status: ('A' for Active; 'I' for Inactive)
ROOT
ATOM      1  C1  DEN d   1       1.140   0.667   0.744  0.00  0.00     0.130 A 
ATOM      2  C2  DEN d   1       0.917   1.684  -0.280  0.00  0.00    -0.031 A 
ATOM      3  C3  DEN d   1       1.640   2.906   0.124  0.00  0.00     0.027 A 
ATOM      4  C4  DEN d   1       3.081   3.319   2.223  0.00  0.00     0.027 A 
ATOM      5  C5  DEN d   1       3.554   2.757   3.388  0.00  0.00    -0.003 A 
ATOM      6  C6  DEN d   1       3.231   1.481   3.767  0.00  0.00     0.001 A 
ATOM      7  C7  DEN d   1       2.448   0.709   2.951  0.00  0.00     0.017 A 
ATOM      8  C8  DEN d   1       1.961   1.271   1.779  0.00  0.00    -0.094 A 
ATOM      9  C9  DEN d   1       2.309   2.558   1.407  0.00  0.00    -0.072 A 
ENDROOT
TORSDOF 0
ENDMDL
