MODEL 1
REMARK minimizedAffinity 5.1655097
REMARK minimizedRMSD -1
REMARK  0 active torsions:
REMARK  status: ('A' for Active; 'I' for Inactive)
ROOT
ATOM      1  C1  DEN d   1       1.062  -1.150   2.931  0.00  0.00     0.130 A 
ATOM      2  C2  DEN d   1       1.622   0.156   2.592  0.00  0.00    -0.031 A 
ATOM      3  C3  DEN d   1       3.065   0.128   2.901  0.00  0.00     0.027 A 
ATOM      4  C4  DEN d   1       4.483  -1.801   3.860  0.00  0.00     0.027 A 
ATOM      5  C5  DEN d   1       4.448  -3.101   4.317  0.00  0.00    -0.003 A 
ATOM      6  C6  DEN d   1       3.285  -3.823   4.374  0.00  0.00     0.001 A 
ATOM      7  C7  DEN d   1       2.117  -3.266   3.927  0.00  0.00     0.017 A 
ATOM      8  C8  DEN d   1       2.143  -1.954   3.472  0.00  0.00    -0.094 A 
ATOM      9  C9  DEN d   1       3.330  -1.244   3.410  0.00  0.00    -0.072 A 
ENDROOT
TORSDOF 0
ENDMDL
