MODEL 1
REMARK minimizedAffinity 4.47823238
REMARK minimizedRMSD -1
REMARK  0 active torsions:
REMARK  status: ('A' for Active; 'I' for Inactive)
ROOT
ATOM      1  C1  DEN d   1       1.842  -1.518   4.828  0.00  0.00     0.130 A 
ATOM      2  C2  DEN d   1       3.277  -1.393   4.588  0.00  0.00    -0.031 A 
ATOM      3  C3  DEN d   1       3.902  -2.702   4.864  0.00  0.00     0.027 A 
ATOM      4  C4  DEN d   1       2.793  -4.900   5.631  0.00  0.00     0.027 A 
ATOM      5  C5  DEN d   1       1.600  -5.494   5.979  0.00  0.00    -0.003 A 
ATOM      6  C6  DEN d   1       0.418  -4.801   6.000  0.00  0.00     0.001 A 
ATOM      7  C7  DEN d   1       0.397  -3.484   5.623  0.00  0.00     0.017 A 
ATOM      8  C8  DEN d   1       1.597  -2.877   5.279  0.00  0.00    -0.094 A 
ATOM      9  C9  DEN d   1       2.779  -3.597   5.252  0.00  0.00    -0.072 A 
ENDROOT
TORSDOF 0
ENDMDL
