MODEL 1
REMARK minimizedAffinity 9.06013203
REMARK minimizedRMSD -1
REMARK  1 active torsions:
REMARK  status: ('A' for Active; 'I' for Inactive)
REMARK    1  A    between atoms: C1_2  and  C2_3 
ROOT
ATOM      1  C2  UNL d   1       2.330  -5.241  -2.206  0.00  0.00    -0.077 A 
ATOM      2  C3  UNL d   1       1.552  -4.872  -3.312  0.00  0.00     0.002 A 
ATOM      3  C4  UNL d   1       0.383  -4.129  -3.138  0.00  0.00     0.002 A 
ATOM      4  C5  UNL d   1      -0.017  -3.746  -1.859  0.00  0.00    -0.004 A 
ATOM      5  C6  UNL d   1       0.749  -4.111  -0.752  0.00  0.00     0.002 A 
ATOM      6  C7  UNL d   1       1.917  -4.854  -0.924  0.00  0.00     0.002 A 
ENDROOT
BRANCH   1   7
ATOM      7  C1  UNL d   1       3.617  -6.000  -2.396  0.00  0.00     0.055 C 
ATOM      8  C   UNL d   1       4.455  -5.996  -1.126  0.00  0.00     0.019 C 
ENDBRANCH   1   7
TORSDOF 1
ENDMDL
