MODEL 1
REMARK minimizedAffinity 9.77498531
REMARK minimizedRMSD -1
REMARK  1 active torsions:
REMARK  status: ('A' for Active; 'I' for Inactive)
REMARK    1  A    between atoms: C1_2  and  C2_3 
ROOT
ATOM      1  C2  UNL d   1       2.581  -2.056   0.000  0.00  0.00    -0.077 A 
ATOM      2  C3  UNL d   1       1.760  -1.481  -0.980  0.00  0.00     0.002 A 
ATOM      3  C4  UNL d   1       0.714  -2.214  -1.543  0.00  0.00     0.002 A 
ATOM      4  C5  UNL d   1       0.477  -3.524  -1.130  0.00  0.00    -0.004 A 
ATOM      5  C6  UNL d   1       1.289  -4.105  -0.158  0.00  0.00     0.002 A 
ATOM      6  C7  UNL d   1       2.336  -3.374   0.406  0.00  0.00     0.002 A 
ENDROOT
BRANCH   1   7
ATOM      7  C1  UNL d   1       3.679  -1.251   0.645  0.00  0.00     0.055 C 
ATOM      8  C   UNL d   1       3.144  -0.398   1.786  0.00  0.00     0.019 C 
ENDBRANCH   1   7
TORSDOF 1
ENDMDL
