MODEL 1
REMARK minimizedAffinity 14.4051628
REMARK minimizedRMSD -1
REMARK  1 active torsions:
REMARK  status: ('A' for Active; 'I' for Inactive)
REMARK    1  A    between atoms: C1_2  and  C2_3 
ROOT
ATOM      1  C2  UNL d   1      -4.103   2.342  -4.811  0.00  0.00    -0.077 A 
ATOM      2  C3  UNL d   1      -4.888   2.386  -3.650  0.00  0.00     0.002 A 
ATOM      3  C4  UNL d   1      -4.635   3.340  -2.662  0.00  0.00     0.002 A 
ATOM      4  C5  UNL d   1      -3.601   4.259  -2.827  0.00  0.00    -0.004 A 
ATOM      5  C6  UNL d   1      -2.813   4.222  -3.977  0.00  0.00     0.002 A 
ATOM      6  C7  UNL d   1      -3.064   3.269  -4.965  0.00  0.00     0.002 A 
ENDROOT
BRANCH   1   7
ATOM      7  C1  UNL d   1      -4.405   1.346  -5.899  0.00  0.00     0.055 C 
ATOM      8  C   UNL d   1      -4.004  -0.063  -5.487  0.00  0.00     0.019 C 
ENDBRANCH   1   7
TORSDOF 1
ENDMDL
