MODEL 1
REMARK minimizedAffinity 7.75034618
REMARK minimizedRMSD -1
REMARK  1 active torsions:
REMARK  status: ('A' for Active; 'I' for Inactive)
REMARK    1  A    between atoms: C1_2  and  C2_3 
ROOT
ATOM      1  C2  UNL d   1       0.421   3.067   0.472  0.00  0.00    -0.077 A 
ATOM      2  C3  UNL d   1       1.142   2.464   1.513  0.00  0.00     0.002 A 
ATOM      3  C4  UNL d   1       0.479   1.744   2.508  0.00  0.00     0.002 A 
ATOM      4  C5  UNL d   1      -0.908   1.616   2.470  0.00  0.00    -0.004 A 
ATOM      5  C6  UNL d   1      -1.635   2.213   1.440  0.00  0.00     0.002 A 
ATOM      6  C7  UNL d   1      -0.973   2.934   0.446  0.00  0.00     0.002 A 
ENDROOT
BRANCH   1   7
ATOM      7  C1  UNL d   1       1.140   3.802  -0.629  0.00  0.00     0.055 C 
ATOM      8  C   UNL d   1       0.564   3.455  -1.994  0.00  0.00     0.019 C 
ENDBRANCH   1   7
TORSDOF 1
ENDMDL
