MODEL 1
REMARK minimizedAffinity 1.8246491
REMARK minimizedRMSD -1
REMARK  3 active torsions:
REMARK  status: ('A' for Active; 'I' for Inactive)
REMARK    1  A    between atoms: C3'_2  and  C2'_3 
REMARK    2  A    between atoms: C2'_3  and  C1'_4 
REMARK    3  A    between atoms: C1'_4  and  C1_5 
ROOT
ATOM      1  C1  N4B d   1       5.133   4.534   3.247  0.00  0.00    -0.075 A 
ATOM      2  C2  N4B d   1       5.439   4.183   1.914  0.00  0.00     0.002 A 
ATOM      3  C3  N4B d   1       5.731   2.879   1.597  0.00  0.00     0.002 A 
ATOM      4  C4  N4B d   1       5.741   1.917   2.596  0.00  0.00    -0.004 A 
ATOM      5  C5  N4B d   1       5.419   2.260   3.876  0.00  0.00     0.002 A 
ATOM      6  C6  N4B d   1       5.120   3.566   4.208  0.00  0.00     0.002 A 
ENDROOT
BRANCH   1   7
ATOM      7  C1' N4B d   1       4.892   5.962   3.657  0.00  0.00     0.057 C 
BRANCH   7   8
ATOM      8  C2' N4B d   1       4.077   5.982   4.946  0.00  0.00     0.009 C 
BRANCH   8   9
ATOM      9  C3' N4B d   1       2.585   5.882   4.676  0.00  0.00     0.004 C 
ATOM     10  C4' N4B d   1       1.768   5.856   5.933  0.00  0.00     0.003 C 
ENDBRANCH   8   9
ENDBRANCH   7   8
ENDBRANCH   1   7
TORSDOF 3
ENDMDL
