MODEL 1
REMARK minimizedAffinity 3.51489329
REMARK minimizedRMSD -1
REMARK  3 active torsions:
REMARK  status: ('A' for Active; 'I' for Inactive)
REMARK    1  A    between atoms: C3'_2  and  C2'_3 
REMARK    2  A    between atoms: C2'_3  and  C1'_4 
REMARK    3  A    between atoms: C1'_4  and  C1_5 
ROOT
ATOM      1  C1  N4B d   1      -2.414  -0.363   0.589  0.00  0.00    -0.075 A 
ATOM      2  C2  N4B d   1      -1.408   0.212  -0.218  0.00  0.00     0.002 A 
ATOM      3  C3  N4B d   1      -1.552   1.495  -0.686  0.00  0.00     0.002 A 
ATOM      4  C4  N4B d   1      -2.697   2.213  -0.377  0.00  0.00    -0.004 A 
ATOM      5  C5  N4B d   1      -3.653   1.660   0.424  0.00  0.00     0.002 A 
ATOM      6  C6  N4B d   1      -3.519   0.373   0.905  0.00  0.00     0.002 A 
ENDROOT
BRANCH   1   7
ATOM      7  C1' N4B d   1      -2.341  -1.792   1.053  0.00  0.00     0.057 C 
BRANCH   7   8
ATOM      8  C2' N4B d   1      -2.595  -2.717  -0.133  0.00  0.00     0.009 C 
BRANCH   8   9
ATOM      9  C3' N4B d   1      -3.049  -4.097   0.310  0.00  0.00     0.004 C 
ATOM     10  C4' N4B d   1      -1.904  -5.007   0.641  0.00  0.00     0.003 C 
ENDBRANCH   8   9
ENDBRANCH   7   8
ENDBRANCH   1   7
TORSDOF 3
ENDMDL
