MODEL 1
REMARK minimizedAffinity 8.6512928
REMARK minimizedRMSD -1
REMARK  3 active torsions:
REMARK  status: ('A' for Active; 'I' for Inactive)
REMARK    1  A    between atoms: C3'_2  and  C2'_3 
REMARK    2  A    between atoms: C2'_3  and  C1'_4 
REMARK    3  A    between atoms: C1'_4  and  C1_5 
ROOT
ATOM      1  C1  N4B d   1      -1.912   1.076   1.648  0.00  0.00    -0.075 A 
ATOM      2  C2  N4B d   1      -1.527   1.886   2.739  0.00  0.00     0.002 A 
ATOM      3  C3  N4B d   1      -1.575   1.386   4.017  0.00  0.00     0.002 A 
ATOM      4  C4  N4B d   1      -2.020   0.090   4.229  0.00  0.00    -0.004 A 
ATOM      5  C5  N4B d   1      -2.365  -0.695   3.168  0.00  0.00     0.002 A 
ATOM      6  C6  N4B d   1      -2.318  -0.207   1.878  0.00  0.00     0.002 A 
ENDROOT
BRANCH   1   7
ATOM      7  C1' N4B d   1      -1.958   1.607   0.241  0.00  0.00     0.057 C 
BRANCH   7   8
ATOM      8  C2' N4B d   1      -3.314   2.264  -0.001  0.00  0.00     0.009 C 
BRANCH   8   9
ATOM      9  C3' N4B d   1      -3.524   2.609  -1.466  0.00  0.00     0.004 C 
ATOM     10  C4' N4B d   1      -2.348   3.318  -2.070  0.00  0.00     0.003 C 
ENDBRANCH   8   9
ENDBRANCH   7   8
ENDBRANCH   1   7
TORSDOF 3
ENDMDL
