MODEL 1
REMARK minimizedAffinity 0.0904750377
REMARK minimizedRMSD -1
REMARK  3 active torsions:
REMARK  status: ('A' for Active; 'I' for Inactive)
REMARK    1  A    between atoms: C3'_2  and  C2'_3 
REMARK    2  A    between atoms: C2'_3  and  C1'_4 
REMARK    3  A    between atoms: C1'_4  and  C1_5 
ROOT
ATOM      1  C1  N4B d   1      -3.415   0.654   1.330  0.00  0.00    -0.075 A 
ATOM      2  C2  N4B d   1      -4.508  -0.162   1.694  0.00  0.00     0.002 A 
ATOM      3  C3  N4B d   1      -5.789   0.327   1.607  0.00  0.00     0.002 A 
ATOM      4  C4  N4B d   1      -5.998   1.629   1.178  0.00  0.00    -0.004 A 
ATOM      5  C5  N4B d   1      -4.938   2.402   0.804  0.00  0.00     0.002 A 
ATOM      6  C6  N4B d   1      -3.646   1.923   0.883  0.00  0.00     0.002 A 
ENDROOT
BRANCH   1   7
ATOM      7  C1' N4B d   1      -1.992   0.193   1.491  0.00  0.00     0.057 C 
BRANCH   7   8
ATOM      8  C2' N4B d   1      -1.552   0.418   2.935  0.00  0.00     0.009 C 
BRANCH   8   9
ATOM      9  C3' N4B d   1      -1.821   1.840   3.396  0.00  0.00     0.004 C 
ATOM     10  C4' N4B d   1      -0.902   2.277   4.497  0.00  0.00     0.003 C 
ENDBRANCH   8   9
ENDBRANCH   7   8
ENDBRANCH   1   7
TORSDOF 3
ENDMDL
