MODEL 1
REMARK minimizedAffinity 9.08979893
REMARK minimizedRMSD -1
REMARK  3 active torsions:
REMARK  status: ('A' for Active; 'I' for Inactive)
REMARK    1  A    between atoms: C3'_2  and  C2'_3 
REMARK    2  A    between atoms: C2'_3  and  C1'_4 
REMARK    3  A    between atoms: C1'_4  and  C1_5 
ROOT
ATOM      1  C1  N4B d   1       2.649   5.869   4.977  0.00  0.00    -0.075 A 
ATOM      2  C2  N4B d   1       2.948   5.913   3.597  0.00  0.00     0.002 A 
ATOM      3  C3  N4B d   1       4.255   5.968   3.180  0.00  0.00     0.002 A 
ATOM      4  C4  N4B d   1       5.275   6.000   4.119  0.00  0.00    -0.004 A 
ATOM      5  C5  N4B d   1       4.979   5.932   5.449  0.00  0.00     0.002 A 
ATOM      6  C6  N4B d   1       3.670   5.872   5.883  0.00  0.00     0.002 A 
ENDROOT
BRANCH   1   7
ATOM      7  C1' N4B d   1       1.233   5.895   5.484  0.00  0.00     0.057 C 
BRANCH   7   8
ATOM      8  C2' N4B d   1       0.377   4.971   4.623  0.00  0.00     0.009 C 
BRANCH   8   9
ATOM      9  C3' N4B d   1      -0.058   3.729   5.381  0.00  0.00     0.004 C 
ATOM     10  C4' N4B d   1       0.406   2.460   4.731  0.00  0.00     0.003 C 
ENDBRANCH   8   9
ENDBRANCH   7   8
ENDBRANCH   1   7
TORSDOF 3
ENDMDL
