MODEL 1
REMARK minimizedAffinity 16.1027584
REMARK minimizedRMSD -1
REMARK  3 active torsions:
REMARK  status: ('A' for Active; 'I' for Inactive)
REMARK    1  A    between atoms: C3'_2  and  C2'_3 
REMARK    2  A    between atoms: C2'_3  and  C1'_4 
REMARK    3  A    between atoms: C1'_4  and  C1_5 
ROOT
ATOM      1  C1  N4B d   1       4.020   2.065  -0.315  0.00  0.00    -0.075 A 
ATOM      2  C2  N4B d   1       3.934   0.695  -0.643  0.00  0.00     0.002 A 
ATOM      3  C3  N4B d   1       2.941   0.250  -1.481  0.00  0.00     0.002 A 
ATOM      4  C4  N4B d   1       2.015   1.151  -1.984  0.00  0.00    -0.004 A 
ATOM      5  C5  N4B d   1       2.120   2.477  -1.683  0.00  0.00     0.002 A 
ATOM      6  C6  N4B d   1       3.115   2.939  -0.845  0.00  0.00     0.002 A 
ENDROOT
BRANCH   1   7
ATOM      7  C1' N4B d   1       5.037   2.585   0.665  0.00  0.00     0.057 C 
BRANCH   7   8
ATOM      8  C2' N4B d   1       4.404   2.660   2.051  0.00  0.00     0.009 C 
BRANCH   8   9
ATOM      9  C3' N4B d   1       5.417   3.034   3.119  0.00  0.00     0.004 C 
ATOM     10  C4' N4B d   1       5.900   1.849   3.902  0.00  0.00     0.003 C 
ENDBRANCH   8   9
ENDBRANCH   7   8
ENDBRANCH   1   7
TORSDOF 3
ENDMDL
