MODEL 1
REMARK minimizedAffinity 6.12215805
REMARK minimizedRMSD -1
REMARK  3 active torsions:
REMARK  status: ('A' for Active; 'I' for Inactive)
REMARK    1  A    between atoms: C3'_2  and  C2'_3 
REMARK    2  A    between atoms: C2'_3  and  C1'_4 
REMARK    3  A    between atoms: C1'_4  and  C1_5 
ROOT
ATOM      1  C1  N4B d   1       4.547   5.267   3.443  0.00  0.00    -0.075 A 
ATOM      2  C2  N4B d   1       3.208   5.651   3.681  0.00  0.00     0.002 A 
ATOM      3  C3  N4B d   1       2.808   5.995   4.949  0.00  0.00     0.002 A 
ATOM      4  C4  N4B d   1       3.718   5.944   5.993  0.00  0.00    -0.004 A 
ATOM      5  C5  N4B d   1       5.015   5.596   5.751  0.00  0.00     0.002 A 
ATOM      6  C6  N4B d   1       5.433   5.253   4.481  0.00  0.00     0.002 A 
ENDROOT
BRANCH   1   7
ATOM      7  C1' N4B d   1       5.011   4.800   2.091  0.00  0.00     0.057 C 
BRANCH   7   8
ATOM      8  C2' N4B d   1       4.941   3.277   2.035  0.00  0.00     0.009 C 
BRANCH   8   9
ATOM      9  C3' N4B d   1       5.279   2.743   0.654  0.00  0.00     0.004 C 
ATOM     10  C4' N4B d   1       4.070   2.270  -0.097  0.00  0.00     0.003 C 
ENDBRANCH   8   9
ENDBRANCH   7   8
ENDBRANCH   1   7
TORSDOF 3
ENDMDL
