MODEL 1
REMARK minimizedAffinity 10.2449694
REMARK minimizedRMSD -1
REMARK  3 active torsions:
REMARK  status: ('A' for Active; 'I' for Inactive)
REMARK    1  A    between atoms: C3'_2  and  C2'_3 
REMARK    2  A    between atoms: C2'_3  and  C1'_4 
REMARK    3  A    between atoms: C1'_4  and  C1_5 
ROOT
ATOM      1  C1  N4B d   1       1.663   1.156   0.785  0.00  0.00    -0.075 A 
ATOM      2  C2  N4B d   1       0.523   1.451   1.564  0.00  0.00     0.002 A 
ATOM      3  C3  N4B d   1      -0.677   1.719   0.951  0.00  0.00     0.002 A 
ATOM      4  C4  N4B d   1      -0.755   1.716  -0.433  0.00  0.00    -0.004 A 
ATOM      5  C5  N4B d   1       0.344   1.405  -1.178  0.00  0.00     0.002 A 
ATOM      6  C6  N4B d   1       1.556   1.130  -0.576  0.00  0.00     0.002 A 
ENDROOT
BRANCH   1   7
ATOM      7  C1' N4B d   1       3.016   0.941   1.406  0.00  0.00     0.057 C 
BRANCH   7   8
ATOM      8  C2' N4B d   1       3.543   2.273   1.932  0.00  0.00     0.009 C 
BRANCH   8   9
ATOM      9  C3' N4B d   1       5.053   2.260   2.100  0.00  0.00     0.004 C 
ATOM     10  C4' N4B d   1       5.742   3.272   1.234  0.00  0.00     0.003 C 
ENDBRANCH   8   9
ENDBRANCH   7   8
ENDBRANCH   1   7
TORSDOF 3
ENDMDL
