MODEL 1
REMARK minimizedAffinity 7.66832685
REMARK minimizedRMSD -1
REMARK  3 active torsions:
REMARK  status: ('A' for Active; 'I' for Inactive)
REMARK    1  A    between atoms: C3'_2  and  C2'_3 
REMARK    2  A    between atoms: C2'_3  and  C1'_4 
REMARK    3  A    between atoms: C1'_4  and  C1_5 
ROOT
ATOM      1  C1  N4B d   1       1.310   1.552   1.199  0.00  0.00    -0.075 A 
ATOM      2  C2  N4B d   1       1.837   2.861   1.215  0.00  0.00     0.002 A 
ATOM      3  C3  N4B d   1       1.189   3.854   1.909  0.00  0.00     0.002 A 
ATOM      4  C4  N4B d   1       0.008   3.566   2.575  0.00  0.00    -0.004 A 
ATOM      5  C5  N4B d   1      -0.482   2.293   2.576  0.00  0.00     0.002 A 
ATOM      6  C6  N4B d   1       0.161   1.284   1.886  0.00  0.00     0.002 A 
ENDROOT
BRANCH   1   7
ATOM      7  C1' N4B d   1       1.936   0.453   0.384  0.00  0.00     0.057 C 
BRANCH   7   8
ATOM      8  C2' N4B d   1       1.244   0.380  -0.974  0.00  0.00     0.009 C 
BRANCH   8   9
ATOM      9  C3' N4B d   1       2.208   0.648  -2.117  0.00  0.00     0.004 C 
ATOM     10  C4' N4B d   1       1.532   1.233  -3.321  0.00  0.00     0.003 C 
ENDBRANCH   8   9
ENDBRANCH   7   8
ENDBRANCH   1   7
TORSDOF 3
ENDMDL
