MODEL 1
REMARK minimizedAffinity 4.86118841
REMARK minimizedRMSD -1
REMARK  3 active torsions:
REMARK  status: ('A' for Active; 'I' for Inactive)
REMARK    1  A    between atoms: C3'_2  and  C2'_3 
REMARK    2  A    between atoms: C2'_3  and  C1'_4 
REMARK    3  A    between atoms: C1'_4  and  C1_5 
ROOT
ATOM      1  C1  N4B d   1       1.592   2.329   2.073  0.00  0.00    -0.075 A 
ATOM      2  C2  N4B d   1       0.695   2.656   3.114  0.00  0.00     0.002 A 
ATOM      3  C3  N4B d   1      -0.652   2.443   2.952  0.00  0.00     0.002 A 
ATOM      4  C4  N4B d   1      -1.125   1.923   1.757  0.00  0.00    -0.004 A 
ATOM      5  C5  N4B d   1      -0.250   1.586   0.766  0.00  0.00     0.002 A 
ATOM      6  C6  N4B d   1       1.107   1.791   0.916  0.00  0.00     0.002 A 
ENDROOT
BRANCH   1   7
ATOM      7  C1' N4B d   1       3.064   2.624   2.171  0.00  0.00     0.057 C 
BRANCH   7   8
ATOM      8  C2' N4B d   1       3.840   1.562   1.398  0.00  0.00     0.009 C 
BRANCH   8   9
ATOM      9  C3' N4B d   1       5.316   1.564   1.756  0.00  0.00     0.004 C 
ATOM     10  C4' N4B d   1       6.000   2.849   1.396  0.00  0.00     0.003 C 
ENDBRANCH   8   9
ENDBRANCH   7   8
ENDBRANCH   1   7
TORSDOF 3
ENDMDL
