MODEL 1
REMARK minimizedAffinity 5.11113501
REMARK minimizedRMSD -1
REMARK  3 active torsions:
REMARK  status: ('A' for Active; 'I' for Inactive)
REMARK    1  A    between atoms: C3'_2  and  C2'_3 
REMARK    2  A    between atoms: C2'_3  and  C1'_4 
REMARK    3  A    between atoms: C1'_4  and  C1_5 
ROOT
ATOM      1  C1  N4B d   1       1.756   2.925   2.084  0.00  0.00    -0.075 A 
ATOM      2  C2  N4B d   1       0.886   2.761   0.983  0.00  0.00     0.002 A 
ATOM      3  C3  N4B d   1      -0.468   2.663   1.187  0.00  0.00     0.002 A 
ATOM      4  C4  N4B d   1      -0.972   2.706   2.478  0.00  0.00    -0.004 A 
ATOM      5  C5  N4B d   1      -0.128   2.890   3.534  0.00  0.00     0.002 A 
ATOM      6  C6  N4B d   1       1.235   2.995   3.344  0.00  0.00     0.002 A 
ENDROOT
BRANCH   1   7
ATOM      7  C1' N4B d   1       3.251   2.950   1.918  0.00  0.00     0.057 C 
BRANCH   7   8
ATOM      8  C2' N4B d   1       3.723   1.589   1.416  0.00  0.00     0.009 C 
BRANCH   8   9
ATOM      9  C3' N4B d   1       2.567   0.732   0.927  0.00  0.00     0.004 C 
ATOM     10  C4' N4B d   1       2.875   0.021  -0.357  0.00  0.00     0.003 C 
ENDBRANCH   8   9
ENDBRANCH   7   8
ENDBRANCH   1   7
TORSDOF 3
ENDMDL
