MODEL 1
REMARK minimizedAffinity 1.40929341
REMARK minimizedRMSD -1
REMARK  3 active torsions:
REMARK  status: ('A' for Active; 'I' for Inactive)
REMARK    1  A    between atoms: C3'_2  and  C2'_3 
REMARK    2  A    between atoms: C2'_3  and  C1'_4 
REMARK    3  A    between atoms: C1'_4  and  C1_5 
ROOT
ATOM      1  C1  N4B d   1       1.884   1.403   0.888  0.00  0.00    -0.075 A 
ATOM      2  C2  N4B d   1       1.445   2.423   1.761  0.00  0.00     0.002 A 
ATOM      3  C3  N4B d   1       0.109   2.730   1.840  0.00  0.00     0.002 A 
ATOM      4  C4  N4B d   1      -0.800   2.047   1.045  0.00  0.00    -0.004 A 
ATOM      5  C5  N4B d   1      -0.371   1.046   0.224  0.00  0.00     0.002 A 
ATOM      6  C6  N4B d   1       0.969   0.724   0.137  0.00  0.00     0.002 A 
ENDROOT
BRANCH   1   7
ATOM      7  C1' N4B d   1       3.344   1.090   0.704  0.00  0.00     0.057 C 
BRANCH   7   8
ATOM      8  C2' N4B d   1       4.173   2.297   1.133  0.00  0.00     0.009 C 
BRANCH   8   9
ATOM      9  C3' N4B d   1       5.606   2.206   0.638  0.00  0.00     0.004 C 
ATOM     10  C4' N4B d   1       5.742   2.557  -0.814  0.00  0.00     0.003 C 
ENDBRANCH   8   9
ENDBRANCH   7   8
ENDBRANCH   1   7
TORSDOF 3
ENDMDL
