MODEL 1
REMARK minimizedAffinity 4.28670073
REMARK minimizedRMSD -1
REMARK  3 active torsions:
REMARK  status: ('A' for Active; 'I' for Inactive)
REMARK    1  A    between atoms: C3'_2  and  C2'_3 
REMARK    2  A    between atoms: C2'_3  and  C1'_4 
REMARK    3  A    between atoms: C1'_4  and  C1_5 
ROOT
ATOM      1  C1  N4B d   1       1.679   2.171   1.503  0.00  0.00    -0.075 A 
ATOM      2  C2  N4B d   1       0.386   2.435   1.002  0.00  0.00     0.002 A 
ATOM      3  C3  N4B d   1      -0.545   3.056   1.797  0.00  0.00     0.002 A 
ATOM      4  C4  N4B d   1      -0.213   3.404   3.098  0.00  0.00    -0.004 A 
ATOM      5  C5  N4B d   1       1.046   3.169   3.566  0.00  0.00     0.002 A 
ATOM      6  C6  N4B d   1       1.993   2.549   2.776  0.00  0.00     0.002 A 
ENDROOT
BRANCH   1   7
ATOM      7  C1' N4B d   1       2.704   1.417   0.700  0.00  0.00     0.057 C 
BRANCH   7   8
ATOM      8  C2' N4B d   1       2.001   0.348  -0.131  0.00  0.00     0.009 C 
BRANCH   8   9
ATOM      9  C3' N4B d   1       2.478   0.344  -1.573  0.00  0.00     0.004 C 
ATOM     10  C4' N4B d   1       1.412   0.769  -2.539  0.00  0.00     0.003 C 
ENDBRANCH   8   9
ENDBRANCH   7   8
ENDBRANCH   1   7
TORSDOF 3
ENDMDL
