MODEL 1
REMARK minimizedAffinity -0.431182534
REMARK minimizedRMSD -1
REMARK  0 active torsions:
REMARK  status: ('A' for Active; 'I' for Inactive)
ROOT
ATOM      1  C1  BNZ d   1       0.333  -3.157   0.606  0.00  0.00     0.000 A 
ATOM      2  C2  BNZ d   1       1.254  -4.087   0.204  0.00  0.00     0.000 A 
ATOM      3  C3  BNZ d   1       2.554  -3.731  -0.026  0.00  0.00     0.000 A 
ATOM      4  C4  BNZ d   1       2.921  -2.440   0.107  0.00  0.00     0.000 A 
ATOM      5  C5  BNZ d   1       2.002  -1.489   0.503  0.00  0.00     0.000 A 
ATOM      6  C6  BNZ d   1       0.704  -1.858   0.772  0.00  0.00     0.000 A 
ENDROOT
TORSDOF 0
ENDMDL
