MODEL 1
REMARK minimizedAffinity 4.36769056
REMARK minimizedRMSD -1
REMARK  0 active torsions:
REMARK  status: ('A' for Active; 'I' for Inactive)
ROOT
ATOM      1  C1  BNZ d   1       1.202  -2.187   0.603  0.00  0.00     0.000 A 
ATOM      2  C2  BNZ d   1       0.002  -2.482   0.011  0.00  0.00     0.000 A 
ATOM      3  C3  BNZ d   1      -1.086  -1.675   0.194  0.00  0.00     0.000 A 
ATOM      4  C4  BNZ d   1      -0.985  -0.599   1.000  0.00  0.00     0.000 A 
ATOM      5  C5  BNZ d   1       0.215  -0.293   1.611  0.00  0.00     0.000 A 
ATOM      6  C6  BNZ d   1       1.318  -1.086   1.393  0.00  0.00     0.000 A 
ENDROOT
TORSDOF 0
ENDMDL
