MODEL 1
REMARK minimizedAffinity -2.76124573
REMARK minimizedRMSD -1
REMARK  0 active torsions:
REMARK  status: ('A' for Active; 'I' for Inactive)
ROOT
ATOM      1  C1  BNZ d   1      -0.092  -1.760   0.669  0.00  0.00     0.000 A 
ATOM      2  C2  BNZ d   1      -0.060  -3.112   0.457  0.00  0.00     0.000 A 
ATOM      3  C3  BNZ d   1       1.121  -3.753   0.205  0.00  0.00     0.000 A 
ATOM      4  C4  BNZ d   1       2.261  -3.036   0.125  0.00  0.00     0.000 A 
ATOM      5  C5  BNZ d   1       2.243  -1.670   0.327  0.00  0.00     0.000 A 
ATOM      6  C6  BNZ d   1       1.058  -1.034   0.620  0.00  0.00     0.000 A 
ENDROOT
TORSDOF 0
ENDMDL
