MODEL 1
REMARK minimizedAffinity -4.91477108
REMARK minimizedRMSD -1
REMARK  0 active torsions:
REMARK  status: ('A' for Active; 'I' for Inactive)
ROOT
ATOM      1  C1  BNZ d   1      -0.609  -1.537   0.710  0.00  0.00     0.000 A 
ATOM      2  C2  BNZ d   1       0.214  -0.484   0.409  0.00  0.00     0.000 A 
ATOM      3  C3  BNZ d   1       1.540  -0.686   0.144  0.00  0.00     0.000 A 
ATOM      4  C4  BNZ d   1       2.049  -1.933   0.219  0.00  0.00     0.000 A 
ATOM      5  C5  BNZ d   1       1.234  -3.003   0.530  0.00  0.00     0.000 A 
ATOM      6  C6  BNZ d   1      -0.108  -2.801   0.758  0.00  0.00     0.000 A 
ENDROOT
TORSDOF 0
ENDMDL
