MODEL 1
REMARK minimizedAffinity -0.906910241
REMARK minimizedRMSD -1
REMARK  0 active torsions:
REMARK  status: ('A' for Active; 'I' for Inactive)
ROOT
ATOM      1  C1  BNZ d   1       2.901  -2.178   0.073  0.00  0.00     0.000 A 
ATOM      2  C2  BNZ d   1       2.167  -3.270  -0.308  0.00  0.00     0.000 A 
ATOM      3  C3  BNZ d   1       0.866  -3.412   0.087  0.00  0.00     0.000 A 
ATOM      4  C4  BNZ d   1       0.314  -2.484   0.896  0.00  0.00     0.000 A 
ATOM      5  C5  BNZ d   1       1.044  -1.383   1.297  0.00  0.00     0.000 A 
ATOM      6  C6  BNZ d   1       2.340  -1.224   0.865  0.00  0.00     0.000 A 
ENDROOT
TORSDOF 0
ENDMDL
