MODEL 1
REMARK minimizedAffinity -3.97684264
REMARK minimizedRMSD -1
REMARK  0 active torsions:
REMARK  status: ('A' for Active; 'I' for Inactive)
ROOT
ATOM      1  C1  BNZ d   1       1.656  -1.399   1.019  0.00  0.00     0.000 A 
ATOM      2  C2  BNZ d   1       0.975  -0.328   1.536  0.00  0.00     0.000 A 
ATOM      3  C3  BNZ d   1      -0.362  -0.171   1.302  0.00  0.00     0.000 A 
ATOM      4  C4  BNZ d   1      -1.008  -1.060   0.520  0.00  0.00     0.000 A 
ATOM      5  C5  BNZ d   1      -0.334  -2.139  -0.016  0.00  0.00     0.000 A 
ATOM      6  C6  BNZ d   1       1.004  -2.316   0.254  0.00  0.00     0.000 A 
ENDROOT
TORSDOF 0
ENDMDL
