MODEL 1
REMARK minimizedAffinity -2.75398874
REMARK minimizedRMSD -1
REMARK  0 active torsions:
REMARK  status: ('A' for Active; 'I' for Inactive)
ROOT
ATOM      1  C1  BNZ d   1       0.062  -0.221   0.993  0.00  0.00     0.000 A 
ATOM      2  C2  BNZ d   1      -0.715  -1.332   0.803  0.00  0.00     0.000 A 
ATOM      3  C3  BNZ d   1      -0.146  -2.558   0.595  0.00  0.00     0.000 A 
ATOM      4  C4  BNZ d   1       1.198  -2.663   0.539  0.00  0.00     0.000 A 
ATOM      5  C5  BNZ d   1       1.995  -1.551   0.721  0.00  0.00     0.000 A 
ATOM      6  C6  BNZ d   1       1.419  -0.326   0.968  0.00  0.00     0.000 A 
ENDROOT
TORSDOF 0
ENDMDL
