MODEL 1
REMARK minimizedAffinity -5.31010437
REMARK minimizedRMSD -1
REMARK  0 active torsions:
REMARK  status: ('A' for Active; 'I' for Inactive)
ROOT
ATOM      1  C1  BNZ d   1       0.790  -0.631   0.840  0.00  0.00     0.000 A 
ATOM      2  C2  BNZ d   1       1.862  -1.096   0.127  0.00  0.00     0.000 A 
ATOM      3  C3  BNZ d   1       1.967  -2.421  -0.195  0.00  0.00     0.000 A 
ATOM      4  C4  BNZ d   1       1.022  -3.283   0.232  0.00  0.00     0.000 A 
ATOM      5  C5  BNZ d   1      -0.060  -2.831   0.961  0.00  0.00     0.000 A 
ATOM      6  C6  BNZ d   1      -0.182  -1.491   1.248  0.00  0.00     0.000 A 
ENDROOT
TORSDOF 0
ENDMDL
