MODEL 1
REMARK minimizedAffinity -3.7635448
REMARK minimizedRMSD -1
REMARK  0 active torsions:
REMARK  status: ('A' for Active; 'I' for Inactive)
ROOT
ATOM      1  C1  BNZ d   1       1.782  -2.328  -0.228  0.00  0.00     0.000 A 
ATOM      2  C2  BNZ d   1       0.438  -2.576  -0.139  0.00  0.00     0.000 A 
ATOM      3  C3  BNZ d   1      -0.409  -1.652   0.405  0.00  0.00     0.000 A 
ATOM      4  C4  BNZ d   1       0.092  -0.500   0.896  0.00  0.00     0.000 A 
ATOM      5  C5  BNZ d   1       1.446  -0.240   0.823  0.00  0.00     0.000 A 
ATOM      6  C6  BNZ d   1       2.291  -1.156   0.239  0.00  0.00     0.000 A 
ENDROOT
TORSDOF 0
ENDMDL
