MODEL 1
REMARK minimizedAffinity 0.49001509
REMARK minimizedRMSD -1
REMARK  0 active torsions:
REMARK  status: ('A' for Active; 'I' for Inactive)
ROOT
ATOM      1  C1  BNZ d   1      -2.709  -0.608   0.851  0.00  0.00     0.000 A 
ATOM      2  C2  BNZ d   1      -1.709  -0.463   1.775  0.00  0.00     0.000 A 
ATOM      3  C3  BNZ d   1      -1.471   0.747   2.364  0.00  0.00     0.000 A 
ATOM      4  C4  BNZ d   1      -2.205   1.818   1.999  0.00  0.00     0.000 A 
ATOM      5  C5  BNZ d   1      -3.210   1.690   1.061  0.00  0.00     0.000 A 
ATOM      6  C6  BNZ d   1      -3.473   0.462   0.499  0.00  0.00     0.000 A 
ENDROOT
TORSDOF 0
ENDMDL
