MODEL 1
REMARK minimizedAffinity -4.75524616
REMARK minimizedRMSD -1
REMARK  0 active torsions:
REMARK  status: ('A' for Active; 'I' for Inactive)
ROOT
ATOM      1  C1  BNZ d   1       1.564  -1.090   0.516  0.00  0.00     0.000 A 
ATOM      2  C2  BNZ d   1       2.691  -1.867   0.504  0.00  0.00     0.000 A 
ATOM      3  C3  BNZ d   1       2.614  -3.208   0.249  0.00  0.00     0.000 A 
ATOM      4  C4  BNZ d   1       1.408  -3.776   0.045  0.00  0.00     0.000 A 
ATOM      5  C5  BNZ d   1       0.261  -3.006   0.062  0.00  0.00     0.000 A 
ATOM      6  C6  BNZ d   1       0.347  -1.651   0.281  0.00  0.00     0.000 A 
ENDROOT
TORSDOF 0
ENDMDL
