MODEL 1
REMARK minimizedAffinity -4.17192411
REMARK minimizedRMSD -1
REMARK  0 active torsions:
REMARK  status: ('A' for Active; 'I' for Inactive)
ROOT
ATOM      1  C1  BNZ d   1      -0.499  -1.710   0.768  0.00  0.00     0.000 A 
ATOM      2  C2  BNZ d   1       0.204  -2.675   0.097  0.00  0.00     0.000 A 
ATOM      3  C3  BNZ d   1       1.556  -2.566  -0.070  0.00  0.00     0.000 A 
ATOM      4  C4  BNZ d   1       2.197  -1.475   0.396  0.00  0.00     0.000 A 
ATOM      5  C5  BNZ d   1       1.500  -0.489   1.066  0.00  0.00     0.000 A 
ATOM      6  C6  BNZ d   1       0.145  -0.620   1.267  0.00  0.00     0.000 A 
ENDROOT
TORSDOF 0
ENDMDL
