MODEL 1
REMARK minimizedAffinity -1.30483842
REMARK minimizedRMSD -1
REMARK  0 active torsions:
REMARK  status: ('A' for Active; 'I' for Inactive)
ROOT
ATOM      1  C1  BNZ d   1       1.783  -0.178   1.310  0.00  0.00     0.000 A 
ATOM      2  C2  BNZ d   1       0.628   0.097   1.993  0.00  0.00     0.000 A 
ATOM      3  C3  BNZ d   1      -0.574  -0.385   1.557  0.00  0.00     0.000 A 
ATOM      4  C4  BNZ d   1      -0.626  -1.106   0.418  0.00  0.00     0.000 A 
ATOM      5  C5  BNZ d   1       0.528  -1.383  -0.287  0.00  0.00     0.000 A 
ATOM      6  C6  BNZ d   1       1.742  -0.930   0.176  0.00  0.00     0.000 A 
ENDROOT
TORSDOF 0
ENDMDL
