MODEL 1
REMARK minimizedAffinity -3.93516684
REMARK minimizedRMSD -1
REMARK  0 active torsions:
REMARK  status: ('A' for Active; 'I' for Inactive)
ROOT
ATOM      1  C1  BNZ d   1       1.001  -3.468   0.509  0.00  0.00     0.000 A 
ATOM      2  C2  BNZ d   1       0.054  -2.502   0.719  0.00  0.00     0.000 A 
ATOM      3  C3  BNZ d   1       0.383  -1.176   0.665  0.00  0.00     0.000 A 
ATOM      4  C4  BNZ d   1       1.664  -0.819   0.440  0.00  0.00     0.000 A 
ATOM      5  C5  BNZ d   1       2.632  -1.782   0.236  0.00  0.00     0.000 A 
ATOM      6  C6  BNZ d   1       2.290  -3.115   0.253  0.00  0.00     0.000 A 
ENDROOT
TORSDOF 0
ENDMDL
