MODEL 1
REMARK minimizedAffinity -2.80758142
REMARK minimizedRMSD -1
REMARK  0 active torsions:
REMARK  status: ('A' for Active; 'I' for Inactive)
ROOT
ATOM      1  C1  BNZ d   1       1.463  -0.575   1.197  0.00  0.00     0.000 A 
ATOM      2  C2  BNZ d   1       0.245  -0.881   1.744  0.00  0.00     0.000 A 
ATOM      3  C3  BNZ d   1      -0.551  -1.841   1.185  0.00  0.00     0.000 A 
ATOM      4  C4  BNZ d   1      -0.148  -2.464   0.059  0.00  0.00     0.000 A 
ATOM      5  C5  BNZ d   1       1.073  -2.159  -0.510  0.00  0.00     0.000 A 
ATOM      6  C6  BNZ d   1       1.889  -1.220   0.077  0.00  0.00     0.000 A 
ENDROOT
TORSDOF 0
ENDMDL
