MODEL 1
REMARK minimizedAffinity -2.95582986
REMARK minimizedRMSD -1
REMARK  0 active torsions:
REMARK  status: ('A' for Active; 'I' for Inactive)
ROOT
ATOM      1  C   UNL d   1       0.097  -0.085   0.201  0.00  0.00     0.078 C 
ATOM      2  C1  UNL d   1      -0.100  -1.400  -0.493  0.00  0.00    -0.077 A 
ATOM      3  C2  UNL d   1      -1.352  -2.027  -0.507  0.00  0.00    -0.001 A 
ATOM      4  C3  UNL d   1      -1.518  -3.255  -1.149  0.00  0.00     0.003 A 
ATOM      5  C4  UNL d   1      -0.437  -3.867  -1.780  0.00  0.00    -0.005 A 
ATOM      6  C5  UNL d   1       0.813  -3.252  -1.769  0.00  0.00     0.003 A 
ATOM      7  C6  UNL d   1       0.981  -2.024  -1.128  0.00  0.00    -0.001 A 
ENDROOT
TORSDOF 0
ENDMDL
