MODEL 1
REMARK minimizedAffinity -1.32175553
REMARK minimizedRMSD -1
REMARK  0 active torsions:
REMARK  status: ('A' for Active; 'I' for Inactive)
ROOT
ATOM      1  C   UNL d   1       1.058  -0.839   1.890  0.00  0.00     0.078 C 
ATOM      2  C1  UNL d   1       0.609  -0.466   0.508  0.00  0.00    -0.077 A 
ATOM      3  C2  UNL d   1       0.775  -1.348  -0.566  0.00  0.00    -0.001 A 
ATOM      4  C3  UNL d   1       0.361  -0.985  -1.849  0.00  0.00     0.003 A 
ATOM      5  C4  UNL d   1      -0.220   0.262  -2.069  0.00  0.00    -0.005 A 
ATOM      6  C5  UNL d   1      -0.388   1.148  -1.006  0.00  0.00     0.003 A 
ATOM      7  C6  UNL d   1       0.025   0.786   0.277  0.00  0.00    -0.001 A 
ENDROOT
TORSDOF 0
ENDMDL
