MODEL 1
REMARK minimizedAffinity -2.82261634
REMARK minimizedRMSD -1
REMARK  0 active torsions:
REMARK  status: ('A' for Active; 'I' for Inactive)
ROOT
ATOM      1  C   UNL d   1      -0.379   1.960   1.561  0.00  0.00     0.078 C 
ATOM      2  C1  UNL d   1      -0.015   0.708   0.821  0.00  0.00    -0.077 A 
ATOM      3  C2  UNL d   1       0.470  -0.416   1.501  0.00  0.00    -0.001 A 
ATOM      4  C3  UNL d   1       0.814  -1.572   0.799  0.00  0.00     0.003 A 
ATOM      5  C4  UNL d   1       0.678  -1.615  -0.588  0.00  0.00    -0.005 A 
ATOM      6  C5  UNL d   1       0.199  -0.500  -1.273  0.00  0.00     0.003 A 
ATOM      7  C6  UNL d   1      -0.146   0.656  -0.572  0.00  0.00    -0.001 A 
ENDROOT
TORSDOF 0
ENDMDL
