MODEL 1
REMARK minimizedAffinity -6.11096907
REMARK minimizedRMSD -1
REMARK  0 active torsions:
REMARK  status: ('A' for Active; 'I' for Inactive)
ROOT
ATOM      1  C   UNL d   1      -0.009  -0.370  -0.906  0.00  0.00     0.078 C 
ATOM      2  C1  UNL d   1      -0.475   0.843  -0.159  0.00  0.00    -0.077 A 
ATOM      3  C2  UNL d   1      -0.920   1.983  -0.840  0.00  0.00    -0.001 A 
ATOM      4  C3  UNL d   1      -1.342   3.109  -0.132  0.00  0.00     0.003 A 
ATOM      5  C4  UNL d   1      -1.322   3.107   1.262  0.00  0.00    -0.005 A 
ATOM      6  C5  UNL d   1      -0.880   1.979   1.948  0.00  0.00     0.003 A 
ATOM      7  C6  UNL d   1      -0.457   0.851   1.242  0.00  0.00    -0.001 A 
ENDROOT
TORSDOF 0
ENDMDL
