MODEL 1
REMARK minimizedAffinity 4.30674458
REMARK minimizedRMSD -1
REMARK  0 active torsions:
REMARK  status: ('A' for Active; 'I' for Inactive)
ROOT
ATOM      1  C   UNL d   1      -0.023   0.769  -1.355  0.00  0.00     0.078 C 
ATOM      2  C1  UNL d   1       0.417   0.372   0.022  0.00  0.00    -0.077 A 
ATOM      3  C2  UNL d   1       1.307  -0.691   0.217  0.00  0.00    -0.001 A 
ATOM      4  C3  UNL d   1       1.701  -1.055   1.506  0.00  0.00     0.003 A 
ATOM      5  C4  UNL d   1       1.208  -0.362   2.610  0.00  0.00    -0.005 A 
ATOM      6  C5  UNL d   1       0.321   0.696   2.426  0.00  0.00     0.003 A 
ATOM      7  C6  UNL d   1      -0.074   1.062   1.138  0.00  0.00    -0.001 A 
ENDROOT
TORSDOF 0
ENDMDL
