MODEL 1
REMARK minimizedAffinity 1.806252
REMARK minimizedRMSD -1
REMARK  0 active torsions:
REMARK  status: ('A' for Active; 'I' for Inactive)
ROOT
ATOM      1  C   UNL d   1      -0.119   0.471  -0.753  0.00  0.00     0.078 C 
ATOM      2  C1  UNL d   1       0.041   1.456   0.367  0.00  0.00    -0.077 A 
ATOM      3  C2  UNL d   1      -0.169   1.074   1.698  0.00  0.00    -0.001 A 
ATOM      4  C3  UNL d   1      -0.026   2.003   2.730  0.00  0.00     0.003 A 
ATOM      5  C4  UNL d   1       0.325   3.320   2.442  0.00  0.00    -0.005 A 
ATOM      6  C5  UNL d   1       0.534   3.710   1.120  0.00  0.00     0.003 A 
ATOM      7  C6  UNL d   1       0.392   2.782   0.087  0.00  0.00    -0.001 A 
ENDROOT
TORSDOF 0
ENDMDL
