MODEL 1
REMARK minimizedAffinity 6.61533499
REMARK minimizedRMSD -1
REMARK  1 active torsions:
REMARK  status: ('A' for Active; 'I' for Inactive)
REMARK    1  A    between atoms: N_2  and  C1_3 
ROOT
ATOM      1  C1  UNL d   1       0.315   0.648   3.824  0.00  0.00     0.143 A 
ATOM      2  C2  UNL d   1       0.697  -0.474   4.567  0.00  0.00    -0.057 A 
ATOM      3  C3  UNL d   1       1.001  -1.689   3.943  0.00  0.00     0.033 A 
ATOM      4  C4  UNL d   1       0.899  -1.813   2.562  0.00  0.00    -0.042 A 
ATOM      5  C5  UNL d   1       0.497  -0.719   1.805  0.00  0.00     0.033 A 
ATOM      6  C6  UNL d   1       0.201   0.495   2.433  0.00  0.00    -0.057 A 
ENDROOT
BRANCH   1   7
ATOM      7  N   UNL d   1      -0.095   1.856   4.393  0.00  0.00    -0.732 N 
ATOM      8  C   UNL d   1       0.335   2.227   5.725  0.00  0.00     0.284 C 
ATOM      9  H3  UNL d   1      -0.086   2.623   3.725  0.00  0.00     0.395 HD
ENDBRANCH   1   7
TORSDOF 1
ENDMDL
