MODEL 1
REMARK minimizedAffinity 11.8643208
REMARK minimizedRMSD -1
REMARK  1 active torsions:
REMARK  status: ('A' for Active; 'I' for Inactive)
REMARK    1  A    between atoms: N_2  and  C1_3 
ROOT
ATOM      1  C1  UNL d   1      -1.338  -0.752   2.400  0.00  0.00     0.143 A 
ATOM      2  C2  UNL d   1      -0.397  -1.465   1.648  0.00  0.00    -0.057 A 
ATOM      3  C3  UNL d   1       0.976  -1.233   1.796  0.00  0.00     0.033 A 
ATOM      4  C4  UNL d   1       1.432  -0.261   2.679  0.00  0.00    -0.042 A 
ATOM      5  C5  UNL d   1       0.514   0.477   3.418  0.00  0.00     0.033 A 
ATOM      6  C6  UNL d   1      -0.855   0.236   3.272  0.00  0.00    -0.057 A 
ENDROOT
BRANCH   1   7
ATOM      7  N   UNL d   1      -2.720  -0.868   2.227  0.00  0.00    -0.732 N 
ATOM      8  C   UNL d   1      -3.353  -2.169   2.198  0.00  0.00     0.284 C 
ATOM      9  H3  UNL d   1      -3.236  -0.166   2.752  0.00  0.00     0.395 HD
ENDBRANCH   1   7
TORSDOF 1
ENDMDL
