MODEL 1
REMARK minimizedAffinity 13.5165195
REMARK minimizedRMSD -1
REMARK  1 active torsions:
REMARK  status: ('A' for Active; 'I' for Inactive)
REMARK    1  A    between atoms: N_2  and  C1_3 
ROOT
ATOM      1  C1  UNL d   1      -1.372  -1.013   2.648  0.00  0.00     0.143 A 
ATOM      2  C2  UNL d   1      -0.690  -2.119   3.166  0.00  0.00    -0.057 A 
ATOM      3  C3  UNL d   1       0.678  -2.057   3.457  0.00  0.00     0.033 A 
ATOM      4  C4  UNL d   1       1.397  -0.893   3.207  0.00  0.00    -0.042 A 
ATOM      5  C5  UNL d   1       0.745   0.211   2.669  0.00  0.00     0.033 A 
ATOM      6  C6  UNL d   1      -0.623   0.145   2.387  0.00  0.00    -0.057 A 
ENDROOT
BRANCH   1   7
ATOM      7  N   UNL d   1      -2.710  -1.042   2.246  0.00  0.00    -0.732 N 
ATOM      8  C   UNL d   1      -3.589  -2.104   2.686  0.00  0.00     0.284 C 
ATOM      9  H3  UNL d   1      -3.138  -0.119   2.252  0.00  0.00     0.395 HD
ENDBRANCH   1   7
TORSDOF 1
ENDMDL
