MODEL 1
REMARK minimizedAffinity 9.13386726
REMARK minimizedRMSD -1
REMARK  1 active torsions:
REMARK  status: ('A' for Active; 'I' for Inactive)
REMARK    1  A    between atoms: N_2  and  C1_3 
ROOT
ATOM      1  C1  UNL d   1      -1.277  -3.538  -5.413  0.00  0.00     0.143 A 
ATOM      2  C2  UNL d   1      -0.235  -2.814  -6.000  0.00  0.00    -0.057 A 
ATOM      3  C3  UNL d   1       0.255  -1.641  -5.413  0.00  0.00     0.033 A 
ATOM      4  C4  UNL d   1      -0.311  -1.155  -4.239  0.00  0.00    -0.042 A 
ATOM      5  C5  UNL d   1      -1.365  -1.845  -3.651  0.00  0.00     0.033 A 
ATOM      6  C6  UNL d   1      -1.845  -3.020  -4.238  0.00  0.00    -0.057 A 
ENDROOT
BRANCH   1   7
ATOM      7  N   UNL d   1      -1.874  -4.657  -5.999  0.00  0.00    -0.732 N 
ATOM      8  C   UNL d   1      -1.451  -5.993  -5.637  0.00  0.00     0.284 C 
ATOM      9  H3  UNL d   1      -2.881  -4.553  -6.100  0.00  0.00     0.395 HD
ENDBRANCH   1   7
TORSDOF 1
ENDMDL
