MODEL 1
REMARK minimizedAffinity 7.5367651
REMARK minimizedRMSD -1
REMARK  1 active torsions:
REMARK  status: ('A' for Active; 'I' for Inactive)
REMARK    1  A    between atoms: N_2  and  C1_3 
ROOT
ATOM      1  C1  UNL d   1       0.463  -1.733   2.968  0.00  0.00     0.143 A 
ATOM      2  C2  UNL d   1      -0.836  -1.721   2.448  0.00  0.00    -0.057 A 
ATOM      3  C3  UNL d   1      -1.445  -0.526   2.046  0.00  0.00     0.033 A 
ATOM      4  C4  UNL d   1      -0.775   0.685   2.184  0.00  0.00    -0.042 A 
ATOM      5  C5  UNL d   1       0.508   0.699   2.721  0.00  0.00     0.033 A 
ATOM      6  C6  UNL d   1       1.113  -0.498   3.115  0.00  0.00    -0.057 A 
ENDROOT
BRANCH   1   7
ATOM      7  N   UNL d   1       1.086  -2.875   3.477  0.00  0.00    -0.732 N 
ATOM      8  C   UNL d   1       0.454  -3.658   4.518  0.00  0.00     0.284 C 
ATOM      9  H3  UNL d   1       1.531  -3.432   2.751  0.00  0.00     0.395 HD
ENDBRANCH   1   7
TORSDOF 1
ENDMDL
