MODEL 1
REMARK minimizedAffinity 9.14597797
REMARK minimizedRMSD -1
REMARK  0 active torsions:
REMARK  status: ('A' for Active; 'I' for Inactive)
ROOT
ATOM      1  C1  DEN d   1       0.672  -1.597   2.832  0.00  0.00     0.130 A 
ATOM      2  C2  DEN d   1       1.940  -1.014   3.263  0.00  0.00    -0.031 A 
ATOM      3  C3  DEN d   1       1.789   0.455   3.266  0.00  0.00     0.027 A 
ATOM      4  C4  DEN d   1      -0.275   1.875   2.654  0.00  0.00     0.027 A 
ATOM      5  C5  DEN d   1      -1.581   1.828   2.219  0.00  0.00    -0.003 A 
ATOM      6  C6  DEN d   1      -2.212   0.648   1.928  0.00  0.00     0.001 A 
ATOM      7  C7  DEN d   1      -1.551  -0.538   2.111  0.00  0.00     0.017 A 
ATOM      8  C8  DEN d   1      -0.232  -0.498   2.543  0.00  0.00    -0.094 A 
ATOM      9  C9  DEN d   1       0.384   0.705   2.843  0.00  0.00    -0.072 A 
ENDROOT
TORSDOF 0
ENDMDL
