MODEL 1
REMARK minimizedAffinity -4.11675215
REMARK minimizedRMSD -1
REMARK  0 active torsions:
REMARK  status: ('A' for Active; 'I' for Inactive)
ROOT
ATOM      1  C1  DEN d   1       1.297  -2.276  -1.135  0.00  0.00     0.130 A 
ATOM      2  C2  DEN d   1       2.355  -1.800  -0.247  0.00  0.00    -0.031 A 
ATOM      3  C3  DEN d   1       1.786  -0.746   0.617  0.00  0.00     0.027 A 
ATOM      4  C4  DEN d   1      -0.618   0.187   0.670  0.00  0.00     0.027 A 
ATOM      5  C5  DEN d   1      -1.867   0.104   0.096  0.00  0.00    -0.003 A 
ATOM      6  C6  DEN d   1      -2.138  -0.747  -0.943  0.00  0.00     0.001 A 
ATOM      7  C7  DEN d   1      -1.158  -1.582  -1.410  0.00  0.00     0.017 A 
ATOM      8  C8  DEN d   1       0.107  -1.499  -0.841  0.00  0.00    -0.094 A 
ATOM      9  C9  DEN d   1       0.357  -0.641   0.216  0.00  0.00    -0.072 A 
ENDROOT
TORSDOF 0
ENDMDL
