MODEL 1
REMARK minimizedAffinity 7.12782955
REMARK minimizedRMSD -1
REMARK  0 active torsions:
REMARK  status: ('A' for Active; 'I' for Inactive)
ROOT
ATOM      1  C1  DEN d   1      -4.685  -3.430  -6.000  0.00  0.00     0.130 A 
ATOM      2  C2  DEN d   1      -5.144  -2.044  -5.962  0.00  0.00    -0.031 A 
ATOM      3  C3  DEN d   1      -3.953  -1.170  -5.945  0.00  0.00     0.027 A 
ATOM      4  C4  DEN d   1      -1.459  -1.825  -5.978  0.00  0.00     0.027 A 
ATOM      5  C5  DEN d   1      -0.576  -2.883  -5.998  0.00  0.00    -0.003 A 
ATOM      6  C6  DEN d   1      -0.997  -4.186  -5.986  0.00  0.00     0.001 A 
ATOM      7  C7  DEN d   1      -2.338  -4.466  -5.999  0.00  0.00     0.017 A 
ATOM      8  C8  DEN d   1      -3.234  -3.406  -5.971  0.00  0.00    -0.094 A 
ATOM      9  C9  DEN d   1      -2.789  -2.095  -5.996  0.00  0.00    -0.072 A 
ENDROOT
TORSDOF 0
ENDMDL
