MODEL 1
REMARK minimizedAffinity 3.05566144
REMARK minimizedRMSD -1
REMARK  0 active torsions:
REMARK  status: ('A' for Active; 'I' for Inactive)
ROOT
ATOM      1  C1  DEN d   1      -1.214   0.407  -0.115  0.00  0.00     0.130 A 
ATOM      2  C2  DEN d   1      -2.552   0.730   0.373  0.00  0.00    -0.031 A 
ATOM      3  C3  DEN d   1      -2.585   0.463   1.825  0.00  0.00     0.027 A 
ATOM      4  C4  DEN d   1      -0.704  -0.411   3.358  0.00  0.00     0.027 A 
ATOM      5  C5  DEN d   1       0.605  -0.837   3.397  0.00  0.00    -0.003 A 
ATOM      6  C6  DEN d   1       1.383  -0.911   2.272  0.00  0.00     0.001 A 
ATOM      7  C7  DEN d   1       0.872  -0.509   1.066  0.00  0.00     0.017 A 
ATOM      8  C8  DEN d   1      -0.449  -0.085   1.017  0.00  0.00    -0.094 A 
ATOM      9  C9  DEN d   1      -1.216  -0.006   2.168  0.00  0.00    -0.072 A 
ENDROOT
TORSDOF 0
ENDMDL
