MODEL 1
REMARK minimizedAffinity 1.60344779
REMARK minimizedRMSD -1
REMARK  0 active torsions:
REMARK  status: ('A' for Active; 'I' for Inactive)
ROOT
ATOM      1  C1  DEN d   1      -1.366  -2.043   4.619  0.00  0.00     0.130 A 
ATOM      2  C2  DEN d   1      -2.387  -1.531   3.709  0.00  0.00    -0.031 A 
ATOM      3  C3  DEN d   1      -1.702  -0.897   2.565  0.00  0.00     0.027 A 
ATOM      4  C4  DEN d   1       0.827  -0.662   2.116  0.00  0.00     0.027 A 
ATOM      5  C5  DEN d   1       2.085  -0.930   2.610  0.00  0.00    -0.003 A 
ATOM      6  C6  DEN d   1       2.279  -1.552   3.815  0.00  0.00     0.001 A 
ATOM      7  C7  DEN d   1       1.197  -1.968   4.546  0.00  0.00     0.017 A 
ATOM      8  C8  DEN d   1      -0.074  -1.695   4.057  0.00  0.00    -0.094 A 
ATOM      9  C9  DEN d   1      -0.249  -1.076   2.832  0.00  0.00    -0.072 A 
ENDROOT
TORSDOF 0
ENDMDL
