MODEL 1
REMARK minimizedAffinity 2.2401011
REMARK minimizedRMSD -1
REMARK  0 active torsions:
REMARK  status: ('A' for Active; 'I' for Inactive)
ROOT
ATOM      1  C1  DEN d   1      -0.124  -1.076   4.142  0.00  0.00     0.130 A 
ATOM      2  C2  DEN d   1       1.272  -1.422   3.887  0.00  0.00    -0.031 A 
ATOM      3  C3  DEN d   1       1.588  -1.045   2.495  0.00  0.00     0.027 A 
ATOM      4  C4  DEN d   1       0.063   0.040   0.720  0.00  0.00     0.027 A 
ATOM      5  C5  DEN d   1      -1.207   0.508   0.467  0.00  0.00    -0.003 A 
ATOM      6  C6  DEN d   1      -2.206   0.452   1.403  0.00  0.00     0.001 A 
ATOM      7  C7  DEN d   1      -1.940  -0.045   2.651  0.00  0.00     0.017 A 
ATOM      8  C8  DEN d   1      -0.663  -0.526   2.911  0.00  0.00    -0.094 A 
ATOM      9  C9  DEN d   1       0.336  -0.449   1.957  0.00  0.00    -0.072 A 
ENDROOT
TORSDOF 0
ENDMDL
