MODEL 1
REMARK minimizedAffinity -1.72946239
REMARK minimizedRMSD -1
REMARK  0 active torsions:
REMARK  status: ('A' for Active; 'I' for Inactive)
ROOT
ATOM      1  C1  BNZ d   1       0.034  -0.402   0.818  0.00  0.00     0.000 A 
ATOM      2  C2  BNZ d   1       1.097  -1.114   1.305  0.00  0.00     0.000 A 
ATOM      3  C3  BNZ d   1       2.124  -1.488   0.484  0.00  0.00     0.000 A 
ATOM      4  C4  BNZ d   1       2.068  -1.185  -0.829  0.00  0.00     0.000 A 
ATOM      5  C5  BNZ d   1       0.997  -0.476  -1.337  0.00  0.00     0.000 A 
ATOM      6  C6  BNZ d   1      -0.016  -0.067  -0.501  0.00  0.00     0.000 A 
ENDROOT
TORSDOF 0
ENDMDL
