MODEL 1
REMARK minimizedAffinity -0.924848795
REMARK minimizedRMSD -1
REMARK  0 active torsions:
REMARK  status: ('A' for Active; 'I' for Inactive)
ROOT
ATOM      1  C1  BNZ d   1       1.692  -0.719  -0.994  0.00  0.00     0.000 A 
ATOM      2  C2  BNZ d   1       0.747   0.113  -1.534  0.00  0.00     0.000 A 
ATOM      3  C3  BNZ d   1      -0.240   0.649  -0.756  0.00  0.00     0.000 A 
ATOM      4  C4  BNZ d   1      -0.305   0.323   0.551  0.00  0.00     0.000 A 
ATOM      5  C5  BNZ d   1       0.635  -0.522   1.108  0.00  0.00     0.000 A 
ATOM      6  C6  BNZ d   1       1.650  -1.029   0.330  0.00  0.00     0.000 A 
ENDROOT
TORSDOF 0
ENDMDL
