MODEL 1
REMARK minimizedAffinity -2.96013427
REMARK minimizedRMSD -1
REMARK  0 active torsions:
REMARK  status: ('A' for Active; 'I' for Inactive)
ROOT
ATOM      1  C1  BNZ d   1      -0.311   0.094  -0.855  0.00  0.00     0.000 A 
ATOM      2  C2  BNZ d   1      -0.243  -0.084   0.501  0.00  0.00     0.000 A 
ATOM      3  C3  BNZ d   1      -0.921   0.745   1.351  0.00  0.00     0.000 A 
ATOM      4  C4  BNZ d   1      -1.632   1.774   0.847  0.00  0.00     0.000 A 
ATOM      5  C5  BNZ d   1      -1.703   1.972  -0.518  0.00  0.00     0.000 A 
ATOM      6  C6  BNZ d   1      -1.052   1.112  -1.372  0.00  0.00     0.000 A 
ENDROOT
TORSDOF 0
ENDMDL
