MODEL 1
REMARK minimizedAffinity -4.0443821
REMARK minimizedRMSD -1
REMARK  0 active torsions:
REMARK  status: ('A' for Active; 'I' for Inactive)
ROOT
ATOM      1  C1  BNZ d   1       1.090  -0.343  -1.072  0.00  0.00     0.000 A 
ATOM      2  C2  BNZ d   1       0.682   0.259   0.088  0.00  0.00     0.000 A 
ATOM      3  C3  BNZ d   1      -0.449   1.027   0.118  0.00  0.00     0.000 A 
ATOM      4  C4  BNZ d   1      -1.147   1.224  -1.019  0.00  0.00     0.000 A 
ATOM      5  C5  BNZ d   1      -0.742   0.631  -2.199  0.00  0.00     0.000 A 
ATOM      6  C6  BNZ d   1       0.374  -0.172  -2.217  0.00  0.00     0.000 A 
ENDROOT
TORSDOF 0
ENDMDL
