MODEL 1
REMARK minimizedAffinity -2.17720056
REMARK minimizedRMSD -1
REMARK  0 active torsions:
REMARK  status: ('A' for Active; 'I' for Inactive)
ROOT
ATOM      1  C1  BNZ d   1      -1.454   1.687  -1.622  0.00  0.00     0.000 A 
ATOM      2  C2  BNZ d   1      -0.467   0.758  -1.819  0.00  0.00     0.000 A 
ATOM      3  C3  BNZ d   1       0.055   0.058  -0.767  0.00  0.00     0.000 A 
ATOM      4  C4  BNZ d   1      -0.381   0.316   0.483  0.00  0.00     0.000 A 
ATOM      5  C5  BNZ d   1      -1.369   1.257   0.699  0.00  0.00     0.000 A 
ATOM      6  C6  BNZ d   1      -1.919   1.931  -0.367  0.00  0.00     0.000 A 
ENDROOT
TORSDOF 0
ENDMDL
