MODEL 1
REMARK minimizedAffinity -1.10116565
REMARK minimizedRMSD -1
REMARK  0 active torsions:
REMARK  status: ('A' for Active; 'I' for Inactive)
ROOT
ATOM      1  C1  BNZ d   1       1.589   0.699  -0.611  0.00  0.00     0.000 A 
ATOM      2  C2  BNZ d   1       0.494   1.518  -0.674  0.00  0.00     0.000 A 
ATOM      3  C3  BNZ d   1      -0.711   1.115  -0.171  0.00  0.00     0.000 A 
ATOM      4  C4  BNZ d   1      -0.830  -0.121   0.356  0.00  0.00     0.000 A 
ATOM      5  C5  BNZ d   1       0.263  -0.962   0.418  0.00  0.00     0.000 A 
ATOM      6  C6  BNZ d   1       1.484  -0.538  -0.053  0.00  0.00     0.000 A 
ENDROOT
TORSDOF 0
ENDMDL
