MODEL 1
REMARK minimizedAffinity -1.0296396
REMARK minimizedRMSD -1
REMARK  0 active torsions:
REMARK  status: ('A' for Active; 'I' for Inactive)
ROOT
ATOM      1  C1  BNZ d   1       0.072  -0.896  -0.621  0.00  0.00     0.000 A 
ATOM      2  C2  BNZ d   1      -1.133  -0.271  -0.802  0.00  0.00     0.000 A 
ATOM      3  C3  BNZ d   1      -1.242   1.087  -0.684  0.00  0.00     0.000 A 
ATOM      4  C4  BNZ d   1      -0.156   1.812  -0.346  0.00  0.00     0.000 A 
ATOM      5  C5  BNZ d   1       1.063   1.196  -0.151  0.00  0.00     0.000 A 
ATOM      6  C6  BNZ d   1       1.178  -0.167  -0.309  0.00  0.00     0.000 A 
ENDROOT
TORSDOF 0
ENDMDL
