MODEL 1
REMARK minimizedAffinity -3.4622519
REMARK minimizedRMSD -1
REMARK  0 active torsions:
REMARK  status: ('A' for Active; 'I' for Inactive)
ROOT
ATOM      1  C1  BNZ d   1       0.516  -0.909  -1.729  0.00  0.00     0.000 A 
ATOM      2  C2  BNZ d   1      -0.563  -0.111  -1.998  0.00  0.00     0.000 A 
ATOM      3  C3  BNZ d   1      -0.912   0.904  -1.151  0.00  0.00     0.000 A 
ATOM      4  C4  BNZ d   1      -0.206   1.093  -0.017  0.00  0.00     0.000 A 
ATOM      5  C5  BNZ d   1       0.879   0.290   0.273  0.00  0.00     0.000 A 
ATOM      6  C6  BNZ d   1       1.251  -0.705  -0.602  0.00  0.00     0.000 A 
ENDROOT
TORSDOF 0
ENDMDL
