MODEL 1
REMARK minimizedAffinity -2.63521147
REMARK minimizedRMSD -1
REMARK  0 active torsions:
REMARK  status: ('A' for Active; 'I' for Inactive)
ROOT
ATOM      1  C1  BNZ d   1      -1.073   0.590   0.296  0.00  0.00     0.000 A 
ATOM      2  C2  BNZ d   1      -0.053  -0.060   0.937  0.00  0.00     0.000 A 
ATOM      3  C3  BNZ d   1       1.011  -0.556   0.237  0.00  0.00     0.000 A 
ATOM      4  C4  BNZ d   1       1.035  -0.436  -1.106  0.00  0.00     0.000 A 
ATOM      5  C5  BNZ d   1       0.009   0.209  -1.768  0.00  0.00     0.000 A 
ATOM      6  C6  BNZ d   1      -1.041   0.741  -1.057  0.00  0.00     0.000 A 
ENDROOT
TORSDOF 0
ENDMDL
