MODEL 1
REMARK minimizedAffinity -3.05529547
REMARK minimizedRMSD -1
REMARK  0 active torsions:
REMARK  status: ('A' for Active; 'I' for Inactive)
ROOT
ATOM      1  C1  BNZ d   1       1.853  -0.592  -1.215  0.00  0.00     0.000 A 
ATOM      2  C2  BNZ d   1       1.181   0.423  -1.841  0.00  0.00     0.000 A 
ATOM      3  C3  BNZ d   1       0.194   1.113  -1.194  0.00  0.00     0.000 A 
ATOM      4  C4  BNZ d   1      -0.146   0.761   0.063  0.00  0.00     0.000 A 
ATOM      5  C5  BNZ d   1       0.516  -0.267   0.704  0.00  0.00     0.000 A 
ATOM      6  C6  BNZ d   1       1.535  -0.933   0.063  0.00  0.00     0.000 A 
ENDROOT
TORSDOF 0
ENDMDL
