MODEL 1
REMARK minimizedAffinity -3.3862133
REMARK minimizedRMSD -1
REMARK  0 active torsions:
REMARK  status: ('A' for Active; 'I' for Inactive)
ROOT
ATOM      1  C1  BNZ d   1       2.176  -1.223   0.678  0.00  0.00     0.000 A 
ATOM      2  C2  BNZ d   1       1.648  -0.306  -0.192  0.00  0.00     0.000 A 
ATOM      3  C3  BNZ d   1       0.446   0.292   0.066  0.00  0.00     0.000 A 
ATOM      4  C4  BNZ d   1      -0.244  -0.056   1.171  0.00  0.00     0.000 A 
ATOM      5  C5  BNZ d   1       0.270  -0.985   2.053  0.00  0.00     0.000 A 
ATOM      6  C6  BNZ d   1       1.498  -1.557   1.810  0.00  0.00     0.000 A 
ENDROOT
TORSDOF 0
ENDMDL
