MODEL 1
REMARK minimizedAffinity -2.07576799
REMARK minimizedRMSD -1
REMARK  0 active torsions:
REMARK  status: ('A' for Active; 'I' for Inactive)
ROOT
ATOM      1  C1  BNZ d   1       1.612  -0.340  -1.142  0.00  0.00     0.000 A 
ATOM      2  C2  BNZ d   1       0.422   0.007  -1.724  0.00  0.00     0.000 A 
ATOM      3  C3  BNZ d   1      -0.677   0.283  -0.960  0.00  0.00     0.000 A 
ATOM      4  C4  BNZ d   1      -0.596   0.174   0.382  0.00  0.00     0.000 A 
ATOM      5  C5  BNZ d   1       0.594  -0.184   0.983  0.00  0.00     0.000 A 
ATOM      6  C6  BNZ d   1       1.709  -0.423   0.213  0.00  0.00     0.000 A 
ENDROOT
TORSDOF 0
ENDMDL
