MODEL 1
REMARK minimizedAffinity -1.18634379
REMARK minimizedRMSD -1
REMARK  0 active torsions:
REMARK  status: ('A' for Active; 'I' for Inactive)
ROOT
ATOM      1  C1  BNZ d   1      -0.346   1.665  -0.103  0.00  0.00     0.000 A 
ATOM      2  C2  BNZ d   1       0.892   1.181   0.223  0.00  0.00     0.000 A 
ATOM      3  C3  BNZ d   1       1.383   0.054  -0.375  0.00  0.00     0.000 A 
ATOM      4  C4  BNZ d   1       0.619  -0.609  -1.267  0.00  0.00     0.000 A 
ATOM      5  C5  BNZ d   1      -0.636  -0.138  -1.599  0.00  0.00     0.000 A 
ATOM      6  C6  BNZ d   1      -1.110   1.018  -1.024  0.00  0.00     0.000 A 
ENDROOT
TORSDOF 0
ENDMDL
