MODEL 1
REMARK minimizedAffinity -1.95583534
REMARK minimizedRMSD -1
REMARK  0 active torsions:
REMARK  status: ('A' for Active; 'I' for Inactive)
ROOT
ATOM      1  C1  BNZ d   1       0.012   0.721  -0.324  0.00  0.00     0.000 A 
ATOM      2  C2  BNZ d   1       1.224   0.112  -0.514  0.00  0.00     0.000 A 
ATOM      3  C3  BNZ d   1       1.686  -0.820   0.372  0.00  0.00     0.000 A 
ATOM      4  C4  BNZ d   1       0.955  -1.113   1.467  0.00  0.00     0.000 A 
ATOM      5  C5  BNZ d   1      -0.264  -0.501   1.678  0.00  0.00     0.000 A 
ATOM      6  C6  BNZ d   1      -0.744   0.408   0.763  0.00  0.00     0.000 A 
ENDROOT
TORSDOF 0
ENDMDL
