MODEL 1
REMARK minimizedAffinity 8.2053318
REMARK minimizedRMSD -1
REMARK  0 active torsions:
REMARK  status: ('A' for Active; 'I' for Inactive)
ROOT
ATOM      1  C1  BNZ d   1      -1.507   1.465   0.255  0.00  0.00     0.000 A 
ATOM      2  C2  BNZ d   1      -1.178   2.281  -0.794  0.00  0.00     0.000 A 
ATOM      3  C3  BNZ d   1      -1.978   2.356  -1.900  0.00  0.00     0.000 A 
ATOM      4  C4  BNZ d   1      -3.083   1.585  -1.973  0.00  0.00     0.000 A 
ATOM      5  C5  BNZ d   1      -3.422   0.750  -0.927  0.00  0.00     0.000 A 
ATOM      6  C6  BNZ d   1      -2.636   0.707   0.201  0.00  0.00     0.000 A 
ENDROOT
TORSDOF 0
ENDMDL
