MODEL 1
REMARK minimizedAffinity 8.64030361
REMARK minimizedRMSD -1
REMARK  3 active torsions:
REMARK  status: ('A' for Active; 'I' for Inactive)
REMARK    1  A    between atoms: C3'_2  and  C2'_3 
REMARK    2  A    between atoms: C2'_3  and  C1'_4 
REMARK    3  A    between atoms: C1'_4  and  C1_5 
ROOT
ATOM      1  C1  N4B d   1       1.100  -2.515  -0.182  0.00  0.00    -0.075 A 
ATOM      2  C2  N4B d   1       1.475  -1.714   0.919  0.00  0.00     0.002 A 
ATOM      3  C3  N4B d   1       2.071  -2.288   2.015  0.00  0.00     0.002 A 
ATOM      4  C4  N4B d   1       2.284  -3.658   2.041  0.00  0.00    -0.004 A 
ATOM      5  C5  N4B d   1       1.942  -4.421   0.963  0.00  0.00     0.002 A 
ATOM      6  C6  N4B d   1       1.346  -3.857  -0.147  0.00  0.00     0.002 A 
ENDROOT
BRANCH   1   7
ATOM      7  C1' N4B d   1       0.368  -1.946  -1.366  0.00  0.00     0.057 C 
BRANCH   7   8
ATOM      8  C2' N4B d   1      -1.124  -1.888  -1.052  0.00  0.00     0.009 C 
BRANCH   8   9
ATOM      9  C3' N4B d   1      -1.765  -0.612  -1.572  0.00  0.00     0.004 C 
ATOM     10  C4' N4B d   1      -2.361  -0.778  -2.938  0.00  0.00     0.003 C 
ENDBRANCH   8   9
ENDBRANCH   7   8
ENDBRANCH   1   7
TORSDOF 3
ENDMDL
