MODEL 1
REMARK minimizedAffinity 6.03819513
REMARK minimizedRMSD -1
REMARK  3 active torsions:
REMARK  status: ('A' for Active; 'I' for Inactive)
REMARK    1  A    between atoms: C3'_2  and  C2'_3 
REMARK    2  A    between atoms: C2'_3  and  C1'_4 
REMARK    3  A    between atoms: C1'_4  and  C1_5 
ROOT
ATOM      1  C1  N4B d   1       1.784  -1.538   2.234  0.00  0.00    -0.075 A 
ATOM      2  C2  N4B d   1       0.720  -0.774   1.705  0.00  0.00     0.002 A 
ATOM      3  C3  N4B d   1       0.139  -1.138   0.515  0.00  0.00     0.002 A 
ATOM      4  C4  N4B d   1       0.614  -2.246  -0.170  0.00  0.00    -0.004 A 
ATOM      5  C5  N4B d   1       1.625  -2.993   0.360  0.00  0.00     0.002 A 
ATOM      6  C6  N4B d   1       2.216  -2.641   1.557  0.00  0.00     0.002 A 
ENDROOT
BRANCH   1   7
ATOM      7  C1' N4B d   1       2.507  -1.130   3.488  0.00  0.00     0.057 C 
BRANCH   7   8
ATOM      8  C2' N4B d   1       1.787  -1.721   4.697  0.00  0.00     0.009 C 
BRANCH   8   9
ATOM      9  C3' N4B d   1       1.500  -3.202   4.519  0.00  0.00     0.004 C 
ATOM     10  C4' N4B d   1       1.142  -3.882   5.807  0.00  0.00     0.003 C 
ENDBRANCH   8   9
ENDBRANCH   7   8
ENDBRANCH   1   7
TORSDOF 3
ENDMDL
