MODEL 1
REMARK minimizedAffinity 12.9812593
REMARK minimizedRMSD -1
REMARK  3 active torsions:
REMARK  status: ('A' for Active; 'I' for Inactive)
REMARK    1  A    between atoms: C3'_2  and  C2'_3 
REMARK    2  A    between atoms: C2'_3  and  C1'_4 
REMARK    3  A    between atoms: C1'_4  and  C1_5 
ROOT
ATOM      1  C1  N4B d   1       2.926   0.620   1.842  0.00  0.00    -0.075 A 
ATOM      2  C2  N4B d   1       1.531   0.418   1.756  0.00  0.00     0.002 A 
ATOM      3  C3  N4B d   1       0.906  -0.443   2.625  0.00  0.00     0.002 A 
ATOM      4  C4  N4B d   1       1.656  -1.124   3.573  0.00  0.00    -0.004 A 
ATOM      5  C5  N4B d   1       2.999  -0.904   3.666  0.00  0.00     0.002 A 
ATOM      6  C6  N4B d   1       3.639  -0.039   2.802  0.00  0.00     0.002 A 
ENDROOT
BRANCH   1   7
ATOM      7  C1' N4B d   1       3.665   1.485   0.859  0.00  0.00     0.057 C 
BRANCH   7   8
ATOM      8  C2' N4B d   1       3.047   2.880   0.855  0.00  0.00     0.009 C 
BRANCH   8   9
ATOM      9  C3' N4B d   1       3.188   3.560  -0.496  0.00  0.00     0.004 C 
ATOM     10  C4' N4B d   1       2.009   4.421  -0.839  0.00  0.00     0.003 C 
ENDBRANCH   8   9
ENDBRANCH   7   8
ENDBRANCH   1   7
TORSDOF 3
ENDMDL
