MODEL 1
REMARK minimizedAffinity 12.4823599
REMARK minimizedRMSD -1
REMARK  3 active torsions:
REMARK  status: ('A' for Active; 'I' for Inactive)
REMARK    1  A    between atoms: C3'_2  and  C2'_3 
REMARK    2  A    between atoms: C2'_3  and  C1'_4 
REMARK    3  A    between atoms: C1'_4  and  C1_5 
ROOT
ATOM      1  C1  N4B d   1       2.581  -2.277   3.363  0.00  0.00    -0.075 A 
ATOM      2  C2  N4B d   1       3.895  -1.890   3.016  0.00  0.00     0.002 A 
ATOM      3  C3  N4B d   1       4.105  -0.736   2.302  0.00  0.00     0.002 A 
ATOM      4  C4  N4B d   1       3.021   0.033   1.908  0.00  0.00    -0.004 A 
ATOM      5  C5  N4B d   1       1.757  -0.334   2.268  0.00  0.00     0.002 A 
ATOM      6  C6  N4B d   1       1.532  -1.488   2.990  0.00  0.00     0.002 A 
ENDROOT
BRANCH   1   7
ATOM      7  C1' N4B d   1       2.295  -3.574   4.069  0.00  0.00     0.057 C 
BRANCH   7   8
ATOM      8  C2' N4B d   1       0.786  -3.789   4.128  0.00  0.00     0.009 C 
BRANCH   8   9
ATOM      9  C3' N4B d   1       0.431  -5.206   4.547  0.00  0.00     0.004 C 
ATOM     10  C4' N4B d   1       0.075  -5.310   6.000  0.00  0.00     0.003 C 
ENDBRANCH   8   9
ENDBRANCH   7   8
ENDBRANCH   1   7
TORSDOF 3
ENDMDL
