MODEL 1
REMARK minimizedAffinity 11.1287804
REMARK minimizedRMSD -1
REMARK  3 active torsions:
REMARK  status: ('A' for Active; 'I' for Inactive)
REMARK    1  A    between atoms: C3'_2  and  C2'_3 
REMARK    2  A    between atoms: C2'_3  and  C1'_4 
REMARK    3  A    between atoms: C1'_4  and  C1_5 
ROOT
ATOM      1  C1  N4B d   1       2.310  -1.964   3.296  0.00  0.00    -0.075 A 
ATOM      2  C2  N4B d   1       2.879  -1.617   2.051  0.00  0.00     0.002 A 
ATOM      3  C3  N4B d   1       2.846  -0.313   1.621  0.00  0.00     0.002 A 
ATOM      4  C4  N4B d   1       2.236   0.653   2.407  0.00  0.00    -0.004 A 
ATOM      5  C5  N4B d   1       1.710   0.314   3.619  0.00  0.00     0.002 A 
ATOM      6  C6  N4B d   1       1.740  -0.992   4.066  0.00  0.00     0.002 A 
ENDROOT
BRANCH   1   7
ATOM      7  C1' N4B d   1       2.245  -3.390   3.769  0.00  0.00     0.057 C 
BRANCH   7   8
ATOM      8  C2' N4B d   1       1.910  -3.409   5.258  0.00  0.00     0.009 C 
BRANCH   8   9
ATOM      9  C3' N4B d   1       1.888  -4.821   5.817  0.00  0.00     0.004 C 
ATOM     10  C4' N4B d   1       1.720  -5.865   4.754  0.00  0.00     0.003 C 
ENDBRANCH   8   9
ENDBRANCH   7   8
ENDBRANCH   1   7
TORSDOF 3
ENDMDL
