MODEL 1
REMARK minimizedAffinity 11.3859777
REMARK minimizedRMSD -1
REMARK  0 active torsions:
REMARK  status: ('A' for Active; 'I' for Inactive)
ROOT
ATOM      1  C   UNL d   1      -0.043   3.420  -0.972  0.00  0.00     0.077 C 
ATOM      2  C1  UNL d   1      -0.075   2.872   0.424  0.00  0.00    -0.074 A 
ATOM      3  C2  UNL d   1      -1.290   2.630   1.073  0.00  0.00    -0.005 A 
ATOM      4  C3  UNL d   1      -1.304   2.111   2.368  0.00  0.00     0.006 A 
ATOM      5  C4  UNL d   1      -0.106   1.830   3.025  0.00  0.00    -0.005 A 
ATOM      6  C5  UNL d   1       1.119   2.065   2.392  0.00  0.00    -0.074 A 
ATOM      7  C6  UNL d   1       2.416   1.759   3.081  0.00  0.00     0.077 C 
ATOM      8  C7  UNL d   1       1.125   2.580   1.088  0.00  0.00    -0.001 A 
ENDROOT
TORSDOF 0
ENDMDL
