MODEL 1
REMARK minimizedAffinity 12.7437048
REMARK minimizedRMSD -1
REMARK  0 active torsions:
REMARK  status: ('A' for Active; 'I' for Inactive)
ROOT
ATOM      1  C   UNL d   1      -2.870   5.240  -2.650  0.00  0.00     0.077 C 
ATOM      2  C1  UNL d   1      -1.556   4.893  -2.017  0.00  0.00    -0.074 A 
ATOM      3  C2  UNL d   1      -0.457   5.751  -2.125  0.00  0.00    -0.005 A 
ATOM      4  C3  UNL d   1       0.756   5.419  -1.522  0.00  0.00     0.006 A 
ATOM      5  C4  UNL d   1       0.883   4.228  -0.807  0.00  0.00    -0.005 A 
ATOM      6  C5  UNL d   1      -0.206   3.358  -0.687  0.00  0.00    -0.074 A 
ATOM      7  C6  UNL d   1      -0.090   2.078   0.086  0.00  0.00     0.077 C 
ATOM      8  C7  UNL d   1      -1.423   3.702  -1.290  0.00  0.00    -0.001 A 
ENDROOT
TORSDOF 0
ENDMDL
