MODEL 1
REMARK minimizedAffinity 13.6485062
REMARK minimizedRMSD -1
REMARK  0 active torsions:
REMARK  status: ('A' for Active; 'I' for Inactive)
ROOT
ATOM      1  C   UNL d   1      -1.641   1.546   2.825  0.00  0.00     0.077 C 
ATOM      2  C1  UNL d   1      -0.997   1.736   1.484  0.00  0.00    -0.074 A 
ATOM      3  C2  UNL d   1       0.334   1.363   1.267  0.00  0.00    -0.005 A 
ATOM      4  C3  UNL d   1       0.917   1.537   0.012  0.00  0.00     0.006 A 
ATOM      5  C4  UNL d   1       0.176   2.084  -1.037  0.00  0.00    -0.005 A 
ATOM      6  C5  UNL d   1      -1.156   2.461  -0.839  0.00  0.00    -0.074 A 
ATOM      7  C6  UNL d   1      -1.968   3.041  -1.958  0.00  0.00     0.077 C 
ATOM      8  C7  UNL d   1      -1.736   2.277   0.423  0.00  0.00    -0.001 A 
ENDROOT
TORSDOF 0
ENDMDL
