MODEL 1
REMARK minimizedAffinity 12.9635544
REMARK minimizedRMSD -1
REMARK  0 active torsions:
REMARK  status: ('A' for Active; 'I' for Inactive)
ROOT
ATOM      1  C   UNL d   1      -1.355   5.106  -2.087  0.00  0.00     0.077 C 
ATOM      2  C1  UNL d   1      -2.515   5.261  -1.149  0.00  0.00    -0.074 A 
ATOM      3  C2  UNL d   1      -3.830   5.108  -1.600  0.00  0.00    -0.005 A 
ATOM      4  C3  UNL d   1      -4.898   5.246  -0.714  0.00  0.00     0.006 A 
ATOM      5  C4  UNL d   1      -4.663   5.538   0.630  0.00  0.00    -0.005 A 
ATOM      6  C5  UNL d   1      -3.355   5.694   1.100  0.00  0.00    -0.074 A 
ATOM      7  C6  UNL d   1      -3.085   5.999   2.543  0.00  0.00     0.077 C 
ATOM      8  C7  UNL d   1      -2.287   5.547   0.205  0.00  0.00    -0.001 A 
ENDROOT
TORSDOF 0
ENDMDL
