MODEL 1
REMARK minimizedAffinity 11.0842915
REMARK minimizedRMSD -1
REMARK  0 active torsions:
REMARK  status: ('A' for Active; 'I' for Inactive)
ROOT
ATOM      1  C   UNL d   1      -4.494  -1.796  -5.905  0.00  0.00     0.077 C 
ATOM      2  C1  UNL d   1      -4.208  -3.262  -5.766  0.00  0.00    -0.074 A 
ATOM      3  C2  UNL d   1      -5.206  -4.214  -5.997  0.00  0.00    -0.005 A 
ATOM      4  C3  UNL d   1      -4.923  -5.574  -5.873  0.00  0.00     0.006 A 
ATOM      5  C4  UNL d   1      -3.641  -5.996  -5.519  0.00  0.00    -0.005 A 
ATOM      6  C5  UNL d   1      -2.630  -5.058  -5.286  0.00  0.00    -0.074 A 
ATOM      7  C6  UNL d   1      -1.244  -5.494  -4.914  0.00  0.00     0.077 C 
ATOM      8  C7  UNL d   1      -2.920  -3.693  -5.418  0.00  0.00    -0.001 A 
ENDROOT
TORSDOF 0
ENDMDL
