MODEL 1
REMARK minimizedAffinity 7.31605434
REMARK minimizedRMSD -1
REMARK  0 active torsions:
REMARK  status: ('A' for Active; 'I' for Inactive)
ROOT
ATOM      1  C   UNL d   1       5.399  -5.714  -0.610  0.00  0.00     0.077 C 
ATOM      2  C1  UNL d   1       4.345  -4.653  -0.721  0.00  0.00    -0.074 A 
ATOM      3  C2  UNL d   1       4.688  -3.297  -0.746  0.00  0.00    -0.005 A 
ATOM      4  C3  UNL d   1       3.697  -2.322  -0.859  0.00  0.00     0.006 A 
ATOM      5  C4  UNL d   1       2.355  -2.692  -0.948  0.00  0.00    -0.005 A 
ATOM      6  C5  UNL d   1       1.992  -4.042  -0.925  0.00  0.00    -0.074 A 
ATOM      7  C6  UNL d   1       0.555  -4.457  -1.030  0.00  0.00     0.077 C 
ATOM      8  C7  UNL d   1       2.994  -5.017  -0.819  0.00  0.00    -0.001 A 
ENDROOT
TORSDOF 0
ENDMDL
