MODEL 1
REMARK minimizedAffinity 11.7867327
REMARK minimizedRMSD -1
REMARK  0 active torsions:
REMARK  status: ('A' for Active; 'I' for Inactive)
ROOT
ATOM      1  C   UNL d   1      -1.288   2.205   0.054  0.00  0.00     0.077 C 
ATOM      2  C1  UNL d   1       0.179   2.490   0.183  0.00  0.00    -0.074 A 
ATOM      3  C2  UNL d   1       0.889   3.090  -0.862  0.00  0.00    -0.005 A 
ATOM      4  C3  UNL d   1       2.251   3.358  -0.725  0.00  0.00     0.006 A 
ATOM      5  C4  UNL d   1       2.916   3.028   0.457  0.00  0.00    -0.005 A 
ATOM      6  C5  UNL d   1       2.222   2.428   1.513  0.00  0.00    -0.074 A 
ATOM      7  C6  UNL d   1       2.920   2.077   2.794  0.00  0.00     0.077 C 
ATOM      8  C7  UNL d   1       0.852   2.169   1.370  0.00  0.00    -0.001 A 
ENDROOT
TORSDOF 0
ENDMDL
