MODEL 1
REMARK minimizedAffinity 6.43786335
REMARK minimizedRMSD -1
REMARK  0 active torsions:
REMARK  status: ('A' for Active; 'I' for Inactive)
ROOT
ATOM      1  C   UNL d   1      -3.557   0.303  -1.438  0.00  0.00     0.077 C 
ATOM      2  C1  UNL d   1      -4.229   0.731  -0.168  0.00  0.00    -0.074 A 
ATOM      3  C2  UNL d   1      -4.393   2.086   0.137  0.00  0.00    -0.005 A 
ATOM      4  C3  UNL d   1      -5.029   2.470   1.317  0.00  0.00     0.006 A 
ATOM      5  C4  UNL d   1      -5.506   1.504   2.204  0.00  0.00    -0.005 A 
ATOM      6  C5  UNL d   1      -5.352   0.144   1.916  0.00  0.00    -0.074 A 
ATOM      7  C6  UNL d   1      -5.869  -0.907   2.853  0.00  0.00     0.077 C 
ATOM      8  C7  UNL d   1      -4.719  -0.233   0.724  0.00  0.00    -0.001 A 
ENDROOT
TORSDOF 0
ENDMDL
