MODEL 1
REMARK minimizedAffinity 9.78582478
REMARK minimizedRMSD -1
REMARK  0 active torsions:
REMARK  status: ('A' for Active; 'I' for Inactive)
ROOT
ATOM      1  C   UNL d   1       1.117  -4.994  -0.939  0.00  0.00     0.077 C 
ATOM      2  C1  UNL d   1       1.215  -4.785  -2.421  0.00  0.00    -0.074 A 
ATOM      3  C2  UNL d   1       0.183  -4.159  -3.128  0.00  0.00    -0.005 A 
ATOM      4  C3  UNL d   1       0.293  -3.963  -4.505  0.00  0.00     0.006 A 
ATOM      5  C4  UNL d   1       1.433  -4.390  -5.187  0.00  0.00    -0.005 A 
ATOM      6  C5  UNL d   1       2.475  -5.017  -4.497  0.00  0.00    -0.074 A 
ATOM      7  C6  UNL d   1       3.711  -5.472  -5.213  0.00  0.00     0.077 C 
ATOM      8  C7  UNL d   1       2.360  -5.204  -3.112  0.00  0.00    -0.001 A 
ENDROOT
TORSDOF 0
ENDMDL
