MODEL 1
REMARK minimizedAffinity 2.32063293
REMARK minimizedRMSD -1
REMARK  2 active torsions:
REMARK  status: ('A' for Active; 'I' for Inactive)
REMARK    1  A    between atoms: C2'_3  and  C1'_4 
REMARK    2  A    between atoms: C1'_4  and  C1_5 
ROOT
ATOM      1  C1  I4B d   1      -4.164  -0.926  -3.509  0.00  0.00    -0.075 A 
ATOM      2  C2  I4B d   1      -5.374  -0.343  -3.793  0.00  0.00     0.003 A 
ATOM      3  C3  I4B d   1      -5.569   0.331  -5.023  0.00  0.00     0.002 A 
ATOM      4  C4  I4B d   1      -4.518   0.442  -5.911  0.00  0.00    -0.004 A 
ATOM      5  C5  I4B d   1      -3.300  -0.169  -5.631  0.00  0.00     0.002 A 
ATOM      6  C6  I4B d   1      -3.125  -0.868  -4.428  0.00  0.00     0.003 A 
ENDROOT
BRANCH   1   7
ATOM      7  C1' I4B d   1      -3.983  -1.601  -2.186  0.00  0.00     0.060 C 
BRANCH   7   8
ATOM      8  C2' I4B d   1      -3.278  -0.632  -1.259  0.00  0.00    -0.013 C 
ATOM      9  C4' I4B d   1      -4.003   0.687  -1.197  0.00  0.00     0.013 C 
ATOM     10  C3' I4B d   1      -3.193  -1.267   0.096  0.00  0.00     0.013 C 
ENDBRANCH   7   8
ENDBRANCH   1   7
TORSDOF 2
ENDMDL
