MODEL 1
REMARK minimizedAffinity 6.25989914
REMARK minimizedRMSD -1
REMARK  2 active torsions:
REMARK  status: ('A' for Active; 'I' for Inactive)
REMARK    1  A    between atoms: C2'_3  and  C1'_4 
REMARK    2  A    between atoms: C1'_4  and  C1_5 
ROOT
ATOM      1  C1  I4B d   1       1.796  -1.334   0.802  0.00  0.00    -0.075 A 
ATOM      2  C2  I4B d   1       0.886  -1.222   1.824  0.00  0.00     0.003 A 
ATOM      3  C3  I4B d   1       0.691  -2.296   2.726  0.00  0.00     0.002 A 
ATOM      4  C4  I4B d   1       1.387  -3.473   2.541  0.00  0.00    -0.004 A 
ATOM      5  C5  I4B d   1       2.326  -3.576   1.519  0.00  0.00     0.002 A 
ATOM      6  C6  I4B d   1       2.542  -2.496   0.651  0.00  0.00     0.003 A 
ENDROOT
BRANCH   1   7
ATOM      7  C1' I4B d   1       1.953  -0.192  -0.152  0.00  0.00     0.060 C 
BRANCH   7   8
ATOM      8  C2' I4B d   1       2.783   0.876   0.530  0.00  0.00    -0.013 C 
ATOM      9  C4' I4B d   1       3.714   1.548  -0.444  0.00  0.00     0.013 C 
ATOM     10  C3' I4B d   1       1.843   1.866   1.152  0.00  0.00     0.013 C 
ENDBRANCH   7   8
ENDBRANCH   1   7
TORSDOF 2
ENDMDL
