MODEL 1
REMARK minimizedAffinity -0.569929898
REMARK minimizedRMSD -1
REMARK  2 active torsions:
REMARK  status: ('A' for Active; 'I' for Inactive)
REMARK    1  A    between atoms: C2'_3  and  C1'_4 
REMARK    2  A    between atoms: C1'_4  and  C1_5 
ROOT
ATOM      1  C1  I4B d   1      -3.369   0.741  -4.462  0.00  0.00    -0.075 A 
ATOM      2  C2  I4B d   1      -2.749  -0.410  -4.044  0.00  0.00     0.003 A 
ATOM      3  C3  I4B d   1      -3.501  -1.595  -3.854  0.00  0.00     0.002 A 
ATOM      4  C4  I4B d   1      -4.868  -1.570  -4.043  0.00  0.00    -0.004 A 
ATOM      5  C5  I4B d   1      -5.491  -0.408  -4.488  0.00  0.00     0.002 A 
ATOM      6  C6  I4B d   1      -4.735   0.752  -4.711  0.00  0.00     0.003 A 
ENDROOT
BRANCH   1   7
ATOM      7  C1' I4B d   1      -2.550   1.983  -4.621  0.00  0.00     0.060 C 
BRANCH   7   8
ATOM      8  C2' I4B d   1      -2.526   2.701  -3.287  0.00  0.00    -0.013 C 
ATOM      9  C4' I4B d   1      -3.435   3.901  -3.297  0.00  0.00     0.013 C 
ATOM     10  C3' I4B d   1      -2.934   1.721  -2.227  0.00  0.00     0.013 C 
ENDBRANCH   7   8
ENDBRANCH   1   7
TORSDOF 2
ENDMDL
