MODEL 1
REMARK minimizedAffinity 3.63822842
REMARK minimizedRMSD -1
REMARK  2 active torsions:
REMARK  status: ('A' for Active; 'I' for Inactive)
REMARK    1  A    between atoms: C2'_3  and  C1'_4 
REMARK    2  A    between atoms: C1'_4  and  C1_5 
ROOT
ATOM      1  C1  I4B d   1       4.142  -4.161   2.822  0.00  0.00    -0.075 A 
ATOM      2  C2  I4B d   1       5.070  -5.125   2.521  0.00  0.00     0.003 A 
ATOM      3  C3  I4B d   1       5.168  -5.633   1.203  0.00  0.00     0.002 A 
ATOM      4  C4  I4B d   1       4.290  -5.188   0.236  0.00  0.00    -0.004 A 
ATOM      5  C5  I4B d   1       3.364  -4.193   0.538  0.00  0.00     0.002 A 
ATOM      6  C6  I4B d   1       3.297  -3.667   1.836  0.00  0.00     0.003 A 
ENDROOT
BRANCH   1   7
ATOM      7  C1' I4B d   1       4.044  -3.670   4.232  0.00  0.00     0.060 C 
BRANCH   7   8
ATOM      8  C2' I4B d   1       5.233  -4.212   4.998  0.00  0.00    -0.013 C 
ATOM      9  C4' I4B d   1       5.996  -3.104   5.675  0.00  0.00     0.013 C 
ATOM     10  C3' I4B d   1       4.726  -5.209   5.997  0.00  0.00     0.013 C 
ENDBRANCH   7   8
ENDBRANCH   1   7
TORSDOF 2
ENDMDL
