MODEL 1
REMARK minimizedAffinity -5.57952261
REMARK minimizedRMSD -1
REMARK  1 active torsions:
REMARK  status: ('A' for Active; 'I' for Inactive)
REMARK    1  A    between atoms: C1_2  and  C2_3 
ROOT
ATOM      1  C2  UNL d   1      -0.675  -0.300  -0.434  0.00  0.00    -0.073 A 
ATOM      2  C3  UNL d   1      -1.925  -0.067  -1.018  0.00  0.00    -0.002 A 
ATOM      3  C4  UNL d   1      -3.037  -0.811  -0.625  0.00  0.00     0.004 A 
ATOM      4  C5  UNL d   1      -2.914  -1.791   0.361  0.00  0.00    -0.004 A 
ATOM      5  C6  UNL d   1      -1.675  -2.031   0.965  0.00  0.00    -0.075 A 
ATOM      6  C7  UNL d   1      -1.525  -3.082   2.025  0.00  0.00     0.076 C 
ATOM      7  C8  UNL d   1      -0.562  -1.281   0.563  0.00  0.00     0.001 A 
ENDROOT
BRANCH   1   8
ATOM      8  C1  UNL d   1       0.528   0.506  -0.851  0.00  0.00     0.053 C 
ATOM      9  C   UNL d   1       1.643   0.442   0.181  0.00  0.00     0.018 C 
ENDBRANCH   1   8
TORSDOF 1
ENDMDL
