MODEL 1
REMARK minimizedAffinity -2.80260754
REMARK minimizedRMSD -1
REMARK  1 active torsions:
REMARK  status: ('A' for Active; 'I' for Inactive)
REMARK    1  A    between atoms: C1_2  and  C2_3 
ROOT
ATOM      1  C2  UNL d   1       0.524   0.189   0.521  0.00  0.00    -0.073 A 
ATOM      2  C3  UNL d   1       0.829  -0.792   1.471  0.00  0.00    -0.002 A 
ATOM      3  C4  UNL d   1      -0.162  -1.661   1.930  0.00  0.00     0.004 A 
ATOM      4  C5  UNL d   1      -1.464  -1.563   1.439  0.00  0.00    -0.004 A 
ATOM      5  C6  UNL d   1      -1.785  -0.597   0.480  0.00  0.00    -0.075 A 
ATOM      6  C7  UNL d   1      -3.181  -0.477  -0.056  0.00  0.00     0.076 C 
ATOM      7  C8  UNL d   1      -0.785   0.274   0.026  0.00  0.00     0.001 A 
ENDROOT
BRANCH   1   8
ATOM      8  C1  UNL d   1       1.593   1.125   0.017  0.00  0.00     0.053 C 
ATOM      9  C   UNL d   1       2.185   1.968   1.136  0.00  0.00     0.018 C 
ENDBRANCH   1   8
TORSDOF 1
ENDMDL
