MODEL 1
REMARK minimizedAffinity -3.02586746
REMARK minimizedRMSD -1
REMARK  1 active torsions:
REMARK  status: ('A' for Active; 'I' for Inactive)
REMARK    1  A    between atoms: C1_2  and  C2_3 
ROOT
ATOM      1  C2  UNL d   1       0.121  -0.125   0.567  0.00  0.00    -0.073 A 
ATOM      2  C3  UNL d   1       0.491   0.312  -0.710  0.00  0.00    -0.002 A 
ATOM      3  C4  UNL d   1      -0.449   0.353  -1.741  0.00  0.00     0.004 A 
ATOM      4  C5  UNL d   1      -1.768  -0.035  -1.505  0.00  0.00    -0.004 A 
ATOM      5  C6  UNL d   1      -2.160  -0.463  -0.232  0.00  0.00    -0.075 A 
ATOM      6  C7  UNL d   1      -3.574  -0.886   0.038  0.00  0.00     0.076 C 
ATOM      7  C8  UNL d   1      -1.210  -0.505   0.797  0.00  0.00     0.001 A 
ENDROOT
BRANCH   1   8
ATOM      8  C1  UNL d   1       1.130  -0.165   1.685  0.00  0.00     0.053 C 
ATOM      9  C   UNL d   1       1.676   1.216   2.010  0.00  0.00     0.018 C 
ENDBRANCH   1   8
TORSDOF 1
ENDMDL
