MODEL 1
REMARK minimizedAffinity -5.8255291
REMARK minimizedRMSD -1
REMARK  1 active torsions:
REMARK  status: ('A' for Active; 'I' for Inactive)
REMARK    1  A    between atoms: C1_2  and  C2_3 
ROOT
ATOM      1  C2  UNL d   1      -0.698  -0.478  -0.257  0.00  0.00    -0.073 A 
ATOM      2  C3  UNL d   1      -1.933  -0.313  -0.894  0.00  0.00    -0.002 A 
ATOM      3  C4  UNL d   1      -3.067  -0.973  -0.417  0.00  0.00     0.004 A 
ATOM      4  C5  UNL d   1      -2.979  -1.798   0.704  0.00  0.00    -0.004 A 
ATOM      5  C6  UNL d   1      -1.756  -1.967   1.361  0.00  0.00    -0.075 A 
ATOM      6  C7  UNL d   1      -1.644  -2.853   2.567  0.00  0.00     0.076 C 
ATOM      7  C8  UNL d   1      -0.622  -1.303   0.875  0.00  0.00     0.001 A 
ENDROOT
BRANCH   1   8
ATOM      8  C1  UNL d   1       0.527   0.237  -0.764  0.00  0.00     0.053 C 
ATOM      9  C   UNL d   1       1.513   0.541   0.353  0.00  0.00     0.018 C 
ENDBRANCH   1   8
TORSDOF 1
ENDMDL
