MODEL 1
REMARK minimizedAffinity -4.94799185
REMARK minimizedRMSD -1
REMARK  1 active torsions:
REMARK  status: ('A' for Active; 'I' for Inactive)
REMARK    1  A    between atoms: C1_2  and  C2_3 
ROOT
ATOM      1  C2  UNL d   1      -1.060  -0.498  -0.448  0.00  0.00    -0.073 A 
ATOM      2  C3  UNL d   1      -2.331  -0.739  -0.984  0.00  0.00    -0.002 A 
ATOM      3  C4  UNL d   1      -3.186  -1.663  -0.381  0.00  0.00     0.004 A 
ATOM      4  C5  UNL d   1      -2.783  -2.348   0.765  0.00  0.00    -0.004 A 
ATOM      5  C6  UNL d   1      -1.522  -2.112   1.322  0.00  0.00    -0.075 A 
ATOM      6  C7  UNL d   1      -1.074  -2.843   2.553  0.00  0.00     0.076 C 
ATOM      7  C8  UNL d   1      -0.668  -1.185   0.709  0.00  0.00     0.001 A 
ENDROOT
BRANCH   1   8
ATOM      8  C1  UNL d   1      -0.136   0.504  -1.091  0.00  0.00     0.053 C 
ATOM      9  C   UNL d   1       1.172   0.644  -0.329  0.00  0.00     0.018 C 
ENDBRANCH   1   8
TORSDOF 1
ENDMDL
