MODEL 1
REMARK minimizedAffinity -5.30473995
REMARK minimizedRMSD -1
REMARK  1 active torsions:
REMARK  status: ('A' for Active; 'I' for Inactive)
REMARK    1  A    between atoms: C1_2  and  C2_3 
ROOT
ATOM      1  C2  UNL d   1      -0.980  -0.449  -0.242  0.00  0.00    -0.073 A 
ATOM      2  C3  UNL d   1      -2.259  -0.480  -0.810  0.00  0.00    -0.002 A 
ATOM      3  C4  UNL d   1      -3.284  -1.203  -0.199  0.00  0.00     0.004 A 
ATOM      4  C5  UNL d   1      -3.044  -1.896   0.988  0.00  0.00    -0.004 A 
ATOM      5  C6  UNL d   1      -1.776  -1.868   1.577  0.00  0.00    -0.075 A 
ATOM      6  C7  UNL d   1      -1.501  -2.610   2.851  0.00  0.00     0.076 C 
ATOM      7  C8  UNL d   1      -0.751  -1.141   0.956  0.00  0.00     0.001 A 
ENDROOT
BRANCH   1   8
ATOM      8  C1  UNL d   1       0.128   0.336  -0.894  0.00  0.00     0.053 C 
ATOM      9  C   UNL d   1       1.473   0.082  -0.232  0.00  0.00     0.018 C 
ENDBRANCH   1   8
TORSDOF 1
ENDMDL
