MODEL 1
REMARK minimizedAffinity -4.67105818
REMARK minimizedRMSD -1
REMARK  1 active torsions:
REMARK  status: ('A' for Active; 'I' for Inactive)
REMARK    1  A    between atoms: C1_2  and  C2_3 
ROOT
ATOM      1  C2  UNL d   1      -0.763  -0.260  -0.118  0.00  0.00    -0.073 A 
ATOM      2  C3  UNL d   1      -1.882  -0.128  -0.947  0.00  0.00    -0.002 A 
ATOM      3  C4  UNL d   1      -3.010  -0.924  -0.741  0.00  0.00     0.004 A 
ATOM      4  C5  UNL d   1      -3.032  -1.854   0.297  0.00  0.00    -0.004 A 
ATOM      5  C6  UNL d   1      -1.927  -1.993   1.144  0.00  0.00    -0.075 A 
ATOM      6  C7  UNL d   1      -1.935  -2.991   2.265  0.00  0.00     0.076 C 
ATOM      7  C8  UNL d   1      -0.798  -1.192   0.929  0.00  0.00     0.001 A 
ENDROOT
BRANCH   1   8
ATOM      8  C1  UNL d   1       0.454   0.602  -0.332  0.00  0.00     0.053 C 
ATOM      9  C   UNL d   1       1.708  -0.024   0.258  0.00  0.00     0.018 C 
ENDBRANCH   1   8
TORSDOF 1
ENDMDL
