MODEL 1
REMARK minimizedAffinity -4.19967461
REMARK minimizedRMSD -1
REMARK  1 active torsions:
REMARK  status: ('A' for Active; 'I' for Inactive)
REMARK    1  A    between atoms: C1_2  and  C2_3 
ROOT
ATOM      1  C2  UNL d   1      -0.127  -0.271  -0.382  0.00  0.00    -0.073 A 
ATOM      2  C3  UNL d   1      -1.249  -0.051  -1.189  0.00  0.00    -0.002 A 
ATOM      3  C4  UNL d   1      -2.432  -0.755  -0.958  0.00  0.00     0.004 A 
ATOM      4  C5  UNL d   1      -2.507  -1.678   0.085  0.00  0.00    -0.004 A 
ATOM      5  C6  UNL d   1      -1.400  -1.902   0.909  0.00  0.00    -0.075 A 
ATOM      6  C7  UNL d   1      -1.464  -2.894   2.034  0.00  0.00     0.076 C 
ATOM      7  C8  UNL d   1      -0.215  -1.194   0.669  0.00  0.00     0.001 A 
ENDROOT
BRANCH   1   8
ATOM      8  C1  UNL d   1       1.151   0.491  -0.624  0.00  0.00     0.053 C 
ATOM      9  C   UNL d   1       1.660   1.165   0.640  0.00  0.00     0.018 C 
ENDBRANCH   1   8
TORSDOF 1
ENDMDL
