MODEL 1
REMARK minimizedAffinity -4.31424093
REMARK minimizedRMSD -1
REMARK  1 active torsions:
REMARK  status: ('A' for Active; 'I' for Inactive)
REMARK    1  A    between atoms: C1_2  and  C2_3 
ROOT
ATOM      1  C2  UNL d   1      -0.245  -0.707   0.378  0.00  0.00    -0.073 A 
ATOM      2  C3  UNL d   1      -0.065  -1.603   1.438  0.00  0.00    -0.002 A 
ATOM      3  C4  UNL d   1      -1.122  -2.407   1.868  0.00  0.00     0.004 A 
ATOM      4  C5  UNL d   1      -2.365  -2.329   1.240  0.00  0.00    -0.004 A 
ATOM      5  C6  UNL d   1      -2.561  -1.448   0.171  0.00  0.00    -0.075 A 
ATOM      6  C7  UNL d   1      -3.892  -1.350  -0.514  0.00  0.00     0.076 C 
ATOM      7  C8  UNL d   1      -1.496  -0.642  -0.253  0.00  0.00     0.001 A 
ENDROOT
BRANCH   1   8
ATOM      8  C1  UNL d   1       0.894   0.158  -0.094  0.00  0.00     0.053 C 
ATOM      9  C   UNL d   1       2.216  -0.242   0.542  0.00  0.00     0.018 C 
ENDBRANCH   1   8
TORSDOF 1
ENDMDL
