MODEL 1
REMARK minimizedAffinity 3.19158745
REMARK minimizedRMSD -1
REMARK  1 active torsions:
REMARK  status: ('A' for Active; 'I' for Inactive)
REMARK    1  A    between atoms: C1_2  and  C2_3 
ROOT
ATOM      1  C2  UNL d   1      -2.122  -1.490  -0.422  0.00  0.00    -0.077 A 
ATOM      2  C3  UNL d   1      -2.485  -0.336   0.288  0.00  0.00     0.002 A 
ATOM      3  C4  UNL d   1      -2.695  -0.393   1.668  0.00  0.00     0.002 A 
ATOM      4  C5  UNL d   1      -2.540  -1.599   2.349  0.00  0.00    -0.004 A 
ATOM      5  C6  UNL d   1      -2.182  -2.752   1.651  0.00  0.00     0.002 A 
ATOM      6  C7  UNL d   1      -1.973  -2.697   0.272  0.00  0.00     0.002 A 
ENDROOT
BRANCH   1   7
ATOM      7  C1  UNL d   1      -1.848  -1.420  -1.901  0.00  0.00     0.055 C 
ATOM      8  C   UNL d   1      -1.822  -2.808  -2.525  0.00  0.00     0.019 C 
ENDBRANCH   1   7
TORSDOF 1
ENDMDL
