MODEL 1
REMARK minimizedAffinity 3.38297153
REMARK minimizedRMSD -1
REMARK  1 active torsions:
REMARK  status: ('A' for Active; 'I' for Inactive)
REMARK    1  A    between atoms: C1_2  and  C2_3 
ROOT
ATOM      1  C2  UNL d   1       0.542   0.206   5.342  0.00  0.00    -0.077 A 
ATOM      2  C3  UNL d   1      -0.858   0.124   5.358  0.00  0.00     0.002 A 
ATOM      3  C4  UNL d   1      -1.491  -1.077   5.683  0.00  0.00     0.002 A 
ATOM      4  C5  UNL d   1      -0.733  -2.203   5.997  0.00  0.00    -0.004 A 
ATOM      5  C6  UNL d   1       0.659  -2.132   5.982  0.00  0.00     0.002 A 
ATOM      6  C7  UNL d   1       1.294  -0.933   5.657  0.00  0.00     0.002 A 
ENDROOT
BRANCH   1   7
ATOM      7  C1  UNL d   1       1.226   1.514   5.040  0.00  0.00     0.055 C 
ATOM      8  C   UNL d   1       0.356   2.406   4.167  0.00  0.00     0.019 C 
ENDBRANCH   1   7
TORSDOF 1
ENDMDL
