MODEL 1
REMARK minimizedAffinity -2.16070676
REMARK minimizedRMSD -1
REMARK  0 active torsions:
REMARK  status: ('A' for Active; 'I' for Inactive)
ROOT
ATOM      1  C1  BNZ d   1       0.731   1.787  -2.092  0.00  0.00     0.000 A 
ATOM      2  C2  BNZ d   1       0.798   3.075  -2.553  0.00  0.00     0.000 A 
ATOM      3  C3  BNZ d   1      -0.337   3.813  -2.736  0.00  0.00     0.000 A 
ATOM      4  C4  BNZ d   1      -1.540   3.250  -2.497  0.00  0.00     0.000 A 
ATOM      5  C5  BNZ d   1      -1.624   1.950  -2.041  0.00  0.00     0.000 A 
ATOM      6  C6  BNZ d   1      -0.477   1.223  -1.820  0.00  0.00     0.000 A 
ENDROOT
TORSDOF 0
ENDMDL
