MODEL 1
REMARK minimizedAffinity -2.08212304
REMARK minimizedRMSD -1
REMARK  0 active torsions:
REMARK  status: ('A' for Active; 'I' for Inactive)
ROOT
ATOM      1  C1  BNZ d   1       0.255  -0.390  -0.706  0.00  0.00     0.000 A 
ATOM      2  C2  BNZ d   1      -0.781   0.297  -0.132  0.00  0.00     0.000 A 
ATOM      3  C3  BNZ d   1      -1.015   0.217   1.213  0.00  0.00     0.000 A 
ATOM      4  C4  BNZ d   1      -0.239  -0.581   1.974  0.00  0.00     0.000 A 
ATOM      5  C5  BNZ d   1       0.804  -1.288   1.409  0.00  0.00     0.000 A 
ATOM      6  C6  BNZ d   1       1.060  -1.174   0.062  0.00  0.00     0.000 A 
ENDROOT
TORSDOF 0
ENDMDL
