MODEL 1
REMARK minimizedAffinity -0.770694256
REMARK minimizedRMSD -1
REMARK  0 active torsions:
REMARK  status: ('A' for Active; 'I' for Inactive)
ROOT
ATOM      1  C1  BNZ d   1       0.335   0.018   1.055  0.00  0.00     0.000 A 
ATOM      2  C2  BNZ d   1       0.745   0.381  -0.200  0.00  0.00     0.000 A 
ATOM      3  C3  BNZ d   1      -0.093   0.258  -1.273  0.00  0.00     0.000 A 
ATOM      4  C4  BNZ d   1      -1.324  -0.264  -1.096  0.00  0.00     0.000 A 
ATOM      5  C5  BNZ d   1      -1.748  -0.643   0.162  0.00  0.00     0.000 A 
ATOM      6  C6  BNZ d   1      -0.916  -0.482   1.245  0.00  0.00     0.000 A 
ENDROOT
TORSDOF 0
ENDMDL
