MODEL 1
REMARK minimizedAffinity 0.72163254
REMARK minimizedRMSD -1
REMARK  0 active torsions:
REMARK  status: ('A' for Active; 'I' for Inactive)
ROOT
ATOM      1  C1  BNZ d   1      -0.910  -0.810   1.970  0.00  0.00     0.000 A 
ATOM      2  C2  BNZ d   1      -1.113  -1.238   0.685  0.00  0.00     0.000 A 
ATOM      3  C3  BNZ d   1      -1.434  -0.352  -0.305  0.00  0.00     0.000 A 
ATOM      4  C4  BNZ d   1      -1.591   0.953  -0.003  0.00  0.00     0.000 A 
ATOM      5  C5  BNZ d   1      -1.399   1.398   1.290  0.00  0.00     0.000 A 
ATOM      6  C6  BNZ d   1      -1.038   0.510   2.277  0.00  0.00     0.000 A 
ENDROOT
TORSDOF 0
ENDMDL
