MODEL 1
REMARK minimizedAffinity -5.19754457
REMARK minimizedRMSD -1
REMARK  0 active torsions:
REMARK  status: ('A' for Active; 'I' for Inactive)
ROOT
ATOM      1  C1  BNZ d   1       2.673  -1.412   2.913  0.00  0.00     0.000 A 
ATOM      2  C2  BNZ d   1       1.640  -0.696   3.457  0.00  0.00     0.000 A 
ATOM      3  C3  BNZ d   1       0.581  -0.301   2.688  0.00  0.00     0.000 A 
ATOM      4  C4  BNZ d   1       0.576  -0.587   1.370  0.00  0.00     0.000 A 
ATOM      5  C5  BNZ d   1       1.615  -1.299   0.805  0.00  0.00     0.000 A 
ATOM      6  C6  BNZ d   1       2.660  -1.729   1.589  0.00  0.00     0.000 A 
ENDROOT
TORSDOF 0
ENDMDL
