MODEL 1
REMARK minimizedAffinity 11.262392
REMARK minimizedRMSD -1
REMARK  0 active torsions:
REMARK  status: ('A' for Active; 'I' for Inactive)
ROOT
ATOM      1  C   UNL d   1       5.242   5.999   3.048  0.00  0.00     0.020 A 
ATOM      2  C1  UNL d   1       6.000   5.601   4.149  0.00  0.00     0.020 A 
ATOM      3  C2  UNL d   1       5.999   4.264   4.551  0.00  0.00     0.034 A 
ATOM      4  C3  UNL d   1       5.238   3.319   3.852  0.00  0.00     0.017 A 
ATOM      5  C4  UNL d   1       4.478   3.719   2.747  0.00  0.00     0.017 A 
ATOM      6  C5  UNL d   1       4.483   5.060   2.348  0.00  0.00     0.034 A 
ATOM      7 Cl   UNL d   1       3.514   2.612   1.834  0.00  0.00    -0.070 Cl
ATOM      8 Cl1  UNL d   1       5.284   1.683   4.404  0.00  0.00    -0.070 Cl
ENDROOT
TORSDOF 0
ENDMDL
