MODEL 1
REMARK minimizedAffinity 9.16651249
REMARK minimizedRMSD -1
REMARK  0 active torsions:
REMARK  status: ('A' for Active; 'I' for Inactive)
ROOT
ATOM      1  C   UNL d   1       1.033  -0.715   2.304  0.00  0.00     0.020 A 
ATOM      2  C1  UNL d   1       0.154   0.363   2.410  0.00  0.00     0.020 A 
ATOM      3  C2  UNL d   1       0.159   1.157   3.558  0.00  0.00     0.034 A 
ATOM      4  C3  UNL d   1       1.043   0.875   4.606  0.00  0.00     0.017 A 
ATOM      5  C4  UNL d   1       1.925  -0.207   4.499  0.00  0.00     0.017 A 
ATOM      6  C5  UNL d   1       1.916  -0.999   3.346  0.00  0.00     0.034 A 
ATOM      7 Cl   UNL d   1       3.045  -0.616   5.749  0.00  0.00    -0.070 Cl
ATOM      8 Cl1  UNL d   1       0.994   1.899   5.996  0.00  0.00    -0.070 Cl
ENDROOT
TORSDOF 0
ENDMDL
