MODEL 1
REMARK minimizedAffinity 2.15185142
REMARK minimizedRMSD -1
REMARK  0 active torsions:
REMARK  status: ('A' for Active; 'I' for Inactive)
ROOT
ATOM      1  C   UNL d   1       6.000   4.813   4.044  0.00  0.00     0.020 A 
ATOM      2  C1  UNL d   1       5.618   6.000   3.420  0.00  0.00     0.020 A 
ATOM      3  C2  UNL d   1       4.574   5.997   2.492  0.00  0.00     0.034 A 
ATOM      4  C3  UNL d   1       3.908   4.804   2.186  0.00  0.00     0.017 A 
ATOM      5  C4  UNL d   1       4.292   3.613   2.813  0.00  0.00     0.017 A 
ATOM      6  C5  UNL d   1       5.338   3.622   3.741  0.00  0.00     0.034 A 
ATOM      7 Cl   UNL d   1       3.518   2.103   2.487  0.00  0.00    -0.070 Cl
ATOM      8 Cl1  UNL d   1       2.626   4.874   1.030  0.00  0.00    -0.070 Cl
ENDROOT
TORSDOF 0
ENDMDL
