MODEL 1
REMARK minimizedAffinity 6.58253765
REMARK minimizedRMSD -1
REMARK  0 active torsions:
REMARK  status: ('A' for Active; 'I' for Inactive)
ROOT
ATOM      1  C   UNL d   1      -0.737  -1.549  -2.993  0.00  0.00     0.020 A 
ATOM      2  C1  UNL d   1      -0.708  -2.348  -1.851  0.00  0.00     0.020 A 
ATOM      3  C2  UNL d   1      -0.950  -3.720  -1.952  0.00  0.00     0.034 A 
ATOM      4  C3  UNL d   1      -1.222  -4.296  -3.198  0.00  0.00     0.017 A 
ATOM      5  C4  UNL d   1      -1.251  -3.493  -4.344  0.00  0.00     0.017 A 
ATOM      6  C5  UNL d   1      -1.008  -2.120  -4.237  0.00  0.00     0.034 A 
ATOM      7 Cl   UNL d   1      -1.580  -4.132  -5.916  0.00  0.00    -0.070 Cl
ATOM      8 Cl1  UNL d   1      -1.512  -5.999  -3.250  0.00  0.00    -0.070 Cl
ENDROOT
TORSDOF 0
ENDMDL
