MODEL 1
REMARK minimizedAffinity 7.11330748
REMARK minimizedRMSD -1
REMARK  0 active torsions:
REMARK  status: ('A' for Active; 'I' for Inactive)
ROOT
ATOM      1  C   UNL d   1       0.682  -2.885   4.284  0.00  0.00     0.020 A 
ATOM      2  C1  UNL d   1       1.814  -2.078   4.178  0.00  0.00     0.020 A 
ATOM      3  C2  UNL d   1       1.740  -0.854   3.510  0.00  0.00     0.034 A 
ATOM      4  C3  UNL d   1       0.531  -0.433   2.945  0.00  0.00     0.017 A 
ATOM      5  C4  UNL d   1      -0.605  -1.243   3.051  0.00  0.00     0.017 A 
ATOM      6  C5  UNL d   1      -0.525  -2.468   3.722  0.00  0.00     0.034 A 
ATOM      7 Cl   UNL d   1      -2.132  -0.791   2.380  0.00  0.00    -0.070 Cl
ATOM      8 Cl1  UNL d   1       0.511   1.092   2.133  0.00  0.00    -0.070 Cl
ENDROOT
TORSDOF 0
ENDMDL
