MODEL 1
REMARK minimizedAffinity 7.95918989
REMARK minimizedRMSD -1
REMARK  0 active torsions:
REMARK  status: ('A' for Active; 'I' for Inactive)
ROOT
ATOM      1  C   UNL d   1       5.248  -3.682   6.000  0.00  0.00     0.020 A 
ATOM      2  C1  UNL d   1       5.698  -2.595   5.251  0.00  0.00     0.020 A 
ATOM      3  C2  UNL d   1       4.793  -1.841   4.502  0.00  0.00     0.034 A 
ATOM      4  C3  UNL d   1       3.433  -2.172   4.499  0.00  0.00     0.017 A 
ATOM      5  C4  UNL d   1       2.982  -3.263   5.251  0.00  0.00     0.017 A 
ATOM      6  C5  UNL d   1       3.893  -4.015   6.000  0.00  0.00     0.034 A 
ATOM      7 Cl   UNL d   1       1.320  -3.733   5.298  0.00  0.00    -0.070 Cl
ATOM      8 Cl1  UNL d   1       2.370  -1.195   3.550  0.00  0.00    -0.070 Cl
ENDROOT
TORSDOF 0
ENDMDL
