MODEL 1
REMARK minimizedAffinity -0.807790816
REMARK minimizedRMSD -1
REMARK  0 active torsions:
REMARK  status: ('A' for Active; 'I' for Inactive)
ROOT
ATOM      1  N1  IND d   1       1.336   2.565  -0.301  0.00  0.00    -0.196 N 
ATOM      2  C2  IND d   1       0.408   3.539  -0.061  0.00  0.00     0.054 A 
ATOM      3  C3  IND d   1      -0.672   3.017   0.563  0.00  0.00    -0.031 A 
ATOM      4  C4  IND d   1      -1.085   0.610   1.377  0.00  0.00     0.051 A 
ATOM      5  C5  IND d   1      -0.541  -0.644   1.353  0.00  0.00    -0.031 A 
ATOM      6  C6  IND d   1       0.682  -0.896   0.767  0.00  0.00     0.015 A 
ATOM      7  C7  IND d   1       1.416   0.102   0.190  0.00  0.00    -0.016 A 
ATOM      8  C8  IND d   1       0.863   1.375   0.206  0.00  0.00    -0.047 A 
ATOM      9  C9  IND d   1      -0.397   1.629   0.762  0.00  0.00    -0.096 A 
ATOM     10  HN1 IND d   1       2.088   2.676  -0.702  0.00  0.00     0.298 HD
ENDROOT
TORSDOF 0
ENDMDL
