MODEL 1
REMARK minimizedAffinity 2.59177852
REMARK minimizedRMSD -1
REMARK  0 active torsions:
REMARK  status: ('A' for Active; 'I' for Inactive)
ROOT
ATOM      1  N1  IND d   1      -2.136   0.276   2.844  0.00  0.00    -0.196 N 
ATOM      2  C2  IND d   1      -1.875  -1.064   2.910  0.00  0.00     0.054 A 
ATOM      3  C3  IND d   1      -0.855  -1.385   2.082  0.00  0.00    -0.031 A 
ATOM      4  C4  IND d   1       0.595   0.144   0.603  0.00  0.00     0.051 A 
ATOM      5  C5  IND d   1       0.713   1.439   0.182  0.00  0.00    -0.031 A 
ATOM      6  C6  IND d   1      -0.128   2.433   0.639  0.00  0.00     0.015 A 
ATOM      7  C7  IND d   1      -1.116   2.170   1.546  0.00  0.00    -0.016 A 
ATOM      8  C8  IND d   1      -1.243   0.855   1.970  0.00  0.00    -0.047 A 
ATOM      9  C9  IND d   1      -0.420  -0.166   1.478  0.00  0.00    -0.096 A 
ATOM     10  HN1 IND d   1      -2.755   0.688   3.276  0.00  0.00     0.298 HD
ENDROOT
TORSDOF 0
ENDMDL
