MODEL 1
REMARK minimizedAffinity 3.68660951
REMARK minimizedRMSD -1
REMARK  0 active torsions:
REMARK  status: ('A' for Active; 'I' for Inactive)
ROOT
ATOM      1  N1  IND d   1       3.071   0.328   0.680  0.00  0.00    -0.196 N 
ATOM      2  C2  IND d   1       2.241  -0.758   0.673  0.00  0.00     0.054 A 
ATOM      3  C3  IND d   1       0.951  -0.363   0.580  0.00  0.00    -0.031 A 
ATOM      4  C4  IND d   1      -0.019   2.008   0.326  0.00  0.00     0.051 A 
ATOM      5  C5  IND d   1       0.344   3.326   0.318  0.00  0.00    -0.031 A 
ATOM      6  C6  IND d   1       1.662   3.719   0.431  0.00  0.00     0.015 A 
ATOM      7  C7  IND d   1       2.671   2.805   0.544  0.00  0.00    -0.016 A 
ATOM      8  C8  IND d   1       2.305   1.467   0.559  0.00  0.00    -0.047 A 
ATOM      9  C9  IND d   1       0.966   1.063   0.488  0.00  0.00    -0.096 A 
ATOM     10  HN1 IND d   1       3.928   0.304   0.750  0.00  0.00     0.298 HD
ENDROOT
TORSDOF 0
ENDMDL
