MODEL 1
REMARK minimizedAffinity 16.3136768
REMARK minimizedRMSD -1
REMARK  0 active torsions:
REMARK  status: ('A' for Active; 'I' for Inactive)
ROOT
ATOM      1  N1  IND d   1       1.217   2.287  -1.250  0.00  0.00    -0.196 N 
ATOM      2  C2  IND d   1       1.535   2.804  -0.026  0.00  0.00     0.054 A 
ATOM      3  C3  IND d   1       1.728   1.808   0.869  0.00  0.00    -0.031 A 
ATOM      4  C4  IND d   1       1.670  -0.741   0.517  0.00  0.00     0.051 A 
ATOM      5  C5  IND d   1       1.387  -1.693  -0.422  0.00  0.00    -0.031 A 
ATOM      6  C6  IND d   1       1.027  -1.360  -1.712  0.00  0.00     0.015 A 
ATOM      7  C7  IND d   1       0.949  -0.057  -2.116  0.00  0.00    -0.016 A 
ATOM      8  C8  IND d   1       1.229   0.912  -1.163  0.00  0.00    -0.047 A 
ATOM      9  C9  IND d   1       1.553   0.581   0.159  0.00  0.00    -0.096 A 
ATOM     10  HN1 IND d   1       1.038   2.744  -1.957  0.00  0.00     0.298 HD
ENDROOT
TORSDOF 0
ENDMDL
