MODEL 1
REMARK minimizedAffinity 9.85506535
REMARK minimizedRMSD -1
REMARK  0 active torsions:
REMARK  status: ('A' for Active; 'I' for Inactive)
ROOT
ATOM      1  N1  IND d   1      -1.592   0.460   2.263  0.00  0.00    -0.196 N 
ATOM      2  C2  IND d   1      -2.404  -0.378   2.975  0.00  0.00     0.054 A 
ATOM      3  C3  IND d   1      -2.099  -1.668   2.708  0.00  0.00    -0.031 A 
ATOM      4  C4  IND d   1      -0.238  -2.633   1.214  0.00  0.00     0.051 A 
ATOM      5  C5  IND d   1       0.736  -2.260   0.331  0.00  0.00    -0.031 A 
ATOM      6  C6  IND d   1       0.991  -0.935   0.043  0.00  0.00     0.015 A 
ATOM      7  C7  IND d   1       0.285   0.072   0.638  0.00  0.00    -0.016 A 
ATOM      8  C8  IND d   1      -0.709  -0.303   1.530  0.00  0.00    -0.047 A 
ATOM      9  C9  IND d   1      -1.001  -1.647   1.795  0.00  0.00    -0.096 A 
ATOM     10  HN1 IND d   1      -1.627   1.319   2.271  0.00  0.00     0.298 HD
ENDROOT
TORSDOF 0
ENDMDL
