MODEL 1
REMARK minimizedAffinity 6.19523764
REMARK minimizedRMSD -1
REMARK  0 active torsions:
REMARK  status: ('A' for Active; 'I' for Inactive)
ROOT
ATOM      1  N1  IND d   1       0.464   1.070  -0.067  0.00  0.00    -0.196 N 
ATOM      2  C2  IND d   1      -0.454   2.063   0.134  0.00  0.00     0.054 A 
ATOM      3  C3  IND d   1       0.153   3.176   0.603  0.00  0.00    -0.031 A 
ATOM      4  C4  IND d   1       2.654   3.624   1.019  0.00  0.00     0.051 A 
ATOM      5  C5  IND d   1       3.874   3.008   1.014  0.00  0.00    -0.031 A 
ATOM      6  C6  IND d   1       4.023   1.688   0.639  0.00  0.00     0.015 A 
ATOM      7  C7  IND d   1       2.954   0.936   0.242  0.00  0.00    -0.016 A 
ATOM      8  C8  IND d   1       1.713   1.556   0.252  0.00  0.00    -0.047 A 
ATOM      9  C9  IND d   1       1.550   2.882   0.672  0.00  0.00    -0.096 A 
ATOM     10  HN1 IND d   1       0.290   0.275  -0.345  0.00  0.00     0.298 HD
ENDROOT
TORSDOF 0
ENDMDL
