MODEL 1
REMARK minimizedAffinity 6.900208
REMARK minimizedRMSD -1
REMARK  0 active torsions:
REMARK  status: ('A' for Active; 'I' for Inactive)
ROOT
ATOM      1  N1  IND d   1      -0.644  -0.036   2.153  0.00  0.00    -0.196 N 
ATOM      2  C2  IND d   1      -1.873   0.171   2.713  0.00  0.00     0.054 A 
ATOM      3  C3  IND d   1      -2.377   1.361   2.315  0.00  0.00    -0.031 A 
ATOM      4  C4  IND d   1      -1.401   3.082   0.667  0.00  0.00     0.051 A 
ATOM      5  C5  IND d   1      -0.284   3.350  -0.073  0.00  0.00    -0.031 A 
ATOM      6  C6  IND d   1       0.790   2.486  -0.113  0.00  0.00     0.015 A 
ATOM      7  C7  IND d   1       0.783   1.309   0.581  0.00  0.00    -0.016 A 
ATOM      8  C8  IND d   1      -0.346   1.036   1.340  0.00  0.00    -0.047 A 
ATOM      9  C9  IND d   1      -1.422   1.930   1.418  0.00  0.00    -0.096 A 
ATOM     10  HN1 IND d   1      -0.141  -0.720   2.286  0.00  0.00     0.298 HD
ENDROOT
TORSDOF 0
ENDMDL
