MODEL 1
REMARK minimizedAffinity 1.26520288
REMARK minimizedRMSD -1
REMARK  0 active torsions:
REMARK  status: ('A' for Active; 'I' for Inactive)
ROOT
ATOM      1  N1  IND d   1       0.662  -5.542  -3.903  0.00  0.00    -0.196 N 
ATOM      2  C2  IND d   1       0.752  -5.470  -2.541  0.00  0.00     0.054 A 
ATOM      3  C3  IND d   1       2.038  -5.601  -2.147  0.00  0.00    -0.031 A 
ATOM      4  C4  IND d   1       4.169  -5.841  -3.571  0.00  0.00     0.051 A 
ATOM      5  C5  IND d   1       4.590  -5.993  -4.863  0.00  0.00    -0.031 A 
ATOM      6  C6  IND d   1       3.705  -6.000  -5.922  0.00  0.00     0.015 A 
ATOM      7  C7  IND d   1       2.362  -5.843  -5.729  0.00  0.00    -0.016 A 
ATOM      8  C8  IND d   1       1.930  -5.695  -4.418  0.00  0.00    -0.047 A 
ATOM      9  C9  IND d   1       2.819  -5.731  -3.336  0.00  0.00    -0.096 A 
ATOM     10  HN1 IND d   1      -0.065  -5.499  -4.361  0.00  0.00     0.298 HD
ENDROOT
TORSDOF 0
ENDMDL
