MODEL 1
REMARK minimizedAffinity 2.88713789
REMARK minimizedRMSD -1
REMARK  0 active torsions:
REMARK  status: ('A' for Active; 'I' for Inactive)
ROOT
ATOM      1  N1  IND d   1       3.573  -5.986  -5.921  0.00  0.00    -0.196 N 
ATOM      2  C2  IND d   1       4.668  -5.949  -5.103  0.00  0.00     0.054 A 
ATOM      3  C3  IND d   1       4.285  -5.898  -3.807  0.00  0.00    -0.031 A 
ATOM      4  C4  IND d   1       1.919  -5.969  -2.796  0.00  0.00     0.051 A 
ATOM      5  C5  IND d   1       0.598  -5.965  -3.146  0.00  0.00    -0.031 A 
ATOM      6  C6  IND d   1       0.193  -5.972  -4.465  0.00  0.00     0.015 A 
ATOM      7  C7  IND d   1       1.098  -5.993  -5.488  0.00  0.00    -0.016 A 
ATOM      8  C8  IND d   1       2.440  -5.990  -5.137  0.00  0.00    -0.047 A 
ATOM      9  C9  IND d   1       2.857  -5.940  -3.801  0.00  0.00    -0.096 A 
ATOM     10  HN1 IND d   1       3.589  -6.005  -6.780  0.00  0.00     0.298 HD
ENDROOT
TORSDOF 0
ENDMDL
