MODEL 1
REMARK minimizedAffinity 0.370638549
REMARK minimizedRMSD -1
REMARK  0 active torsions:
REMARK  status: ('A' for Active; 'I' for Inactive)
ROOT
ATOM      1  N1  IND d   1       1.887   1.644   2.617  0.00  0.00    -0.196 N 
ATOM      2  C2  IND d   1       3.145   2.158   2.473  0.00  0.00     0.054 A 
ATOM      3  C3  IND d   1       3.130   3.208   1.622  0.00  0.00    -0.031 A 
ATOM      4  C4  IND d   1       1.136   4.318   0.429  0.00  0.00     0.051 A 
ATOM      5  C5  IND d   1      -0.207   4.180   0.222  0.00  0.00    -0.031 A 
ATOM      6  C6  IND d   1      -0.937   3.171   0.817  0.00  0.00     0.015 A 
ATOM      7  C7  IND d   1      -0.350   2.265   1.653  0.00  0.00    -0.016 A 
ATOM      8  C8  IND d   1       1.016   2.398   1.861  0.00  0.00    -0.047 A 
ATOM      9  C9  IND d   1       1.770   3.394   1.226  0.00  0.00    -0.096 A 
ATOM     10  HN1 IND d   1       1.674   0.964   3.099  0.00  0.00     0.298 HD
ENDROOT
TORSDOF 0
ENDMDL
