MODEL 1
REMARK minimizedAffinity 11.5795403
REMARK minimizedRMSD -1
REMARK  0 active torsions:
REMARK  status: ('A' for Active; 'I' for Inactive)
ROOT
ATOM      1  N1  IND d   1       5.622   4.307  -3.831  0.00  0.00    -0.196 N 
ATOM      2  C2  IND d   1       5.749   5.043  -4.975  0.00  0.00     0.054 A 
ATOM      3  C3  IND d   1       5.110   4.434  -6.000  0.00  0.00    -0.031 A 
ATOM      4  C4  IND d   1       3.707   2.275  -6.000  0.00  0.00     0.051 A 
ATOM      5  C5  IND d   1       3.333   1.234  -5.198  0.00  0.00    -0.031 A 
ATOM      6  C6  IND d   1       3.708   1.163  -3.872  0.00  0.00     0.015 A 
ATOM      7  C7  IND d   1       4.465   2.142  -3.293  0.00  0.00    -0.016 A 
ATOM      8  C8  IND d   1       4.853   3.198  -4.106  0.00  0.00    -0.047 A 
ATOM      9  C9  IND d   1       4.511   3.253  -5.463  0.00  0.00    -0.096 A 
ATOM     10  HN1 IND d   1       5.965   4.504  -3.067  0.00  0.00     0.298 HD
ENDROOT
TORSDOF 0
ENDMDL
