MODEL 1
REMARK minimizedAffinity 6.17671776
REMARK minimizedRMSD -1
REMARK  0 active torsions:
REMARK  status: ('A' for Active; 'I' for Inactive)
ROOT
ATOM      1  N1  IND d   1       1.602  -0.366   1.480  0.00  0.00    -0.196 N 
ATOM      2  C2  IND d   1       2.382  -0.594   0.381  0.00  0.00     0.054 A 
ATOM      3  C3  IND d   1       2.206   0.386  -0.533  0.00  0.00    -0.031 A 
ATOM      4  C4  IND d   1       0.762   2.513  -0.392  0.00  0.00     0.051 A 
ATOM      5  C5  IND d   1      -0.157   3.140   0.401  0.00  0.00    -0.031 A 
ATOM      6  C6  IND d   1      -0.544   2.622   1.620  0.00  0.00     0.015 A 
ATOM      7  C7  IND d   1      -0.013   1.457   2.099  0.00  0.00    -0.016 A 
ATOM      8  C8  IND d   1       0.916   0.814   1.293  0.00  0.00    -0.047 A 
ATOM      9  C9  IND d   1       1.280   1.313   0.036  0.00  0.00    -0.096 A 
ATOM     10  HN1 IND d   1       1.548  -0.874   2.172  0.00  0.00     0.298 HD
ENDROOT
TORSDOF 0
ENDMDL
