MODEL 1
REMARK minimizedAffinity 3.60688519
REMARK minimizedRMSD -1
REMARK  0 active torsions:
REMARK  status: ('A' for Active; 'I' for Inactive)
ROOT
ATOM      1  N1  IND d   1       1.837   2.308   0.686  0.00  0.00    -0.196 N 
ATOM      2  C2  IND d   1       2.301   3.003  -0.395  0.00  0.00     0.054 A 
ATOM      3  C3  IND d   1       3.494   3.571  -0.112  0.00  0.00    -0.031 A 
ATOM      4  C4  IND d   1       4.918   3.408   2.026  0.00  0.00     0.051 A 
ATOM      5  C5  IND d   1       4.894   2.915   3.301  0.00  0.00    -0.031 A 
ATOM      6  C6  IND d   1       3.830   2.177   3.778  0.00  0.00     0.015 A 
ATOM      7  C7  IND d   1       2.750   1.894   2.990  0.00  0.00    -0.016 A 
ATOM      8  C8  IND d   1       2.767   2.399   1.698  0.00  0.00    -0.047 A 
ATOM      9  C9  IND d   1       3.825   3.184   1.222  0.00  0.00    -0.096 A 
ATOM     10  HN1 IND d   1       1.089   1.885   0.728  0.00  0.00     0.298 HD
ENDROOT
TORSDOF 0
ENDMDL
