MODEL 1
REMARK minimizedAffinity 1.11734939
REMARK minimizedRMSD -1
REMARK  0 active torsions:
REMARK  status: ('A' for Active; 'I' for Inactive)
ROOT
ATOM      1  N1  IND d   1       3.025   5.999   3.021  0.00  0.00    -0.196 N 
ATOM      2  C2  IND d   1       1.735   6.000   3.473  0.00  0.00     0.054 A 
ATOM      3  C3  IND d   1       1.157   4.798   3.247  0.00  0.00    -0.031 A 
ATOM      4  C4  IND d   1       2.174   2.656   2.245  0.00  0.00     0.051 A 
ATOM      5  C5  IND d   1       3.309   2.178   1.654  0.00  0.00    -0.031 A 
ATOM      6  C6  IND d   1       4.432   2.963   1.487  0.00  0.00     0.015 A 
ATOM      7  C7  IND d   1       4.464   4.259   1.918  0.00  0.00    -0.016 A 
ATOM      8  C8  IND d   1       3.311   4.751   2.513  0.00  0.00    -0.047 A 
ATOM      9  C9  IND d   1       2.155   3.971   2.646  0.00  0.00    -0.096 A 
ATOM     10  HN1 IND d   1       3.567   6.666   3.051  0.00  0.00     0.298 HD
ENDROOT
TORSDOF 0
ENDMDL
