MODEL 1
REMARK minimizedAffinity 4.81355143
REMARK minimizedRMSD -1
REMARK  0 active torsions:
REMARK  status: ('A' for Active; 'I' for Inactive)
ROOT
ATOM      1  N1  IND d   1       3.299   1.029   0.707  0.00  0.00    -0.196 N 
ATOM      2  C2  IND d   1       4.021   2.105   1.140  0.00  0.00     0.054 A 
ATOM      3  C3  IND d   1       3.206   3.159   1.365  0.00  0.00    -0.031 A 
ATOM      4  C4  IND d   1       0.642   3.311   1.186  0.00  0.00     0.051 A 
ATOM      5  C5  IND d   1      -0.455   2.596   0.794  0.00  0.00    -0.031 A 
ATOM      6  C6  IND d   1      -0.355   1.295   0.347  0.00  0.00     0.015 A 
ATOM      7  C7  IND d   1       0.850   0.653   0.285  0.00  0.00    -0.016 A 
ATOM      8  C8  IND d   1       1.967   1.379   0.676  0.00  0.00    -0.047 A 
ATOM      9  C9  IND d   1       1.877   2.714   1.090  0.00  0.00    -0.096 A 
ATOM     10  HN1 IND d   1       3.622   0.262   0.491  0.00  0.00     0.298 HD
ENDROOT
TORSDOF 0
ENDMDL
