MODEL 1
REMARK minimizedAffinity 4.12457132
REMARK minimizedRMSD -1
REMARK  0 active torsions:
REMARK  status: ('A' for Active; 'I' for Inactive)
ROOT
ATOM      1  C   UNL d   1       2.098  -1.721  -2.764  0.00  0.00     0.020 A 
ATOM      2  C1  UNL d   1       2.619  -2.563  -1.783  0.00  0.00     0.020 A 
ATOM      3  C2  UNL d   1       3.096  -2.028  -0.585  0.00  0.00     0.034 A 
ATOM      4  C3  UNL d   1       3.055  -0.647  -0.365  0.00  0.00     0.017 A 
ATOM      5  C4  UNL d   1       2.532   0.198  -1.351  0.00  0.00     0.017 A 
ATOM      6  C5  UNL d   1       2.055  -0.343  -2.548  0.00  0.00     0.034 A 
ATOM      7 Cl   UNL d   1       2.448   1.913  -1.152  0.00  0.00    -0.070 Cl
ATOM      8 Cl1  UNL d   1       3.663  -0.054   1.140  0.00  0.00    -0.070 Cl
ENDROOT
TORSDOF 0
ENDMDL
