MODEL 1
REMARK minimizedAffinity 15.4433327
REMARK minimizedRMSD -1
REMARK  0 active torsions:
REMARK  status: ('A' for Active; 'I' for Inactive)
ROOT
ATOM      1  C   UNL d   1      -5.986   1.285   3.674  0.00  0.00     0.020 A 
ATOM      2  C1  UNL d   1      -5.971   1.089   5.055  0.00  0.00     0.020 A 
ATOM      3  C2  UNL d   1      -5.964  -0.207   5.576  0.00  0.00     0.034 A 
ATOM      4  C3  UNL d   1      -5.973  -1.311   4.716  0.00  0.00     0.017 A 
ATOM      5  C4  UNL d   1      -5.988  -1.114   3.331  0.00  0.00     0.017 A 
ATOM      6  C5  UNL d   1      -5.994   0.186   2.814  0.00  0.00     0.034 A 
ATOM      7 Cl   UNL d   1      -5.999  -2.427   2.207  0.00  0.00    -0.070 Cl
ATOM      8 Cl1  UNL d   1      -5.963  -2.885   5.430  0.00  0.00    -0.070 Cl
ENDROOT
TORSDOF 0
ENDMDL
