MODEL 1
REMARK minimizedAffinity 10.2725916
REMARK minimizedRMSD -1
REMARK  0 active torsions:
REMARK  status: ('A' for Active; 'I' for Inactive)
ROOT
ATOM      1  C   UNL d   1       3.304   3.433   2.406  0.00  0.00     0.020 A 
ATOM      2  C1  UNL d   1       3.252   2.087   2.046  0.00  0.00     0.020 A 
ATOM      3  C2  UNL d   1       2.542   1.695   0.909  0.00  0.00     0.034 A 
ATOM      4  C3  UNL d   1       1.881   2.650   0.128  0.00  0.00     0.017 A 
ATOM      5  C4  UNL d   1       1.935   4.001   0.489  0.00  0.00     0.017 A 
ATOM      6  C5  UNL d   1       2.647   4.388   1.629  0.00  0.00     0.034 A 
ATOM      7 Cl   UNL d   1       1.146   5.237  -0.425  0.00  0.00    -0.070 Cl
ATOM      8 Cl1  UNL d   1       1.023   2.095  -1.265  0.00  0.00    -0.070 Cl
ENDROOT
TORSDOF 0
ENDMDL
