MODEL 1
REMARK minimizedAffinity 10.5742674
REMARK minimizedRMSD -1
REMARK  0 active torsions:
REMARK  status: ('A' for Active; 'I' for Inactive)
ROOT
ATOM      1  C   UNL d   1       2.766   0.175  -2.627  0.00  0.00     0.020 A 
ATOM      2  C1  UNL d   1       3.176  -0.176  -1.341  0.00  0.00     0.020 A 
ATOM      3  C2  UNL d   1       2.543   0.383  -0.229  0.00  0.00     0.034 A 
ATOM      4  C3  UNL d   1       1.496   1.296  -0.401  0.00  0.00     0.017 A 
ATOM      5  C4  UNL d   1       1.085   1.647  -1.691  0.00  0.00     0.017 A 
ATOM      6  C5  UNL d   1       1.723   1.085  -2.801  0.00  0.00     0.034 A 
ATOM      7 Cl   UNL d   1      -0.199   2.767  -1.982  0.00  0.00    -0.070 Cl
ATOM      8 Cl1  UNL d   1       0.758   1.948   1.019  0.00  0.00    -0.070 Cl
ENDROOT
TORSDOF 0
ENDMDL
