MODEL 1
REMARK minimizedAffinity 4.801157
REMARK minimizedRMSD -1
REMARK  0 active torsions:
REMARK  status: ('A' for Active; 'I' for Inactive)
ROOT
ATOM      1  C   UNL d   1       3.559  -0.529  -2.405  0.00  0.00     0.020 A 
ATOM      2  C1  UNL d   1       4.520  -0.975  -1.498  0.00  0.00     0.020 A 
ATOM      3  C2  UNL d   1       4.258  -2.087  -0.695  0.00  0.00     0.034 A 
ATOM      4  C3  UNL d   1       3.033  -2.757  -0.797  0.00  0.00     0.017 A 
ATOM      5  C4  UNL d   1       2.070  -2.309  -1.709  0.00  0.00     0.017 A 
ATOM      6  C5  UNL d   1       2.337  -1.195  -2.510  0.00  0.00     0.034 A 
ATOM      7 Cl   UNL d   1       0.536  -3.084  -1.892  0.00  0.00    -0.070 Cl
ATOM      8 Cl1  UNL d   1       2.778  -4.125   0.226  0.00  0.00    -0.070 Cl
ENDROOT
TORSDOF 0
ENDMDL
