MODEL 1
REMARK minimizedAffinity 4.50061989
REMARK minimizedRMSD -1
REMARK  0 active torsions:
REMARK  status: ('A' for Active; 'I' for Inactive)
ROOT
ATOM      1  C   UNL d   1       3.183  -1.538  -1.372  0.00  0.00     0.020 A 
ATOM      2  C1  UNL d   1       2.211  -2.353  -0.793  0.00  0.00     0.020 A 
ATOM      3  C2  UNL d   1       0.907  -1.880  -0.635  0.00  0.00     0.034 A 
ATOM      4  C3  UNL d   1       0.571  -0.588  -1.055  0.00  0.00     0.017 A 
ATOM      5  C4  UNL d   1       1.547   0.230  -1.636  0.00  0.00     0.017 A 
ATOM      6  C5  UNL d   1       2.851  -0.249  -1.792  0.00  0.00     0.034 A 
ATOM      7 Cl   UNL d   1       1.208   1.835  -2.179  0.00  0.00    -0.070 Cl
ATOM      8 Cl1  UNL d   1      -1.061  -0.068  -0.828  0.00  0.00    -0.070 Cl
ENDROOT
TORSDOF 0
ENDMDL
