MODEL 1
REMARK minimizedAffinity 1.80684364
REMARK minimizedRMSD -1
REMARK  0 active torsions:
REMARK  status: ('A' for Active; 'I' for Inactive)
ROOT
ATOM      1  C   UNL d   1       0.954  -3.237   0.201  0.00  0.00     0.020 A 
ATOM      2  C1  UNL d   1       0.059  -2.563  -0.628  0.00  0.00     0.020 A 
ATOM      3  C2  UNL d   1       0.474  -1.426  -1.325  0.00  0.00     0.034 A 
ATOM      4  C3  UNL d   1       1.787  -0.959  -1.193  0.00  0.00     0.017 A 
ATOM      5  C4  UNL d   1       2.685  -1.637  -0.360  0.00  0.00     0.017 A 
ATOM      6  C5  UNL d   1       2.264  -2.775   0.335  0.00  0.00     0.034 A 
ATOM      7 Cl   UNL d   1       4.321  -1.121  -0.147  0.00  0.00    -0.070 Cl
ATOM      8 Cl1  UNL d   1       2.231   0.453  -2.084  0.00  0.00    -0.070 Cl
ENDROOT
TORSDOF 0
ENDMDL
