MODEL 1
REMARK minimizedAffinity 7.35387659
REMARK minimizedRMSD -1
REMARK  0 active torsions:
REMARK  status: ('A' for Active; 'I' for Inactive)
ROOT
ATOM      1  C   UNL d   1       2.708  -0.265  -1.785  0.00  0.00     0.020 A 
ATOM      2  C1  UNL d   1       3.381  -0.810  -0.693  0.00  0.00     0.020 A 
ATOM      3  C2  UNL d   1       2.877  -1.948  -0.058  0.00  0.00     0.034 A 
ATOM      4  C3  UNL d   1       1.696  -2.543  -0.515  0.00  0.00     0.017 A 
ATOM      5  C4  UNL d   1       1.020  -1.995  -1.611  0.00  0.00     0.017 A 
ATOM      6  C5  UNL d   1       1.529  -0.856  -2.243  0.00  0.00     0.034 A 
ATOM      7 Cl   UNL d   1      -0.443  -2.673  -2.233  0.00  0.00    -0.070 Cl
ATOM      8 Cl1  UNL d   1       1.130  -3.948   0.317  0.00  0.00    -0.070 Cl
ENDROOT
TORSDOF 0
ENDMDL
