MODEL 1
REMARK minimizedAffinity 2.787117
REMARK minimizedRMSD -1
REMARK  0 active torsions:
REMARK  status: ('A' for Active; 'I' for Inactive)
ROOT
ATOM      1  C   UNL d   1       2.614  -0.342  -1.945  0.00  0.00     0.020 A 
ATOM      2  C1  UNL d   1       3.491  -0.896  -1.013  0.00  0.00     0.020 A 
ATOM      3  C2  UNL d   1       3.065  -1.940  -0.189  0.00  0.00     0.034 A 
ATOM      4  C3  UNL d   1       1.759  -2.432  -0.294  0.00  0.00     0.017 A 
ATOM      5  C4  UNL d   1       0.879  -1.874  -1.229  0.00  0.00     0.017 A 
ATOM      6  C5  UNL d   1       1.311  -0.830  -2.052  0.00  0.00     0.034 A 
ATOM      7 Cl   UNL d   1      -0.747  -2.428  -1.417  0.00  0.00    -0.070 Cl
ATOM      8 Cl1  UNL d   1       1.300  -3.724   0.757  0.00  0.00    -0.070 Cl
ENDROOT
TORSDOF 0
ENDMDL
