MODEL 1
REMARK minimizedAffinity 1.08635843
REMARK minimizedRMSD -1
REMARK  0 active torsions:
REMARK  status: ('A' for Active; 'I' for Inactive)
ROOT
ATOM      1  C   UNL d   1       2.269  -2.174   0.059  0.00  0.00     0.020 A 
ATOM      2  C1  UNL d   1       2.819  -0.910   0.268  0.00  0.00     0.020 A 
ATOM      3  C2  UNL d   1       2.717   0.069  -0.722  0.00  0.00     0.034 A 
ATOM      4  C3  UNL d   1       2.064  -0.215  -1.927  0.00  0.00     0.017 A 
ATOM      5  C4  UNL d   1       1.512  -1.484  -2.137  0.00  0.00     0.017 A 
ATOM      6  C5  UNL d   1       1.617  -2.460  -1.142  0.00  0.00     0.034 A 
ATOM      7 Cl   UNL d   1       0.691  -1.908  -3.598  0.00  0.00    -0.070 Cl
ATOM      8 Cl1  UNL d   1       1.975   1.043  -3.108  0.00  0.00    -0.070 Cl
ENDROOT
TORSDOF 0
ENDMDL
