MODEL 1
REMARK minimizedAffinity -0.161635593
REMARK minimizedRMSD -1
REMARK  0 active torsions:
REMARK  status: ('A' for Active; 'I' for Inactive)
ROOT
ATOM      1  C   UNL d   1       5.712  -1.684   5.083  0.00  0.00     0.020 A 
ATOM      2  C1  UNL d   1       5.910  -1.683   3.703  0.00  0.00     0.020 A 
ATOM      3  C2  UNL d   1       5.996  -2.892   3.009  0.00  0.00     0.034 A 
ATOM      4  C3  UNL d   1       5.884  -4.107   3.696  0.00  0.00     0.017 A 
ATOM      5  C4  UNL d   1       5.686  -4.106   5.081  0.00  0.00     0.017 A 
ATOM      6  C5  UNL d   1       5.600  -2.893   5.771  0.00  0.00     0.034 A 
ATOM      7 Cl   UNL d   1       5.539  -5.565   5.997  0.00  0.00    -0.070 Cl
ATOM      8 Cl1  UNL d   1       6.000  -5.564   2.775  0.00  0.00    -0.070 Cl
ENDROOT
TORSDOF 0
ENDMDL
