MODEL 1
REMARK minimizedAffinity 1.24458635
REMARK minimizedRMSD -1
REMARK  0 active torsions:
REMARK  status: ('A' for Active; 'I' for Inactive)
ROOT
ATOM      1  C   UNL d   1       0.043   3.634   1.823  0.00  0.00     0.020 A 
ATOM      2  C1  UNL d   1       0.757   2.441   1.923  0.00  0.00     0.020 A 
ATOM      3  C2  UNL d   1       1.006   1.678   0.781  0.00  0.00     0.034 A 
ATOM      4  C3  UNL d   1       0.540   2.107  -0.467  0.00  0.00     0.017 A 
ATOM      5  C4  UNL d   1      -0.176   3.305  -0.568  0.00  0.00     0.017 A 
ATOM      6  C5  UNL d   1      -0.423   4.065   0.580  0.00  0.00     0.034 A 
ATOM      7 Cl   UNL d   1      -0.783   3.899  -2.073  0.00  0.00    -0.070 Cl
ATOM      8 Cl1  UNL d   1       0.885   1.113  -1.838  0.00  0.00    -0.070 Cl
ENDROOT
TORSDOF 0
ENDMDL
