MODEL 1
REMARK minimizedAffinity 2.50316834
REMARK minimizedRMSD -1
REMARK  0 active torsions:
REMARK  status: ('A' for Active; 'I' for Inactive)
ROOT
ATOM      1  C   UNL d   1       3.898   0.980  -1.701  0.00  0.00     0.020 A 
ATOM      2  C1  UNL d   1       4.051  -0.405  -1.763  0.00  0.00     0.020 A 
ATOM      3  C2  UNL d   1       2.928  -1.234  -1.721  0.00  0.00     0.034 A 
ATOM      4  C3  UNL d   1       1.647  -0.680  -1.617  0.00  0.00     0.017 A 
ATOM      5  C4  UNL d   1       1.494   0.710  -1.555  0.00  0.00     0.017 A 
ATOM      6  C5  UNL d   1       2.622   1.536  -1.597  0.00  0.00     0.034 A 
ATOM      7 Cl   UNL d   1      -0.054   1.467  -1.426  0.00  0.00    -0.070 Cl
ATOM      8 Cl1  UNL d   1       0.304  -1.765  -1.571  0.00  0.00    -0.070 Cl
ENDROOT
TORSDOF 0
ENDMDL
