MODEL 1
REMARK minimizedAffinity 11.457304
REMARK minimizedRMSD -1
REMARK  0 active torsions:
REMARK  status: ('A' for Active; 'I' for Inactive)
ROOT
ATOM      1  C   UNL d   1       1.583   1.202  -1.154  0.00  0.00     0.020 A 
ATOM      2  C1  UNL d   1       0.286   1.382  -1.633  0.00  0.00     0.020 A 
ATOM      3  C2  UNL d   1      -0.669   2.021  -0.839  0.00  0.00     0.034 A 
ATOM      4  C3  UNL d   1      -0.327   2.484   0.437  0.00  0.00     0.017 A 
ATOM      5  C4  UNL d   1       0.975   2.302   0.917  0.00  0.00     0.017 A 
ATOM      6  C5  UNL d   1       1.927   1.661   0.118  0.00  0.00     0.034 A 
ATOM      7 Cl   UNL d   1       1.471   2.846   2.481  0.00  0.00    -0.070 Cl
ATOM      8 Cl1  UNL d   1      -1.558   3.266   1.364  0.00  0.00    -0.070 Cl
ENDROOT
TORSDOF 0
ENDMDL
