MODEL 1
REMARK minimizedAffinity 3.14141417
REMARK minimizedRMSD -1
REMARK  0 active torsions:
REMARK  status: ('A' for Active; 'I' for Inactive)
ROOT
ATOM      1  C   UNL d   1      -0.574   1.613  -0.665  0.00  0.00     0.020 A 
ATOM      2  C1  UNL d   1       0.675   2.193  -0.448  0.00  0.00     0.020 A 
ATOM      3  C2  UNL d   1       1.838   1.463  -0.707  0.00  0.00     0.034 A 
ATOM      4  C3  UNL d   1       1.753   0.150  -1.185  0.00  0.00     0.017 A 
ATOM      5  C4  UNL d   1       0.499  -0.430  -1.403  0.00  0.00     0.017 A 
ATOM      6  C5  UNL d   1      -0.662   0.304  -1.142  0.00  0.00     0.034 A 
ATOM      7 Cl   UNL d   1       0.314  -2.045  -1.991  0.00  0.00    -0.070 Cl
ATOM      8 Cl1  UNL d   1       3.232  -0.692  -1.484  0.00  0.00    -0.070 Cl
ENDROOT
TORSDOF 0
ENDMDL
