MODEL 1
REMARK minimizedAffinity 3.54820538
REMARK minimizedRMSD -1
REMARK  0 active torsions:
REMARK  status: ('A' for Active; 'I' for Inactive)
ROOT
ATOM      1  C   UNL d   1       1.009   0.777  -2.234  0.00  0.00     0.020 A 
ATOM      2  C1  UNL d   1       2.391   0.949  -2.172  0.00  0.00     0.020 A 
ATOM      3  C2  UNL d   1       2.986   1.399  -0.992  0.00  0.00     0.034 A 
ATOM      4  C3  UNL d   1       2.199   1.679   0.131  0.00  0.00     0.017 A 
ATOM      5  C4  UNL d   1       0.811   1.507   0.068  0.00  0.00     0.017 A 
ATOM      6  C5  UNL d   1       0.221   1.056  -1.117  0.00  0.00     0.034 A 
ATOM      7 Cl   UNL d   1      -0.226   1.832   1.411  0.00  0.00    -0.070 Cl
ATOM      8 Cl1  UNL d   1       3.002   2.232   1.558  0.00  0.00    -0.070 Cl
ENDROOT
TORSDOF 0
ENDMDL
