MODEL 1
REMARK minimizedAffinity 12.9529896
REMARK minimizedRMSD -1
REMARK  0 active torsions:
REMARK  status: ('A' for Active; 'I' for Inactive)
ROOT
ATOM      1  C   UNL d   1       0.677   1.420  -2.342  0.00  0.00     0.020 A 
ATOM      2  C1  UNL d   1       1.962   1.048  -1.949  0.00  0.00     0.020 A 
ATOM      3  C2  UNL d   1       2.384   1.275  -0.637  0.00  0.00     0.034 A 
ATOM      4  C3  UNL d   1       1.521   1.876   0.286  0.00  0.00     0.017 A 
ATOM      5  C4  UNL d   1       0.231   2.250  -0.109  0.00  0.00     0.017 A 
ATOM      6  C5  UNL d   1      -0.186   2.020  -1.424  0.00  0.00     0.034 A 
ATOM      7 Cl   UNL d   1      -0.891   2.996   0.973  0.00  0.00    -0.070 Cl
ATOM      8 Cl1  UNL d   1       2.109   2.126   1.891  0.00  0.00    -0.070 Cl
ENDROOT
TORSDOF 0
ENDMDL
