MODEL 1
REMARK minimizedAffinity 12.0328712
REMARK minimizedRMSD -1
REMARK  0 active torsions:
REMARK  status: ('A' for Active; 'I' for Inactive)
ROOT
ATOM      1  C   UNL d   1      -5.550   0.245   5.854  0.00  0.00     0.020 A 
ATOM      2  C1  UNL d   1      -4.337  -0.428   5.999  0.00  0.00     0.020 A 
ATOM      3  C2  UNL d   1      -3.573  -0.741   4.872  0.00  0.00     0.034 A 
ATOM      4  C3  UNL d   1      -4.022  -0.381   3.596  0.00  0.00     0.017 A 
ATOM      5  C4  UNL d   1      -5.239   0.294   3.452  0.00  0.00     0.017 A 
ATOM      6  C5  UNL d   1      -6.000   0.605   4.584  0.00  0.00     0.034 A 
ATOM      7 Cl   UNL d   1      -5.858   0.771   1.910  0.00  0.00    -0.070 Cl
ATOM      8 Cl1  UNL d   1      -3.026  -0.799   2.247  0.00  0.00    -0.070 Cl
ENDROOT
TORSDOF 0
ENDMDL
