MODEL 1
REMARK minimizedAffinity 2.36400414
REMARK minimizedRMSD -1
REMARK  0 active torsions:
REMARK  status: ('A' for Active; 'I' for Inactive)
ROOT
ATOM      1  C   UNL d   1       1.763  -0.319  -2.715  0.00  0.00     0.172 C 
ATOM      2  N   UNL d   1       1.557   1.109  -2.766  0.00  0.00    -0.070 N 
ATOM      3  C1  UNL d   1       2.206   2.037  -1.995  0.00  0.00    -0.004 A 
ATOM      4  C2  UNL d   1       1.731   3.283  -2.344  0.00  0.00    -0.047 A 
ATOM      5  C3  UNL d   1       0.762   3.097  -3.359  0.00  0.00    -0.047 A 
ATOM      6  C4  UNL d   1       0.675   1.742  -3.601  0.00  0.00    -0.004 A 
ENDROOT
TORSDOF 0
ENDMDL
