MODEL 1
REMARK minimizedAffinity 2.19043899
REMARK minimizedRMSD -1
REMARK  0 active torsions:
REMARK  status: ('A' for Active; 'I' for Inactive)
ROOT
ATOM      1  C   UNL d   1       0.254   3.048  -3.007  0.00  0.00     0.172 C 
ATOM      2  N   UNL d   1       1.162   2.246  -2.221  0.00  0.00    -0.070 N 
ATOM      3  C1  UNL d   1       2.029   2.720  -1.273  0.00  0.00    -0.004 A 
ATOM      4  C2  UNL d   1       2.715   1.643  -0.753  0.00  0.00    -0.047 A 
ATOM      5  C3  UNL d   1       2.244   0.483  -1.412  0.00  0.00    -0.047 A 
ATOM      6  C4  UNL d   1       1.283   0.885  -2.315  0.00  0.00    -0.004 A 
ENDROOT
TORSDOF 0
ENDMDL
