MODEL 1
REMARK minimizedAffinity 3.03127646
REMARK minimizedRMSD -1
REMARK  0 active torsions:
REMARK  status: ('A' for Active; 'I' for Inactive)
ROOT
ATOM      1  C   UNL d   1       0.733   2.343  -3.559  0.00  0.00     0.172 C 
ATOM      2  N   UNL d   1       1.577   2.238  -2.393  0.00  0.00    -0.070 N 
ATOM      3  C1  UNL d   1       2.897   2.597  -2.328  0.00  0.00    -0.004 A 
ATOM      4  C2  UNL d   1       3.340   2.344  -1.048  0.00  0.00    -0.047 A 
ATOM      5  C3  UNL d   1       2.249   1.814  -0.318  0.00  0.00    -0.047 A 
ATOM      6  C4  UNL d   1       1.171   1.759  -1.175  0.00  0.00    -0.004 A 
ENDROOT
TORSDOF 0
ENDMDL
