MODEL 1
REMARK minimizedAffinity -0.386324435
REMARK minimizedRMSD -1
REMARK  0 active torsions:
REMARK  status: ('A' for Active; 'I' for Inactive)
ROOT
ATOM      1  C   UNL d   1       1.908  -1.701  -0.356  0.00  0.00     0.172 C 
ATOM      2  N   UNL d   1       1.538  -1.526   1.028  0.00  0.00    -0.070 N 
ATOM      3  C1  UNL d   1       0.284  -1.708   1.548  0.00  0.00    -0.004 A 
ATOM      4  C2  UNL d   1       0.345  -1.444   2.899  0.00  0.00    -0.047 A 
ATOM      5  C3  UNL d   1       1.681  -1.090   3.202  0.00  0.00    -0.047 A 
ATOM      6  C4  UNL d   1       2.398  -1.150   2.025  0.00  0.00    -0.004 A 
ENDROOT
TORSDOF 0
ENDMDL
