MODEL 1
REMARK minimizedAffinity 1.51772642
REMARK minimizedRMSD -1
REMARK  0 active torsions:
REMARK  status: ('A' for Active; 'I' for Inactive)
ROOT
ATOM      1  C   UNL d   1       1.101  -0.920  -1.518  0.00  0.00     0.172 C 
ATOM      2  N   UNL d   1       1.302   0.510  -1.539  0.00  0.00    -0.070 N 
ATOM      3  C1  UNL d   1       0.729   1.384  -2.424  0.00  0.00    -0.004 A 
ATOM      4  C2  UNL d   1       1.171   2.651  -2.111  0.00  0.00    -0.047 A 
ATOM      5  C3  UNL d   1       2.040   2.535  -1.001  0.00  0.00    -0.047 A 
ATOM      6  C4  UNL d   1       2.103   1.199  -0.667  0.00  0.00    -0.004 A 
ENDROOT
TORSDOF 0
ENDMDL
