MODEL 1
REMARK minimizedAffinity 2.18326664
REMARK minimizedRMSD -1
REMARK  0 active torsions:
REMARK  status: ('A' for Active; 'I' for Inactive)
ROOT
ATOM      1  C   UNL d   1      -1.334   0.294   3.189  0.00  0.00     0.172 C 
ATOM      2  N   UNL d   1      -0.031  -0.318   3.079  0.00  0.00    -0.070 N 
ATOM      3  C1  UNL d   1       1.135   0.192   3.585  0.00  0.00    -0.004 A 
ATOM      4  C2  UNL d   1       2.151  -0.685   3.271  0.00  0.00    -0.047 A 
ATOM      5  C3  UNL d   1       1.575  -1.759   2.550  0.00  0.00    -0.047 A 
ATOM      6  C4  UNL d   1       0.224  -1.506   2.446  0.00  0.00    -0.004 A 
ENDROOT
TORSDOF 0
ENDMDL
