MODEL 1
REMARK minimizedAffinity 1.76066184
REMARK minimizedRMSD -1
REMARK  0 active torsions:
REMARK  status: ('A' for Active; 'I' for Inactive)
ROOT
ATOM      1  C   UNL d   1      -2.592  -1.482   0.480  0.00  0.00     0.172 C 
ATOM      2  N   UNL d   1      -1.501  -1.577   1.422  0.00  0.00    -0.070 N 
ATOM      3  C1  UNL d   1      -0.684  -0.547   1.804  0.00  0.00    -0.004 A 
ATOM      4  C2  UNL d   1       0.226  -1.045   2.712  0.00  0.00    -0.047 A 
ATOM      5  C3  UNL d   1      -0.054  -2.422   2.880  0.00  0.00    -0.047 A 
ATOM      6  C4  UNL d   1      -1.127  -2.725   2.070  0.00  0.00    -0.004 A 
ENDROOT
TORSDOF 0
ENDMDL
