MODEL 1
REMARK minimizedAffinity -1.60666072
REMARK minimizedRMSD -1
REMARK  0 active torsions:
REMARK  status: ('A' for Active; 'I' for Inactive)
ROOT
ATOM      1  C   UNL d   1       2.358  -2.791   0.782  0.00  0.00     0.172 C 
ATOM      2  N   UNL d   1       1.964  -1.791  -0.182  0.00  0.00    -0.070 N 
ATOM      3  C1  UNL d   1       0.743  -1.174  -0.240  0.00  0.00    -0.004 A 
ATOM      4  C2  UNL d   1       0.767  -0.289  -1.296  0.00  0.00    -0.047 A 
ATOM      5  C3  UNL d   1       2.046  -0.378  -1.895  0.00  0.00    -0.047 A 
ATOM      6  C4  UNL d   1       2.767  -1.315  -1.186  0.00  0.00    -0.004 A 
ENDROOT
TORSDOF 0
ENDMDL
