MODEL 1
REMARK minimizedAffinity -3.81803656
REMARK minimizedRMSD -1
REMARK  0 active torsions:
REMARK  status: ('A' for Active; 'I' for Inactive)
ROOT
ATOM      1  C4' PXY d   1       5.310  -5.503  -4.091  0.00  0.00     0.077 C 
ATOM      2  C1' PXY d   1       4.860  -0.062  -5.989  0.00  0.00     0.077 C 
ATOM      3  C1  PXY d   1       4.965  -1.491  -5.495  0.00  0.00    -0.082 A 
ATOM      4  C2  PXY d   1       5.868  -1.801  -4.578  0.00  0.00     0.003 A 
ATOM      5  C3  PXY d   1       5.998  -3.095  -4.143  0.00  0.00     0.003 A 
ATOM      6  C4  PXY d   1       5.161  -4.071  -4.613  0.00  0.00    -0.082 A 
ATOM      7  C5  PXY d   1       4.231  -3.761  -5.540  0.00  0.00     0.003 A 
ATOM      8  C6  PXY d   1       4.142  -2.450  -5.999  0.00  0.00     0.003 A 
ENDROOT
TORSDOF 0
ENDMDL
