MODEL 1
REMARK minimizedAffinity -0.795249879
REMARK minimizedRMSD -1
REMARK  0 active torsions:
REMARK  status: ('A' for Active; 'I' for Inactive)
ROOT
ATOM      1  C4' PXY d   1       3.791  -5.999  -6.000  0.00  0.00     0.077 C 
ATOM      2  C1' PXY d   1       6.000  -1.288  -3.480  0.00  0.00     0.077 C 
ATOM      3  C1  PXY d   1       5.431  -2.530  -4.138  0.00  0.00    -0.082 A 
ATOM      4  C2  PXY d   1       4.505  -2.408  -5.075  0.00  0.00     0.003 A 
ATOM      5  C3  PXY d   1       3.957  -3.522  -5.657  0.00  0.00     0.003 A 
ATOM      6  C4  PXY d   1       4.400  -4.772  -5.315  0.00  0.00    -0.082 A 
ATOM      7  C5  PXY d   1       5.352  -4.904  -4.367  0.00  0.00     0.003 A 
ATOM      8  C6  PXY d   1       5.866  -3.763  -3.759  0.00  0.00     0.003 A 
ENDROOT
TORSDOF 0
ENDMDL
