MODEL 1
REMARK minimizedAffinity -2.54068017
REMARK minimizedRMSD -1
REMARK  0 active torsions:
REMARK  status: ('A' for Active; 'I' for Inactive)
ROOT
ATOM      1  C4' PXY d   1       5.857  -0.390  -5.153  0.00  0.00     0.077 C 
ATOM      2  C1' PXY d   1       4.472  -5.994  -4.860  0.00  0.00     0.077 C 
ATOM      3  C1  PXY d   1       4.832  -4.524  -4.949  0.00  0.00    -0.082 A 
ATOM      4  C2  PXY d   1       5.688  -4.007  -4.083  0.00  0.00     0.003 A 
ATOM      5  C3  PXY d   1       6.000  -2.672  -4.130  0.00  0.00     0.003 A 
ATOM      6  C4  PXY d   1       5.471  -1.871  -5.106  0.00  0.00    -0.082 A 
ATOM      7  C5  PXY d   1       4.605  -2.394  -6.000  0.00  0.00     0.003 A 
ATOM      8  C6  PXY d   1       4.270  -3.742  -5.910  0.00  0.00     0.003 A 
ENDROOT
TORSDOF 0
ENDMDL
