MODEL 1
REMARK minimizedAffinity -2.83033776
REMARK minimizedRMSD -1
REMARK  0 active torsions:
REMARK  status: ('A' for Active; 'I' for Inactive)
ROOT
ATOM      1  C4' PXY d   1       5.987  -0.768  -5.882  0.00  0.00     0.077 C 
ATOM      2  C1' PXY d   1       4.125  -5.999  -4.276  0.00  0.00     0.077 C 
ATOM      3  C1  PXY d   1       4.602  -4.622  -4.693  0.00  0.00    -0.082 A 
ATOM      4  C2  PXY d   1       5.531  -4.507  -5.628  0.00  0.00     0.003 A 
ATOM      5  C3  PXY d   1       5.997  -3.270  -5.994  0.00  0.00     0.003 A 
ATOM      6  C4  PXY d   1       5.468  -2.138  -5.436  0.00  0.00    -0.082 A 
ATOM      7  C5  PXY d   1       4.512  -2.246  -4.489  0.00  0.00     0.003 A 
ATOM      8  C6  PXY d   1       4.082  -3.512  -4.102  0.00  0.00     0.003 A 
ENDROOT
TORSDOF 0
ENDMDL
