MODEL 1
REMARK minimizedAffinity -3.99987841
REMARK minimizedRMSD -1
REMARK  0 active torsions:
REMARK  status: ('A' for Active; 'I' for Inactive)
ROOT
ATOM      1  C4' PXY d   1       4.808   0.361  -5.745  0.00  0.00     0.077 C 
ATOM      2  C1' PXY d   1       4.988  -5.224  -4.268  0.00  0.00     0.077 C 
ATOM      3  C1  PXY d   1       4.949  -3.757  -4.646  0.00  0.00    -0.082 A 
ATOM      4  C2  PXY d   1       3.894  -3.272  -5.280  0.00  0.00     0.003 A 
ATOM      5  C3  PXY d   1       3.857  -1.955  -5.658  0.00  0.00     0.003 A 
ATOM      6  C4  PXY d   1       4.886  -1.112  -5.335  0.00  0.00    -0.082 A 
ATOM      7  C5  PXY d   1       5.962  -1.596  -4.678  0.00  0.00     0.003 A 
ATOM      8  C6  PXY d   1       5.999  -2.946  -4.340  0.00  0.00     0.003 A 
ENDROOT
TORSDOF 0
ENDMDL
