MODEL 1
REMARK minimizedAffinity -0.728897393
REMARK minimizedRMSD -1
REMARK  0 active torsions:
REMARK  status: ('A' for Active; 'I' for Inactive)
ROOT
ATOM      1  C4' PXY d   1       4.188  -0.372  -5.251  0.00  0.00     0.077 C 
ATOM      2  C1' PXY d   1       5.450  -6.000  -4.860  0.00  0.00     0.077 C 
ATOM      3  C1  PXY d   1       5.127  -4.522  -4.953  0.00  0.00    -0.082 A 
ATOM      4  C2  PXY d   1       3.997  -4.133  -5.520  0.00  0.00     0.003 A 
ATOM      5  C3  PXY d   1       3.704  -2.799  -5.641  0.00  0.00     0.003 A 
ATOM      6  C4  PXY d   1       4.551  -1.855  -5.127  0.00  0.00    -0.082 A 
ATOM      7  C5  PXY d   1       5.702  -2.243  -4.537  0.00  0.00     0.003 A 
ATOM      8  C6  PXY d   1       6.000  -3.601  -4.461  0.00  0.00     0.003 A 
ENDROOT
TORSDOF 0
ENDMDL
