MODEL 1
REMARK minimizedAffinity -3.27165627
REMARK minimizedRMSD -1
REMARK  0 active torsions:
REMARK  status: ('A' for Active; 'I' for Inactive)
ROOT
ATOM      1  C4' PXY d   1       5.984  -6.000  -3.000  0.00  0.00     0.077 C 
ATOM      2  C1' PXY d   1       3.473  -1.739  -5.994  0.00  0.00     0.077 C 
ATOM      3  C1  PXY d   1       4.121  -2.864  -5.210  0.00  0.00    -0.082 A 
ATOM      4  C2  PXY d   1       5.074  -2.587  -4.336  0.00  0.00     0.003 A 
ATOM      5  C3  PXY d   1       5.693  -3.596  -3.642  0.00  0.00     0.003 A 
ATOM      6  C4  PXY d   1       5.295  -4.895  -3.807  0.00  0.00    -0.082 A 
ATOM      7  C5  PXY d   1       4.315  -5.185  -4.689  0.00  0.00     0.003 A 
ATOM      8  C6  PXY d   1       3.728  -4.151  -5.413  0.00  0.00     0.003 A 
ENDROOT
TORSDOF 0
ENDMDL
