MODEL 1
REMARK minimizedAffinity -1.44431686
REMARK minimizedRMSD -1
REMARK  0 active torsions:
REMARK  status: ('A' for Active; 'I' for Inactive)
ROOT
ATOM      1  N1  IND d   1       1.008  -0.902   1.913  0.00  0.00    -0.196 N 
ATOM      2  C2  IND d   1      -0.003  -1.028   2.825  0.00  0.00     0.054 A 
ATOM      3  C3  IND d   1      -1.063  -0.273   2.460  0.00  0.00    -0.031 A 
ATOM      4  C4  IND d   1      -1.395   1.169   0.353  0.00  0.00     0.051 A 
ATOM      5  C5  IND d   1      -0.738   1.626  -0.755  0.00  0.00    -0.031 A 
ATOM      6  C6  IND d   1       0.561   1.253  -1.037  0.00  0.00     0.015 A 
ATOM      7  C7  IND d   1       1.249   0.397  -0.224  0.00  0.00    -0.016 A 
ATOM      8  C8  IND d   1       0.587  -0.062   0.905  0.00  0.00    -0.047 A 
ATOM      9  C9  IND d   1      -0.716   0.346   1.219  0.00  0.00    -0.096 A 
ATOM     10  HN1 IND d   1       1.777  -1.283   1.961  0.00  0.00     0.298 HD
ENDROOT
TORSDOF 0
ENDMDL
