MODEL 1
REMARK minimizedAffinity -4.3711772
REMARK minimizedRMSD -1
REMARK  0 active torsions:
REMARK  status: ('A' for Active; 'I' for Inactive)
ROOT
ATOM      1  N1  IND d   1       0.392   0.558   0.395  0.00  0.00    -0.196 N 
ATOM      2  C2  IND d   1      -0.896   0.661   0.842  0.00  0.00     0.054 A 
ATOM      3  C3  IND d   1      -1.651  -0.339   0.334  0.00  0.00    -0.031 A 
ATOM      4  C4  IND d   1      -0.958  -2.310  -1.169  0.00  0.00     0.051 A 
ATOM      5  C5  IND d   1       0.104  -2.810  -1.868  0.00  0.00    -0.031 A 
ATOM      6  C6  IND d   1       1.343  -2.202  -1.846  0.00  0.00     0.015 A 
ATOM      7  C7  IND d   1       1.569  -1.073  -1.112  0.00  0.00    -0.016 A 
ATOM      8  C8  IND d   1       0.490  -0.558  -0.406  0.00  0.00    -0.047 A 
ATOM      9  C9  IND d   1      -0.780  -1.147  -0.459  0.00  0.00    -0.096 A 
ATOM     10  HN1 IND d   1       1.033   1.100   0.582  0.00  0.00     0.298 HD
ENDROOT
TORSDOF 0
ENDMDL
