MODEL 1
REMARK minimizedAffinity -6.03206635
REMARK minimizedRMSD -1
REMARK  0 active torsions:
REMARK  status: ('A' for Active; 'I' for Inactive)
ROOT
ATOM      1  N1  IND d   1       0.817   0.595  -0.567  0.00  0.00    -0.196 N 
ATOM      2  C2  IND d   1       0.706  -0.686  -0.103  0.00  0.00     0.054 A 
ATOM      3  C3  IND d   1      -0.249  -0.761   0.850  0.00  0.00    -0.031 A 
ATOM      4  C4  IND d   1      -1.824   1.073   1.734  0.00  0.00     0.051 A 
ATOM      5  C5  IND d   1      -2.077   2.413   1.640  0.00  0.00    -0.031 A 
ATOM      6  C6  IND d   1      -1.366   3.232   0.787  0.00  0.00     0.015 A 
ATOM      7  C7  IND d   1      -0.378   2.736  -0.017  0.00  0.00    -0.016 A 
ATOM      8  C8  IND d   1      -0.114   1.377   0.081  0.00  0.00    -0.047 A 
ATOM      9  C9  IND d   1      -0.804   0.550   0.976  0.00  0.00    -0.096 A 
ATOM     10  HN1 IND d   1       1.374   0.867  -1.163  0.00  0.00     0.298 HD
ENDROOT
TORSDOF 0
ENDMDL
