MODEL 1
REMARK minimizedAffinity -2.18629813
REMARK minimizedRMSD -1
REMARK  0 active torsions:
REMARK  status: ('A' for Active; 'I' for Inactive)
ROOT
ATOM      1  N1  IND d   1       0.437   1.419  -0.873  0.00  0.00    -0.196 N 
ATOM      2  C2  IND d   1       1.058   0.204  -0.961  0.00  0.00     0.054 A 
ATOM      3  C3  IND d   1       0.593  -0.633  -0.007  0.00  0.00    -0.031 A 
ATOM      4  C4  IND d   1      -1.258  -0.252   1.742  0.00  0.00     0.051 A 
ATOM      5  C5  IND d   1      -2.091   0.712   2.235  0.00  0.00    -0.031 A 
ATOM      6  C6  IND d   1      -2.127   1.986   1.706  0.00  0.00     0.015 A 
ATOM      7  C7  IND d   1      -1.336   2.341   0.651  0.00  0.00    -0.016 A 
ATOM      8  C8  IND d   1      -0.483   1.367   0.151  0.00  0.00    -0.047 A 
ATOM      9  C9  IND d   1      -0.411   0.085   0.712  0.00  0.00    -0.096 A 
ATOM     10  HN1 IND d   1       0.595   2.101  -1.372  0.00  0.00     0.298 HD
ENDROOT
TORSDOF 0
ENDMDL
