MODEL 1
REMARK minimizedAffinity -6.329041
REMARK minimizedRMSD -1
REMARK  0 active torsions:
REMARK  status: ('A' for Active; 'I' for Inactive)
ROOT
ATOM      1  N1  IND d   1       1.147   2.731  -1.168  0.00  0.00    -0.196 N 
ATOM      2  C2  IND d   1       1.404   1.575  -1.851  0.00  0.00     0.054 A 
ATOM      3  C3  IND d   1       0.536   0.607  -1.481  0.00  0.00    -0.031 A 
ATOM      4  C4  IND d   1      -1.449   0.728   0.154  0.00  0.00     0.051 A 
ATOM      5  C5  IND d   1      -2.059   1.563   1.048  0.00  0.00    -0.031 A 
ATOM      6  C6  IND d   1      -1.624   2.857   1.251  0.00  0.00     0.015 A 
ATOM      7  C7  IND d   1      -0.565   3.370   0.556  0.00  0.00    -0.016 A 
ATOM      8  C8  IND d   1       0.061   2.523  -0.347  0.00  0.00    -0.047 A 
ATOM      9  C9  IND d   1      -0.349   1.195  -0.527  0.00  0.00    -0.096 A 
ATOM     10  HN1 IND d   1       1.590   3.465  -1.239  0.00  0.00     0.298 HD
ENDROOT
TORSDOF 0
ENDMDL
