MODEL 1
REMARK minimizedAffinity -2.86985397
REMARK minimizedRMSD -1
REMARK  0 active torsions:
REMARK  status: ('A' for Active; 'I' for Inactive)
ROOT
ATOM      1  N1  IND d   1       0.757   1.833  -0.819  0.00  0.00    -0.196 N 
ATOM      2  C2  IND d   1       1.311   0.704  -1.353  0.00  0.00     0.054 A 
ATOM      3  C3  IND d   1       1.045  -0.366  -0.570  0.00  0.00    -0.031 A 
ATOM      4  C4  IND d   1      -0.366  -0.509   1.579  0.00  0.00     0.051 A 
ATOM      5  C5  IND d   1      -1.045   0.267   2.475  0.00  0.00    -0.031 A 
ATOM      6  C6  IND d   1      -1.163   1.632   2.315  0.00  0.00     0.015 A 
ATOM      7  C7  IND d   1      -0.614   2.274   1.241  0.00  0.00    -0.016 A 
ATOM      8  C8  IND d   1       0.083   1.489   0.332  0.00  0.00    -0.047 A 
ATOM      9  C9  IND d   1       0.242   0.109   0.512  0.00  0.00    -0.096 A 
ATOM     10  HN1 IND d   1       0.819   2.626  -1.147  0.00  0.00     0.298 HD
ENDROOT
TORSDOF 0
ENDMDL
