MODEL 1
REMARK minimizedAffinity -4.26648808
REMARK minimizedRMSD -1
REMARK  0 active torsions:
REMARK  status: ('A' for Active; 'I' for Inactive)
ROOT
ATOM      1  N1  IND d   1       0.880   0.792  -1.084  0.00  0.00    -0.196 N 
ATOM      2  C2  IND d   1       1.252  -0.524  -1.081  0.00  0.00     0.054 A 
ATOM      3  C3  IND d   1       0.711  -1.163  -0.019  0.00  0.00    -0.031 A 
ATOM      4  C4  IND d   1      -0.897  -0.271   1.782  0.00  0.00     0.051 A 
ATOM      5  C5  IND d   1      -1.494   0.878   2.219  0.00  0.00    -0.031 A 
ATOM      6  C6  IND d   1      -1.330   2.080   1.563  0.00  0.00     0.015 A 
ATOM      7  C7  IND d   1      -0.568   2.177   0.433  0.00  0.00    -0.016 A 
ATOM      8  C8  IND d   1       0.046   1.014  -0.010  0.00  0.00    -0.047 A 
ATOM      9  C9  IND d   1      -0.083  -0.201   0.676  0.00  0.00    -0.096 A 
ATOM     10  HN1 IND d   1       1.125   1.381  -1.660  0.00  0.00     0.298 HD
ENDROOT
TORSDOF 0
ENDMDL
