MODEL 1
REMARK minimizedAffinity 0.054849308
REMARK minimizedRMSD -1
REMARK  0 active torsions:
REMARK  status: ('A' for Active; 'I' for Inactive)
ROOT
ATOM      1  N1  IND d   1      -0.697  -2.034  -1.351  0.00  0.00    -0.196 N 
ATOM      2  C2  IND d   1       0.620  -2.014  -1.715  0.00  0.00     0.054 A 
ATOM      3  C3  IND d   1       1.339  -1.276  -0.841  0.00  0.00    -0.031 A 
ATOM      4  C4  IND d   1       0.578  -0.094   1.315  0.00  0.00     0.051 A 
ATOM      5  C5  IND d   1      -0.539   0.202   2.045  0.00  0.00    -0.031 A 
ATOM      6  C6  IND d   1      -1.791  -0.244   1.674  0.00  0.00     0.015 A 
ATOM      7  C7  IND d   1      -1.972  -1.015   0.561  0.00  0.00    -0.016 A 
ATOM      8  C8  IND d   1      -0.840  -1.311  -0.187  0.00  0.00    -0.047 A 
ATOM      9  C9  IND d   1       0.427  -0.826   0.162  0.00  0.00    -0.096 A 
ATOM     10  HN1 IND d   1      -1.330  -2.430  -1.777  0.00  0.00     0.298 HD
ENDROOT
TORSDOF 0
ENDMDL
