MODEL 1
REMARK minimizedAffinity -4.56645012
REMARK minimizedRMSD -1
REMARK  0 active torsions:
REMARK  status: ('A' for Active; 'I' for Inactive)
ROOT
ATOM      1  N1  IND d   1       0.391  -0.035  -0.889  0.00  0.00    -0.196 N 
ATOM      2  C2  IND d   1       1.113  -0.736   0.035  0.00  0.00     0.054 A 
ATOM      3  C3  IND d   1       0.661  -0.475   1.282  0.00  0.00    -0.031 A 
ATOM      4  C4  IND d   1      -1.317   0.992   2.031  0.00  0.00     0.051 A 
ATOM      5  C5  IND d   1      -2.255   1.862   1.551  0.00  0.00    -0.031 A 
ATOM      6  C6  IND d   1      -2.363   2.148   0.205  0.00  0.00     0.015 A 
ATOM      7  C7  IND d   1      -1.541   1.563  -0.716  0.00  0.00    -0.016 A 
ATOM      8  C8  IND d   1      -0.583   0.685  -0.231  0.00  0.00    -0.047 A 
ATOM      9  C9  IND d   1      -0.440   0.423   1.138  0.00  0.00    -0.096 A 
ATOM     10  HN1 IND d   1       0.522  -0.041  -1.739  0.00  0.00     0.298 HD
ENDROOT
TORSDOF 0
ENDMDL
