MODEL 1
REMARK minimizedAffinity -4.75610781
REMARK minimizedRMSD -1
REMARK  0 active torsions:
REMARK  status: ('A' for Active; 'I' for Inactive)
ROOT
ATOM      1  N1  IND d   1      -1.010   2.835  -0.018  0.00  0.00    -0.196 N 
ATOM      2  C2  IND d   1      -1.914   2.884   1.006  0.00  0.00     0.054 A 
ATOM      3  C3  IND d   1      -1.807   1.783   1.782  0.00  0.00    -0.031 A 
ATOM      4  C4  IND d   1      -0.148  -0.179   1.617  0.00  0.00     0.051 A 
ATOM      5  C5  IND d   1       0.844  -0.687   0.826  0.00  0.00    -0.031 A 
ATOM      6  C6  IND d   1       1.280  -0.032  -0.308  0.00  0.00     0.015 A 
ATOM      7  C7  IND d   1       0.745   1.166  -0.689  0.00  0.00    -0.016 A 
ATOM      8  C8  IND d   1      -0.268   1.681   0.108  0.00  0.00    -0.047 A 
ATOM      9  C9  IND d   1      -0.743   1.000   1.236  0.00  0.00    -0.096 A 
ATOM     10  HN1 IND d   1      -0.920   3.425  -0.637  0.00  0.00     0.298 HD
ENDROOT
TORSDOF 0
ENDMDL
