MODEL 1
REMARK minimizedAffinity -3.02552676
REMARK minimizedRMSD -1
REMARK  0 active torsions:
REMARK  status: ('A' for Active; 'I' for Inactive)
ROOT
ATOM      1  N1  IND d   1      -0.543  -0.220  -0.456  0.00  0.00    -0.196 N 
ATOM      2  C2  IND d   1       0.334   0.402   0.388  0.00  0.00     0.054 A 
ATOM      3  C3  IND d   1       1.545  -0.198   0.332  0.00  0.00    -0.031 A 
ATOM      4  C4  IND d   1       2.337  -2.150  -1.149  0.00  0.00     0.051 A 
ATOM      5  C5  IND d   1       1.884  -3.067  -2.054  0.00  0.00    -0.031 A 
ATOM      6  C6  IND d   1       0.572  -3.081  -2.484  0.00  0.00     0.015 A 
ATOM      7  C7  IND d   1      -0.336  -2.167  -2.031  0.00  0.00    -0.016 A 
ATOM      8  C8  IND d   1       0.119  -1.238  -1.106  0.00  0.00    -0.047 A 
ATOM      9  C9  IND d   1       1.438  -1.245  -0.634  0.00  0.00    -0.096 A 
ATOM     10  HN1 IND d   1      -1.370  -0.010  -0.563  0.00  0.00     0.298 HD
ENDROOT
TORSDOF 0
ENDMDL
