MODEL 1
REMARK minimizedAffinity -6.14071274
REMARK minimizedRMSD -1
REMARK  0 active torsions:
REMARK  status: ('A' for Active; 'I' for Inactive)
ROOT
ATOM      1  N1  IND d   1       0.501   0.229  -0.704  0.00  0.00    -0.196 N 
ATOM      2  C2  IND d   1       0.266  -0.899   0.032  0.00  0.00     0.054 A 
ATOM      3  C3  IND d   1      -0.599  -0.633   1.036  0.00  0.00    -0.031 A 
ATOM      4  C4  IND d   1      -1.832   1.556   1.596  0.00  0.00     0.051 A 
ATOM      5  C5  IND d   1      -1.914   2.870   1.229  0.00  0.00    -0.031 A 
ATOM      6  C6  IND d   1      -1.183   3.381   0.177  0.00  0.00     0.015 A 
ATOM      7  C7  IND d   1      -0.347   2.590  -0.559  0.00  0.00    -0.016 A 
ATOM      8  C8  IND d   1      -0.255   1.257  -0.186  0.00  0.00    -0.047 A 
ATOM      9  C9  IND d   1      -0.963   0.743   0.909  0.00  0.00    -0.096 A 
ATOM     10  HN1 IND d   1       1.032   0.286  -1.378  0.00  0.00     0.298 HD
ENDROOT
TORSDOF 0
ENDMDL
