MODEL 1
REMARK minimizedAffinity -5.28526306
REMARK minimizedRMSD -1
REMARK  0 active torsions:
REMARK  status: ('A' for Active; 'I' for Inactive)
ROOT
ATOM      1  N1  IND d   1       0.547   2.334  -1.300  0.00  0.00    -0.196 N 
ATOM      2  C2  IND d   1       0.364   3.687  -1.368  0.00  0.00     0.054 A 
ATOM      3  C3  IND d   1      -0.556   4.083  -0.460  0.00  0.00    -0.031 A 
ATOM      4  C4  IND d   1      -1.810   2.696   1.309  0.00  0.00     0.051 A 
ATOM      5  C5  IND d   1      -2.002   1.411   1.733  0.00  0.00    -0.031 A 
ATOM      6  C6  IND d   1      -1.338   0.346   1.158  0.00  0.00     0.015 A 
ATOM      7  C7  IND d   1      -0.445   0.530   0.140  0.00  0.00    -0.016 A 
ATOM      8  C8  IND d   1      -0.254   1.833  -0.298  0.00  0.00    -0.047 A 
ATOM      9  C9  IND d   1      -0.956   2.912   0.254  0.00  0.00    -0.096 A 
ATOM     10  HN1 IND d   1       1.074   1.873  -1.800  0.00  0.00     0.298 HD
ENDROOT
TORSDOF 0
ENDMDL
