MODEL 1
REMARK minimizedAffinity -4.15756845
REMARK minimizedRMSD -1
REMARK  0 active torsions:
REMARK  status: ('A' for Active; 'I' for Inactive)
ROOT
ATOM      1  N1  IND d   1      -1.137   2.053   0.073  0.00  0.00    -0.196 N 
ATOM      2  C2  IND d   1      -1.765   2.296   1.263  0.00  0.00     0.054 A 
ATOM      3  C3  IND d   1      -1.656   1.224   2.079  0.00  0.00    -0.031 A 
ATOM      4  C4  IND d   1      -0.407  -0.995   1.708  0.00  0.00     0.051 A 
ATOM      5  C5  IND d   1       0.287  -1.696   0.762  0.00  0.00    -0.031 A 
ATOM      6  C6  IND d   1       0.550  -1.170  -0.487  0.00  0.00     0.015 A 
ATOM      7  C7  IND d   1       0.136   0.085  -0.834  0.00  0.00    -0.016 A 
ATOM      8  C8  IND d   1      -0.575   0.796   0.123  0.00  0.00    -0.047 A 
ATOM      9  C9  IND d   1      -0.881   0.252   1.377  0.00  0.00    -0.096 A 
ATOM     10  HN1 IND d   1      -1.099   2.594  -0.594  0.00  0.00     0.298 HD
ENDROOT
TORSDOF 0
ENDMDL
