MODEL 1
REMARK minimizedAffinity -5.27457714
REMARK minimizedRMSD -1
REMARK  0 active torsions:
REMARK  status: ('A' for Active; 'I' for Inactive)
ROOT
ATOM      1  N1  IND d   1       0.539   0.360  -0.096  0.00  0.00    -0.196 N 
ATOM      2  C2  IND d   1       0.426  -0.742   0.706  0.00  0.00     0.054 A 
ATOM      3  C3  IND d   1      -0.502  -0.531   1.666  0.00  0.00    -0.031 A 
ATOM      4  C4  IND d   1      -2.027   1.507   2.048  0.00  0.00     0.051 A 
ATOM      5  C5  IND d   1      -2.266   2.774   1.595  0.00  0.00    -0.031 A 
ATOM      6  C6  IND d   1      -1.569   3.311   0.532  0.00  0.00     0.015 A 
ATOM      7  C7  IND d   1      -0.612   2.593  -0.128  0.00  0.00    -0.016 A 
ATOM      8  C8  IND d   1      -0.362   1.309   0.334  0.00  0.00    -0.047 A 
ATOM      9  C9  IND d   1      -1.036   0.774   1.439  0.00  0.00    -0.096 A 
ATOM     10  HN1 IND d   1       1.082   0.446  -0.757  0.00  0.00     0.298 HD
ENDROOT
TORSDOF 0
ENDMDL
