MODEL 1
REMARK minimizedAffinity -4.93323517
REMARK minimizedRMSD -1
REMARK  1 active torsions:
REMARK  status: ('A' for Active; 'I' for Inactive)
REMARK    1  A    between atoms: C3_4  and  O_7 
ROOT
ATOM      1  C   UNL d   1      -2.132  -0.137   2.942  0.00  0.00    -0.033 A 
ATOM      2  C1  UNL d   1      -2.830   0.210   1.784  0.00  0.00     0.039 A 
ATOM      3  C2  UNL d   1      -2.165   0.268   0.557  0.00  0.00    -0.080 A 
ATOM      4  C3  UNL d   1      -0.805  -0.023   0.502  0.00  0.00     0.150 A 
ATOM      5  C4  UNL d   1      -0.104  -0.374   1.652  0.00  0.00    -0.007 A 
ATOM      6  C5  UNL d   1      -0.769  -0.430   2.876  0.00  0.00     0.039 A 
ENDROOT
BRANCH   4   7
ATOM      7  O   UNL d   1      -0.113   0.025  -0.671  0.00  0.00    -0.526 OA
ATOM      8  H5  UNL d   1      -0.719   0.309  -1.375  0.00  0.00     0.418 HD
ENDBRANCH   4   7
TORSDOF 1
ENDMDL
