MODEL 1
REMARK minimizedAffinity -4.07341528
REMARK minimizedRMSD -1
REMARK  1 active torsions:
REMARK  status: ('A' for Active; 'I' for Inactive)
REMARK    1  A    between atoms: C3_4  and  O_7 
ROOT
ATOM      1  C   UNL d   1      -1.149   0.592   2.541  0.00  0.00    -0.033 A 
ATOM      2  C1  UNL d   1      -2.044   0.724   1.478  0.00  0.00     0.039 A 
ATOM      3  C2  UNL d   1      -1.596   0.582   0.164  0.00  0.00    -0.080 A 
ATOM      4  C3  UNL d   1      -0.252   0.308  -0.074  0.00  0.00     0.150 A 
ATOM      5  C4  UNL d   1       0.645   0.172   0.980  0.00  0.00    -0.007 A 
ATOM      6  C5  UNL d   1       0.196   0.315   2.292  0.00  0.00     0.039 A 
ENDROOT
BRANCH   4   7
ATOM      7  O   UNL d   1       0.233   0.166  -1.340  0.00  0.00    -0.526 OA
ATOM      8  H5  UNL d   1      -0.494   0.315  -1.967  0.00  0.00     0.418 HD
ENDBRANCH   4   7
TORSDOF 1
ENDMDL
