MODEL 1
REMARK minimizedAffinity -4.09331608
REMARK minimizedRMSD -1
REMARK  1 active torsions:
REMARK  status: ('A' for Active; 'I' for Inactive)
REMARK    1  A    between atoms: C3_4  and  O_7 
ROOT
ATOM      1  C   UNL d   1       0.096  -0.355  -1.137  0.00  0.00    -0.033 A 
ATOM      2  C1  UNL d   1       0.630   0.847  -0.667  0.00  0.00     0.039 A 
ATOM      3  C2  UNL d   1       0.873   1.019   0.697  0.00  0.00    -0.080 A 
ATOM      4  C3  UNL d   1       0.579  -0.017   1.579  0.00  0.00     0.150 A 
ATOM      5  C4  UNL d   1       0.050  -1.218   1.118  0.00  0.00    -0.007 A 
ATOM      6  C5  UNL d   1      -0.192  -1.388  -0.244  0.00  0.00     0.039 A 
ENDROOT
BRANCH   4   7
ATOM      7  O   UNL d   1       0.794   0.107   2.920  0.00  0.00    -0.526 OA
ATOM      8  H5  UNL d   1       1.134   0.999   3.096  0.00  0.00     0.418 HD
ENDBRANCH   4   7
TORSDOF 1
ENDMDL
