MODEL 1
REMARK minimizedAffinity -5.16095018
REMARK minimizedRMSD -1
REMARK  1 active torsions:
REMARK  status: ('A' for Active; 'I' for Inactive)
REMARK    1  A    between atoms: C3_4  and  O_7 
ROOT
ATOM      1  C   UNL d   1      -0.073   0.459  -0.498  0.00  0.00    -0.033 A 
ATOM      2  C1  UNL d   1       1.116   0.180   0.179  0.00  0.00     0.039 A 
ATOM      3  C2  UNL d   1       1.079  -0.309   1.486  0.00  0.00    -0.080 A 
ATOM      4  C3  UNL d   1      -0.152  -0.516   2.104  0.00  0.00     0.150 A 
ATOM      5  C4  UNL d   1      -1.340  -0.244   1.434  0.00  0.00    -0.007 A 
ATOM      6  C5  UNL d   1      -1.301   0.246   0.129  0.00  0.00     0.039 A 
ENDROOT
BRANCH   4   7
ATOM      7  O   UNL d   1      -0.238  -0.988   3.380  0.00  0.00    -0.526 OA
ATOM      8  H5  UNL d   1       0.662  -1.104   3.727  0.00  0.00     0.418 HD
ENDBRANCH   4   7
TORSDOF 1
ENDMDL
