MODEL 1
REMARK minimizedAffinity -3.54204702
REMARK minimizedRMSD -1
REMARK  1 active torsions:
REMARK  status: ('A' for Active; 'I' for Inactive)
REMARK    1  A    between atoms: C3_4  and  O_7 
ROOT
ATOM      1  C   UNL d   1      -1.755   0.124   2.985  0.00  0.00    -0.033 A 
ATOM      2  C1  UNL d   1      -2.407   0.273   1.759  0.00  0.00     0.039 A 
ATOM      3  C2  UNL d   1      -1.668   0.324   0.576  0.00  0.00    -0.080 A 
ATOM      4  C3  UNL d   1      -0.281   0.224   0.631  0.00  0.00     0.150 A 
ATOM      5  C4  UNL d   1       0.375   0.072   1.848  0.00  0.00    -0.007 A 
ATOM      6  C5  UNL d   1      -0.364   0.022   3.030  0.00  0.00     0.039 A 
ENDROOT
BRANCH   4   7
ATOM      7  O   UNL d   1       0.483   0.273  -0.497  0.00  0.00    -0.526 OA
ATOM      8  H5  UNL d   1      -0.103   0.410  -1.260  0.00  0.00     0.418 HD
ENDBRANCH   4   7
TORSDOF 1
ENDMDL
