MODEL 1
REMARK minimizedAffinity -3.66103196
REMARK minimizedRMSD -1
REMARK  1 active torsions:
REMARK  status: ('A' for Active; 'I' for Inactive)
REMARK    1  A    between atoms: C3_4  and  O_7 
ROOT
ATOM      1  C   UNL d   1       1.082   0.345  -0.313  0.00  0.00    -0.033 A 
ATOM      2  C1  UNL d   1      -0.217  -0.143  -0.470  0.00  0.00     0.039 A 
ATOM      3  C2  UNL d   1      -0.956  -0.538   0.647  0.00  0.00    -0.080 A 
ATOM      4  C3  UNL d   1      -0.385  -0.439   1.913  0.00  0.00     0.150 A 
ATOM      5  C4  UNL d   1       0.907   0.049   2.077  0.00  0.00    -0.007 A 
ATOM      6  C5  UNL d   1       1.643   0.442   0.960  0.00  0.00     0.039 A 
ENDROOT
BRANCH   4   7
ATOM      7  O   UNL d   1      -1.066  -0.817   3.033  0.00  0.00    -0.526 OA
ATOM      8  H5  UNL d   1      -1.934  -1.161   2.764  0.00  0.00     0.418 HD
ENDBRANCH   4   7
TORSDOF 1
ENDMDL
