MODEL 1
REMARK minimizedAffinity -5.49012566
REMARK minimizedRMSD -1
REMARK  1 active torsions:
REMARK  status: ('A' for Active; 'I' for Inactive)
REMARK    1  A    between atoms: C3_4  and  O_7 
ROOT
ATOM      1  C   UNL d   1      -0.892  -1.088   2.727  0.00  0.00    -0.033 A 
ATOM      2  C1  UNL d   1      -0.089  -0.279   1.920  0.00  0.00     0.039 A 
ATOM      3  C2  UNL d   1      -0.669   0.531   0.942  0.00  0.00    -0.080 A 
ATOM      4  C3  UNL d   1      -2.052   0.524   0.782  0.00  0.00     0.150 A 
ATOM      5  C4  UNL d   1      -2.859  -0.276   1.585  0.00  0.00    -0.007 A 
ATOM      6  C5  UNL d   1      -2.277  -1.085   2.560  0.00  0.00     0.039 A 
ENDROOT
BRANCH   4   7
ATOM      7  O   UNL d   1      -2.664   1.294  -0.162  0.00  0.00    -0.526 OA
ATOM      8  H5  UNL d   1      -1.979   1.771  -0.660  0.00  0.00     0.418 HD
ENDBRANCH   4   7
TORSDOF 1
ENDMDL
