MODEL 1
REMARK minimizedAffinity -4.57249069
REMARK minimizedRMSD -1
REMARK  1 active torsions:
REMARK  status: ('A' for Active; 'I' for Inactive)
REMARK    1  A    between atoms: C3_4  and  O_7 
ROOT
ATOM      1  C   UNL d   1      -1.793  -1.320   3.313  0.00  0.00    -0.033 A 
ATOM      2  C1  UNL d   1      -0.447  -1.372   3.681  0.00  0.00     0.039 A 
ATOM      3  C2  UNL d   1       0.533  -0.877   2.818  0.00  0.00    -0.080 A 
ATOM      4  C3  UNL d   1       0.155  -0.334   1.594  0.00  0.00     0.150 A 
ATOM      5  C4  UNL d   1      -1.184  -0.275   1.223  0.00  0.00    -0.007 A 
ATOM      6  C5  UNL d   1      -2.162  -0.771   2.085  0.00  0.00     0.039 A 
ENDROOT
BRANCH   4   7
ATOM      7  O   UNL d   1       1.076   0.157   0.717  0.00  0.00    -0.526 OA
ATOM      8  H5  UNL d   1       1.962   0.024   1.095  0.00  0.00     0.418 HD
ENDBRANCH   4   7
TORSDOF 1
ENDMDL
