MODEL 1
REMARK minimizedAffinity -5.0202179
REMARK minimizedRMSD -1
REMARK  1 active torsions:
REMARK  status: ('A' for Active; 'I' for Inactive)
REMARK    1  A    between atoms: C3_4  and  O_7 
ROOT
ATOM      1  C   UNL d   1      -1.437   0.020   3.391  0.00  0.00    -0.033 A 
ATOM      2  C1  UNL d   1      -2.371   0.053   2.353  0.00  0.00     0.039 A 
ATOM      3  C2  UNL d   1      -1.942   0.184   1.030  0.00  0.00    -0.080 A 
ATOM      4  C3  UNL d   1      -0.580   0.280   0.760  0.00  0.00     0.150 A 
ATOM      5  C4  UNL d   1       0.355   0.243   1.788  0.00  0.00    -0.007 A 
ATOM      6  C5  UNL d   1      -0.074   0.113   3.108  0.00  0.00     0.039 A 
ENDROOT
BRANCH   4   7
ATOM      7  O   UNL d   1      -0.115   0.414  -0.515  0.00  0.00    -0.526 OA
ATOM      8  H5  UNL d   1      -0.876   0.453  -1.118  0.00  0.00     0.418 HD
ENDBRANCH   4   7
TORSDOF 1
ENDMDL
