MODEL 1
REMARK minimizedAffinity -3.09648705
REMARK minimizedRMSD -1
REMARK  1 active torsions:
REMARK  status: ('A' for Active; 'I' for Inactive)
REMARK    1  A    between atoms: C3_4  and  O_7 
ROOT
ATOM      1  C   UNL d   1      -0.897   0.337   2.636  0.00  0.00    -0.033 A 
ATOM      2  C1  UNL d   1       0.417   0.031   2.277  0.00  0.00     0.039 A 
ATOM      3  C2  UNL d   1       0.777  -0.037   0.930  0.00  0.00    -0.080 A 
ATOM      4  C3  UNL d   1      -0.185   0.203  -0.047  0.00  0.00     0.150 A 
ATOM      5  C4  UNL d   1      -1.495   0.512   0.303  0.00  0.00    -0.007 A 
ATOM      6  C5  UNL d   1      -1.853   0.579   1.649  0.00  0.00     0.039 A 
ENDROOT
BRANCH   4   7
ATOM      7  O   UNL d   1       0.117   0.143  -1.375  0.00  0.00    -0.526 OA
ATOM      8  H5  UNL d   1       1.051  -0.109  -1.467  0.00  0.00     0.418 HD
ENDBRANCH   4   7
TORSDOF 1
ENDMDL
