MODEL 1
REMARK minimizedAffinity -4.39493084
REMARK minimizedRMSD -1
REMARK  1 active torsions:
REMARK  status: ('A' for Active; 'I' for Inactive)
REMARK    1  A    between atoms: C3_4  and  O_7 
ROOT
ATOM      1  C   UNL d   1      -1.934  -0.369   3.118  0.00  0.00    -0.033 A 
ATOM      2  C1  UNL d   1      -2.736  -0.156   1.996  0.00  0.00     0.039 A 
ATOM      3  C2  UNL d   1      -2.153  -0.020   0.734  0.00  0.00    -0.080 A 
ATOM      4  C3  UNL d   1      -0.769  -0.099   0.610  0.00  0.00     0.150 A 
ATOM      5  C4  UNL d   1       0.036  -0.314   1.723  0.00  0.00    -0.007 A 
ATOM      6  C5  UNL d   1      -0.548  -0.449   2.982  0.00  0.00     0.039 A 
ENDROOT
BRANCH   4   7
ATOM      7  O   UNL d   1      -0.154   0.033  -0.600  0.00  0.00    -0.526 OA
ATOM      8  H5  UNL d   1      -0.833   0.206  -1.273  0.00  0.00     0.418 HD
ENDBRANCH   4   7
TORSDOF 1
ENDMDL
