MODEL 1
REMARK minimizedAffinity -4.31684399
REMARK minimizedRMSD -1
REMARK  1 active torsions:
REMARK  status: ('A' for Active; 'I' for Inactive)
REMARK    1  A    between atoms: C3_4  and  O_7 
ROOT
ATOM      1  C   UNL d   1      -2.693   0.937   0.943  0.00  0.00    -0.033 A 
ATOM      2  C1  UNL d   1      -2.604   0.905   2.336  0.00  0.00     0.039 A 
ATOM      3  C2  UNL d   1      -1.409   0.528   2.953  0.00  0.00    -0.080 A 
ATOM      4  C3  UNL d   1      -0.312   0.188   2.167  0.00  0.00     0.150 A 
ATOM      5  C4  UNL d   1      -0.392   0.222   0.779  0.00  0.00    -0.007 A 
ATOM      6  C5  UNL d   1      -1.586   0.598   0.164  0.00  0.00     0.039 A 
ENDROOT
BRANCH   4   7
ATOM      7  O   UNL d   1       0.874  -0.190   2.724  0.00  0.00    -0.526 OA
ATOM      8  H5  UNL d   1       0.772  -0.195   3.690  0.00  0.00     0.418 HD
ENDBRANCH   4   7
TORSDOF 1
ENDMDL
