MODEL 1
REMARK minimizedAffinity -5.16607952
REMARK minimizedRMSD -1
REMARK  1 active torsions:
REMARK  status: ('A' for Active; 'I' for Inactive)
REMARK    1  A    between atoms: C3_4  and  O_7 
ROOT
ATOM      1  C   UNL d   1       0.248   0.327  -0.068  0.00  0.00    -0.033 A 
ATOM      2  C1  UNL d   1      -1.058  -0.087   0.199  0.00  0.00     0.039 A 
ATOM      3  C2  UNL d   1      -1.410  -0.507   1.484  0.00  0.00    -0.080 A 
ATOM      4  C3  UNL d   1      -0.448  -0.507   2.490  0.00  0.00     0.150 A 
ATOM      5  C4  UNL d   1       0.854  -0.092   2.231  0.00  0.00    -0.007 A 
ATOM      6  C5  UNL d   1       1.204   0.326   0.948  0.00  0.00     0.039 A 
ENDROOT
BRANCH   4   7
ATOM      7  O   UNL d   1      -0.743  -0.912   3.758  0.00  0.00    -0.526 OA
ATOM      8  H5  UNL d   1      -1.672  -1.198   3.781  0.00  0.00     0.418 HD
ENDBRANCH   4   7
TORSDOF 1
ENDMDL
