MODEL 1
REMARK minimizedAffinity -5.63850498
REMARK minimizedRMSD -1
REMARK  1 active torsions:
REMARK  status: ('A' for Active; 'I' for Inactive)
REMARK    1  A    between atoms: C3_4  and  O_7 
ROOT
ATOM      1  C   UNL d   1      -2.609  -0.439   3.387  0.00  0.00    -0.033 A 
ATOM      2  C1  UNL d   1      -3.321   0.089   2.308  0.00  0.00     0.039 A 
ATOM      3  C2  UNL d   1      -2.658   0.407   1.121  0.00  0.00    -0.080 A 
ATOM      4  C3  UNL d   1      -1.285   0.193   1.027  0.00  0.00     0.150 A 
ATOM      5  C4  UNL d   1      -0.571  -0.336   2.096  0.00  0.00    -0.007 A 
ATOM      6  C5  UNL d   1      -1.235  -0.653   3.281  0.00  0.00     0.039 A 
ENDROOT
BRANCH   4   7
ATOM      7  O   UNL d   1      -0.594   0.493  -0.109  0.00  0.00    -0.526 OA
ATOM      8  H5  UNL d   1      -1.212   0.877  -0.754  0.00  0.00     0.418 HD
ENDBRANCH   4   7
TORSDOF 1
ENDMDL
