MODEL 1
REMARK minimizedAffinity -5.88095522
REMARK minimizedRMSD -1
REMARK  1 active torsions:
REMARK  status: ('A' for Active; 'I' for Inactive)
REMARK    1  A    between atoms: C3_4  and  O_7 
ROOT
ATOM      1  C   UNL d   1      -1.623  -0.791   3.505  0.00  0.00    -0.033 A 
ATOM      2  C1  UNL d   1      -2.855  -0.138   3.419  0.00  0.00     0.039 A 
ATOM      3  C2  UNL d   1      -3.264   0.429   2.211  0.00  0.00    -0.080 A 
ATOM      4  C3  UNL d   1      -2.434   0.336   1.097  0.00  0.00     0.150 A 
ATOM      5  C4  UNL d   1      -1.208  -0.316   1.174  0.00  0.00    -0.007 A 
ATOM      6  C5  UNL d   1      -0.801  -0.881   2.382  0.00  0.00     0.039 A 
ENDROOT
BRANCH   4   7
ATOM      7  O   UNL d   1      -2.788   0.879  -0.103  0.00  0.00    -0.526 OA
ATOM      8  H5  UNL d   1      -3.646   1.322   0.002  0.00  0.00     0.418 HD
ENDBRANCH   4   7
TORSDOF 1
ENDMDL
