MODEL 1
REMARK minimizedAffinity 15.1245203
REMARK minimizedRMSD -1
REMARK  0 active torsions:
REMARK  status: ('A' for Active; 'I' for Inactive)
ROOT
ATOM      1  C2' OXE d   1       0.159   0.150  -2.262  0.00  0.00     0.078 C 
ATOM      2  C1' OXE d   1      -0.264  -1.209  -4.682  0.00  0.00     0.078 C 
ATOM      3  C1  OXE d   1       0.068   0.261  -4.749  0.00  0.00    -0.078 A 
ATOM      4  C2  OXE d   1       0.228   0.928  -3.558  0.00  0.00    -0.078 A 
ATOM      5  C3  OXE d   1       0.589   2.273  -3.564  0.00  0.00     0.003 A 
ATOM      6  C4  OXE d   1       0.640   2.987  -4.766  0.00  0.00    -0.002 A 
ATOM      7  C5  OXE d   1       0.442   2.336  -5.988  0.00  0.00    -0.002 A 
ATOM      8  C6  OXE d   1       0.198   0.967  -5.999  0.00  0.00     0.003 A 
ENDROOT
TORSDOF 0
ENDMDL
