MODEL 1
REMARK minimizedAffinity 4.03357744
REMARK minimizedRMSD -1
REMARK  0 active torsions:
REMARK  status: ('A' for Active; 'I' for Inactive)
ROOT
ATOM      1  C2' OXE d   1       2.785   3.962  -3.060  0.00  0.00     0.078 C 
ATOM      2  C1' OXE d   1       1.236   2.662  -5.007  0.00  0.00     0.078 C 
ATOM      3  C1  OXE d   1       1.452   1.955  -3.692  0.00  0.00    -0.078 A 
ATOM      4  C2  OXE d   1       2.250   2.578  -2.763  0.00  0.00    -0.078 A 
ATOM      5  C3  OXE d   1       2.438   1.995  -1.513  0.00  0.00     0.003 A 
ATOM      6  C4  OXE d   1       1.947   0.710  -1.250  0.00  0.00    -0.002 A 
ATOM      7  C5  OXE d   1       1.165   0.041  -2.197  0.00  0.00    -0.002 A 
ATOM      8  C6  OXE d   1       0.873   0.666  -3.404  0.00  0.00     0.003 A 
ENDROOT
TORSDOF 0
ENDMDL
