MODEL 1
REMARK minimizedAffinity 11.6857738
REMARK minimizedRMSD -1
REMARK  0 active torsions:
REMARK  status: ('A' for Active; 'I' for Inactive)
ROOT
ATOM      1  C2' OXE d   1      -3.430  -2.533  -0.449  0.00  0.00     0.078 C 
ATOM      2  C1' OXE d   1      -1.343  -3.658  -1.951  0.00  0.00     0.078 C 
ATOM      3  C1  OXE d   1      -1.396  -3.970  -0.476  0.00  0.00    -0.078 A 
ATOM      4  C2  OXE d   1      -2.393  -3.377   0.260  0.00  0.00    -0.078 A 
ATOM      5  C3  OXE d   1      -2.520  -3.674   1.614  0.00  0.00     0.003 A 
ATOM      6  C4  OXE d   1      -1.550  -4.447   2.264  0.00  0.00    -0.002 A 
ATOM      7  C5  OXE d   1      -0.504  -5.028   1.540  0.00  0.00    -0.002 A 
ATOM      8  C6  OXE d   1      -0.436  -4.834   0.165  0.00  0.00     0.003 A 
ENDROOT
TORSDOF 0
ENDMDL
