MODEL 1
REMARK minimizedAffinity 3.35213518
REMARK minimizedRMSD -1
REMARK  0 active torsions:
REMARK  status: ('A' for Active; 'I' for Inactive)
ROOT
ATOM      1  C2' OXE d   1       0.554   1.129  -5.375  0.00  0.00     0.078 C 
ATOM      2  C1' OXE d   1       2.723   2.186  -3.940  0.00  0.00     0.078 C 
ATOM      3  C1  OXE d   1       1.988   1.013  -3.342  0.00  0.00    -0.078 A 
ATOM      4  C2  OXE d   1       0.900   0.532  -4.028  0.00  0.00    -0.078 A 
ATOM      5  C3  OXE d   1       0.219  -0.584  -3.548  0.00  0.00     0.003 A 
ATOM      6  C4  OXE d   1       0.539  -1.124  -2.297  0.00  0.00    -0.002 A 
ATOM      7  C5  OXE d   1       1.619  -0.624  -1.562  0.00  0.00    -0.002 A 
ATOM      8  C6  OXE d   1       2.379   0.414  -2.089  0.00  0.00     0.003 A 
ENDROOT
TORSDOF 0
ENDMDL
