MODEL 1
REMARK minimizedAffinity 13.9854355
REMARK minimizedRMSD -1
REMARK  0 active torsions:
REMARK  status: ('A' for Active; 'I' for Inactive)
ROOT
ATOM      1  C2' OXE d   1       1.714  -5.723   4.807  0.00  0.00     0.078 C 
ATOM      2  C1' OXE d   1       2.728  -5.800   2.191  0.00  0.00     0.078 C 
ATOM      3  C1  OXE d   1       3.715  -5.850   3.330  0.00  0.00    -0.078 A 
ATOM      4  C2  OXE d   1       3.213  -5.764   4.606  0.00  0.00    -0.078 A 
ATOM      5  C3  OXE d   1       4.076  -5.860   5.694  0.00  0.00     0.003 A 
ATOM      6  C4  OXE d   1       5.462  -5.887   5.500  0.00  0.00    -0.002 A 
ATOM      7  C5  OXE d   1       5.997  -5.935   4.208  0.00  0.00    -0.002 A 
ATOM      8  C6  OXE d   1       5.137  -5.960   3.115  0.00  0.00     0.003 A 
ENDROOT
TORSDOF 0
ENDMDL
