MODEL 1
REMARK minimizedAffinity 12.2871656
REMARK minimizedRMSD -1
REMARK  0 active torsions:
REMARK  status: ('A' for Active; 'I' for Inactive)
ROOT
ATOM      1  C2' OXE d   1      -5.994   4.488   3.553  0.00  0.00     0.078 C 
ATOM      2  C1' OXE d   1      -3.680   3.133   2.724  0.00  0.00     0.078 C 
ATOM      3  C1  OXE d   1      -3.558   4.086   3.886  0.00  0.00    -0.078 A 
ATOM      4  C2  OXE d   1      -4.685   4.780   4.255  0.00  0.00    -0.078 A 
ATOM      5  C3  OXE d   1      -4.641   5.632   5.355  0.00  0.00     0.003 A 
ATOM      6  C4  OXE d   1      -3.425   5.904   5.993  0.00  0.00    -0.002 A 
ATOM      7  C5  OXE d   1      -2.257   5.238   5.607  0.00  0.00    -0.002 A 
ATOM      8  C6  OXE d   1      -2.315   4.296   4.585  0.00  0.00     0.003 A 
ENDROOT
TORSDOF 0
ENDMDL
