MODEL 1
REMARK minimizedAffinity 11.8347006
REMARK minimizedRMSD -1
REMARK  0 active torsions:
REMARK  status: ('A' for Active; 'I' for Inactive)
ROOT
ATOM      1  C2' OXE d   1       2.968   2.328  -2.607  0.00  0.00     0.078 C 
ATOM      2  C1' OXE d   1       3.475  -0.046  -1.199  0.00  0.00     0.078 C 
ATOM      3  C1  OXE d   1       2.084   0.165  -1.744  0.00  0.00    -0.078 A 
ATOM      4  C2  OXE d   1       1.833   1.351  -2.391  0.00  0.00    -0.078 A 
ATOM      5  C3  OXE d   1       0.582   1.573  -2.961  0.00  0.00     0.003 A 
ATOM      6  C4  OXE d   1      -0.465   0.669  -2.748  0.00  0.00    -0.002 A 
ATOM      7  C5  OXE d   1      -0.240  -0.527  -2.057  0.00  0.00    -0.002 A 
ATOM      8  C6  OXE d   1       1.036  -0.813  -1.586  0.00  0.00     0.003 A 
ENDROOT
TORSDOF 0
ENDMDL
