MODEL 1
REMARK minimizedAffinity 11.2815866
REMARK minimizedRMSD -1
REMARK  0 active torsions:
REMARK  status: ('A' for Active; 'I' for Inactive)
ROOT
ATOM      1  C2' OXE d   1       2.773   3.086  -2.456  0.00  0.00     0.078 C 
ATOM      2  C1' OXE d   1       3.845   0.492  -2.400  0.00  0.00     0.078 C 
ATOM      3  C1  OXE d   1       2.347   0.637  -2.297  0.00  0.00    -0.078 A 
ATOM      4  C2  OXE d   1       1.835   1.911  -2.278  0.00  0.00    -0.078 A 
ATOM      5  C3  OXE d   1       0.456   2.099  -2.240  0.00  0.00     0.003 A 
ATOM      6  C4  OXE d   1      -0.404   1.008  -2.065  0.00  0.00    -0.002 A 
ATOM      7  C5  OXE d   1       0.101  -0.296  -2.042  0.00  0.00    -0.002 A 
ATOM      8  C6  OXE d   1       1.467  -0.502  -2.199  0.00  0.00     0.003 A 
ENDROOT
TORSDOF 0
ENDMDL
