MODEL 1
REMARK minimizedAffinity 12.9549351
REMARK minimizedRMSD -1
REMARK  0 active torsions:
REMARK  status: ('A' for Active; 'I' for Inactive)
ROOT
ATOM      1  C2' OXE d   1       2.285  -4.343  -0.529  0.00  0.00     0.078 C 
ATOM      2  C1' OXE d   1       3.784  -1.994  -0.189  0.00  0.00     0.078 C 
ATOM      3  C1  OXE d   1       2.732  -2.007  -1.270  0.00  0.00    -0.078 A 
ATOM      4  C2  OXE d   1       2.035  -3.176  -1.460  0.00  0.00    -0.078 A 
ATOM      5  C3  OXE d   1       1.016  -3.225  -2.406  0.00  0.00     0.003 A 
ATOM      6  C4  OXE d   1       0.798  -2.145  -3.270  0.00  0.00    -0.002 A 
ATOM      7  C5  OXE d   1       1.523  -0.958  -3.120  0.00  0.00    -0.002 A 
ATOM      8  C6  OXE d   1       2.462  -0.858  -2.099  0.00  0.00     0.003 A 
ENDROOT
TORSDOF 0
ENDMDL
