MODEL 1
REMARK minimizedAffinity 0.799842
REMARK minimizedRMSD -1
REMARK  0 active torsions:
REMARK  status: ('A' for Active; 'I' for Inactive)
ROOT
ATOM      1  C2' OXE d   1       0.816  -0.689  -2.235  0.00  0.00     0.078 C 
ATOM      2  C1' OXE d   1       1.623   1.418  -0.564  0.00  0.00     0.078 C 
ATOM      3  C1  OXE d   1       1.818   1.584  -2.051  0.00  0.00    -0.078 A 
ATOM      4  C2  OXE d   1       1.463   0.530  -2.857  0.00  0.00    -0.078 A 
ATOM      5  C3  OXE d   1       1.571   0.652  -4.239  0.00  0.00     0.003 A 
ATOM      6  C4  OXE d   1       2.179   1.778  -4.806  0.00  0.00    -0.002 A 
ATOM      7  C5  OXE d   1       2.584   2.848  -4.000  0.00  0.00    -0.002 A 
ATOM      8  C6  OXE d   1       2.372   2.784  -2.627  0.00  0.00     0.003 A 
ENDROOT
TORSDOF 0
ENDMDL
