MODEL 1
REMARK minimizedAffinity 6.24694586
REMARK minimizedRMSD -1
REMARK  0 active torsions:
REMARK  status: ('A' for Active; 'I' for Inactive)
ROOT
ATOM      1  C2' OXE d   1       0.396   0.610  -1.475  0.00  0.00     0.078 C 
ATOM      2  C1' OXE d   1       3.147   0.060  -1.562  0.00  0.00     0.078 C 
ATOM      3  C1  OXE d   1       2.475   0.489  -2.842  0.00  0.00    -0.078 A 
ATOM      4  C2  OXE d   1       1.119   0.711  -2.801  0.00  0.00    -0.078 A 
ATOM      5  C3  OXE d   1       0.459   1.161  -3.941  0.00  0.00     0.003 A 
ATOM      6  C4  OXE d   1       1.134   1.242  -5.165  0.00  0.00    -0.002 A 
ATOM      7  C5  OXE d   1       2.506   0.982  -5.238  0.00  0.00    -0.002 A 
ATOM      8  C6  OXE d   1       3.199   0.646  -4.080  0.00  0.00     0.003 A 
ENDROOT
TORSDOF 0
ENDMDL
