MODEL 1
REMARK minimizedAffinity 14.1059093
REMARK minimizedRMSD -1
REMARK  0 active torsions:
REMARK  status: ('A' for Active; 'I' for Inactive)
ROOT
ATOM      1  C2' OXE d   1       3.344   2.705  -2.905  0.00  0.00     0.078 C 
ATOM      2  C1' OXE d   1       1.736   1.720  -4.984  0.00  0.00     0.078 C 
ATOM      3  C1  OXE d   1       1.837   0.898  -3.723  0.00  0.00    -0.078 A 
ATOM      4  C2  OXE d   1       2.663   1.365  -2.729  0.00  0.00    -0.078 A 
ATOM      5  C3  OXE d   1       2.750   0.674  -1.524  0.00  0.00     0.003 A 
ATOM      6  C4  OXE d   1       2.124  -0.570  -1.374  0.00  0.00    -0.002 A 
ATOM      7  C5  OXE d   1       1.310  -1.083  -2.389  0.00  0.00    -0.002 A 
ATOM      8  C6  OXE d   1       1.122  -0.342  -3.551  0.00  0.00     0.003 A 
ENDROOT
TORSDOF 0
ENDMDL
