MODEL 1
REMARK minimizedAffinity 8.78142738
REMARK minimizedRMSD -1
REMARK  0 active torsions:
REMARK  status: ('A' for Active; 'I' for Inactive)
ROOT
ATOM      1  C2' OXE d   1       0.801  -2.975  -3.060  0.00  0.00     0.078 C 
ATOM      2  C1' OXE d   1       1.886  -3.515  -0.528  0.00  0.00     0.078 C 
ATOM      3  C1  OXE d   1       2.315  -2.246  -1.221  0.00  0.00    -0.078 A 
ATOM      4  C2  OXE d   1       1.815  -2.013  -2.479  0.00  0.00    -0.078 A 
ATOM      5  C3  OXE d   1       2.136  -0.831  -3.141  0.00  0.00     0.003 A 
ATOM      6  C4  OXE d   1       3.082   0.048  -2.601  0.00  0.00    -0.002 A 
ATOM      7  C5  OXE d   1       3.634  -0.190  -1.338  0.00  0.00    -0.002 A 
ATOM      8  C6  OXE d   1       3.230  -1.308  -0.618  0.00  0.00     0.003 A 
ENDROOT
TORSDOF 0
ENDMDL
