MODEL 1
REMARK minimizedAffinity 8.11193752
REMARK minimizedRMSD -1
REMARK  0 active torsions:
REMARK  status: ('A' for Active; 'I' for Inactive)
ROOT
ATOM      1  C2' OXE d   1       0.733  -0.503  -2.629  0.00  0.00     0.078 C 
ATOM      2  C1' OXE d   1       0.782   2.205  -1.893  0.00  0.00     0.078 C 
ATOM      3  C1  OXE d   1       0.489   1.873  -3.335  0.00  0.00    -0.078 A 
ATOM      4  C2  OXE d   1       0.513   0.547  -3.696  0.00  0.00    -0.078 A 
ATOM      5  C3  OXE d   1       0.196   0.182  -5.001  0.00  0.00     0.003 A 
ATOM      6  C4  OXE d   1       0.005   1.161  -5.984  0.00  0.00    -0.002 A 
ATOM      7  C5  OXE d   1       0.015   2.518  -5.646  0.00  0.00    -0.002 A 
ATOM      8  C6  OXE d   1       0.214   2.889  -4.320  0.00  0.00     0.003 A 
ENDROOT
TORSDOF 0
ENDMDL
