MODEL 1
REMARK minimizedAffinity 11.4174252
REMARK minimizedRMSD -1
REMARK  0 active torsions:
REMARK  status: ('A' for Active; 'I' for Inactive)
ROOT
ATOM      1  C2' OXE d   1      -5.138   3.836   2.477  0.00  0.00     0.078 C 
ATOM      2  C1' OXE d   1      -2.707   5.238   2.410  0.00  0.00     0.078 C 
ATOM      3  C1  OXE d   1      -3.500   5.266   3.692  0.00  0.00    -0.078 A 
ATOM      4  C2  OXE d   1      -4.711   4.616   3.701  0.00  0.00    -0.078 A 
ATOM      5  C3  OXE d   1      -5.457   4.565   4.875  0.00  0.00     0.003 A 
ATOM      6  C4  OXE d   1      -5.060   5.298   6.000  0.00  0.00    -0.002 A 
ATOM      7  C5  OXE d   1      -3.850   5.999   5.999  0.00  0.00    -0.002 A 
ATOM      8  C6  OXE d   1      -3.040   5.959   4.870  0.00  0.00     0.003 A 
ENDROOT
TORSDOF 0
ENDMDL
