MODEL 1
REMARK minimizedAffinity 8.98903275
REMARK minimizedRMSD -1
REMARK  0 active torsions:
REMARK  status: ('A' for Active; 'I' for Inactive)
ROOT
ATOM      1  C2' OXE d   1      -0.611   0.806  -3.933  0.00  0.00     0.078 C 
ATOM      2  C1' OXE d   1      -0.639  -0.961  -1.753  0.00  0.00     0.078 C 
ATOM      3  C1  OXE d   1       0.208   0.281  -1.640  0.00  0.00    -0.078 A 
ATOM      4  C2  OXE d   1       0.253   1.117  -2.730  0.00  0.00    -0.078 A 
ATOM      5  C3  OXE d   1       0.975   2.305  -2.659  0.00  0.00     0.003 A 
ATOM      6  C4  OXE d   1       1.780   2.579  -1.546  0.00  0.00    -0.002 A 
ATOM      7  C5  OXE d   1       1.780   1.722  -0.441  0.00  0.00    -0.002 A 
ATOM      8  C6  OXE d   1       0.968   0.593  -0.455  0.00  0.00     0.003 A 
ENDROOT
TORSDOF 0
ENDMDL
