MODEL 1
REMARK minimizedAffinity 11.269002
REMARK minimizedRMSD -1
REMARK  0 active torsions:
REMARK  status: ('A' for Active; 'I' for Inactive)
ROOT
ATOM      1  C2' OXE d   1       1.693   1.596  -2.201  0.00  0.00     0.078 C 
ATOM      2  C1' OXE d   1      -0.363  -0.309  -2.358  0.00  0.00     0.078 C 
ATOM      3  C1  OXE d   1       0.014   0.425  -3.621  0.00  0.00    -0.078 A 
ATOM      4  C2  OXE d   1       0.989   1.388  -3.525  0.00  0.00    -0.078 A 
ATOM      5  C3  OXE d   1       1.413   2.056  -4.670  0.00  0.00     0.003 A 
ATOM      6  C4  OXE d   1       0.750   1.866  -5.888  0.00  0.00    -0.002 A 
ATOM      7  C5  OXE d   1      -0.272   0.918  -5.999  0.00  0.00    -0.002 A 
ATOM      8  C6  OXE d   1      -0.623   0.160  -4.887  0.00  0.00     0.003 A 
ENDROOT
TORSDOF 0
ENDMDL
