MODEL 1
REMARK minimizedAffinity 2.98257279
REMARK minimizedRMSD -1
REMARK  2 active torsions:
REMARK  status: ('A' for Active; 'I' for Inactive)
REMARK    1  A    between atoms: C1_2  and  C2_3 
REMARK    2  A    between atoms: C2_3  and  C3_4 
ROOT
ATOM      1  C3  UNL d   1      -3.405  -5.079  -5.926  0.00  0.00    -0.075 A 
ATOM      2  C4  UNL d   1      -3.562  -3.687  -5.984  0.00  0.00     0.002 A 
ATOM      3  C5  UNL d   1      -4.836  -3.118  -6.000  0.00  0.00     0.002 A 
ATOM      4  C6  UNL d   1      -5.966  -3.932  -5.969  0.00  0.00    -0.004 A 
ATOM      5  C7  UNL d   1      -5.821  -5.317  -5.928  0.00  0.00     0.002 A 
ATOM      6  C8  UNL d   1      -4.548  -5.889  -5.908  0.00  0.00     0.002 A 
ENDROOT
BRANCH   1   7
ATOM      7  C2  UNL d   1      -2.029  -5.700  -5.879  0.00  0.00     0.056 C 
BRANCH   7   8
ATOM      8  C1  UNL d   1      -1.386  -5.687  -4.488  0.00  0.00     0.007 C 
ATOM      9  C   UNL d   1      -0.303  -4.627  -4.337  0.00  0.00     0.009 C 
ENDBRANCH   7   8
ENDBRANCH   1   7
TORSDOF 2
ENDMDL
