MODEL 1
REMARK minimizedAffinity 7.85295725
REMARK minimizedRMSD -1
REMARK  2 active torsions:
REMARK  status: ('A' for Active; 'I' for Inactive)
REMARK    1  A    between atoms: C1_2  and  C2_3 
REMARK    2  A    between atoms: C2_3  and  C3_4 
ROOT
ATOM      1  C3  UNL d   1       3.956  -4.819  -0.904  0.00  0.00    -0.075 A 
ATOM      2  C4  UNL d   1       5.053  -3.947  -0.849  0.00  0.00     0.002 A 
ATOM      3  C5  UNL d   1       6.000  -3.934  -1.873  0.00  0.00     0.002 A 
ATOM      4  C6  UNL d   1       5.868  -4.798  -2.959  0.00  0.00    -0.004 A 
ATOM      5  C7  UNL d   1       4.791  -5.680  -3.016  0.00  0.00     0.002 A 
ATOM      6  C8  UNL d   1       3.840  -5.691  -1.994  0.00  0.00     0.002 A 
ENDROOT
BRANCH   1   7
ATOM      7  C2  UNL d   1       2.912  -4.817   0.187  0.00  0.00     0.056 C 
BRANCH   7   8
ATOM      8  C1  UNL d   1       1.494  -5.123  -0.306  0.00  0.00     0.007 C 
ATOM      9  C   UNL d   1       0.822  -3.934  -0.980  0.00  0.00     0.009 C 
ENDBRANCH   7   8
ENDBRANCH   1   7
TORSDOF 2
ENDMDL
