MODEL 1
REMARK minimizedAffinity 8.38717175
REMARK minimizedRMSD -1
REMARK  2 active torsions:
REMARK  status: ('A' for Active; 'I' for Inactive)
REMARK    1  A    between atoms: C1_2  and  C2_3 
REMARK    2  A    between atoms: C2_3  and  C3_4 
ROOT
ATOM      1  C3  UNL d   1       0.497   3.685  -0.639  0.00  0.00    -0.075 A 
ATOM      2  C4  UNL d   1       0.853   2.577   0.144  0.00  0.00     0.002 A 
ATOM      3  C5  UNL d   1      -0.113   1.884   0.873  0.00  0.00     0.002 A 
ATOM      4  C6  UNL d   1      -1.444   2.295   0.838  0.00  0.00    -0.004 A 
ATOM      5  C7  UNL d   1      -1.807   3.404   0.077  0.00  0.00     0.002 A 
ATOM      6  C8  UNL d   1      -0.843   4.096  -0.658  0.00  0.00     0.002 A 
ENDROOT
BRANCH   1   7
ATOM      7  C2  UNL d   1       1.533   4.421  -1.454  0.00  0.00     0.056 C 
BRANCH   7   8
ATOM      8  C1  UNL d   1       1.043   5.754  -2.029  0.00  0.00     0.007 C 
ATOM      9  C   UNL d   1       1.504   5.996  -3.460  0.00  0.00     0.009 C 
ENDBRANCH   7   8
ENDBRANCH   1   7
TORSDOF 2
ENDMDL
