MODEL 1
REMARK minimizedAffinity -4.13136435
REMARK minimizedRMSD -1
REMARK  0 active torsions:
REMARK  status: ('A' for Active; 'I' for Inactive)
ROOT
ATOM      1  O1  BZF d   1      -0.659   0.503  -3.499  0.00  0.00    -0.204 OA
ATOM      2  C2  BZF d   1      -1.870   1.140  -3.307  0.00  0.00     0.174 A 
ATOM      3  C3  BZF d   1      -2.157   1.236  -1.993  0.00  0.00    -0.012 A 
ATOM      4  C3A BZF d   1      -1.014   0.703  -1.318  0.00  0.00    -0.107 A 
ATOM      5  C4  BZF d   1      -0.693   0.540  -0.001  0.00  0.00     0.055 A 
ATOM      6  C5  BZF d   1       0.471  -0.081   0.324  0.00  0.00    -0.016 A 
ATOM      7  C6  BZF d   1       1.334  -0.556  -0.642  0.00  0.00     0.022 A 
ATOM      8  C7  BZF d   1       1.061  -0.413  -1.962  0.00  0.00     0.029 A 
ATOM      9  C7A BZF d   1      -0.099   0.243  -2.293  0.00  0.00     0.058 A 
ENDROOT
TORSDOF 0
ENDMDL
