MODEL 1
REMARK minimizedAffinity -3.39905119
REMARK minimizedRMSD -1
REMARK  0 active torsions:
REMARK  status: ('A' for Active; 'I' for Inactive)
ROOT
ATOM      1  O1  BZF d   1      -1.174   0.758   0.422  0.00  0.00    -0.204 OA
ATOM      2  C2  BZF d   1      -1.488   1.156  -0.863  0.00  0.00     0.174 A 
ATOM      3  C3  BZF d   1      -0.687   0.549  -1.762  0.00  0.00    -0.012 A 
ATOM      4  C3A BZF d   1       0.122  -0.351  -0.997  0.00  0.00    -0.107 A 
ATOM      5  C4  BZF d   1       1.100  -1.245  -1.327  0.00  0.00     0.055 A 
ATOM      6  C5  BZF d   1       1.743  -1.916  -0.335  0.00  0.00    -0.016 A 
ATOM      7  C6  BZF d   1       1.437  -1.714   0.995  0.00  0.00     0.022 A 
ATOM      8  C7  BZF d   1       0.470  -0.842   1.370  0.00  0.00     0.029 A 
ATOM      9  C7A BZF d   1      -0.204  -0.186   0.369  0.00  0.00     0.058 A 
ENDROOT
TORSDOF 0
ENDMDL
