MODEL 1
REMARK minimizedAffinity -3.68886065
REMARK minimizedRMSD -1
REMARK  0 active torsions:
REMARK  status: ('A' for Active; 'I' for Inactive)
ROOT
ATOM      1  O1  BZF d   1      -0.878  -0.443   2.609  0.00  0.00    -0.204 OA
ATOM      2  C2  BZF d   1      -0.445  -1.339   3.567  0.00  0.00     0.174 A 
ATOM      3  C3  BZF d   1       0.674  -1.972   3.159  0.00  0.00    -0.012 A 
ATOM      4  C3A BZF d   1       1.010  -1.371   1.905  0.00  0.00    -0.107 A 
ATOM      5  C4  BZF d   1       2.029  -1.562   1.015  0.00  0.00     0.055 A 
ATOM      6  C5  BZF d   1       2.027  -0.862  -0.151  0.00  0.00    -0.016 A 
ATOM      7  C6  BZF d   1       1.022   0.031  -0.460  0.00  0.00     0.022 A 
ATOM      8  C7  BZF d   1      -0.006   0.258   0.393  0.00  0.00     0.029 A 
ATOM      9  C7A BZF d   1       0.010  -0.423   1.586  0.00  0.00     0.058 A 
ENDROOT
TORSDOF 0
ENDMDL
