MODEL 1
REMARK minimizedAffinity -0.0748271942
REMARK minimizedRMSD -1
REMARK  0 active torsions:
REMARK  status: ('A' for Active; 'I' for Inactive)
ROOT
ATOM      1  O1  BZF d   1      -0.661   0.336  -3.188  0.00  0.00    -0.204 OA
ATOM      2  C2  BZF d   1      -1.868   1.006  -3.226  0.00  0.00     0.174 A 
ATOM      3  C3  BZF d   1      -2.424   1.059  -1.999  0.00  0.00    -0.012 A 
ATOM      4  C3A BZF d   1      -1.464   0.461  -1.124  0.00  0.00    -0.107 A 
ATOM      5  C4  BZF d   1      -1.432   0.235   0.222  0.00  0.00     0.055 A 
ATOM      6  C5  BZF d   1      -0.379  -0.438   0.755  0.00  0.00    -0.016 A 
ATOM      7  C6  BZF d   1       0.657  -0.903  -0.029  0.00  0.00     0.022 A 
ATOM      8  C7  BZF d   1       0.673  -0.699  -1.369  0.00  0.00     0.029 A 
ATOM      9  C7A BZF d   1      -0.375   0.010  -1.905  0.00  0.00     0.058 A 
ENDROOT
TORSDOF 0
ENDMDL
