MODEL 1
REMARK minimizedAffinity -4.8463316
REMARK minimizedRMSD -1
REMARK  0 active torsions:
REMARK  status: ('A' for Active; 'I' for Inactive)
ROOT
ATOM      1  O1  BZF d   1      -2.246   1.549  -0.965  0.00  0.00    -0.204 OA
ATOM      2  C2  BZF d   1      -2.799   1.326  -2.212  0.00  0.00     0.174 A 
ATOM      3  C3  BZF d   1      -2.003   0.528  -2.952  0.00  0.00    -0.012 A 
ATOM      4  C3A BZF d   1      -0.928   0.159  -2.084  0.00  0.00    -0.107 A 
ATOM      5  C4  BZF d   1       0.174  -0.633  -2.238  0.00  0.00     0.055 A 
ATOM      6  C5  BZF d   1       1.068  -0.727  -1.219  0.00  0.00    -0.016 A 
ATOM      7  C6  BZF d   1       0.894  -0.040  -0.036  0.00  0.00     0.022 A 
ATOM      8  C7  BZF d   1      -0.185   0.754   0.166  0.00  0.00     0.029 A 
ATOM      9  C7A BZF d   1      -1.107   0.825  -0.850  0.00  0.00     0.058 A 
ENDROOT
TORSDOF 0
ENDMDL
