MODEL 1
REMARK minimizedAffinity -2.43646049
REMARK minimizedRMSD -1
REMARK  0 active torsions:
REMARK  status: ('A' for Active; 'I' for Inactive)
ROOT
ATOM      1  O1  BZF d   1      -0.806  -0.310   1.705  0.00  0.00    -0.204 OA
ATOM      2  C2  BZF d   1      -1.513   0.636   0.988  0.00  0.00     0.174 A 
ATOM      3  C3  BZF d   1      -0.868   0.950  -0.154  0.00  0.00    -0.012 A 
ATOM      4  C3A BZF d   1       0.269   0.083  -0.196  0.00  0.00    -0.107 A 
ATOM      5  C4  BZF d   1       1.283  -0.093  -1.093  0.00  0.00     0.055 A 
ATOM      6  C5  BZF d   1       2.278  -0.972  -0.801  0.00  0.00    -0.016 A 
ATOM      7  C6  BZF d   1       2.293  -1.686   0.379  0.00  0.00     0.022 A 
ATOM      8  C7  BZF d   1       1.306  -1.549   1.298  0.00  0.00     0.029 A 
ATOM      9  C7A BZF d   1       0.282  -0.686   0.991  0.00  0.00     0.058 A 
ENDROOT
TORSDOF 0
ENDMDL
