MODEL 1
REMARK minimizedAffinity 7.57223988
REMARK minimizedRMSD -1
REMARK  0 active torsions:
REMARK  status: ('A' for Active; 'I' for Inactive)
ROOT
ATOM      1  O1  BZF d   1      -3.491   1.919  -2.183  0.00  0.00    -0.204 OA
ATOM      2  C2  BZF d   1      -4.711   2.090  -1.559  0.00  0.00     0.174 A 
ATOM      3  C3  BZF d   1      -4.926   3.391  -1.276  0.00  0.00    -0.012 A 
ATOM      4  C3A BZF d   1      -3.808   4.087  -1.835  0.00  0.00    -0.107 A 
ATOM      5  C4  BZF d   1      -3.457   5.406  -1.894  0.00  0.00     0.055 A 
ATOM      6  C5  BZF d   1      -2.264   5.747  -2.448  0.00  0.00    -0.016 A 
ATOM      7  C6  BZF d   1      -1.397   4.798  -2.948  0.00  0.00     0.022 A 
ATOM      8  C7  BZF d   1      -1.704   3.478  -2.917  0.00  0.00     0.029 A 
ATOM      9  C7A BZF d   1      -2.924   3.132  -2.387  0.00  0.00     0.058 A 
ENDROOT
TORSDOF 0
ENDMDL
