MODEL 1
REMARK minimizedAffinity 5.93384457
REMARK minimizedRMSD -1
REMARK  0 active torsions:
REMARK  status: ('A' for Active; 'I' for Inactive)
ROOT
ATOM      1  O1  BZF d   1      -1.496   3.940  -3.116  0.00  0.00    -0.204 OA
ATOM      2  C2  BZF d   1      -1.121   2.612  -3.063  0.00  0.00     0.174 A 
ATOM      3  C3  BZF d   1      -0.707   2.280  -1.823  0.00  0.00    -0.012 A 
ATOM      4  C3A BZF d   1      -0.919   3.452  -1.030  0.00  0.00    -0.107 A 
ATOM      5  C4  BZF d   1      -0.716   3.742   0.289  0.00  0.00     0.055 A 
ATOM      6  C5  BZF d   1      -0.958   5.003   0.733  0.00  0.00    -0.016 A 
ATOM      7  C6  BZF d   1      -1.397   5.999  -0.115  0.00  0.00     0.022 A 
ATOM      8  C7  BZF d   1      -1.617   5.758  -1.430  0.00  0.00     0.029 A 
ATOM      9  C7A BZF d   1      -1.405   4.476  -1.875  0.00  0.00     0.058 A 
ENDROOT
TORSDOF 0
ENDMDL
