MODEL 1
REMARK minimizedAffinity -3.06859636
REMARK minimizedRMSD -1
REMARK  0 active torsions:
REMARK  status: ('A' for Active; 'I' for Inactive)
ROOT
ATOM      1  O1  BZF d   1      -1.125   0.388  -3.557  0.00  0.00    -0.204 OA
ATOM      2  C2  BZF d   1      -2.029   1.430  -3.496  0.00  0.00     0.174 A 
ATOM      3  C3  BZF d   1      -2.178   1.861  -2.227  0.00  0.00    -0.012 A 
ATOM      4  C3A BZF d   1      -1.244   1.097  -1.458  0.00  0.00    -0.107 A 
ATOM      5  C4  BZF d   1      -0.911   1.078  -0.134  0.00  0.00     0.055 A 
ATOM      6  C5  BZF d   1      -0.011   0.162   0.308  0.00  0.00    -0.016 A 
ATOM      7  C6  BZF d   1       0.571  -0.754  -0.545  0.00  0.00     0.022 A 
ATOM      8  C7  BZF d   1       0.276  -0.771  -1.867  0.00  0.00     0.029 A 
ATOM      9  C7A BZF d   1      -0.609   0.176  -2.323  0.00  0.00     0.058 A 
ENDROOT
TORSDOF 0
ENDMDL
