MODEL 1
REMARK minimizedAffinity 7.15754604
REMARK minimizedRMSD -1
REMARK  0 active torsions:
REMARK  status: ('A' for Active; 'I' for Inactive)
ROOT
ATOM      1  O1  BZF d   1       2.341   1.369   1.023  0.00  0.00    -0.204 OA
ATOM      2  C2  BZF d   1       3.350   1.482   0.086  0.00  0.00     0.174 A 
ATOM      3  C3  BZF d   1       3.035   0.809  -1.039  0.00  0.00    -0.012 A 
ATOM      4  C3A BZF d   1       1.709   0.317  -0.825  0.00  0.00    -0.107 A 
ATOM      5  C4  BZF d   1       0.844  -0.414  -1.588  0.00  0.00     0.055 A 
ATOM      6  C5  BZF d   1      -0.348  -0.792  -1.057  0.00  0.00    -0.016 A 
ATOM      7  C6  BZF d   1      -0.705  -0.461   0.234  0.00  0.00     0.022 A 
ATOM      8  C7  BZF d   1       0.118   0.266   1.028  0.00  0.00     0.029 A 
ATOM      9  C7A BZF d   1       1.309   0.678   0.482  0.00  0.00     0.058 A 
ENDROOT
TORSDOF 0
ENDMDL
