MODEL 1
REMARK minimizedAffinity -0.169406667
REMARK minimizedRMSD -1
REMARK  0 active torsions:
REMARK  status: ('A' for Active; 'I' for Inactive)
ROOT
ATOM      1  O1  BZF d   1      -0.948   0.122  -1.713  0.00  0.00    -0.204 OA
ATOM      2  C2  BZF d   1      -1.223   1.425  -1.345  0.00  0.00     0.174 A 
ATOM      3  C3  BZF d   1      -0.350   1.852  -0.410  0.00  0.00    -0.012 A 
ATOM      4  C3A BZF d   1       0.581   0.779  -0.246  0.00  0.00    -0.107 A 
ATOM      5  C4  BZF d   1       1.690   0.608   0.532  0.00  0.00     0.055 A 
ATOM      6  C5  BZF d   1       2.335  -0.587   0.511  0.00  0.00    -0.016 A 
ATOM      7  C6  BZF d   1       1.897  -1.635  -0.273  0.00  0.00     0.022 A 
ATOM      8  C7  BZF d   1       0.805  -1.512  -1.066  0.00  0.00     0.029 A 
ATOM      9  C7A BZF d   1       0.170  -0.294  -1.071  0.00  0.00     0.058 A 
ENDROOT
TORSDOF 0
ENDMDL
