MODEL 1
REMARK minimizedAffinity -1.59727752
REMARK minimizedRMSD -1
REMARK  0 active torsions:
REMARK  status: ('A' for Active; 'I' for Inactive)
ROOT
ATOM      1  O1  BZF d   1      -1.066   0.646  -3.537  0.00  0.00    -0.204 OA
ATOM      2  C2  BZF d   1      -1.910   1.682  -3.187  0.00  0.00     0.174 A 
ATOM      3  C3  BZF d   1      -1.771   1.991  -1.881  0.00  0.00    -0.012 A 
ATOM      4  C3A BZF d   1      -0.712   1.155  -1.407  0.00  0.00    -0.107 A 
ATOM      5  C4  BZF d   1      -0.101   1.010  -0.195  0.00  0.00     0.055 A 
ATOM      6  C5  BZF d   1       0.852   0.053  -0.045  0.00  0.00    -0.016 A 
ATOM      7  C6  BZF d   1       1.214  -0.780  -1.083  0.00  0.00     0.022 A 
ATOM      8  C7  BZF d   1       0.639  -0.671  -2.306  0.00  0.00     0.029 A 
ATOM      9  C7A BZF d   1      -0.300   0.317  -2.470  0.00  0.00     0.058 A 
ENDROOT
TORSDOF 0
ENDMDL
