MODEL 1
REMARK minimizedAffinity -2.65453553
REMARK minimizedRMSD -1
REMARK  0 active torsions:
REMARK  status: ('A' for Active; 'I' for Inactive)
ROOT
ATOM      1  O1  BZF d   1       0.082  -0.542  -1.498  0.00  0.00    -0.204 OA
ATOM      2  C2  BZF d   1       0.804  -0.096  -0.407  0.00  0.00     0.174 A 
ATOM      3  C3  BZF d   1       0.498   1.187  -0.124  0.00  0.00    -0.012 A 
ATOM      4  C3A BZF d   1      -0.543   1.537  -1.041  0.00  0.00    -0.107 A 
ATOM      5  C4  BZF d   1      -1.272   2.674  -1.244  0.00  0.00     0.055 A 
ATOM      6  C5  BZF d   1      -2.162   2.713  -2.270  0.00  0.00    -0.016 A 
ATOM      7  C6  BZF d   1      -2.344   1.638  -3.115  0.00  0.00     0.022 A 
ATOM      8  C7  BZF d   1      -1.647   0.487  -2.950  0.00  0.00     0.029 A 
ATOM      9  C7A BZF d   1      -0.771   0.433  -1.894  0.00  0.00     0.058 A 
ENDROOT
TORSDOF 0
ENDMDL
