MODEL 1
REMARK minimizedAffinity -2.92525601
REMARK minimizedRMSD -1
REMARK  0 active torsions:
REMARK  status: ('A' for Active; 'I' for Inactive)
ROOT
ATOM      1  O1  BZF d   1      -1.348   1.833  -0.681  0.00  0.00    -0.204 OA
ATOM      2  C2  BZF d   1      -2.032   1.576  -1.854  0.00  0.00     0.174 A 
ATOM      3  C3  BZF d   1      -1.441   0.578  -2.543  0.00  0.00    -0.012 A 
ATOM      4  C3A BZF d   1      -0.372   0.126  -1.707  0.00  0.00    -0.107 A 
ATOM      5  C4  BZF d   1       0.569  -0.856  -1.835  0.00  0.00     0.055 A 
ATOM      6  C5  BZF d   1       1.517  -0.992  -0.871  0.00  0.00    -0.016 A 
ATOM      7  C6  BZF d   1       1.557  -0.162   0.231  0.00  0.00     0.022 A 
ATOM      8  C7  BZF d   1       0.642   0.823   0.404  0.00  0.00     0.029 A 
ATOM      9  C7A BZF d   1      -0.337   0.942  -0.553  0.00  0.00     0.058 A 
ENDROOT
TORSDOF 0
ENDMDL
