MODEL 1
REMARK minimizedAffinity -5.41568375
REMARK minimizedRMSD -1
REMARK  0 active torsions:
REMARK  status: ('A' for Active; 'I' for Inactive)
ROOT
ATOM      1  O1  BZF d   1      -1.378   0.263  -3.794  0.00  0.00    -0.204 OA
ATOM      2  C2  BZF d   1      -2.324   1.218  -3.476  0.00  0.00     0.174 A 
ATOM      3  C3  BZF d   1      -2.190   1.616  -2.194  0.00  0.00    -0.012 A 
ATOM      4  C3A BZF d   1      -1.034   0.929  -1.706  0.00  0.00    -0.107 A 
ATOM      5  C4  BZF d   1      -0.383   0.922  -0.506  0.00  0.00     0.055 A 
ATOM      6  C5  BZF d   1       0.673   0.085  -0.332  0.00  0.00    -0.016 A 
ATOM      7  C6  BZF d   1       1.102  -0.761  -1.333  0.00  0.00     0.022 A 
ATOM      8  C7  BZF d   1       0.491  -0.786  -2.543  0.00  0.00     0.029 A 
ATOM      9  C7A BZF d   1      -0.556   0.082  -2.733  0.00  0.00     0.058 A 
ENDROOT
TORSDOF 0
ENDMDL
