MODEL 1
REMARK minimizedAffinity -2.45142436
REMARK minimizedRMSD -1
REMARK  0 active torsions:
REMARK  status: ('A' for Active; 'I' for Inactive)
ROOT
ATOM      1  O1  BZF d   1      -0.956   0.962   0.782  0.00  0.00    -0.204 OA
ATOM      2  C2  BZF d   1      -1.231   1.494  -0.463  0.00  0.00     0.174 A 
ATOM      3  C3  BZF d   1      -0.359   1.033  -1.383  0.00  0.00    -0.012 A 
ATOM      4  C3A BZF d   1       0.458   0.087  -0.687  0.00  0.00    -0.107 A 
ATOM      5  C4  BZF d   1       1.495  -0.716  -1.067  0.00  0.00     0.055 A 
ATOM      6  C5  BZF d   1       2.125  -1.470  -0.127  0.00  0.00    -0.016 A 
ATOM      7  C6  BZF d   1       1.748  -1.440   1.200  0.00  0.00     0.022 A 
ATOM      8  C7  BZF d   1       0.722  -0.662   1.623  0.00  0.00     0.029 A 
ATOM      9  C7A BZF d   1       0.062   0.076   0.670  0.00  0.00     0.058 A 
ENDROOT
TORSDOF 0
ENDMDL
