MODEL 1
REMARK minimizedAffinity -0.855173945
REMARK minimizedRMSD -1
REMARK  0 active torsions:
REMARK  status: ('A' for Active; 'I' for Inactive)
ROOT
ATOM      1  O1  BZF d   1       0.351  -0.199   0.369  0.00  0.00    -0.204 OA
ATOM      2  C2  BZF d   1       1.211  -0.745  -0.565  0.00  0.00     0.174 A 
ATOM      3  C3  BZF d   1       0.877  -0.351  -1.811  0.00  0.00    -0.012 A 
ATOM      4  C3A BZF d   1      -0.206   0.567  -1.637  0.00  0.00    -0.107 A 
ATOM      5  C4  BZF d   1      -0.957   1.308  -2.505  0.00  0.00     0.055 A 
ATOM      6  C5  BZF d   1      -1.988   2.049  -2.020  0.00  0.00    -0.016 A 
ATOM      7  C6  BZF d   1      -2.298   2.069  -0.676  0.00  0.00     0.022 A 
ATOM      8  C7  BZF d   1      -1.578   1.355   0.224  0.00  0.00     0.029 A 
ATOM      9  C7A BZF d   1      -0.516   0.631  -0.259  0.00  0.00     0.058 A 
ENDROOT
TORSDOF 0
ENDMDL
