MODEL 1
REMARK minimizedAffinity 7.46475458
REMARK minimizedRMSD -1
REMARK  0 active torsions:
REMARK  status: ('A' for Active; 'I' for Inactive)
ROOT
ATOM      1  O1  BZF d   1      -2.615  -1.802  -1.425  0.00  0.00    -0.204 OA
ATOM      2  C2  BZF d   1      -2.031  -2.873  -0.777  0.00  0.00     0.174 A 
ATOM      3  C3  BZF d   1      -1.465  -2.479   0.382  0.00  0.00    -0.012 A 
ATOM      4  C3A BZF d   1      -1.790  -1.092   0.508  0.00  0.00    -0.107 A 
ATOM      5  C4  BZF d   1      -1.524  -0.147   1.457  0.00  0.00     0.055 A 
ATOM      6  C5  BZF d   1      -1.922   1.134   1.244  0.00  0.00    -0.016 A 
ATOM      7  C6  BZF d   1      -2.585   1.507   0.093  0.00  0.00     0.022 A 
ATOM      8  C7  BZF d   1      -2.876   0.604  -0.875  0.00  0.00     0.029 A 
ATOM      9  C7A BZF d   1      -2.504  -0.699  -0.648  0.00  0.00     0.058 A 
ENDROOT
TORSDOF 0
ENDMDL
