MODEL 1
REMARK minimizedAffinity -3.41062331
REMARK minimizedRMSD -1
REMARK  0 active torsions:
REMARK  status: ('A' for Active; 'I' for Inactive)
ROOT
ATOM      1  C4' PXY d   1       1.583  -0.712   3.678  0.00  0.00     0.077 C 
ATOM      2  C1' PXY d   1      -0.838   0.203  -1.491  0.00  0.00     0.077 C 
ATOM      3  C1  PXY d   1      -0.214  -0.034  -0.130  0.00  0.00    -0.082 A 
ATOM      4  C2  PXY d   1       1.101   0.020   0.005  0.00  0.00     0.003 A 
ATOM      5  C3  PXY d   1       1.684  -0.223   1.223  0.00  0.00     0.003 A 
ATOM      6  C4  PXY d   1       0.909  -0.471   2.324  0.00  0.00    -0.082 A 
ATOM      7  C5  PXY d   1      -0.434  -0.516   2.197  0.00  0.00     0.003 A 
ATOM      8  C6  PXY d   1      -1.004  -0.308   0.944  0.00  0.00     0.003 A 
ENDROOT
TORSDOF 0
ENDMDL
