MODEL 1
REMARK minimizedAffinity -3.89529777
REMARK minimizedRMSD -1
REMARK  0 active torsions:
REMARK  status: ('A' for Active; 'I' for Inactive)
ROOT
ATOM      1  C4' PXY d   1      -0.802  -0.145  -0.566  0.00  0.00     0.077 C 
ATOM      2  C1' PXY d   1       3.183  -1.842   3.262  0.00  0.00     0.077 C 
ATOM      3  C1  PXY d   1       2.128  -1.399   2.267  0.00  0.00    -0.082 A 
ATOM      4  C2  PXY d   1       2.368  -1.504   0.970  0.00  0.00     0.003 A 
ATOM      5  C3  PXY d   1       1.438  -1.078   0.056  0.00  0.00     0.003 A 
ATOM      6  C4  PXY d   1       0.229  -0.589   0.475  0.00  0.00    -0.082 A 
ATOM      7  C5  PXY d   1      -0.027  -0.489   1.796  0.00  0.00     0.003 A 
ATOM      8  C6  PXY d   1       0.947  -0.888   2.708  0.00  0.00     0.003 A 
ENDROOT
TORSDOF 0
ENDMDL
