MODEL 1
REMARK minimizedAffinity -4.46111584
REMARK minimizedRMSD -1
REMARK  0 active torsions:
REMARK  status: ('A' for Active; 'I' for Inactive)
ROOT
ATOM      1  C4' PXY d   1      -1.147   1.142  -2.393  0.00  0.00     0.077 C 
ATOM      2  C1' PXY d   1       0.606  -1.093   2.641  0.00  0.00     0.077 C 
ATOM      3  C1  PXY d   1       0.159  -0.505   1.318  0.00  0.00    -0.082 A 
ATOM      4  C2  PXY d   1      -1.052   0.018   1.210  0.00  0.00     0.003 A 
ATOM      5  C3  PXY d   1      -1.484   0.525   0.011  0.00  0.00     0.003 A 
ATOM      6  C4  PXY d   1      -0.649   0.546  -1.074  0.00  0.00    -0.082 A 
ATOM      7  C5  PXY d   1       0.591   0.024  -0.969  0.00  0.00     0.003 A 
ATOM      8  C6  PXY d   1       0.996  -0.523   0.245  0.00  0.00     0.003 A 
ENDROOT
TORSDOF 0
ENDMDL
