MODEL 1
REMARK minimizedAffinity -4.17449951
REMARK minimizedRMSD -1
REMARK  0 active torsions:
REMARK  status: ('A' for Active; 'I' for Inactive)
ROOT
ATOM      1  C4' PXY d   1       1.084  -0.706   3.141  0.00  0.00     0.077 C 
ATOM      2  C1' PXY d   1      -0.838   0.224  -2.231  0.00  0.00     0.077 C 
ATOM      3  C1  PXY d   1      -0.323  -0.026  -0.827  0.00  0.00    -0.082 A 
ATOM      4  C2  PXY d   1      -1.176  -0.071   0.184  0.00  0.00     0.003 A 
ATOM      5  C3  PXY d   1      -0.724  -0.264   1.464  0.00  0.00     0.003 A 
ATOM      6  C4  PXY d   1       0.609  -0.466   1.706  0.00  0.00    -0.082 A 
ATOM      7  C5  PXY d   1       1.484  -0.431   0.678  0.00  0.00     0.003 A 
ATOM      8  C6  PXY d   1       1.009  -0.193  -0.608  0.00  0.00     0.003 A 
ENDROOT
TORSDOF 0
ENDMDL
