MODEL 1
REMARK minimizedAffinity -3.94276333
REMARK minimizedRMSD -1
REMARK  0 active torsions:
REMARK  status: ('A' for Active; 'I' for Inactive)
ROOT
ATOM      1  C4' PXY d   1       2.993  -1.596  -0.682  0.00  0.00     0.077 C 
ATOM      2  C1' PXY d   1      -2.302  -0.293   1.236  0.00  0.00     0.077 C 
ATOM      3  C1  PXY d   1      -0.908  -0.629   0.744  0.00  0.00    -0.082 A 
ATOM      4  C2  PXY d   1      -0.697  -0.804  -0.551  0.00  0.00     0.003 A 
ATOM      5  C3  PXY d   1       0.551  -1.140  -1.010  0.00  0.00     0.003 A 
ATOM      6  C4  PXY d   1       1.604  -1.246  -0.141  0.00  0.00    -0.082 A 
ATOM      7  C5  PXY d   1       1.398  -1.058   1.180  0.00  0.00     0.003 A 
ATOM      8  C6  PXY d   1       0.116  -0.758   1.630  0.00  0.00     0.003 A 
ENDROOT
TORSDOF 0
ENDMDL
