MODEL 1
REMARK minimizedAffinity -3.87682104
REMARK minimizedRMSD -1
REMARK  0 active torsions:
REMARK  status: ('A' for Active; 'I' for Inactive)
ROOT
ATOM      1  C4' PXY d   1       1.549  -1.224   3.258  0.00  0.00     0.077 C 
ATOM      2  C1' PXY d   1      -0.916   0.446  -1.697  0.00  0.00     0.077 C 
ATOM      3  C1  PXY d   1      -0.260   0.001  -0.405  0.00  0.00    -0.082 A 
ATOM      4  C2  PXY d   1      -0.974  -0.045   0.708  0.00  0.00     0.003 A 
ATOM      5  C3  PXY d   1      -0.390  -0.414   1.892  0.00  0.00     0.003 A 
ATOM      6  C4  PXY d   1       0.926  -0.791   1.928  0.00  0.00    -0.082 A 
ATOM      7  C5  PXY d   1       1.659  -0.756   0.794  0.00  0.00     0.003 A 
ATOM      8  C6  PXY d   1       1.057  -0.339  -0.389  0.00  0.00     0.003 A 
ENDROOT
TORSDOF 0
ENDMDL
