MODEL 1
REMARK minimizedAffinity -3.06447291
REMARK minimizedRMSD -1
REMARK  0 active torsions:
REMARK  status: ('A' for Active; 'I' for Inactive)
ROOT
ATOM      1  C4' PXY d   1       0.004   1.901  -2.157  0.00  0.00     0.077 C 
ATOM      2  C1' PXY d   1       0.051  -1.305   2.652  0.00  0.00     0.077 C 
ATOM      3  C1  PXY d   1       0.029  -0.472   1.386  0.00  0.00    -0.082 A 
ATOM      4  C2  PXY d   1       1.078   0.272   1.074  0.00  0.00     0.003 A 
ATOM      5  C3  PXY d   1       1.063   1.056  -0.050  0.00  0.00     0.003 A 
ATOM      6  C4  PXY d   1      -0.015   1.037  -0.894  0.00  0.00    -0.082 A 
ATOM      7  C5  PXY d   1      -1.085   0.272  -0.589  0.00  0.00     0.003 A 
ATOM      8  C6  PXY d   1      -1.067  -0.485   0.579  0.00  0.00     0.003 A 
ENDROOT
TORSDOF 0
ENDMDL
