MODEL 1
REMARK minimizedAffinity -3.94606304
REMARK minimizedRMSD -1
REMARK  0 active torsions:
REMARK  status: ('A' for Active; 'I' for Inactive)
ROOT
ATOM      1  C4' PXY d   1      -1.094   1.007  -1.822  0.00  0.00     0.077 C 
ATOM      2  C1' PXY d   1       1.351  -0.785   3.101  0.00  0.00     0.077 C 
ATOM      3  C1  PXY d   1       0.721  -0.310   1.806  0.00  0.00    -0.082 A 
ATOM      4  C2  PXY d   1      -0.592  -0.165   1.732  0.00  0.00     0.003 A 
ATOM      5  C3  PXY d   1      -1.181   0.234   0.560  0.00  0.00     0.003 A 
ATOM      6  C4  PXY d   1      -0.414   0.538  -0.533  0.00  0.00    -0.082 A 
ATOM      7  C5  PXY d   1       0.928   0.403  -0.462  0.00  0.00     0.003 A 
ATOM      8  C6  PXY d   1       1.503  -0.042   0.725  0.00  0.00     0.003 A 
ENDROOT
TORSDOF 0
ENDMDL
