MODEL 1
REMARK minimizedAffinity -3.2075119
REMARK minimizedRMSD -1
REMARK  0 active torsions:
REMARK  status: ('A' for Active; 'I' for Inactive)
ROOT
ATOM      1  C4' PXY d   1      -1.102   1.648  -2.071  0.00  0.00     0.077 C 
ATOM      2  C1' PXY d   1       0.394  -1.492   2.546  0.00  0.00     0.077 C 
ATOM      3  C1  PXY d   1       0.012  -0.662   1.337  0.00  0.00    -0.082 A 
ATOM      4  C2  PXY d   1      -1.259  -0.568   0.982  0.00  0.00     0.003 A 
ATOM      5  C3  PXY d   1      -1.618   0.152  -0.128  0.00  0.00     0.003 A 
ATOM      6  C4  PXY d   1      -0.672   0.828  -0.851  0.00  0.00    -0.082 A 
ATOM      7  C5  PXY d   1       0.626   0.746  -0.489  0.00  0.00     0.003 A 
ATOM      8  C6  PXY d   1       0.974  -0.024   0.616  0.00  0.00     0.003 A 
ENDROOT
TORSDOF 0
ENDMDL
