MODEL 1
REMARK minimizedAffinity -5.08111143
REMARK minimizedRMSD -1
REMARK  0 active torsions:
REMARK  status: ('A' for Active; 'I' for Inactive)
ROOT
ATOM      1  C4' PXY d   1      -1.157   0.407  -1.911  0.00  0.00     0.077 C 
ATOM      2  C1' PXY d   1       1.678  -1.021   2.920  0.00  0.00     0.077 C 
ATOM      3  C1  PXY d   1       0.923  -0.649   1.659  0.00  0.00    -0.082 A 
ATOM      4  C2  PXY d   1       1.532  -0.721   0.487  0.00  0.00     0.003 A 
ATOM      5  C3  PXY d   1       0.875  -0.358  -0.660  0.00  0.00     0.003 A 
ATOM      6  C4  PXY d   1      -0.437   0.032  -0.612  0.00  0.00    -0.082 A 
ATOM      7  C5  PXY d   1      -1.069   0.098   0.579  0.00  0.00     0.003 A 
ATOM      8  C6  PXY d   1      -0.371  -0.236   1.736  0.00  0.00     0.003 A 
ENDROOT
TORSDOF 0
ENDMDL
