MODEL 1
REMARK minimizedAffinity -4.16077328
REMARK minimizedRMSD -1
REMARK  0 active torsions:
REMARK  status: ('A' for Active; 'I' for Inactive)
ROOT
ATOM      1  C4' PXY d   1      -0.798   0.859  -2.296  0.00  0.00     0.077 C 
ATOM      2  C1' PXY d   1       1.183  -1.819   2.428  0.00  0.00     0.077 C 
ATOM      3  C1  PXY d   1       0.675  -1.118   1.184  0.00  0.00    -0.082 A 
ATOM      4  C2  PXY d   1      -0.384  -0.328   1.264  0.00  0.00     0.003 A 
ATOM      5  C3  PXY d   1      -0.875   0.289   0.142  0.00  0.00     0.003 A 
ATOM      6  C4  PXY d   1      -0.245   0.138  -1.064  0.00  0.00    -0.082 A 
ATOM      7  C5  PXY d   1       0.842  -0.658  -1.152  0.00  0.00     0.003 A 
ATOM      8  C6  PXY d   1       1.301  -1.307  -0.010  0.00  0.00     0.003 A 
ENDROOT
TORSDOF 0
ENDMDL
