MODEL 1
REMARK minimizedAffinity 4.90892458
REMARK minimizedRMSD -1
REMARK  1 active torsions:
REMARK  status: ('A' for Active; 'I' for Inactive)
REMARK    1  A    between atoms: C1_2  and  C2_3 
ROOT
ATOM      1  C2  UNL d   1       1.681   1.322   0.927  0.00  0.00    -0.077 A 
ATOM      2  C3  UNL d   1       0.841   2.206   0.236  0.00  0.00     0.002 A 
ATOM      3  C4  UNL d   1      -0.382   2.594   0.785  0.00  0.00     0.002 A 
ATOM      4  C5  UNL d   1      -0.775   2.106   2.029  0.00  0.00    -0.004 A 
ATOM      5  C6  UNL d   1       0.052   1.224   2.724  0.00  0.00     0.002 A 
ATOM      6  C7  UNL d   1       1.274   0.834   2.176  0.00  0.00     0.002 A 
ENDROOT
BRANCH   1   7
ATOM      7  C1  UNL d   1       3.023   0.941   0.359  0.00  0.00     0.055 C 
ATOM      8  C   UNL d   1       3.764  -0.016   1.282  0.00  0.00     0.019 C 
ENDBRANCH   1   7
TORSDOF 1
ENDMDL
