MODEL 1
REMARK minimizedAffinity -0.969047248
REMARK minimizedRMSD -1
REMARK  1 active torsions:
REMARK  status: ('A' for Active; 'I' for Inactive)
REMARK    1  A    between atoms: C1_2  and  C2_3 
ROOT
ATOM      1  C2  UNL d   1       2.152  -0.824  -0.595  0.00  0.00    -0.077 A 
ATOM      2  C3  UNL d   1       2.857  -0.000   0.294  0.00  0.00     0.002 A 
ATOM      3  C4  UNL d   1       2.360   1.259   0.635  0.00  0.00     0.002 A 
ATOM      4  C5  UNL d   1       1.155   1.704   0.096  0.00  0.00    -0.004 A 
ATOM      5  C6  UNL d   1       0.447   0.894  -0.790  0.00  0.00     0.002 A 
ATOM      6  C7  UNL d   1       0.943  -0.365  -1.134  0.00  0.00     0.002 A 
ENDROOT
BRANCH   1   7
ATOM      7  C1  UNL d   1       2.661  -2.202  -0.927  0.00  0.00     0.055 C 
ATOM      8  C   UNL d   1       1.574  -3.252  -0.745  0.00  0.00     0.019 C 
ENDBRANCH   1   7
TORSDOF 1
ENDMDL
