MODEL 1
REMARK minimizedAffinity 0.560586393
REMARK minimizedRMSD -1
REMARK  0 active torsions:
REMARK  status: ('A' for Active; 'I' for Inactive)
ROOT
ATOM      1  C1  BNZ d   1       4.872   2.609   0.666  0.00  0.00     0.000 A 
ATOM      2  C2  BNZ d   1       5.999   2.992   1.343  0.00  0.00     0.000 A 
ATOM      3  C3  BNZ d   1       6.000   4.114   2.123  0.00  0.00     0.000 A 
ATOM      4  C4  BNZ d   1       4.888   4.874   2.193  0.00  0.00     0.000 A 
ATOM      5  C5  BNZ d   1       3.746   4.506   1.509  0.00  0.00     0.000 A 
ATOM      6  C6  BNZ d   1       3.737   3.355   0.756  0.00  0.00     0.000 A 
ENDROOT
TORSDOF 0
ENDMDL
