MODEL 1
REMARK minimizedAffinity -0.287344098
REMARK minimizedRMSD -1
REMARK  0 active torsions:
REMARK  status: ('A' for Active; 'I' for Inactive)
ROOT
ATOM      1  C1  BNZ d   1       4.006  -4.092  -4.495  0.00  0.00     0.000 A 
ATOM      2  C2  BNZ d   1       3.283  -5.028  -5.185  0.00  0.00     0.000 A 
ATOM      3  C3  BNZ d   1       3.910  -5.994  -5.921  0.00  0.00     0.000 A 
ATOM      4  C4  BNZ d   1       5.256  -5.998  -5.999  0.00  0.00     0.000 A 
ATOM      5  C5  BNZ d   1       5.999  -5.055  -5.318  0.00  0.00     0.000 A 
ATOM      6  C6  BNZ d   1       5.365  -4.108  -4.546  0.00  0.00     0.000 A 
ENDROOT
TORSDOF 0
ENDMDL
