MODEL 1
REMARK minimizedAffinity 11.2997484
REMARK minimizedRMSD -1
REMARK  0 active torsions:
REMARK  status: ('A' for Active; 'I' for Inactive)
ROOT
ATOM      1  C1  BNZ d   1      -1.258   1.918   1.524  0.00  0.00     0.000 A 
ATOM      2  C2  BNZ d   1      -1.215   2.784   0.464  0.00  0.00     0.000 A 
ATOM      3  C3  BNZ d   1      -0.065   2.954  -0.255  0.00  0.00     0.000 A 
ATOM      4  C4  BNZ d   1       1.050   2.289   0.111  0.00  0.00     0.000 A 
ATOM      5  C5  BNZ d   1       1.025   1.420   1.183  0.00  0.00     0.000 A 
ATOM      6  C6  BNZ d   1      -0.144   1.222   1.880  0.00  0.00     0.000 A 
ENDROOT
TORSDOF 0
ENDMDL
