MODEL 1
REMARK minimizedAffinity 8.67574501
REMARK minimizedRMSD -1
REMARK  0 active torsions:
REMARK  status: ('A' for Active; 'I' for Inactive)
ROOT
ATOM      1  C1  BNZ d   1       2.155  -5.999  -4.928  0.00  0.00     0.000 A 
ATOM      2  C2  BNZ d   1       2.992  -5.827  -5.998  0.00  0.00     0.000 A 
ATOM      3  C3  BNZ d   1       3.934  -4.837  -5.998  0.00  0.00     0.000 A 
ATOM      4  C4  BNZ d   1       4.011  -3.996  -4.946  0.00  0.00     0.000 A 
ATOM      5  C5  BNZ d   1       3.168  -4.151  -3.864  0.00  0.00     0.000 A 
ATOM      6  C6  BNZ d   1       2.247  -5.173  -3.851  0.00  0.00     0.000 A 
ENDROOT
TORSDOF 0
ENDMDL
