MODEL 1
REMARK minimizedAffinity 7.07102919
REMARK minimizedRMSD -1
REMARK  0 active torsions:
REMARK  status: ('A' for Active; 'I' for Inactive)
ROOT
ATOM      1  C1  BNZ d   1       1.187   1.780   2.697  0.00  0.00     0.000 A 
ATOM      2  C2  BNZ d   1       1.908   1.617   1.544  0.00  0.00     0.000 A 
ATOM      3  C3  BNZ d   1       1.351   1.890   0.325  0.00  0.00     0.000 A 
ATOM      4  C4  BNZ d   1       0.063   2.286   0.259  0.00  0.00     0.000 A 
ATOM      5  C5  BNZ d   1      -0.679   2.446   1.412  0.00  0.00     0.000 A 
ATOM      6  C6  BNZ d   1      -0.103   2.208   2.639  0.00  0.00     0.000 A 
ENDROOT
TORSDOF 0
ENDMDL
