MODEL 1
REMARK minimizedAffinity 4.19538736
REMARK minimizedRMSD -1
REMARK  0 active torsions:
REMARK  status: ('A' for Active; 'I' for Inactive)
ROOT
ATOM      1  C1  BNZ d   1       3.766  -5.085  -6.000  0.00  0.00     0.000 A 
ATOM      2  C2  BNZ d   1       2.656  -5.886  -6.000  0.00  0.00     0.000 A 
ATOM      3  C3  BNZ d   1       1.875  -6.000  -4.884  0.00  0.00     0.000 A 
ATOM      4  C4  BNZ d   1       2.227  -5.346  -3.758  0.00  0.00     0.000 A 
ATOM      5  C5  BNZ d   1       3.349  -4.542  -3.740  0.00  0.00     0.000 A 
ATOM      6  C6  BNZ d   1       4.111  -4.398  -4.877  0.00  0.00     0.000 A 
ENDROOT
TORSDOF 0
ENDMDL
