MODEL 1
REMARK minimizedAffinity -1.65647292
REMARK minimizedRMSD -1
REMARK  0 active torsions:
REMARK  status: ('A' for Active; 'I' for Inactive)
ROOT
ATOM      1  C1  BNZ d   1       2.705   2.091   0.068  0.00  0.00     0.000 A 
ATOM      2  C2  BNZ d   1       1.370   2.282  -0.168  0.00  0.00     0.000 A 
ATOM      3  C3  BNZ d   1       0.532   2.684   0.834  0.00  0.00     0.000 A 
ATOM      4  C4  BNZ d   1       1.022   2.854   2.079  0.00  0.00     0.000 A 
ATOM      5  C5  BNZ d   1       2.364   2.656   2.335  0.00  0.00     0.000 A 
ATOM      6  C6  BNZ d   1       3.212   2.290   1.315  0.00  0.00     0.000 A 
ENDROOT
TORSDOF 0
ENDMDL
