MODEL 1
REMARK minimizedAffinity 2.39050961
REMARK minimizedRMSD -1
REMARK  0 active torsions:
REMARK  status: ('A' for Active; 'I' for Inactive)
ROOT
ATOM      1  C1  BNZ d   1       1.622   1.468  -0.620  0.00  0.00     0.000 A 
ATOM      2  C2  BNZ d   1       2.901   1.744  -1.026  0.00  0.00     0.000 A 
ATOM      3  C3  BNZ d   1       3.877   2.034  -0.114  0.00  0.00     0.000 A 
ATOM      4  C4  BNZ d   1       3.565   2.089   1.197  0.00  0.00     0.000 A 
ATOM      5  C5  BNZ d   1       2.278   1.823   1.621  0.00  0.00     0.000 A 
ATOM      6  C6  BNZ d   1       1.307   1.492   0.704  0.00  0.00     0.000 A 
ENDROOT
TORSDOF 0
ENDMDL
