MODEL 1
REMARK minimizedAffinity 0.387124211
REMARK minimizedRMSD -1
REMARK  0 active torsions:
REMARK  status: ('A' for Active; 'I' for Inactive)
ROOT
ATOM      1  C1  BNZ d   1      -0.309  -3.645   2.257  0.00  0.00     0.000 A 
ATOM      2  C2  BNZ d   1      -0.009  -3.662   3.593  0.00  0.00     0.000 A 
ATOM      3  C3  BNZ d   1       0.252  -4.839   4.236  0.00  0.00     0.000 A 
ATOM      4  C4  BNZ d   1       0.172  -6.000   3.554  0.00  0.00     0.000 A 
ATOM      5  C5  BNZ d   1      -0.139  -6.000   2.209  0.00  0.00     0.000 A 
ATOM      6  C6  BNZ d   1      -0.362  -4.810   1.555  0.00  0.00     0.000 A 
ENDROOT
TORSDOF 0
ENDMDL
