MODEL 1
REMARK minimizedAffinity 5.26665306
REMARK minimizedRMSD -1
REMARK  0 active torsions:
REMARK  status: ('A' for Active; 'I' for Inactive)
ROOT
ATOM      1  C1  BNZ d   1      -3.675  -4.790   0.042  0.00  0.00     0.000 A 
ATOM      2  C2  BNZ d   1      -3.611  -4.492  -1.293  0.00  0.00     0.000 A 
ATOM      3  C3  BNZ d   1      -2.456  -4.015  -1.849  0.00  0.00     0.000 A 
ATOM      4  C4  BNZ d   1      -1.382  -3.799  -1.063  0.00  0.00     0.000 A 
ATOM      5  C5  BNZ d   1      -1.434  -4.086   0.287  0.00  0.00     0.000 A 
ATOM      6  C6  BNZ d   1      -2.586  -4.603   0.835  0.00  0.00     0.000 A 
ENDROOT
TORSDOF 0
ENDMDL
