MODEL 1
REMARK minimizedAffinity 4.21043491
REMARK minimizedRMSD -1
REMARK  0 active torsions:
REMARK  status: ('A' for Active; 'I' for Inactive)
ROOT
ATOM      1  C1  BNZ d   1       3.361   3.339   5.970  0.00  0.00     0.000 A 
ATOM      2  C2  BNZ d   1       2.376   4.291   5.994  0.00  0.00     0.000 A 
ATOM      3  C3  BNZ d   1       2.688   5.621   5.985  0.00  0.00     0.000 A 
ATOM      4  C4  BNZ d   1       3.983   5.999   5.992  0.00  0.00     0.000 A 
ATOM      5  C5  BNZ d   1       4.988   5.052   5.978  0.00  0.00     0.000 A 
ATOM      6  C6  BNZ d   1       4.669   3.713   5.948  0.00  0.00     0.000 A 
ENDROOT
TORSDOF 0
ENDMDL
