MODEL 1
REMARK minimizedAffinity 5.17399788
REMARK minimizedRMSD -1
REMARK  0 active torsions:
REMARK  status: ('A' for Active; 'I' for Inactive)
ROOT
ATOM      1  C1  BNZ d   1       1.173   3.522  -0.229  0.00  0.00     0.000 A 
ATOM      2  C2  BNZ d   1       2.469   3.244   0.114  0.00  0.00     0.000 A 
ATOM      3  C3  BNZ d   1       2.757   2.277   1.036  0.00  0.00     0.000 A 
ATOM      4  C4  BNZ d   1       1.749   1.618   1.643  0.00  0.00     0.000 A 
ATOM      5  C5  BNZ d   1       0.436   1.894   1.315  0.00  0.00     0.000 A 
ATOM      6  C6  BNZ d   1       0.152   2.841   0.358  0.00  0.00     0.000 A 
ENDROOT
TORSDOF 0
ENDMDL
