MODEL 1
REMARK minimizedAffinity 1.23305082
REMARK minimizedRMSD -1
REMARK  0 active torsions:
REMARK  status: ('A' for Active; 'I' for Inactive)
ROOT
ATOM      1  C1  BNZ d   1       2.362  -0.857  -0.744  0.00  0.00     0.000 A 
ATOM      2  C2  BNZ d   1       2.751  -0.084   0.317  0.00  0.00     0.000 A 
ATOM      3  C3  BNZ d   1       2.815   1.277   0.206  0.00  0.00     0.000 A 
ATOM      4  C4  BNZ d   1       2.530   1.859  -0.977  0.00  0.00     0.000 A 
ATOM      5  C5  BNZ d   1       2.145   1.093  -2.059  0.00  0.00     0.000 A 
ATOM      6  C6  BNZ d   1       2.044  -0.273  -1.932  0.00  0.00     0.000 A 
ENDROOT
TORSDOF 0
ENDMDL
