MODEL 1
REMARK minimizedAffinity 2.66726828
REMARK minimizedRMSD -1
REMARK  0 active torsions:
REMARK  status: ('A' for Active; 'I' for Inactive)
ROOT
ATOM      1  C1  DEN d   1      -1.042   1.881  -0.028  0.00  0.00     0.130 A 
ATOM      2  C2  DEN d   1      -1.080   1.635  -1.467  0.00  0.00    -0.031 A 
ATOM      3  C3  DEN d   1      -0.098   0.577  -1.776  0.00  0.00     0.027 A 
ATOM      4  C4  DEN d   1       1.466  -0.703  -0.173  0.00  0.00     0.027 A 
ATOM      5  C5  DEN d   1       1.866  -0.835   1.138  0.00  0.00    -0.003 A 
ATOM      6  C6  DEN d   1       1.353  -0.053   2.140  0.00  0.00     0.001 A 
ATOM      7  C7  DEN d   1       0.378   0.865   1.853  0.00  0.00     0.017 A 
ATOM      8  C8  DEN d   1      -0.025   1.008   0.531  0.00  0.00    -0.094 A 
ATOM      9  C9  DEN d   1       0.496   0.200  -0.465  0.00  0.00    -0.072 A 
ENDROOT
TORSDOF 0
ENDMDL
