MODEL 1
REMARK minimizedAffinity 12.0505838
REMARK minimizedRMSD -1
REMARK  0 active torsions:
REMARK  status: ('A' for Active; 'I' for Inactive)
ROOT
ATOM      1  C1  DEN d   1      -0.221   1.103   2.171  0.00  0.00     0.130 A 
ATOM      2  C2  DEN d   1       0.743   0.241   2.850  0.00  0.00    -0.031 A 
ATOM      3  C3  DEN d   1       1.397  -0.604   1.830  0.00  0.00     0.027 A 
ATOM      4  C4  DEN d   1       1.015  -0.658  -0.720  0.00  0.00     0.027 A 
ATOM      5  C5  DEN d   1       0.289  -0.117  -1.758  0.00  0.00    -0.003 A 
ATOM      6  C6  DEN d   1      -0.674   0.836  -1.557  0.00  0.00     0.001 A 
ATOM      7  C7  DEN d   1      -0.905   1.311  -0.293  0.00  0.00     0.017 A 
ATOM      8  C8  DEN d   1      -0.182   0.765   0.760  0.00  0.00    -0.094 A 
ATOM      9  C9  DEN d   1       0.795  -0.189   0.534  0.00  0.00    -0.072 A 
ENDROOT
TORSDOF 0
ENDMDL
