MODEL 1
REMARK minimizedAffinity 6.97801447
REMARK minimizedRMSD -1
REMARK  0 active torsions:
REMARK  status: ('A' for Active; 'I' for Inactive)
ROOT
ATOM      1  C1  DEN d   1      -5.971  -1.288   1.225  0.00  0.00     0.130 A 
ATOM      2  C2  DEN d   1      -5.982   0.171   1.156  0.00  0.00    -0.031 A 
ATOM      3  C3  DEN d   1      -5.982   0.693   2.537  0.00  0.00     0.027 A 
ATOM      4  C4  DEN d   1      -5.961  -0.607   4.764  0.00  0.00     0.027 A 
ATOM      5  C5  DEN d   1      -5.962  -1.863   5.331  0.00  0.00    -0.003 A 
ATOM      6  C6  DEN d   1      -5.999  -3.005   4.576  0.00  0.00     0.001 A 
ATOM      7  C7  DEN d   1      -5.992  -2.915   3.209  0.00  0.00     0.017 A 
ATOM      8  C8  DEN d   1      -5.999  -1.653   2.630  0.00  0.00    -0.094 A 
ATOM      9  C9  DEN d   1      -5.949  -0.510   3.411  0.00  0.00    -0.072 A 
ENDROOT
TORSDOF 0
ENDMDL
