MODEL 1
REMARK minimizedAffinity 3.23673844
REMARK minimizedRMSD -1
REMARK  0 active torsions:
REMARK  status: ('A' for Active; 'I' for Inactive)
ROOT
ATOM      1  C1  DEN d   1      -0.796   1.629  -0.215  0.00  0.00     0.130 A 
ATOM      2  C2  DEN d   1      -0.597   1.359  -1.636  0.00  0.00    -0.031 A 
ATOM      3  C3  DEN d   1       0.405   0.281  -1.759  0.00  0.00     0.027 A 
ATOM      4  C4  DEN d   1       1.657  -0.991   0.103  0.00  0.00     0.027 A 
ATOM      5  C5  DEN d   1       1.829  -1.105   1.465  0.00  0.00    -0.003 A 
ATOM      6  C6  DEN d   1       1.169  -0.298   2.354  0.00  0.00     0.001 A 
ATOM      7  C7  DEN d   1       0.271   0.628   1.893  0.00  0.00     0.017 A 
ATOM      8  C8  DEN d   1       0.098   0.753   0.520  0.00  0.00    -0.094 A 
ATOM      9  C9  DEN d   1       0.765  -0.080  -0.361  0.00  0.00    -0.072 A 
ENDROOT
TORSDOF 0
ENDMDL
