MODEL 1
REMARK minimizedAffinity 3.66629171
REMARK minimizedRMSD -1
REMARK  0 active torsions:
REMARK  status: ('A' for Active; 'I' for Inactive)
ROOT
ATOM      1  C1  DEN d   1       0.299   1.479   2.809  0.00  0.00     0.130 A 
ATOM      2  C2  DEN d   1       1.036   0.423   3.496  0.00  0.00    -0.031 A 
ATOM      3  C3  DEN d   1       1.520  -0.532   2.479  0.00  0.00     0.027 A 
ATOM      4  C4  DEN d   1       1.204  -0.475  -0.080  0.00  0.00     0.027 A 
ATOM      5  C5  DEN d   1       0.639   0.221  -1.126  0.00  0.00    -0.003 A 
ATOM      6  C6  DEN d   1      -0.101   1.357  -0.932  0.00  0.00     0.001 A 
ATOM      7  C7  DEN d   1      -0.259   1.856   0.333  0.00  0.00     0.017 A 
ATOM      8  C8  DEN d   1       0.301   1.156   1.394  0.00  0.00    -0.094 A 
ATOM      9  C9  DEN d   1       1.056   0.017   1.176  0.00  0.00    -0.072 A 
ENDROOT
TORSDOF 0
ENDMDL
