MODEL 1
REMARK minimizedAffinity 16.3900986
REMARK minimizedRMSD -1
REMARK  0 active torsions:
REMARK  status: ('A' for Active; 'I' for Inactive)
ROOT
ATOM      1  C1  DEN d   1       0.206   0.675  -0.825  0.00  0.00     0.130 A 
ATOM      2  C2  DEN d   1      -0.904   1.552  -0.465  0.00  0.00    -0.031 A 
ATOM      3  C3  DEN d   1      -0.995   1.591   1.009  0.00  0.00     0.027 A 
ATOM      4  C4  DEN d   1       0.470   0.388   2.757  0.00  0.00     0.027 A 
ATOM      5  C5  DEN d   1       1.529  -0.476   2.931  0.00  0.00    -0.003 A 
ATOM      6  C6  DEN d   1       2.194  -1.038   1.874  0.00  0.00     0.001 A 
ATOM      7  C7  DEN d   1       1.835  -0.708   0.594  0.00  0.00     0.017 A 
ATOM      8  C8  DEN d   1       0.764   0.156   0.410  0.00  0.00    -0.094 A 
ATOM      9  C9  DEN d   1       0.112   0.723   1.492  0.00  0.00    -0.072 A 
ENDROOT
TORSDOF 0
ENDMDL
