MODEL 1
REMARK minimizedAffinity 7.5432663
REMARK minimizedRMSD -1
REMARK  0 active torsions:
REMARK  status: ('A' for Active; 'I' for Inactive)
ROOT
ATOM      1  C1  DEN d   1      -2.982  -0.821  -1.478  0.00  0.00     0.130 A 
ATOM      2  C2  DEN d   1      -3.308   0.082  -2.578  0.00  0.00    -0.031 A 
ATOM      3  C3  DEN d   1      -2.276   1.138  -2.623  0.00  0.00     0.027 A 
ATOM      4  C4  DEN d   1      -0.214   1.457  -1.108  0.00  0.00     0.027 A 
ATOM      5  C5  DEN d   1       0.475   0.949  -0.028  0.00  0.00    -0.003 A 
ATOM      6  C6  DEN d   1       0.045  -0.155   0.659  0.00  0.00     0.001 A 
ATOM      7  C7  DEN d   1      -1.082  -0.815   0.246  0.00  0.00     0.017 A 
ATOM      8  C8  DEN d   1      -1.786  -0.305  -0.837  0.00  0.00    -0.094 A 
ATOM      9  C9  DEN d   1      -1.328   0.805  -1.526  0.00  0.00    -0.072 A 
ENDROOT
TORSDOF 0
ENDMDL
