MODEL 1
REMARK minimizedAffinity 0.986061573
REMARK minimizedRMSD -1
REMARK  0 active torsions:
REMARK  status: ('A' for Active; 'I' for Inactive)
ROOT
ATOM      1  C   UNL d   1      -1.680   5.990  -1.700  0.00  0.00     0.020 A 
ATOM      2  C1  UNL d   1      -3.069   5.991  -1.574  0.00  0.00     0.020 A 
ATOM      3  C2  UNL d   1      -3.874   5.993  -2.714  0.00  0.00     0.034 A 
ATOM      4  C3  UNL d   1      -3.292   5.993  -3.987  0.00  0.00     0.017 A 
ATOM      5  C4  UNL d   1      -1.898   5.991  -4.113  0.00  0.00     0.017 A 
ATOM      6  C5  UNL d   1      -1.096   5.990  -2.968  0.00  0.00     0.034 A 
ATOM      7 Cl   UNL d   1      -1.106   5.991  -5.650  0.00  0.00    -0.070 Cl
ATOM      8 Cl1  UNL d   1      -4.348   5.995  -5.354  0.00  0.00    -0.070 Cl
ENDROOT
TORSDOF 0
ENDMDL
