MODEL 1
REMARK minimizedAffinity 2.5976491
REMARK minimizedRMSD -1
REMARK  0 active torsions:
REMARK  status: ('A' for Active; 'I' for Inactive)
ROOT
ATOM      1  C   UNL d   1       4.704   5.058  -4.816  0.00  0.00     0.020 A 
ATOM      2  C1  UNL d   1       4.185   5.979  -5.725  0.00  0.00     0.020 A 
ATOM      3  C2  UNL d   1       2.815   5.998  -5.994  0.00  0.00     0.034 A 
ATOM      4  C3  UNL d   1       1.959   5.094  -5.355  0.00  0.00     0.017 A 
ATOM      5  C4  UNL d   1       2.481   4.170  -4.442  0.00  0.00     0.017 A 
ATOM      6  C5  UNL d   1       3.854   4.156  -4.176  0.00  0.00     0.034 A 
ATOM      7 Cl   UNL d   1       1.488   3.024  -3.614  0.00  0.00    -0.070 Cl
ATOM      8 Cl1  UNL d   1       0.276   5.174  -5.735  0.00  0.00    -0.070 Cl
ENDROOT
TORSDOF 0
ENDMDL
