MODEL 1
REMARK minimizedAffinity -1.94425964
REMARK minimizedRMSD -1
REMARK  0 active torsions:
REMARK  status: ('A' for Active; 'I' for Inactive)
ROOT
ATOM      1  C   UNL d   1       6.000   4.489  -4.472  0.00  0.00     0.020 A 
ATOM      2  C1  UNL d   1       5.862   5.619  -5.277  0.00  0.00     0.020 A 
ATOM      3  C2  UNL d   1       4.600   6.000  -5.737  0.00  0.00     0.034 A 
ATOM      4  C3  UNL d   1       3.470   5.249  -5.392  0.00  0.00     0.017 A 
ATOM      5  C4  UNL d   1       3.608   4.115  -4.585  0.00  0.00     0.017 A 
ATOM      6  C5  UNL d   1       4.875   3.738  -4.127  0.00  0.00     0.034 A 
ATOM      7 Cl   UNL d   1       2.261   3.139  -4.118  0.00  0.00    -0.070 Cl
ATOM      8 Cl1  UNL d   1       1.940   5.778  -5.996  0.00  0.00    -0.070 Cl
ENDROOT
TORSDOF 0
ENDMDL
