MODEL 1
REMARK minimizedAffinity 1.68957806
REMARK minimizedRMSD -1
REMARK  0 active torsions:
REMARK  status: ('A' for Active; 'I' for Inactive)
ROOT
ATOM      1  C   UNL d   1       0.260   5.999  -5.955  0.00  0.00     0.020 A 
ATOM      2  C1  UNL d   1       1.239   6.000  -4.963  0.00  0.00     0.020 A 
ATOM      3  C2  UNL d   1       0.868   6.000  -3.616  0.00  0.00     0.034 A 
ATOM      4  C3  UNL d   1      -0.485   6.000  -3.259  0.00  0.00     0.017 A 
ATOM      5  C4  UNL d   1      -1.467   5.999  -4.256  0.00  0.00     0.017 A 
ATOM      6  C5  UNL d   1      -1.090   5.999  -5.603  0.00  0.00     0.034 A 
ATOM      7 Cl   UNL d   1      -3.157   5.999  -3.893  0.00  0.00    -0.070 Cl
ATOM      8 Cl1  UNL d   1      -0.871   6.000  -1.575  0.00  0.00    -0.070 Cl
ENDROOT
TORSDOF 0
ENDMDL
