MODEL 1
REMARK minimizedAffinity 7.18142653
REMARK minimizedRMSD -1
REMARK  0 active torsions:
REMARK  status: ('A' for Active; 'I' for Inactive)
ROOT
ATOM      1  C   UNL d   1      -0.158   0.681   0.936  0.00  0.00     0.020 A 
ATOM      2  C1  UNL d   1      -1.551   0.733   0.903  0.00  0.00     0.020 A 
ATOM      3  C2  UNL d   1      -2.241   0.264  -0.217  0.00  0.00     0.034 A 
ATOM      4  C3  UNL d   1      -1.538  -0.258  -1.309  0.00  0.00     0.017 A 
ATOM      5  C4  UNL d   1      -0.140  -0.310  -1.274  0.00  0.00     0.017 A 
ATOM      6  C5  UNL d   1       0.546   0.161  -0.150  0.00  0.00     0.034 A 
ATOM      7 Cl   UNL d   1       0.797  -0.940  -2.583  0.00  0.00    -0.070 Cl
ATOM      8 Cl1  UNL d   1      -2.455  -0.820  -2.661  0.00  0.00    -0.070 Cl
ENDROOT
TORSDOF 0
ENDMDL
