MODEL 1
REMARK minimizedAffinity -0.3522214
REMARK minimizedRMSD -1
REMARK  0 active torsions:
REMARK  status: ('A' for Active; 'I' for Inactive)
ROOT
ATOM      1  C   UNL d   1      -3.747   5.987  -4.081  0.00  0.00     0.020 A 
ATOM      2  C1  UNL d   1      -3.831   5.991  -2.689  0.00  0.00     0.020 A 
ATOM      3  C2  UNL d   1      -2.665   5.995  -1.920  0.00  0.00     0.034 A 
ATOM      4  C3  UNL d   1      -1.411   5.995  -2.541  0.00  0.00     0.017 A 
ATOM      5  C4  UNL d   1      -1.329   5.991  -3.939  0.00  0.00     0.017 A 
ATOM      6  C5  UNL d   1      -2.499   5.987  -4.704  0.00  0.00     0.034 A 
ATOM      7 Cl   UNL d   1       0.183   5.990  -4.777  0.00  0.00    -0.070 Cl
ATOM      8 Cl1  UNL d   1      -0.012   6.000  -1.528  0.00  0.00    -0.070 Cl
ENDROOT
TORSDOF 0
ENDMDL
