MODEL 1
REMARK minimizedAffinity -0.410437047
REMARK minimizedRMSD -1
REMARK  0 active torsions:
REMARK  status: ('A' for Active; 'I' for Inactive)
ROOT
ATOM      1  C   UNL d   1       1.360   5.960  -5.997  0.00  0.00     0.020 A 
ATOM      2  C1  UNL d   1       2.240   5.962  -4.915  0.00  0.00     0.020 A 
ATOM      3  C2  UNL d   1       1.741   5.973  -3.611  0.00  0.00     0.034 A 
ATOM      4  C3  UNL d   1       0.360   5.983  -3.385  0.00  0.00     0.017 A 
ATOM      5  C4  UNL d   1      -0.522   5.981  -4.472  0.00  0.00     0.017 A 
ATOM      6  C5  UNL d   1      -0.017   5.969  -5.776  0.00  0.00     0.034 A 
ATOM      7 Cl   UNL d   1      -2.238   5.992  -4.272  0.00  0.00    -0.070 Cl
ATOM      8 Cl1  UNL d   1      -0.186   5.997  -1.746  0.00  0.00    -0.070 Cl
ENDROOT
TORSDOF 0
ENDMDL
