MODEL 1
REMARK minimizedAffinity 5.90070581
REMARK minimizedRMSD -1
REMARK  0 active torsions:
REMARK  status: ('A' for Active; 'I' for Inactive)
ROOT
ATOM      1  C   UNL d   1       3.956   6.000  -5.886  0.00  0.00     0.020 A 
ATOM      2  C1  UNL d   1       2.617   5.629  -5.775  0.00  0.00     0.020 A 
ATOM      3  C2  UNL d   1       2.265   4.499  -5.033  0.00  0.00     0.034 A 
ATOM      4  C3  UNL d   1       3.253   3.737  -4.400  0.00  0.00     0.017 A 
ATOM      5  C4  UNL d   1       4.597   4.111  -4.511  0.00  0.00     0.017 A 
ATOM      6  C5  UNL d   1       4.944   5.243  -5.256  0.00  0.00     0.034 A 
ATOM      7 Cl   UNL d   1       5.872   3.220  -3.758  0.00  0.00    -0.070 Cl
ATOM      8 Cl1  UNL d   1       2.745   2.353  -3.498  0.00  0.00    -0.070 Cl
ENDROOT
TORSDOF 0
ENDMDL
