MODEL 1
REMARK minimizedAffinity 0.559467494
REMARK minimizedRMSD -1
REMARK  0 active torsions:
REMARK  status: ('A' for Active; 'I' for Inactive)
ROOT
ATOM      1  C   UNL d   1       0.901   5.915  -5.958  0.00  0.00     0.020 A 
ATOM      2  C1  UNL d   1       1.780   5.980  -4.878  0.00  0.00     0.020 A 
ATOM      3  C2  UNL d   1       1.282   5.999  -3.573  0.00  0.00     0.034 A 
ATOM      4  C3  UNL d   1      -0.098   5.952  -3.345  0.00  0.00     0.017 A 
ATOM      5  C4  UNL d   1      -0.980   5.886  -4.430  0.00  0.00     0.017 A 
ATOM      6  C5  UNL d   1      -0.476   5.868  -5.735  0.00  0.00     0.034 A 
ATOM      7 Cl   UNL d   1      -2.695   5.826  -4.229  0.00  0.00    -0.070 Cl
ATOM      8 Cl1  UNL d   1      -0.643   5.978  -1.706  0.00  0.00    -0.070 Cl
ENDROOT
TORSDOF 0
ENDMDL
