MODEL 1
REMARK minimizedAffinity -2.31753564
REMARK minimizedRMSD -1
REMARK  0 active torsions:
REMARK  status: ('A' for Active; 'I' for Inactive)
ROOT
ATOM      1  C   UNL d   1      -0.234   5.998  -3.920  0.00  0.00     0.020 A 
ATOM      2  C1  UNL d   1      -0.103   5.999  -2.532  0.00  0.00     0.020 A 
ATOM      3  C2  UNL d   1      -1.241   5.999  -1.723  0.00  0.00     0.034 A 
ATOM      4  C3  UNL d   1      -2.516   5.999  -2.302  0.00  0.00     0.017 A 
ATOM      5  C4  UNL d   1      -2.646   5.999  -3.696  0.00  0.00     0.017 A 
ATOM      6  C5  UNL d   1      -1.503   5.998  -4.501  0.00  0.00     0.034 A 
ATOM      7 Cl   UNL d   1      -4.185   5.999  -4.483  0.00  0.00    -0.070 Cl
ATOM      8 Cl1  UNL d   1      -3.880   6.000  -1.242  0.00  0.00    -0.070 Cl
ENDROOT
TORSDOF 0
ENDMDL
