MODEL 1
REMARK minimizedAffinity -1.56732476
REMARK minimizedRMSD -1
REMARK  0 active torsions:
REMARK  status: ('A' for Active; 'I' for Inactive)
ROOT
ATOM      1  C   UNL d   1      -1.899   6.000  -5.263  0.00  0.00     0.020 A 
ATOM      2  C1  UNL d   1      -0.522   5.794  -5.196  0.00  0.00     0.020 A 
ATOM      3  C2  UNL d   1       0.070   5.419  -3.988  0.00  0.00     0.034 A 
ATOM      4  C3  UNL d   1      -0.716   5.250  -2.842  0.00  0.00     0.017 A 
ATOM      5  C4  UNL d   1      -2.098   5.457  -2.911  0.00  0.00     0.017 A 
ATOM      6  C5  UNL d   1      -2.686   5.832  -4.123  0.00  0.00     0.034 A 
ATOM      7 Cl   UNL d   1      -3.133   5.267  -1.539  0.00  0.00    -0.070 Cl
ATOM      8 Cl1  UNL d   1       0.082   4.785  -1.382  0.00  0.00    -0.070 Cl
ENDROOT
TORSDOF 0
ENDMDL
