MODEL 1
REMARK minimizedAffinity -0.449966609
REMARK minimizedRMSD -1
REMARK  0 active torsions:
REMARK  status: ('A' for Active; 'I' for Inactive)
ROOT
ATOM      1  C   UNL d   1      -1.843   5.995  -1.561  0.00  0.00     0.020 A 
ATOM      2  C1  UNL d   1      -2.841   5.995  -2.535  0.00  0.00     0.020 A 
ATOM      3  C2  UNL d   1      -2.497   5.997  -3.888  0.00  0.00     0.034 A 
ATOM      4  C3  UNL d   1      -1.151   5.998  -4.272  0.00  0.00     0.017 A 
ATOM      5  C4  UNL d   1      -0.150   5.998  -3.294  0.00  0.00     0.017 A 
ATOM      6  C5  UNL d   1      -0.500   5.996  -1.941  0.00  0.00     0.034 A 
ATOM      7 Cl   UNL d   1       1.532   5.999  -3.691  0.00  0.00    -0.070 Cl
ATOM      8 Cl1  UNL d   1      -0.799   6.000  -5.964  0.00  0.00    -0.070 Cl
ENDROOT
TORSDOF 0
ENDMDL
