MODEL 1
REMARK minimizedAffinity 5.07901573
REMARK minimizedRMSD -1
REMARK  0 active torsions:
REMARK  status: ('A' for Active; 'I' for Inactive)
ROOT
ATOM      1  C   UNL d   1       1.428   4.879  -5.669  0.00  0.00     0.020 A 
ATOM      2  C1  UNL d   1       2.228   5.974  -5.991  0.00  0.00     0.020 A 
ATOM      3  C2  UNL d   1       3.567   6.000  -5.595  0.00  0.00     0.034 A 
ATOM      4  C3  UNL d   1       4.109   4.929  -4.874  0.00  0.00     0.017 A 
ATOM      5  C4  UNL d   1       3.305   3.831  -4.551  0.00  0.00     0.017 A 
ATOM      6  C5  UNL d   1       1.965   3.810  -4.950  0.00  0.00     0.034 A 
ATOM      7 Cl   UNL d   1       3.903   2.473  -3.665  0.00  0.00    -0.070 Cl
ATOM      8 Cl1  UNL d   1       5.773   5.029  -4.417  0.00  0.00    -0.070 Cl
ENDROOT
TORSDOF 0
ENDMDL
