MODEL 1
REMARK minimizedAffinity 4.14727926
REMARK minimizedRMSD -1
REMARK  0 active torsions:
REMARK  status: ('A' for Active; 'I' for Inactive)
ROOT
ATOM      1  C   UNL d   1       1.781   4.252  -5.335  0.00  0.00     0.020 A 
ATOM      2  C1  UNL d   1       2.022   5.476  -5.959  0.00  0.00     0.020 A 
ATOM      3  C2  UNL d   1       3.317   5.996  -5.999  0.00  0.00     0.034 A 
ATOM      4  C3  UNL d   1       4.376   5.293  -5.414  0.00  0.00     0.017 A 
ATOM      5  C4  UNL d   1       4.133   4.065  -4.788  0.00  0.00     0.017 A 
ATOM      6  C5  UNL d   1       2.834   3.548  -4.751  0.00  0.00     0.034 A 
ATOM      7 Cl   UNL d   1       5.389   3.139  -4.043  0.00  0.00    -0.070 Cl
ATOM      8 Cl1  UNL d   1       5.952   5.995  -5.501  0.00  0.00    -0.070 Cl
ENDROOT
TORSDOF 0
ENDMDL
