MODEL 1
REMARK minimizedAffinity 2.14681673
REMARK minimizedRMSD -1
REMARK  0 active torsions:
REMARK  status: ('A' for Active; 'I' for Inactive)
ROOT
ATOM      1  C   UNL d   1       4.963   5.887  -6.000  0.00  0.00     0.020 A 
ATOM      2  C1  UNL d   1       3.598   6.000  -5.738  0.00  0.00     0.020 A 
ATOM      3  C2  UNL d   1       2.954   5.035  -4.961  0.00  0.00     0.034 A 
ATOM      4  C3  UNL d   1       3.674   3.953  -4.442  0.00  0.00     0.017 A 
ATOM      5  C4  UNL d   1       5.044   3.840  -4.705  0.00  0.00     0.017 A 
ATOM      6  C5  UNL d   1       5.685   4.809  -5.484  0.00  0.00     0.034 A 
ATOM      7 Cl   UNL d   1       6.000   2.533  -4.100  0.00  0.00    -0.070 Cl
ATOM      8 Cl1  UNL d   1       2.813   2.797  -3.489  0.00  0.00    -0.070 Cl
ENDROOT
TORSDOF 0
ENDMDL
