MODEL 1
REMARK minimizedAffinity 3.88416195
REMARK minimizedRMSD -1
REMARK  0 active torsions:
REMARK  status: ('A' for Active; 'I' for Inactive)
ROOT
ATOM      1  C   UNL d   1       1.877   5.985  -4.091  0.00  0.00     0.020 A 
ATOM      2  C1  UNL d   1       1.577   5.986  -5.453  0.00  0.00     0.020 A 
ATOM      3  C2  UNL d   1       0.245   5.990  -5.875  0.00  0.00     0.034 A 
ATOM      4  C3  UNL d   1      -0.791   5.994  -4.934  0.00  0.00     0.017 A 
ATOM      5  C4  UNL d   1      -0.489   5.993  -3.567  0.00  0.00     0.017 A 
ATOM      6  C5  UNL d   1       0.846   5.989  -3.151  0.00  0.00     0.034 A 
ATOM      7 Cl   UNL d   1      -1.713   5.997  -2.347  0.00  0.00    -0.070 Cl
ATOM      8 Cl1  UNL d   1      -2.414   5.999  -5.527  0.00  0.00    -0.070 Cl
ENDROOT
TORSDOF 0
ENDMDL
