MODEL 1
REMARK minimizedAffinity -3.44925284
REMARK minimizedRMSD -1
REMARK  2 active torsions:
REMARK  status: ('A' for Active; 'I' for Inactive)
REMARK    1  A    between atoms: C2'_3  and  C1'_4 
REMARK    2  A    between atoms: C1'_4  and  C1_5 
ROOT
ATOM      1  C1  I4B d   1      -0.659   0.816  -0.777  0.00  0.00    -0.075 A 
ATOM      2  C2  I4B d   1      -0.121   2.057  -0.547  0.00  0.00     0.003 A 
ATOM      3  C3  I4B d   1      -0.043   3.006  -1.595  0.00  0.00     0.002 A 
ATOM      4  C4  I4B d   1      -0.465   2.656  -2.861  0.00  0.00    -0.004 A 
ATOM      5  C5  I4B d   1      -1.032   1.405  -3.087  0.00  0.00     0.002 A 
ATOM      6  C6  I4B d   1      -1.141   0.483  -2.036  0.00  0.00     0.003 A 
ENDROOT
BRANCH   1   7
ATOM      7  C1' I4B d   1      -0.696  -0.173   0.345  0.00  0.00     0.060 C 
BRANCH   7   8
ATOM      8  C2' I4B d   1       0.708  -0.304   0.898  0.00  0.00    -0.013 C 
ATOM      9  C4' I4B d   1       0.718  -1.098   2.178  0.00  0.00     0.013 C 
ATOM     10  C3' I4B d   1       1.560  -0.956  -0.150  0.00  0.00     0.013 C 
ENDBRANCH   7   8
ENDBRANCH   1   7
TORSDOF 2
ENDMDL
