MODEL 1
REMARK minimizedAffinity -3.20013189
REMARK minimizedRMSD -1
REMARK  2 active torsions:
REMARK  status: ('A' for Active; 'I' for Inactive)
REMARK    1  A    between atoms: C2'_3  and  C1'_4 
REMARK    2  A    between atoms: C1'_4  and  C1_5 
ROOT
ATOM      1  C1  I4B d   1      -0.601   0.084   0.965  0.00  0.00    -0.075 A 
ATOM      2  C2  I4B d   1      -1.061  -0.960   1.729  0.00  0.00     0.003 A 
ATOM      3  C3  I4B d   1      -0.236  -1.531   2.728  0.00  0.00     0.002 A 
ATOM      4  C4  I4B d   1       1.052  -1.064   2.894  0.00  0.00    -0.004 A 
ATOM      5  C5  I4B d   1       1.509   0.010   2.135  0.00  0.00     0.002 A 
ATOM      6  C6  I4B d   1       0.674   0.596   1.173  0.00  0.00     0.003 A 
ENDROOT
BRANCH   1   7
ATOM      7  C1' I4B d   1      -1.487   0.642  -0.103  0.00  0.00     0.060 C 
BRANCH   7   8
ATOM      8  C2' I4B d   1      -0.636   0.891  -1.332  0.00  0.00    -0.013 C 
ATOM      9  C4' I4B d   1      -0.057  -0.394  -1.864  0.00  0.00     0.013 C 
ATOM     10  C3' I4B d   1      -1.495   1.565  -2.360  0.00  0.00     0.013 C 
ENDBRANCH   7   8
ENDBRANCH   1   7
TORSDOF 2
ENDMDL
