MODEL 1
REMARK minimizedAffinity -4.04472923
REMARK minimizedRMSD -1
REMARK  2 active torsions:
REMARK  status: ('A' for Active; 'I' for Inactive)
REMARK    1  A    between atoms: C2'_3  and  C1'_4 
REMARK    2  A    between atoms: C1'_4  and  C1_5 
ROOT
ATOM      1  C1  I4B d   1       0.814  -0.521  -0.241  0.00  0.00    -0.075 A 
ATOM      2  C2  I4B d   1       0.025  -0.091   0.796  0.00  0.00     0.003 A 
ATOM      3  C3  I4B d   1       0.394  -0.366   2.135  0.00  0.00     0.002 A 
ATOM      4  C4  I4B d   1       1.526  -1.113   2.388  0.00  0.00    -0.004 A 
ATOM      5  C5  I4B d   1       2.337  -1.529   1.336  0.00  0.00     0.002 A 
ATOM      6  C6  I4B d   1       1.986  -1.221   0.014  0.00  0.00     0.003 A 
ENDROOT
BRANCH   1   7
ATOM      7  C1' I4B d   1       0.377  -0.242  -1.644  0.00  0.00     0.060 C 
BRANCH   7   8
ATOM      8  C2' I4B d   1       0.087   1.241  -1.756  0.00  0.00    -0.013 C 
ATOM      9  C4' I4B d   1       1.018   1.906  -2.736  0.00  0.00     0.013 C 
ATOM     10  C3' I4B d   1      -1.344   1.403  -2.173  0.00  0.00     0.013 C 
ENDBRANCH   7   8
ENDBRANCH   1   7
TORSDOF 2
ENDMDL
