MODEL 1
REMARK minimizedAffinity -3.87589049
REMARK minimizedRMSD -1
REMARK  2 active torsions:
REMARK  status: ('A' for Active; 'I' for Inactive)
REMARK    1  A    between atoms: C2'_3  and  C1'_4 
REMARK    2  A    between atoms: C1'_4  and  C1_5 
ROOT
ATOM      1  C1  I4B d   1      -0.866   1.133  -0.783  0.00  0.00    -0.075 A 
ATOM      2  C2  I4B d   1      -0.163   1.628  -1.853  0.00  0.00     0.003 A 
ATOM      3  C3  I4B d   1      -0.637   2.765  -2.552  0.00  0.00     0.002 A 
ATOM      4  C4  I4B d   1      -1.835   3.340  -2.181  0.00  0.00    -0.004 A 
ATOM      5  C5  I4B d   1      -2.534   2.851  -1.082  0.00  0.00     0.002 A 
ATOM      6  C6  I4B d   1      -2.041   1.748  -0.370  0.00  0.00     0.003 A 
ENDROOT
BRANCH   1   7
ATOM      7  C1' I4B d   1      -0.354  -0.089  -0.087  0.00  0.00     0.060 C 
BRANCH   7   8
ATOM      8  C2' I4B d   1      -1.143  -0.262   1.194  0.00  0.00    -0.013 C 
ATOM      9  C4' I4B d   1      -2.021  -1.484   1.133  0.00  0.00     0.013 C 
ATOM     10  C3' I4B d   1      -0.168  -0.351   2.330  0.00  0.00     0.013 C 
ENDBRANCH   7   8
ENDBRANCH   1   7
TORSDOF 2
ENDMDL
