MODEL 1
REMARK minimizedAffinity -1.30258846
REMARK minimizedRMSD -1
REMARK  2 active torsions:
REMARK  status: ('A' for Active; 'I' for Inactive)
REMARK    1  A    between atoms: C2'_3  and  C1'_4 
REMARK    2  A    between atoms: C1'_4  and  C1_5 
ROOT
ATOM      1  C1  I4B d   1       0.327  -0.409   1.973  0.00  0.00    -0.075 A 
ATOM      2  C2  I4B d   1       0.189  -0.707   0.640  0.00  0.00     0.003 A 
ATOM      3  C3  I4B d   1      -1.034  -0.451  -0.025  0.00  0.00     0.002 A 
ATOM      4  C4  I4B d   1      -2.102   0.054   0.688  0.00  0.00    -0.004 A 
ATOM      5  C5  I4B d   1      -1.954   0.376   2.033  0.00  0.00     0.002 A 
ATOM      6  C6  I4B d   1      -0.728   0.155   2.678  0.00  0.00     0.003 A 
ENDROOT
BRANCH   1   7
ATOM      7  C1' I4B d   1       1.622  -0.724   2.651  0.00  0.00     0.060 C 
BRANCH   7   8
ATOM      8  C2' I4B d   1       1.322  -1.058   4.098  0.00  0.00    -0.013 C 
ATOM      9  C4' I4B d   1       0.259  -2.120   4.203  0.00  0.00     0.013 C 
ATOM     10  C3' I4B d   1       2.599  -1.504   4.745  0.00  0.00     0.013 C 
ENDBRANCH   7   8
ENDBRANCH   1   7
TORSDOF 2
ENDMDL
