MODEL 1
REMARK minimizedAffinity -0.342764914
REMARK minimizedRMSD -1
REMARK  2 active torsions:
REMARK  status: ('A' for Active; 'I' for Inactive)
REMARK    1  A    between atoms: C2'_3  and  C1'_4 
REMARK    2  A    between atoms: C1'_4  and  C1_5 
ROOT
ATOM      1  C1  I4B d   1      -1.242  -0.857   3.634  0.00  0.00    -0.075 A 
ATOM      2  C2  I4B d   1      -2.080  -1.934   3.779  0.00  0.00     0.003 A 
ATOM      3  C3  I4B d   1      -3.281  -2.008   3.034  0.00  0.00     0.002 A 
ATOM      4  C4  I4B d   1      -3.628  -0.966   2.199  0.00  0.00    -0.004 A 
ATOM      5  C5  I4B d   1      -2.766   0.115   2.036  0.00  0.00     0.002 A 
ATOM      6  C6  I4B d   1      -1.560   0.165   2.749  0.00  0.00     0.003 A 
ENDROOT
BRANCH   1   7
ATOM      7  C1' I4B d   1       0.003  -0.795   4.462  0.00  0.00     0.060 C 
BRANCH   7   8
ATOM      8  C2' I4B d   1       1.111  -1.480   3.689  0.00  0.00    -0.013 C 
ATOM      9  C4' I4B d   1       1.339  -0.815   2.357  0.00  0.00     0.013 C 
ATOM     10  C3' I4B d   1       2.352  -1.446   4.531  0.00  0.00     0.013 C 
ENDBRANCH   7   8
ENDBRANCH   1   7
TORSDOF 2
ENDMDL
