MODEL 1
REMARK minimizedAffinity 2.25050735
REMARK minimizedRMSD -1
REMARK  2 active torsions:
REMARK  status: ('A' for Active; 'I' for Inactive)
REMARK    1  A    between atoms: C2'_3  and  C1'_4 
REMARK    2  A    between atoms: C1'_4  and  C1_5 
ROOT
ATOM      1  C1  I4B d   1      -0.332  -0.257   0.500  0.00  0.00    -0.075 A 
ATOM      2  C2  I4B d   1      -1.122  -0.556  -0.582  0.00  0.00     0.003 A 
ATOM      3  C3  I4B d   1      -2.496  -0.214  -0.578  0.00  0.00     0.002 A 
ATOM      4  C4  I4B d   1      -3.046   0.376   0.542  0.00  0.00    -0.004 A 
ATOM      5  C5  I4B d   1      -2.239   0.698   1.629  0.00  0.00     0.002 A 
ATOM      6  C6  I4B d   1      -0.871   0.391   1.603  0.00  0.00     0.003 A 
ENDROOT
BRANCH   1   7
ATOM      7  C1' I4B d   1       1.108  -0.662   0.474  0.00  0.00     0.060 C 
BRANCH   7   8
ATOM      8  C2' I4B d   1       1.853   0.200   1.473  0.00  0.00    -0.013 C 
ATOM      9  C4' I4B d   1       2.511  -0.640   2.535  0.00  0.00     0.013 C 
ATOM     10  C3' I4B d   1       2.864   1.012   0.720  0.00  0.00     0.013 C 
ENDBRANCH   7   8
ENDBRANCH   1   7
TORSDOF 2
ENDMDL
