MODEL 1
REMARK minimizedAffinity 1.72925043
REMARK minimizedRMSD -1
REMARK  2 active torsions:
REMARK  status: ('A' for Active; 'I' for Inactive)
REMARK    1  A    between atoms: C2'_3  and  C1'_4 
REMARK    2  A    between atoms: C1'_4  and  C1_5 
ROOT
ATOM      1  C1  I4B d   1      -1.709  -0.439   3.099  0.00  0.00    -0.075 A 
ATOM      2  C2  I4B d   1      -2.646  -1.361   3.494  0.00  0.00     0.003 A 
ATOM      3  C3  I4B d   1      -2.312  -2.352   4.449  0.00  0.00     0.002 A 
ATOM      4  C4  I4B d   1      -1.024  -2.416   4.940  0.00  0.00    -0.004 A 
ATOM      5  C5  I4B d   1      -0.082  -1.466   4.555  0.00  0.00     0.002 A 
ATOM      6  C6  I4B d   1      -0.429  -0.464   3.638  0.00  0.00     0.003 A 
ENDROOT
BRANCH   1   7
ATOM      7  C1' I4B d   1      -2.086   0.574   2.065  0.00  0.00     0.060 C 
BRANCH   7   8
ATOM      8  C2' I4B d   1      -2.217  -0.142   0.736  0.00  0.00    -0.013 C 
ATOM      9  C4' I4B d   1      -3.154   0.590  -0.188  0.00  0.00     0.013 C 
ATOM     10  C3' I4B d   1      -0.848  -0.261   0.136  0.00  0.00     0.013 C 
ENDBRANCH   7   8
ENDBRANCH   1   7
TORSDOF 2
ENDMDL
