MODEL 1
REMARK minimizedAffinity -0.256946236
REMARK minimizedRMSD -1
REMARK  2 active torsions:
REMARK  status: ('A' for Active; 'I' for Inactive)
REMARK    1  A    between atoms: C2'_3  and  C1'_4 
REMARK    2  A    between atoms: C1'_4  and  C1_5 
ROOT
ATOM      1  C1  I4B d   1       0.423  -1.787   4.127  0.00  0.00    -0.075 A 
ATOM      2  C2  I4B d   1      -0.095  -0.720   3.437  0.00  0.00     0.003 A 
ATOM      3  C3  I4B d   1      -1.490  -0.475   3.446  0.00  0.00     0.002 A 
ATOM      4  C4  I4B d   1      -2.329  -1.346   4.111  0.00  0.00    -0.004 A 
ATOM      5  C5  I4B d   1      -1.799  -2.415   4.829  0.00  0.00     0.002 A 
ATOM      6  C6  I4B d   1      -0.413  -2.630   4.847  0.00  0.00     0.003 A 
ENDROOT
BRANCH   1   7
ATOM      7  C1' I4B d   1       1.897  -2.035   4.068  0.00  0.00     0.060 C 
BRANCH   7   8
ATOM      8  C2' I4B d   1       2.572  -1.061   5.012  0.00  0.00    -0.013 C 
ATOM      9  C4' I4B d   1       3.463  -1.779   5.992  0.00  0.00     0.013 C 
ATOM     10  C3' I4B d   1       3.353  -0.082   4.187  0.00  0.00     0.013 C 
ENDBRANCH   7   8
ENDBRANCH   1   7
TORSDOF 2
ENDMDL
