MODEL 1
REMARK minimizedAffinity -0.58775574
REMARK minimizedRMSD -1
REMARK  0 active torsions:
REMARK  status: ('A' for Active; 'I' for Inactive)
ROOT
ATOM      1  C   UNL d   1      -2.204   1.534   2.074  0.00  0.00    -0.002 A 
ATOM      2  C1  UNL d   1      -2.194   0.148   2.151  0.00  0.00     0.010 A 
ATOM      3  C2  UNL d   1      -1.042  -0.572   1.828  0.00  0.00     0.041 A 
ATOM      4  C3  UNL d   1       0.111   0.130   1.425  0.00  0.00    -0.075 A 
ATOM      5  S   UNL d   1       1.636  -0.542   0.983  0.00  0.00     0.015 SA
ATOM      6  C4  UNL d   1       2.310   0.994   0.683  0.00  0.00     0.022 A 
ATOM      7  C5  UNL d   1       1.408   2.006   0.910  0.00  0.00     0.026 A 
ATOM      8  C6  UNL d   1       0.125   1.525   1.341  0.00  0.00    -0.082 A 
ATOM      9  C7  UNL d   1      -1.058   2.227   1.674  0.00  0.00     0.045 A 
ENDROOT
TORSDOF 0
ENDMDL
