MODEL 1
REMARK minimizedAffinity 7.3329854
REMARK minimizedRMSD -1
REMARK  0 active torsions:
REMARK  status: ('A' for Active; 'I' for Inactive)
ROOT
ATOM      1  C   UNL d   1       0.493   1.741   0.746  0.00  0.00    -0.002 A 
ATOM      2  C1  UNL d   1       0.188   0.387   0.732  0.00  0.00     0.010 A 
ATOM      3  C2  UNL d   1      -0.904  -0.102   1.453  0.00  0.00     0.041 A 
ATOM      4  C3  UNL d   1      -1.691   0.801   2.194  0.00  0.00    -0.075 A 
ATOM      5  S   UNL d   1      -3.075   0.429   3.152  0.00  0.00     0.015 SA
ATOM      6  C4  UNL d   1      -3.294   2.059   3.602  0.00  0.00     0.022 A 
ATOM      7  C5  UNL d   1      -2.343   2.880   3.045  0.00  0.00     0.026 A 
ATOM      8  C6  UNL d   1      -1.403   2.169   2.224  0.00  0.00    -0.082 A 
ATOM      9  C7  UNL d   1      -0.290   2.634   1.483  0.00  0.00     0.045 A 
ENDROOT
TORSDOF 0
ENDMDL
