MODEL 1
REMARK minimizedAffinity 1.84638715
REMARK minimizedRMSD -1
REMARK  0 active torsions:
REMARK  status: ('A' for Active; 'I' for Inactive)
ROOT
ATOM      1  C   UNL d   1       0.877   1.738   1.343  0.00  0.00    -0.002 A 
ATOM      2  C1  UNL d   1       0.772   0.358   1.240  0.00  0.00     0.010 A 
ATOM      3  C2  UNL d   1      -0.410  -0.294   1.597  0.00  0.00     0.041 A 
ATOM      4  C3  UNL d   1      -1.497   0.473   2.062  0.00  0.00    -0.075 A 
ATOM      5  S   UNL d   1      -3.043  -0.108   2.556  0.00  0.00     0.015 SA
ATOM      6  C4  UNL d   1      -3.602   1.462   2.914  0.00  0.00     0.022 A 
ATOM      7  C5  UNL d   1      -2.645   2.418   2.669  0.00  0.00     0.026 A 
ATOM      8  C6  UNL d   1      -1.416   1.864   2.174  0.00  0.00    -0.082 A 
ATOM      9  C7  UNL d   1      -0.204   2.495   1.805  0.00  0.00     0.045 A 
ENDROOT
TORSDOF 0
ENDMDL
