MODEL 1
REMARK minimizedAffinity -3.6213932
REMARK minimizedRMSD -1
REMARK  0 active torsions:
REMARK  status: ('A' for Active; 'I' for Inactive)
ROOT
ATOM      1  C   UNL d   1       0.219   2.588   0.929  0.00  0.00    -0.002 A 
ATOM      2  C1  UNL d   1      -0.753   3.569   1.068  0.00  0.00     0.010 A 
ATOM      3  C2  UNL d   1      -1.960   3.287   1.712  0.00  0.00     0.041 A 
ATOM      4  C3  UNL d   1      -2.174   1.991   2.221  0.00  0.00    -0.075 A 
ATOM      5  S   UNL d   1      -3.574   1.417   3.048  0.00  0.00     0.015 SA
ATOM      6  C4  UNL d   1      -2.914  -0.143   3.238  0.00  0.00     0.022 A 
ATOM      7  C5  UNL d   1      -1.657  -0.241   2.689  0.00  0.00     0.026 A 
ATOM      8  C6  UNL d   1      -1.210   0.987   2.095  0.00  0.00    -0.082 A 
ATOM      9  C7  UNL d   1       0.003   1.304   1.436  0.00  0.00     0.045 A 
ENDROOT
TORSDOF 0
ENDMDL
