MODEL 1
REMARK minimizedAffinity 5.66645432
REMARK minimizedRMSD -1
REMARK  0 active torsions:
REMARK  status: ('A' for Active; 'I' for Inactive)
ROOT
ATOM      1  C   UNL d   1       1.718   0.797   0.636  0.00  0.00    -0.002 A 
ATOM      2  C1  UNL d   1       1.243  -0.506   0.692  0.00  0.00     0.010 A 
ATOM      3  C2  UNL d   1      -0.065  -0.768   1.103  0.00  0.00     0.041 A 
ATOM      4  C3  UNL d   1      -0.898   0.312   1.458  0.00  0.00    -0.075 A 
ATOM      5  S   UNL d   1      -2.535   0.231   1.990  0.00  0.00     0.015 SA
ATOM      6  C4  UNL d   1      -2.644   1.924   2.155  0.00  0.00     0.022 A 
ATOM      7  C5  UNL d   1      -1.468   2.551   1.817  0.00  0.00     0.026 A 
ATOM      8  C6  UNL d   1      -0.443   1.633   1.409  0.00  0.00    -0.082 A 
ATOM      9  C7  UNL d   1       0.889   1.866   0.989  0.00  0.00     0.045 A 
ENDROOT
TORSDOF 0
ENDMDL
