MODEL 1
REMARK minimizedAffinity 7.20283079
REMARK minimizedRMSD -1
REMARK  0 active torsions:
REMARK  status: ('A' for Active; 'I' for Inactive)
ROOT
ATOM      1  C   UNL d   1      -0.364   1.911   1.490  0.00  0.00    -0.002 A 
ATOM      2  C1  UNL d   1      -0.106   0.571   1.738  0.00  0.00     0.010 A 
ATOM      3  C2  UNL d   1      -1.023  -0.210   2.444  0.00  0.00     0.041 A 
ATOM      4  C3  UNL d   1      -2.216   0.384   2.899  0.00  0.00    -0.075 A 
ATOM      5  S   UNL d   1      -3.486  -0.378   3.784  0.00  0.00     0.015 SA
ATOM      6  C4  UNL d   1      -4.401   1.058   3.852  0.00  0.00     0.022 A 
ATOM      7  C5  UNL d   1      -3.769   2.103   3.221  0.00  0.00     0.026 A 
ATOM      8  C6  UNL d   1      -2.499   1.732   2.661  0.00  0.00    -0.082 A 
ATOM      9  C7  UNL d   1      -1.549   2.497   1.943  0.00  0.00     0.045 A 
ENDROOT
TORSDOF 0
ENDMDL
