MODEL 1
REMARK minimizedAffinity -0.3785308
REMARK minimizedRMSD -1
REMARK  0 active torsions:
REMARK  status: ('A' for Active; 'I' for Inactive)
ROOT
ATOM      1  C   UNL d   1      -3.237   0.914   3.146  0.00  0.00    -0.002 A 
ATOM      2  C1  UNL d   1      -2.847  -0.404   2.959  0.00  0.00     0.010 A 
ATOM      3  C2  UNL d   1      -1.601  -0.705   2.405  0.00  0.00     0.041 A 
ATOM      4  C3  UNL d   1      -0.744   0.352   2.040  0.00  0.00    -0.075 A 
ATOM      5  S   UNL d   1       0.828   0.223   1.346  0.00  0.00     0.015 SA
ATOM      6  C4  UNL d   1       1.020   1.915   1.281  0.00  0.00     0.022 A 
ATOM      7  C5  UNL d   1      -0.079   2.578   1.773  0.00  0.00     0.026 A 
ATOM      8  C6  UNL d   1      -1.114   1.688   2.220  0.00  0.00    -0.082 A 
ATOM      9  C7  UNL d   1      -2.384   1.960   2.783  0.00  0.00     0.045 A 
ENDROOT
TORSDOF 0
ENDMDL
