MODEL 1
REMARK minimizedAffinity 1.55144823
REMARK minimizedRMSD -1
REMARK  0 active torsions:
REMARK  status: ('A' for Active; 'I' for Inactive)
ROOT
ATOM      1  C   UNL d   1       0.985   1.388   0.806  0.00  0.00    -0.002 A 
ATOM      2  C1  UNL d   1       0.655   0.052   0.624  0.00  0.00     0.010 A 
ATOM      3  C2  UNL d   1      -0.533  -0.463   1.144  0.00  0.00     0.041 A 
ATOM      4  C3  UNL d   1      -1.395   0.395   1.856  0.00  0.00    -0.075 A 
ATOM      5  S   UNL d   1      -2.904  -0.016   2.581  0.00  0.00     0.015 SA
ATOM      6  C4  UNL d   1      -3.148   1.573   3.149  0.00  0.00     0.022 A 
ATOM      7  C5  UNL d   1      -2.113   2.409   2.803  0.00  0.00     0.026 A 
ATOM      8  C6  UNL d   1      -1.086   1.744   2.051  0.00  0.00    -0.082 A 
ATOM      9  C7  UNL d   1       0.127   2.236   1.512  0.00  0.00     0.045 A 
ENDROOT
TORSDOF 0
ENDMDL
