MODEL 1
REMARK minimizedAffinity 13.5346718
REMARK minimizedRMSD -1
REMARK  0 active torsions:
REMARK  status: ('A' for Active; 'I' for Inactive)
ROOT
ATOM      1  C   UNL d   1      -5.886   3.112   5.623  0.00  0.00    -0.002 A 
ATOM      2  C1  UNL d   1      -5.999   1.780   5.998  0.00  0.00     0.010 A 
ATOM      3  C2  UNL d   1      -5.264   0.792   5.340  0.00  0.00     0.041 A 
ATOM      4  C3  UNL d   1      -4.402   1.168   4.291  0.00  0.00    -0.075 A 
ATOM      5  S   UNL d   1      -3.403   0.131   3.344  0.00  0.00     0.015 SA
ATOM      6  C4  UNL d   1      -2.800   1.430   2.421  0.00  0.00     0.022 A 
ATOM      7  C5  UNL d   1      -3.338   2.634   2.811  0.00  0.00     0.026 A 
ATOM      8  C6  UNL d   1      -4.270   2.503   3.896  0.00  0.00    -0.082 A 
ATOM      9  C7  UNL d   1      -5.030   3.481   4.582  0.00  0.00     0.045 A 
ENDROOT
TORSDOF 0
ENDMDL
