MODEL 1
REMARK minimizedAffinity 8.73906326
REMARK minimizedRMSD -1
REMARK  0 active torsions:
REMARK  status: ('A' for Active; 'I' for Inactive)
ROOT
ATOM      1  C   UNL d   1       1.644   0.694   1.122  0.00  0.00    -0.002 A 
ATOM      2  C1  UNL d   1       1.190  -0.505   1.654  0.00  0.00     0.010 A 
ATOM      3  C2  UNL d   1      -0.104  -0.609   2.167  0.00  0.00     0.041 A 
ATOM      4  C3  UNL d   1      -0.943   0.522   2.134  0.00  0.00    -0.075 A 
ATOM      5  S   UNL d   1      -2.567   0.629   2.704  0.00  0.00     0.015 SA
ATOM      6  C4  UNL d   1      -2.697   2.267   2.254  0.00  0.00     0.022 A 
ATOM      7  C5  UNL d   1      -1.539   2.738   1.682  0.00  0.00     0.026 A 
ATOM      8  C6  UNL d   1      -0.509   1.740   1.603  0.00  0.00    -0.082 A 
ATOM      9  C7  UNL d   1       0.809   1.814   1.091  0.00  0.00     0.045 A 
ENDROOT
TORSDOF 0
ENDMDL
