MODEL 1
REMARK minimizedAffinity 10.1271276
REMARK minimizedRMSD -1
REMARK  0 active torsions:
REMARK  status: ('A' for Active; 'I' for Inactive)
ROOT
ATOM      1  C   UNL d   1       1.802   1.197   0.724  0.00  0.00    -0.002 A 
ATOM      2  C1  UNL d   1       1.481  -0.087   1.140  0.00  0.00     0.010 A 
ATOM      3  C2  UNL d   1       0.223  -0.366   1.678  0.00  0.00     0.041 A 
ATOM      4  C3  UNL d   1      -0.717   0.678   1.790  0.00  0.00    -0.075 A 
ATOM      5  S   UNL d   1      -2.319   0.570   2.417  0.00  0.00     0.015 SA
ATOM      6  C4  UNL d   1      -2.616   2.227   2.146  0.00  0.00     0.022 A 
ATOM      7  C5  UNL d   1      -1.530   2.861   1.592  0.00  0.00     0.026 A 
ATOM      8  C6  UNL d   1      -0.418   1.979   1.377  0.00  0.00    -0.082 A 
ATOM      9  C7  UNL d   1       0.867   2.230   0.836  0.00  0.00     0.045 A 
ENDROOT
TORSDOF 0
ENDMDL
