MODEL 1
REMARK minimizedAffinity 11.0482588
REMARK minimizedRMSD -1
REMARK  0 active torsions:
REMARK  status: ('A' for Active; 'I' for Inactive)
ROOT
ATOM      1  C   UNL d   1      -0.007   2.238   1.340  0.00  0.00    -0.002 A 
ATOM      2  C1  UNL d   1       1.170   1.509   1.444  0.00  0.00     0.010 A 
ATOM      3  C2  UNL d   1       1.154   0.202   1.936  0.00  0.00     0.041 A 
ATOM      4  C3  UNL d   1      -0.076  -0.366   2.323  0.00  0.00    -0.075 A 
ATOM      5  S   UNL d   1      -0.337  -1.949   2.953  0.00  0.00     0.015 SA
ATOM      6  C4  UNL d   1      -2.016  -1.696   3.097  0.00  0.00     0.022 A 
ATOM      7  C5  UNL d   1      -2.386  -0.439   2.680  0.00  0.00     0.026 A 
ATOM      8  C6  UNL d   1      -1.274   0.348   2.226  0.00  0.00    -0.082 A 
ATOM      9  C7  UNL d   1      -1.225   1.671   1.724  0.00  0.00     0.045 A 
ENDROOT
TORSDOF 0
ENDMDL
