MODEL 1
REMARK minimizedAffinity -0.525018752
REMARK minimizedRMSD -1
REMARK  0 active torsions:
REMARK  status: ('A' for Active; 'I' for Inactive)
ROOT
ATOM      1  C   UNL d   1       1.156   1.069   1.215  0.00  0.00    -0.002 A 
ATOM      2  C1  UNL d   1       0.824   2.320   1.714  0.00  0.00     0.010 A 
ATOM      3  C2  UNL d   1      -0.436   2.552   2.270  0.00  0.00     0.041 A 
ATOM      4  C3  UNL d   1      -1.365   1.493   2.317  0.00  0.00    -0.075 A 
ATOM      5  S   UNL d   1      -2.967   1.544   2.952  0.00  0.00     0.015 SA
ATOM      6  C4  UNL d   1      -3.248  -0.094   2.577  0.00  0.00     0.022 A 
ATOM      7  C5  UNL d   1      -2.157  -0.681   1.980  0.00  0.00     0.026 A 
ATOM      8  C6  UNL d   1      -1.053   0.224   1.821  0.00  0.00    -0.082 A 
ATOM      9  C7  UNL d   1       0.232   0.021   1.264  0.00  0.00     0.045 A 
ENDROOT
TORSDOF 0
ENDMDL
