MODEL 1
REMARK minimizedAffinity -4.78323126
REMARK minimizedRMSD -1
REMARK  1 active torsions:
REMARK  status: ('A' for Active; 'I' for Inactive)
REMARK    1  A    between atoms: C1_2  and  C2_3 
ROOT
ATOM      1  C2  UNL d   1       0.407  -0.204  -0.046  0.00  0.00    -0.073 A 
ATOM      2  C3  UNL d   1       1.653  -0.837  -0.113  0.00  0.00    -0.002 A 
ATOM      3  C4  UNL d   1       2.040  -1.739   0.879  0.00  0.00     0.004 A 
ATOM      4  C5  UNL d   1       1.183  -2.022   1.943  0.00  0.00    -0.004 A 
ATOM      5  C6  UNL d   1      -0.071  -1.408   2.021  0.00  0.00    -0.075 A 
ATOM      6  C7  UNL d   1      -1.004  -1.699   3.160  0.00  0.00     0.076 C 
ATOM      7  C8  UNL d   1      -0.451  -0.501   1.022  0.00  0.00     0.001 A 
ENDROOT
BRANCH   1   8
ATOM      8  C1  UNL d   1      -0.017   0.766  -1.119  0.00  0.00     0.053 C 
ATOM      9  C   UNL d   1      -1.164   1.654  -0.663  0.00  0.00     0.018 C 
ENDBRANCH   1   8
TORSDOF 1
ENDMDL
