MODEL 1
REMARK minimizedAffinity -4.09193134
REMARK minimizedRMSD -1
REMARK  1 active torsions:
REMARK  status: ('A' for Active; 'I' for Inactive)
REMARK    1  A    between atoms: C1_2  and  C2_3 
ROOT
ATOM      1  C2  UNL d   1      -1.170   1.167  -0.834  0.00  0.00    -0.073 A 
ATOM      2  C3  UNL d   1      -1.707   0.473  -1.924  0.00  0.00    -0.002 A 
ATOM      3  C4  UNL d   1      -2.539   1.126  -2.834  0.00  0.00     0.004 A 
ATOM      4  C5  UNL d   1      -2.836   2.479  -2.669  0.00  0.00    -0.004 A 
ATOM      5  C6  UNL d   1      -2.299   3.192  -1.593  0.00  0.00    -0.075 A 
ATOM      6  C7  UNL d   1      -2.611   4.647  -1.400  0.00  0.00     0.076 C 
ATOM      7  C8  UNL d   1      -1.467   2.529  -0.681  0.00  0.00     0.001 A 
ENDROOT
BRANCH   1   8
ATOM      8  C1  UNL d   1      -0.266   0.468   0.148  0.00  0.00     0.053 C 
ATOM      9  C   UNL d   1       0.991  -0.070  -0.517  0.00  0.00     0.018 C 
ENDBRANCH   1   8
TORSDOF 1
ENDMDL
