MODEL 1
REMARK minimizedAffinity -2.26364541
REMARK minimizedRMSD -1
REMARK  1 active torsions:
REMARK  status: ('A' for Active; 'I' for Inactive)
REMARK    1  A    between atoms: C1_2  and  C2_3 
ROOT
ATOM      1  C2  UNL d   1      -1.530   1.941  -3.454  0.00  0.00    -0.073 A 
ATOM      2  C3  UNL d   1      -1.873   0.624  -3.781  0.00  0.00    -0.002 A 
ATOM      3  C4  UNL d   1      -2.019  -0.335  -2.779  0.00  0.00     0.004 A 
ATOM      4  C5  UNL d   1      -1.831   0.013  -1.441  0.00  0.00    -0.004 A 
ATOM      5  C6  UNL d   1      -1.500   1.326  -1.094  0.00  0.00    -0.075 A 
ATOM      6  C7  UNL d   1      -1.292   1.716   0.340  0.00  0.00     0.076 C 
ATOM      7  C8  UNL d   1      -1.352   2.284  -2.106  0.00  0.00     0.001 A 
ENDROOT
BRANCH   1   8
ATOM      8  C1  UNL d   1      -1.377   2.983  -4.533  0.00  0.00     0.053 C 
ATOM      9  C   UNL d   1      -0.145   3.847  -4.321  0.00  0.00     0.018 C 
ENDBRANCH   1   8
TORSDOF 1
ENDMDL
