MODEL 1
REMARK minimizedAffinity -2.6239953
REMARK minimizedRMSD -1
REMARK  1 active torsions:
REMARK  status: ('A' for Active; 'I' for Inactive)
REMARK    1  A    between atoms: C1_2  and  C2_3 
ROOT
ATOM      1  C2  UNL d   1      -0.068   0.540   0.249  0.00  0.00    -0.073 A 
ATOM      2  C3  UNL d   1       1.014   0.056  -0.495  0.00  0.00    -0.002 A 
ATOM      3  C4  UNL d   1       1.789  -0.998  -0.008  0.00  0.00     0.004 A 
ATOM      4  C5  UNL d   1       1.487  -1.581   1.222  0.00  0.00    -0.004 A 
ATOM      5  C6  UNL d   1       0.403  -1.119   1.975  0.00  0.00    -0.075 A 
ATOM      6  C7  UNL d   1       0.066  -1.734   3.302  0.00  0.00     0.076 C 
ATOM      7  C8  UNL d   1      -0.369  -0.059   1.481  0.00  0.00     0.001 A 
ENDROOT
BRANCH   1   8
ATOM      8  C1  UNL d   1      -0.912   1.673  -0.275  0.00  0.00     0.053 C 
ATOM      9  C   UNL d   1      -1.397   1.413  -1.693  0.00  0.00     0.018 C 
ENDBRANCH   1   8
TORSDOF 1
ENDMDL
