MODEL 1
REMARK minimizedAffinity 4.57124043
REMARK minimizedRMSD -1
REMARK  1 active torsions:
REMARK  status: ('A' for Active; 'I' for Inactive)
REMARK    1  A    between atoms: C1_2  and  C2_3 
ROOT
ATOM      1  C2  UNL d   1       1.491  -1.132   0.886  0.00  0.00    -0.073 A 
ATOM      2  C3  UNL d   1       1.043  -2.204   1.666  0.00  0.00    -0.002 A 
ATOM      3  C4  UNL d   1      -0.223  -2.168   2.253  0.00  0.00     0.004 A 
ATOM      4  C5  UNL d   1      -1.054  -1.065   2.061  0.00  0.00    -0.004 A 
ATOM      5  C6  UNL d   1      -0.629   0.011   1.275  0.00  0.00    -0.075 A 
ATOM      6  C7  UNL d   1      -1.510   1.206   1.061  0.00  0.00     0.076 C 
ATOM      7  C8  UNL d   1       0.644  -0.031   0.691  0.00  0.00     0.001 A 
ENDROOT
BRANCH   1   8
ATOM      8  C1  UNL d   1       2.854  -1.169   0.245  0.00  0.00     0.053 C 
ATOM      9  C   UNL d   1       2.882  -2.066  -0.983  0.00  0.00     0.018 C 
ENDBRANCH   1   8
TORSDOF 1
ENDMDL
