MODEL 1
REMARK minimizedAffinity -2.02426648
REMARK minimizedRMSD -1
REMARK  1 active torsions:
REMARK  status: ('A' for Active; 'I' for Inactive)
REMARK    1  A    between atoms: C1_2  and  C2_3 
ROOT
ATOM      1  C2  UNL d   1      -1.119   1.636  -1.411  0.00  0.00    -0.073 A 
ATOM      2  C3  UNL d   1      -1.834   1.718  -0.211  0.00  0.00    -0.002 A 
ATOM      3  C4  UNL d   1      -1.282   1.230   0.974  0.00  0.00     0.004 A 
ATOM      4  C5  UNL d   1      -0.008   0.662   0.973  0.00  0.00    -0.004 A 
ATOM      5  C6  UNL d   1       0.728   0.582  -0.214  0.00  0.00    -0.075 A 
ATOM      6  C7  UNL d   1       2.099  -0.027  -0.232  0.00  0.00     0.076 C 
ATOM      7  C8  UNL d   1       0.165   1.072  -1.400  0.00  0.00     0.001 A 
ENDROOT
BRANCH   1   8
ATOM      8  C1  UNL d   1      -1.709   2.167  -2.692  0.00  0.00     0.053 C 
ATOM      9  C   UNL d   1      -2.691   1.189  -3.316  0.00  0.00     0.018 C 
ENDBRANCH   1   8
TORSDOF 1
ENDMDL
