MODEL 1
REMARK minimizedAffinity -2.86049962
REMARK minimizedRMSD -1
REMARK  1 active torsions:
REMARK  status: ('A' for Active; 'I' for Inactive)
REMARK    1  A    between atoms: C1_2  and  C2_3 
ROOT
ATOM      1  C2  UNL d   1      -0.339   0.566  -0.431  0.00  0.00    -0.073 A 
ATOM      2  C3  UNL d   1      -1.338   1.137   0.367  0.00  0.00    -0.002 A 
ATOM      3  C4  UNL d   1      -2.410   1.810  -0.219  0.00  0.00     0.004 A 
ATOM      4  C5  UNL d   1      -2.499   1.914  -1.607  0.00  0.00    -0.004 A 
ATOM      5  C6  UNL d   1      -1.518   1.340  -2.422  0.00  0.00    -0.075 A 
ATOM      6  C7  UNL d   1      -1.598   1.445  -3.917  0.00  0.00     0.076 C 
ATOM      7  C8  UNL d   1      -0.443   0.668  -1.826  0.00  0.00     0.001 A 
ENDROOT
BRANCH   1   8
ATOM      8  C1  UNL d   1       0.817  -0.167   0.197  0.00  0.00     0.053 C 
ATOM      9  C   UNL d   1       1.642  -0.921  -0.834  0.00  0.00     0.018 C 
ENDBRANCH   1   8
TORSDOF 1
ENDMDL
