MODEL 1
REMARK minimizedAffinity -0.888106346
REMARK minimizedRMSD -1
REMARK  1 active torsions:
REMARK  status: ('A' for Active; 'I' for Inactive)
REMARK    1  A    between atoms: C1_2  and  C2_3 
ROOT
ATOM      1  C2  UNL d   1      -2.081   1.360  -0.707  0.00  0.00    -0.073 A 
ATOM      2  C3  UNL d   1      -3.127   0.812  -1.458  0.00  0.00    -0.002 A 
ATOM      3  C4  UNL d   1      -3.425   1.319  -2.724  0.00  0.00     0.004 A 
ATOM      4  C5  UNL d   1      -2.678   2.371  -3.253  0.00  0.00    -0.004 A 
ATOM      5  C6  UNL d   1      -1.622   2.923  -2.523  0.00  0.00    -0.075 A 
ATOM      6  C7  UNL d   1      -0.810   4.057  -3.077  0.00  0.00     0.076 C 
ATOM      7  C8  UNL d   1      -1.330   2.412  -1.251  0.00  0.00     0.001 A 
ENDROOT
BRANCH   1   8
ATOM      8  C1  UNL d   1      -1.751   0.813   0.658  0.00  0.00     0.053 C 
ATOM      9  C   UNL d   1      -1.021  -0.519   0.577  0.00  0.00     0.018 C 
ENDBRANCH   1   8
TORSDOF 1
ENDMDL
