MODEL 1
REMARK minimizedAffinity -4.05510521
REMARK minimizedRMSD -1
REMARK  1 active torsions:
REMARK  status: ('A' for Active; 'I' for Inactive)
REMARK    1  A    between atoms: C1_2  and  C2_3 
ROOT
ATOM      1  C2  UNL d   1       1.024  -0.927   0.496  0.00  0.00    -0.073 A 
ATOM      2  C3  UNL d   1       1.801  -1.756   1.312  0.00  0.00    -0.002 A 
ATOM      3  C4  UNL d   1       1.295  -2.228   2.524  0.00  0.00     0.004 A 
ATOM      4  C5  UNL d   1       0.006  -1.881   2.929  0.00  0.00    -0.004 A 
ATOM      5  C6  UNL d   1      -0.791  -1.063   2.121  0.00  0.00    -0.075 A 
ATOM      6  C7  UNL d   1      -2.179  -0.680   2.543  0.00  0.00     0.076 C 
ATOM      7  C8  UNL d   1      -0.274  -0.592   0.907  0.00  0.00     0.001 A 
ENDROOT
BRANCH   1   8
ATOM      8  C1  UNL d   1       1.563  -0.421  -0.817  0.00  0.00     0.053 C 
ATOM      9  C   UNL d   1       2.038   1.020  -0.721  0.00  0.00     0.018 C 
ENDBRANCH   1   8
TORSDOF 1
ENDMDL
