MODEL 1
REMARK minimizedAffinity 0.487689614
REMARK minimizedRMSD -1
REMARK  1 active torsions:
REMARK  status: ('A' for Active; 'I' for Inactive)
REMARK    1  A    between atoms: C1_2  and  C2_3 
ROOT
ATOM      1  C2  UNL d   1      -0.858   1.529  -1.177  0.00  0.00    -0.073 A 
ATOM      2  C3  UNL d   1      -1.645   1.167  -0.078  0.00  0.00    -0.002 A 
ATOM      3  C4  UNL d   1      -1.157   0.270   0.873  0.00  0.00     0.004 A 
ATOM      4  C5  UNL d   1       0.123  -0.268   0.739  0.00  0.00    -0.004 A 
ATOM      5  C6  UNL d   1       0.929   0.091  -0.346  0.00  0.00    -0.075 A 
ATOM      6  C7  UNL d   1       2.308  -0.480  -0.506  0.00  0.00     0.076 C 
ATOM      7  C8  UNL d   1       0.431   0.990  -1.298  0.00  0.00     0.001 A 
ENDROOT
BRANCH   1   8
ATOM      8  C1  UNL d   1      -1.378   2.502  -2.204  0.00  0.00     0.053 C 
ATOM      9  C   UNL d   1      -1.601   1.841  -3.554  0.00  0.00     0.018 C 
ENDBRANCH   1   8
TORSDOF 1
ENDMDL
