MODEL 1
REMARK minimizedAffinity -5.12732363
REMARK minimizedRMSD -1
REMARK  1 active torsions:
REMARK  status: ('A' for Active; 'I' for Inactive)
REMARK    1  A    between atoms: C1_2  and  C2_3 
ROOT
ATOM      1  C2  UNL d   1       1.414  -0.775   0.238  0.00  0.00    -0.073 A 
ATOM      2  C3  UNL d   1       2.272  -1.632   0.937  0.00  0.00    -0.002 A 
ATOM      3  C4  UNL d   1       1.859  -2.221   2.134  0.00  0.00     0.004 A 
ATOM      4  C5  UNL d   1       0.584  -1.964   2.639  0.00  0.00    -0.004 A 
ATOM      5  C6  UNL d   1      -0.291  -1.120   1.949  0.00  0.00    -0.075 A 
ATOM      6  C7  UNL d   1      -1.665  -0.832   2.480  0.00  0.00     0.076 C 
ATOM      7  C8  UNL d   1       0.132  -0.530   0.750  0.00  0.00     0.001 A 
ENDROOT
BRANCH   1   8
ATOM      8  C1  UNL d   1       1.853  -0.143  -1.057  0.00  0.00     0.053 C 
ATOM      9  C   UNL d   1       2.234   1.318  -0.877  0.00  0.00     0.018 C 
ENDBRANCH   1   8
TORSDOF 1
ENDMDL
