MODEL 1
REMARK minimizedAffinity -4.27205849
REMARK minimizedRMSD -1
REMARK  1 active torsions:
REMARK  status: ('A' for Active; 'I' for Inactive)
REMARK    1  A    between atoms: C1_2  and  C2_3 
ROOT
ATOM      1  C2  UNL d   1      -0.691   0.657  -0.665  0.00  0.00    -0.073 A 
ATOM      2  C3  UNL d   1      -0.756   2.048  -0.806  0.00  0.00    -0.002 A 
ATOM      3  C4  UNL d   1      -1.616   2.623  -1.743  0.00  0.00     0.004 A 
ATOM      4  C5  UNL d   1      -2.425   1.814  -2.542  0.00  0.00    -0.004 A 
ATOM      5  C6  UNL d   1      -2.383   0.423  -2.407  0.00  0.00    -0.075 A 
ATOM      6  C7  UNL d   1      -3.245  -0.461  -3.261  0.00  0.00     0.076 C 
ATOM      7  C8  UNL d   1      -1.515  -0.147  -1.467  0.00  0.00     0.001 A 
ENDROOT
BRANCH   1   8
ATOM      8  C1  UNL d   1       0.232   0.033   0.349  0.00  0.00     0.053 C 
ATOM      9  C   UNL d   1       1.677   0.028  -0.122  0.00  0.00     0.018 C 
ENDBRANCH   1   8
TORSDOF 1
ENDMDL
