MODEL 1
REMARK minimizedAffinity -1.07380068
REMARK minimizedRMSD -1
REMARK  0 active torsions:
REMARK  status: ('A' for Active; 'I' for Inactive)
ROOT
ATOM      1  C   UNL d   1       1.705   0.720   0.767  0.00  0.00     0.124 A 
ATOM      2  C1  UNL d   1       1.037   1.034  -0.409  0.00  0.00     0.062 A 
ATOM      3  C2  UNL d   1      -0.351   0.942  -0.472  0.00  0.00     0.162 A 
ATOM      4  C3  UNL d   1      -1.080   0.535   0.645  0.00  0.00    -0.034 A 
ATOM      5  C4  UNL d   1      -0.401   0.220   1.824  0.00  0.00     0.162 A 
ATOM      6  C5  UNL d   1       0.985   0.313   1.881  0.00  0.00     0.062 A 
ATOM      7  F   UNL d   1       1.629   0.010   3.018  0.00  0.00    -0.097 F 
ATOM      8  F1  UNL d   1      -1.072  -0.175   2.916  0.00  0.00    -0.096 F 
ATOM      9  I   UNL d   1      -3.155   0.395   0.555  0.00  0.00    -0.060 I 
ATOM     10  F2  UNL d   1      -0.970   1.251  -1.621  0.00  0.00    -0.096 F 
ATOM     11  F3  UNL d   1       1.730   1.426  -1.488  0.00  0.00    -0.097 F 
ATOM     12  F4  UNL d   1       3.040   0.809   0.824  0.00  0.00    -0.092 F 
ENDROOT
TORSDOF 0
ENDMDL
