MODEL 1
REMARK minimizedAffinity -0.00484979339
REMARK minimizedRMSD -1
REMARK  0 active torsions:
REMARK  status: ('A' for Active; 'I' for Inactive)
ROOT
ATOM      1  C   UNL d   1      -0.607  -0.498   2.728  0.00  0.00     0.124 A 
ATOM      2  C1  UNL d   1       0.698  -0.056   2.555  0.00  0.00     0.062 A 
ATOM      3  C2  UNL d   1       1.183   0.209   1.277  0.00  0.00     0.162 A 
ATOM      4  C3  UNL d   1       0.363   0.035   0.163  0.00  0.00    -0.034 A 
ATOM      5  C4  UNL d   1      -0.947  -0.411   0.345  0.00  0.00     0.162 A 
ATOM      6  C5  UNL d   1      -1.428  -0.675   1.623  0.00  0.00     0.062 A 
ATOM      7  F   UNL d   1      -2.688  -1.103   1.789  0.00  0.00    -0.097 F 
ATOM      8  F1  UNL d   1      -1.763  -0.590  -0.705  0.00  0.00    -0.096 F 
ATOM      9  I   UNL d   1       1.085   0.431  -1.749  0.00  0.00    -0.060 I 
ATOM     10  F2  UNL d   1       2.447   0.636   1.140  0.00  0.00    -0.096 F 
ATOM     11  F3  UNL d   1       1.493   0.115   3.620  0.00  0.00    -0.097 F 
ATOM     12  F4  UNL d   1      -1.070  -0.754   3.958  0.00  0.00    -0.092 F 
ENDROOT
TORSDOF 0
ENDMDL
