MODEL 1
REMARK minimizedAffinity -3.08333969
REMARK minimizedRMSD -1
REMARK  0 active torsions:
REMARK  status: ('A' for Active; 'I' for Inactive)
ROOT
ATOM      1  C   UNL d   1      -2.157   0.636  -0.762  0.00  0.00     0.124 A 
ATOM      2  C1  UNL d   1      -2.432  -0.109   0.376  0.00  0.00     0.062 A 
ATOM      3  C2  UNL d   1      -1.434  -0.343   1.318  0.00  0.00     0.162 A 
ATOM      4  C3  UNL d   1      -0.151   0.169   1.126  0.00  0.00    -0.034 A 
ATOM      5  C4  UNL d   1       0.118   0.917  -0.021  0.00  0.00     0.162 A 
ATOM      6  C5  UNL d   1      -0.882   1.148  -0.960  0.00  0.00     0.062 A 
ATOM      7  F   UNL d   1      -0.614   1.868  -2.059  0.00  0.00    -0.097 F 
ATOM      8  F1  UNL d   1       1.341   1.424  -0.237  0.00  0.00    -0.096 F 
ATOM      9  I   UNL d   1       1.343  -0.179   2.532  0.00  0.00    -0.060 I 
ATOM     10  F2  UNL d   1      -1.729  -1.066   2.409  0.00  0.00    -0.096 F 
ATOM     11  F3  UNL d   1      -3.663  -0.606   0.569  0.00  0.00    -0.097 F 
ATOM     12  F4  UNL d   1      -3.118   0.859  -1.667  0.00  0.00    -0.092 F 
ENDROOT
TORSDOF 0
ENDMDL
