MODEL 1
REMARK minimizedAffinity -3.42131567
REMARK minimizedRMSD -1
REMARK  0 active torsions:
REMARK  status: ('A' for Active; 'I' for Inactive)
ROOT
ATOM      1  C   UNL d   1      -1.016  -0.150   1.751  0.00  0.00     0.124 A 
ATOM      2  C1  UNL d   1       0.311   0.252   1.812  0.00  0.00     0.062 A 
ATOM      3  C2  UNL d   1       1.026   0.484   0.641  0.00  0.00     0.162 A 
ATOM      4  C3  UNL d   1       0.415   0.317  -0.602  0.00  0.00    -0.034 A 
ATOM      5  C4  UNL d   1      -0.920  -0.087  -0.655  0.00  0.00     0.162 A 
ATOM      6  C5  UNL d   1      -1.630  -0.319   0.518  0.00  0.00     0.062 A 
ATOM      7  F   UNL d   1      -2.913  -0.707   0.458  0.00  0.00    -0.097 F 
ATOM      8  F1  UNL d   1      -1.538  -0.258  -1.833  0.00  0.00    -0.096 F 
ATOM      9  I   UNL d   1       1.481   0.664  -2.356  0.00  0.00    -0.060 I 
ATOM     10  F2  UNL d   1       2.307   0.871   0.729  0.00  0.00    -0.096 F 
ATOM     11  F3  UNL d   1       0.907   0.415   3.002  0.00  0.00    -0.097 F 
ATOM     12  F4  UNL d   1      -1.702  -0.374   2.880  0.00  0.00    -0.092 F 
ENDROOT
TORSDOF 0
ENDMDL
