MODEL 1
REMARK minimizedAffinity 4.00850391
REMARK minimizedRMSD -1
REMARK  0 active torsions:
REMARK  status: ('A' for Active; 'I' for Inactive)
ROOT
ATOM      1  C   UNL d   1      -0.860  -0.048   2.900  0.00  0.00     0.124 A 
ATOM      2  C1  UNL d   1       0.066   0.889   2.464  0.00  0.00     0.062 A 
ATOM      3  C2  UNL d   1       0.533   0.854   1.154  0.00  0.00     0.162 A 
ATOM      4  C3  UNL d   1       0.075  -0.122   0.269  0.00  0.00    -0.034 A 
ATOM      5  C4  UNL d   1      -0.856  -1.062   0.715  0.00  0.00     0.162 A 
ATOM      6  C5  UNL d   1      -1.320  -1.023   2.026  0.00  0.00     0.062 A 
ATOM      7  F   UNL d   1      -2.214  -1.930   2.446  0.00  0.00    -0.097 F 
ATOM      8  F1  UNL d   1      -1.317  -2.014  -0.109  0.00  0.00    -0.096 F 
ATOM      9  I   UNL d   1       0.771  -0.178  -1.692  0.00  0.00    -0.060 I 
ATOM     10  F2  UNL d   1       1.428   1.773   0.759  0.00  0.00    -0.096 F 
ATOM     11  F3  UNL d   1       0.512   1.831   3.307  0.00  0.00    -0.097 F 
ATOM     12  F4  UNL d   1      -1.307  -0.013   4.162  0.00  0.00    -0.092 F 
ENDROOT
TORSDOF 0
ENDMDL
