MODEL 1
REMARK minimizedAffinity -5.88342667
REMARK minimizedRMSD -1
REMARK  0 active torsions:
REMARK  status: ('A' for Active; 'I' for Inactive)
ROOT
ATOM      1  C   UNL d   1      -2.811   0.483   1.277  0.00  0.00     0.124 A 
ATOM      2  C1  UNL d   1      -2.052   0.035   2.349  0.00  0.00     0.062 A 
ATOM      3  C2  UNL d   1      -0.673  -0.105   2.221  0.00  0.00     0.162 A 
ATOM      4  C3  UNL d   1      -0.043   0.205   1.016  0.00  0.00    -0.034 A 
ATOM      5  C4  UNL d   1      -0.813   0.655  -0.059  0.00  0.00     0.162 A 
ATOM      6  C5  UNL d   1      -2.191   0.793   0.074  0.00  0.00     0.062 A 
ATOM      7  F   UNL d   1      -2.922   1.226  -0.963  0.00  0.00    -0.097 F 
ATOM      8  F1  UNL d   1      -0.240   0.962  -1.232  0.00  0.00    -0.096 F 
ATOM      9  I   UNL d   1       2.018  -0.003   0.820  0.00  0.00    -0.060 I 
ATOM     10  F2  UNL d   1       0.035  -0.541   3.274  0.00  0.00    -0.096 F 
ATOM     11  F3  UNL d   1      -2.649  -0.266   3.511  0.00  0.00    -0.097 F 
ATOM     12  F4  UNL d   1      -4.138   0.616   1.402  0.00  0.00    -0.092 F 
ENDROOT
TORSDOF 0
ENDMDL
