MODEL 1
REMARK minimizedAffinity -4.38978338
REMARK minimizedRMSD -1
REMARK  0 active torsions:
REMARK  status: ('A' for Active; 'I' for Inactive)
ROOT
ATOM      1  C   UNL d   1      -2.164  -0.404   1.859  0.00  0.00     0.124 A 
ATOM      2  C1  UNL d   1      -2.540   0.421   0.809  0.00  0.00     0.062 A 
ATOM      3  C2  UNL d   1      -1.705   0.576  -0.294  0.00  0.00     0.162 A 
ATOM      4  C3  UNL d   1      -0.485  -0.098  -0.352  0.00  0.00    -0.034 A 
ATOM      5  C4  UNL d   1      -0.112  -0.925   0.709  0.00  0.00     0.162 A 
ATOM      6  C5  UNL d   1      -0.951  -1.076   1.809  0.00  0.00     0.062 A 
ATOM      7  F   UNL d   1      -0.586  -1.873   2.823  0.00  0.00    -0.097 F 
ATOM      8  F1  UNL d   1       1.054  -1.587   0.686  0.00  0.00    -0.096 F 
ATOM      9  I   UNL d   1       0.767   0.131  -1.999  0.00  0.00    -0.060 I 
ATOM     10  F2  UNL d   1      -2.094   1.379  -1.295  0.00  0.00    -0.096 F 
ATOM     11  F3  UNL d   1      -3.711   1.072   0.856  0.00  0.00    -0.097 F 
ATOM     12  F4  UNL d   1      -2.969  -0.550   2.920  0.00  0.00    -0.092 F 
ENDROOT
TORSDOF 0
ENDMDL
