MODEL 1
REMARK minimizedAffinity -5.90551519
REMARK minimizedRMSD -1
REMARK  0 active torsions:
REMARK  status: ('A' for Active; 'I' for Inactive)
ROOT
ATOM      1  C   UNL d   1      -1.479   0.758   2.061  0.00  0.00     0.124 A 
ATOM      2  C1  UNL d   1      -0.252   0.128   1.904  0.00  0.00     0.062 A 
ATOM      3  C2  UNL d   1       0.213  -0.191   0.631  0.00  0.00     0.162 A 
ATOM      4  C3  UNL d   1      -0.548   0.121  -0.495  0.00  0.00    -0.034 A 
ATOM      5  C4  UNL d   1      -1.782   0.754  -0.329  0.00  0.00     0.162 A 
ATOM      6  C5  UNL d   1      -2.242   1.070   0.944  0.00  0.00     0.062 A 
ATOM      7  F   UNL d   1      -3.428   1.679   1.094  0.00  0.00    -0.097 F 
ATOM      8  F1  UNL d   1      -2.539   1.068  -1.391  0.00  0.00    -0.096 F 
ATOM      9  I   UNL d   1       0.144  -0.354  -2.400  0.00  0.00    -0.060 I 
ATOM     10  F2  UNL d   1       1.402  -0.799   0.509  0.00  0.00    -0.096 F 
ATOM     11  F3  UNL d   1       0.487  -0.175   2.980  0.00  0.00    -0.097 F 
ATOM     12  F4  UNL d   1      -1.925   1.063   3.286  0.00  0.00    -0.092 F 
ENDROOT
TORSDOF 0
ENDMDL
