MODEL 1
REMARK minimizedAffinity 0.48676917
REMARK minimizedRMSD -1
REMARK  0 active torsions:
REMARK  status: ('A' for Active; 'I' for Inactive)
ROOT
ATOM      1  C   UNL d   1       0.996   0.713  -0.776  0.00  0.00     0.124 A 
ATOM      2  C1  UNL d   1       1.754   0.671   0.386  0.00  0.00     0.062 A 
ATOM      3  C2  UNL d   1       1.156   0.351   1.602  0.00  0.00     0.162 A 
ATOM      4  C3  UNL d   1      -0.209   0.070   1.661  0.00  0.00    -0.034 A 
ATOM      5  C4  UNL d   1      -0.965   0.115   0.488  0.00  0.00     0.162 A 
ATOM      6  C5  UNL d   1      -0.362   0.435  -0.724  0.00  0.00     0.062 A 
ATOM      7  F   UNL d   1      -1.096   0.476  -1.845  0.00  0.00    -0.097 F 
ATOM      8  F1  UNL d   1      -2.280  -0.150   0.510  0.00  0.00    -0.096 F 
ATOM      9  I   UNL d   1      -1.108  -0.409   3.476  0.00  0.00    -0.060 I 
ATOM     10  F2  UNL d   1       1.913   0.318   2.708  0.00  0.00    -0.096 F 
ATOM     11  F3  UNL d   1       3.067   0.940   0.339  0.00  0.00    -0.097 F 
ATOM     12  F4  UNL d   1       1.575   1.022  -1.943  0.00  0.00    -0.092 F 
ENDROOT
TORSDOF 0
ENDMDL
