MODEL 1
REMARK minimizedAffinity -1.73073483
REMARK minimizedRMSD -1
REMARK  0 active torsions:
REMARK  status: ('A' for Active; 'I' for Inactive)
ROOT
ATOM      1  C   UNL d   1      -1.080   0.365   1.519  0.00  0.00     0.124 A 
ATOM      2  C1  UNL d   1      -1.696   0.511   0.284  0.00  0.00     0.062 A 
ATOM      3  C2  UNL d   1      -0.954   0.388  -0.887  0.00  0.00     0.162 A 
ATOM      4  C3  UNL d   1       0.413   0.117  -0.829  0.00  0.00    -0.034 A 
ATOM      5  C4  UNL d   1       1.026  -0.028   0.417  0.00  0.00     0.162 A 
ATOM      6  C5  UNL d   1       0.279   0.096   1.585  0.00  0.00     0.062 A 
ATOM      7  F   UNL d   1       0.876  -0.046   2.777  0.00  0.00    -0.097 F 
ATOM      8  F1  UNL d   1       2.338  -0.289   0.510  0.00  0.00    -0.096 F 
ATOM      9  I   UNL d   1       1.527  -0.067  -2.577  0.00  0.00    -0.060 I 
ATOM     10  F2  UNL d   1      -1.575   0.534  -2.067  0.00  0.00    -0.096 F 
ATOM     11  F3  UNL d   1      -3.010   0.772   0.217  0.00  0.00    -0.097 F 
ATOM     12  F4  UNL d   1      -1.797   0.484   2.644  0.00  0.00    -0.092 F 
ENDROOT
TORSDOF 0
ENDMDL
