MODEL 1
REMARK minimizedAffinity -3.34829402
REMARK minimizedRMSD -1
REMARK  0 active torsions:
REMARK  status: ('A' for Active; 'I' for Inactive)
ROOT
ATOM      1  C   UNL d   1      -0.578   0.517   1.543  0.00  0.00     0.124 A 
ATOM      2  C1  UNL d   1       0.673  -0.060   1.377  0.00  0.00     0.062 A 
ATOM      3  C2  UNL d   1       1.088  -0.482   0.117  0.00  0.00     0.162 A 
ATOM      4  C3  UNL d   1       0.251  -0.328  -0.988  0.00  0.00    -0.034 A 
ATOM      5  C4  UNL d   1      -1.007   0.253  -0.813  0.00  0.00     0.162 A 
ATOM      6  C5  UNL d   1      -1.417   0.673   0.448  0.00  0.00     0.062 A 
ATOM      7  F   UNL d   1      -2.626   1.231   0.606  0.00  0.00    -0.097 F 
ATOM      8  F1  UNL d   1      -1.837   0.416  -1.854  0.00  0.00    -0.096 F 
ATOM      9  I   UNL d   1       0.867  -0.958  -2.873  0.00  0.00    -0.060 I 
ATOM     10  F2  UNL d   1       2.302  -1.037  -0.013  0.00  0.00    -0.096 F 
ATOM     11  F3  UNL d   1       1.485  -0.212   2.433  0.00  0.00    -0.097 F 
ATOM     12  F4  UNL d   1      -0.975   0.922   2.756  0.00  0.00    -0.092 F 
ENDROOT
TORSDOF 0
ENDMDL
