MODEL 1
REMARK minimizedAffinity 2.44611931
REMARK minimizedRMSD -1
REMARK  0 active torsions:
REMARK  status: ('A' for Active; 'I' for Inactive)
ROOT
ATOM      1  C   UNL d   1       0.123   0.692  -0.699  0.00  0.00     0.124 A 
ATOM      2  C1  UNL d   1       1.021   0.778   0.356  0.00  0.00     0.062 A 
ATOM      3  C2  UNL d   1       0.680   0.275   1.608  0.00  0.00     0.162 A 
ATOM      4  C3  UNL d   1      -0.566  -0.318   1.813  0.00  0.00    -0.034 A 
ATOM      5  C4  UNL d   1      -1.464  -0.400   0.747  0.00  0.00     0.162 A 
ATOM      6  C5  UNL d   1      -1.118   0.104  -0.502  0.00  0.00     0.062 A 
ATOM      7  F   UNL d   1      -1.987   0.021  -1.520  0.00  0.00    -0.097 F 
ATOM      8  F1  UNL d   1      -2.670  -0.964   0.909  0.00  0.00    -0.096 F 
ATOM      9  I   UNL d   1      -1.080  -1.071   3.684  0.00  0.00    -0.060 I 
ATOM     10  F2  UNL d   1       1.567   0.371   2.609  0.00  0.00    -0.096 F 
ATOM     11  F3  UNL d   1       2.221   1.347   0.169  0.00  0.00    -0.097 F 
ATOM     12  F4  UNL d   1       0.454   1.178  -1.903  0.00  0.00    -0.092 F 
ENDROOT
TORSDOF 0
ENDMDL
