MODEL 1
REMARK minimizedAffinity -3.92009854
REMARK minimizedRMSD -1
REMARK  0 active torsions:
REMARK  status: ('A' for Active; 'I' for Inactive)
ROOT
ATOM      1  C   UNL d   1       1.394   0.250   1.108  0.00  0.00     0.124 A 
ATOM      2  C1  UNL d   1       0.759   0.505  -0.100  0.00  0.00     0.062 A 
ATOM      3  C2  UNL d   1      -0.630   0.496  -0.177  0.00  0.00     0.162 A 
ATOM      4  C3  UNL d   1      -1.396   0.232   0.959  0.00  0.00    -0.034 A 
ATOM      5  C4  UNL d   1      -0.751  -0.025   2.170  0.00  0.00     0.162 A 
ATOM      6  C5  UNL d   1       0.638  -0.014   2.241  0.00  0.00     0.062 A 
ATOM      7  F   UNL d   1       1.249  -0.261   3.409  0.00  0.00    -0.097 F 
ATOM      8  F1  UNL d   1      -1.456  -0.282   3.281  0.00  0.00    -0.096 F 
ATOM      9  I   UNL d   1      -3.474   0.217   0.849  0.00  0.00    -0.060 I 
ATOM     10  F2  UNL d   1      -1.217   0.745  -1.357  0.00  0.00    -0.096 F 
ATOM     11  F3  UNL d   1       1.487   0.760  -1.197  0.00  0.00    -0.097 F 
ATOM     12  F4  UNL d   1       2.731   0.259   1.178  0.00  0.00    -0.092 F 
ENDROOT
TORSDOF 0
ENDMDL
