MODEL 1
REMARK minimizedAffinity 3.3317349
REMARK minimizedRMSD -1
REMARK  0 active torsions:
REMARK  status: ('A' for Active; 'I' for Inactive)
ROOT
ATOM      1  C   UNL d   1      -0.562   0.940  -1.751  0.00  0.00     0.124 A 
ATOM      2  C1  UNL d   1      -1.756   0.897  -1.044  0.00  0.00     0.062 A 
ATOM      3  C2  UNL d   1      -1.749   0.678   0.330  0.00  0.00     0.162 A 
ATOM      4  C3  UNL d   1      -0.543   0.499   1.008  0.00  0.00    -0.034 A 
ATOM      5  C4  UNL d   1       0.654   0.542   0.290  0.00  0.00     0.162 A 
ATOM      6  C5  UNL d   1       0.642   0.762  -1.083  0.00  0.00     0.062 A 
ATOM      7  F   UNL d   1       1.796   0.803  -1.764  0.00  0.00    -0.097 F 
ATOM      8  F1  UNL d   1       1.831   0.375   0.911  0.00  0.00    -0.096 F 
ATOM      9  I   UNL d   1      -0.528   0.171   3.063  0.00  0.00    -0.060 I 
ATOM     10  F2  UNL d   1      -2.918   0.642   0.987  0.00  0.00    -0.096 F 
ATOM     11  F3  UNL d   1      -2.920   1.068  -1.687  0.00  0.00    -0.097 F 
ATOM     12  F4  UNL d   1      -0.572   1.150  -3.073  0.00  0.00    -0.092 F 
ENDROOT
TORSDOF 0
ENDMDL
