MODEL 1
REMARK minimizedAffinity 2.45000267
REMARK minimizedRMSD -1
REMARK  0 active torsions:
REMARK  status: ('A' for Active; 'I' for Inactive)
ROOT
ATOM      1  C   UNL d   1      -0.790  -0.557   2.174  0.00  0.00     0.124 A 
ATOM      2  C1  UNL d   1      -1.170  -1.398   1.138  0.00  0.00     0.062 A 
ATOM      3  C2  UNL d   1      -0.647  -1.216  -0.139  0.00  0.00     0.162 A 
ATOM      4  C3  UNL d   1       0.263  -0.188  -0.387  0.00  0.00    -0.034 A 
ATOM      5  C4  UNL d   1       0.639   0.655   0.660  0.00  0.00     0.162 A 
ATOM      6  C5  UNL d   1       0.114   0.468   1.935  0.00  0.00     0.062 A 
ATOM      7  F   UNL d   1       0.482   1.282   2.935  0.00  0.00    -0.097 F 
ATOM      8  F1  UNL d   1       1.512   1.653   0.457  0.00  0.00    -0.096 F 
ATOM      9  I   UNL d   1       1.047   0.088  -2.295  0.00  0.00    -0.060 I 
ATOM     10  F2  UNL d   1      -1.032  -2.044  -1.122  0.00  0.00    -0.096 F 
ATOM     11  F3  UNL d   1      -2.044  -2.389   1.366  0.00  0.00    -0.097 F 
ATOM     12  F4  UNL d   1      -1.296  -0.734   3.402  0.00  0.00    -0.092 F 
ENDROOT
TORSDOF 0
ENDMDL
