MODEL 1
REMARK minimizedAffinity -2.95470095
REMARK minimizedRMSD -1
REMARK  0 active torsions:
REMARK  status: ('A' for Active; 'I' for Inactive)
ROOT
ATOM      1  C   UNL d   1      -1.323  -0.322   2.234  0.00  0.00     0.124 A 
ATOM      2  C1  UNL d   1      -2.015  -0.171   1.040  0.00  0.00     0.062 A 
ATOM      3  C2  UNL d   1      -1.321  -0.015  -0.156  0.00  0.00     0.162 A 
ATOM      4  C3  UNL d   1       0.074  -0.011  -0.165  0.00  0.00    -0.034 A 
ATOM      5  C4  UNL d   1       0.763  -0.162   1.040  0.00  0.00     0.162 A 
ATOM      6  C5  UNL d   1       0.065  -0.318   2.233  0.00  0.00     0.062 A 
ATOM      7  F   UNL d   1       0.735  -0.464   3.385  0.00  0.00    -0.097 F 
ATOM      8  F1  UNL d   1       2.104  -0.163   1.068  0.00  0.00    -0.096 F 
ATOM      9  I   UNL d   1       1.116   0.222  -1.951  0.00  0.00    -0.060 I 
ATOM     10  F2  UNL d   1      -2.015   0.130  -1.295  0.00  0.00    -0.096 F 
ATOM     11  F3  UNL d   1      -3.356  -0.173   1.039  0.00  0.00    -0.097 F 
ATOM     12  F4  UNL d   1      -1.994  -0.471   3.384  0.00  0.00    -0.092 F 
ENDROOT
TORSDOF 0
ENDMDL
