MODEL 1
REMARK minimizedAffinity -1.70059407
REMARK minimizedRMSD -1
REMARK  0 active torsions:
REMARK  status: ('A' for Active; 'I' for Inactive)
ROOT
ATOM      1  C   UNL d   1      -0.004   0.597  -0.684  0.00  0.00     0.124 A 
ATOM      2  C1  UNL d   1      -1.351   0.339  -0.469  0.00  0.00     0.062 A 
ATOM      3  C2  UNL d   1      -1.804  -0.008   0.800  0.00  0.00     0.162 A 
ATOM      4  C3  UNL d   1      -0.909  -0.098   1.866  0.00  0.00    -0.034 A 
ATOM      5  C4  UNL d   1       0.444   0.162   1.643  0.00  0.00     0.162 A 
ATOM      6  C5  UNL d   1       0.892   0.508   0.372  0.00  0.00     0.062 A 
ATOM      7  F   UNL d   1       2.194   0.756   0.166  0.00  0.00    -0.097 F 
ATOM      8  F1  UNL d   1       1.332   0.084   2.645  0.00  0.00    -0.096 F 
ATOM      9  I   UNL d   1      -1.582  -0.616   3.766  0.00  0.00    -0.060 I 
ATOM     10  F2  UNL d   1      -3.111  -0.251   0.979  0.00  0.00    -0.096 F 
ATOM     11  F3  UNL d   1      -2.219   0.423  -1.488  0.00  0.00    -0.097 F 
ATOM     12  F4  UNL d   1       0.429   0.929  -1.907  0.00  0.00    -0.092 F 
ENDROOT
TORSDOF 0
ENDMDL
