MODEL 1
REMARK minimizedAffinity 7.12723732
REMARK minimizedRMSD -1
REMARK  1 active torsions:
REMARK  status: ('A' for Active; 'I' for Inactive)
REMARK    1  A    between atoms: C1_2  and  C2_3 
ROOT
ATOM      1  C2  UNL d   1       1.788  -0.850   0.947  0.00  0.00    -0.081 A 
ATOM      2  C3  UNL d   1       2.620   0.276   0.907  0.00  0.00     0.006 A 
ATOM      3  C4  UNL d   1       2.852   0.942  -0.299  0.00  0.00     0.002 A 
ATOM      4  C5  UNL d   1       2.251   0.500  -1.482  0.00  0.00    -0.080 A 
ATOM      5  C6  UNL d   1       2.468   1.224  -2.777  0.00  0.00     0.076 C 
ATOM      6  C7  UNL d   1       1.434  -0.635  -1.445  0.00  0.00     0.002 A 
ATOM      7  C8  UNL d   1       1.201  -1.302  -0.240  0.00  0.00     0.006 A 
ENDROOT
BRANCH   1   8
ATOM      8  C1  UNL d   1       1.483  -1.532   2.256  0.00  0.00     0.054 C 
ATOM      9  C   UNL d   1       2.206  -0.856   3.413  0.00  0.00     0.018 C 
ENDBRANCH   1   8
TORSDOF 1
ENDMDL
