MODEL 1
REMARK minimizedAffinity 1.90467596
REMARK minimizedRMSD -1
REMARK  1 active torsions:
REMARK  status: ('A' for Active; 'I' for Inactive)
REMARK    1  A    between atoms: C1_2  and  C2_3 
ROOT
ATOM      1  C2  UNL d   1       0.738  -1.480   2.608  0.00  0.00    -0.081 A 
ATOM      2  C3  UNL d   1       1.088  -0.507   1.663  0.00  0.00     0.006 A 
ATOM      3  C4  UNL d   1       1.967  -0.815   0.622  0.00  0.00     0.002 A 
ATOM      4  C5  UNL d   1       2.504  -2.102   0.503  0.00  0.00    -0.080 A 
ATOM      5  C6  UNL d   1       3.424  -2.454  -0.627  0.00  0.00     0.076 C 
ATOM      6  C7  UNL d   1       2.168  -3.068   1.457  0.00  0.00     0.002 A 
ATOM      7  C8  UNL d   1       1.290  -2.761   2.499  0.00  0.00     0.006 A 
ENDROOT
BRANCH   1   8
ATOM      8  C1  UNL d   1      -0.260  -1.169   3.694  0.00  0.00     0.054 C 
ATOM      9  C   UNL d   1      -0.863   0.217   3.512  0.00  0.00     0.018 C 
ENDBRANCH   1   8
TORSDOF 1
ENDMDL
