MODEL 1
REMARK minimizedAffinity 3.73112464
REMARK minimizedRMSD -1
REMARK  1 active torsions:
REMARK  status: ('A' for Active; 'I' for Inactive)
REMARK    1  A    between atoms: C1_2  and  C2_3 
ROOT
ATOM      1  C2  UNL d   1       0.575  -1.108   2.064  0.00  0.00    -0.081 A 
ATOM      2  C3  UNL d   1      -0.699  -1.387   1.557  0.00  0.00     0.006 A 
ATOM      3  C4  UNL d   1      -1.814  -0.678   2.011  0.00  0.00     0.002 A 
ATOM      4  C5  UNL d   1      -1.671   0.327   2.974  0.00  0.00    -0.080 A 
ATOM      5  C6  UNL d   1      -2.855   1.117   3.448  0.00  0.00     0.076 C 
ATOM      6  C7  UNL d   1      -0.400   0.594   3.494  0.00  0.00     0.002 A 
ATOM      7  C8  UNL d   1       0.714  -0.115   3.041  0.00  0.00     0.006 A 
ENDROOT
BRANCH   1   8
ATOM      8  C1  UNL d   1       1.788  -1.826   1.530  0.00  0.00     0.054 C 
ATOM      9  C   UNL d   1       2.150  -1.337   0.135  0.00  0.00     0.018 C 
ENDBRANCH   1   8
TORSDOF 1
ENDMDL
