MODEL 1
REMARK minimizedAffinity 12.0725908
REMARK minimizedRMSD -1
REMARK  1 active torsions:
REMARK  status: ('A' for Active; 'I' for Inactive)
REMARK    1  A    between atoms: C1_2  and  C2_3 
ROOT
ATOM      1  C2  UNL d   1       0.839  -1.396   1.771  0.00  0.00    -0.081 A 
ATOM      2  C3  UNL d   1      -0.057  -0.825   0.859  0.00  0.00     0.006 A 
ATOM      3  C4  UNL d   1      -1.188  -0.142   1.312  0.00  0.00     0.002 A 
ATOM      4  C5  UNL d   1      -1.437  -0.011   2.682  0.00  0.00    -0.080 A 
ATOM      5  C6  UNL d   1      -2.632   0.747   3.182  0.00  0.00     0.076 C 
ATOM      6  C7  UNL d   1      -0.551  -0.596   3.593  0.00  0.00     0.002 A 
ATOM      7  C8  UNL d   1       0.580  -1.280   3.141  0.00  0.00     0.006 A 
ENDROOT
BRANCH   1   8
ATOM      8  C1  UNL d   1       2.094  -2.078   1.288  0.00  0.00     0.054 C 
ATOM      9  C   UNL d   1       2.535  -1.532  -0.063  0.00  0.00     0.018 C 
ENDBRANCH   1   8
TORSDOF 1
ENDMDL
