MODEL 1
REMARK minimizedAffinity 8.03955364
REMARK minimizedRMSD -1
REMARK  1 active torsions:
REMARK  status: ('A' for Active; 'I' for Inactive)
REMARK    1  A    between atoms: C1_2  and  C2_3 
ROOT
ATOM      1  C2  UNL d   1       1.255  -1.529   2.306  0.00  0.00    -0.081 A 
ATOM      2  C3  UNL d   1       0.287  -1.526   1.294  0.00  0.00     0.006 A 
ATOM      3  C4  UNL d   1      -0.890  -0.788   1.442  0.00  0.00     0.002 A 
ATOM      4  C5  UNL d   1      -1.115  -0.035   2.600  0.00  0.00    -0.080 A 
ATOM      5  C6  UNL d   1      -2.360   0.786   2.758  0.00  0.00     0.076 C 
ATOM      6  C7  UNL d   1      -0.156  -0.052   3.618  0.00  0.00     0.002 A 
ATOM      7  C8  UNL d   1       1.020  -0.791   3.472  0.00  0.00     0.006 A 
ENDROOT
BRANCH   1   8
ATOM      8  C1  UNL d   1       2.553  -2.272   2.123  0.00  0.00     0.054 C 
ATOM      9  C   UNL d   1       2.957  -2.326   0.656  0.00  0.00     0.018 C 
ENDBRANCH   1   8
TORSDOF 1
ENDMDL
