MODEL 1
REMARK minimizedAffinity 10.5789232
REMARK minimizedRMSD -1
REMARK  1 active torsions:
REMARK  status: ('A' for Active; 'I' for Inactive)
REMARK    1  A    between atoms: C1_2  and  C2_3 
ROOT
ATOM      1  C2  UNL d   1      -0.483   0.157   3.190  0.00  0.00    -0.081 A 
ATOM      2  C3  UNL d   1       0.806  -0.125   3.659  0.00  0.00     0.006 A 
ATOM      3  C4  UNL d   1       1.701  -0.857   2.874  0.00  0.00     0.002 A 
ATOM      4  C5  UNL d   1       1.324  -1.313   1.606  0.00  0.00    -0.080 A 
ATOM      5  C6  UNL d   1       2.285  -2.074   0.742  0.00  0.00     0.076 C 
ATOM      6  C7  UNL d   1       0.031  -1.046   1.145  0.00  0.00     0.002 A 
ATOM      7  C8  UNL d   1      -0.864  -0.315   1.929  0.00  0.00     0.006 A 
ENDROOT
BRANCH   1   8
ATOM      8  C1  UNL d   1      -1.427   1.002   4.006  0.00  0.00     0.054 C 
ATOM      9  C   UNL d   1      -2.634   1.433   3.185  0.00  0.00     0.018 C 
ENDBRANCH   1   8
TORSDOF 1
ENDMDL
