MODEL 1
REMARK minimizedAffinity 13.9771261
REMARK minimizedRMSD -1
REMARK  0 active torsions:
REMARK  status: ('A' for Active; 'I' for Inactive)
ROOT
ATOM      1  C4' PXY d   1      -0.819  -0.571  -5.989  0.00  0.00     0.077 C 
ATOM      2  C1' PXY d   1       4.406  -2.576  -4.542  0.00  0.00     0.077 C 
ATOM      3  C1  PXY d   1       3.034  -2.060  -4.930  0.00  0.00    -0.082 A 
ATOM      4  C2  PXY d   1       2.761  -0.771  -4.807  0.00  0.00     0.003 A 
ATOM      5  C3  PXY d   1       1.515  -0.293  -5.123  0.00  0.00     0.003 A 
ATOM      6  C4  PXY d   1       0.555  -1.134  -5.619  0.00  0.00    -0.082 A 
ATOM      7  C5  PXY d   1       0.829  -2.449  -5.757  0.00  0.00     0.003 A 
ATOM      8  C6  PXY d   1       2.087  -2.921  -5.392  0.00  0.00     0.003 A 
ENDROOT
TORSDOF 0
ENDMDL
