MODEL 1
REMARK minimizedAffinity 4.68329191
REMARK minimizedRMSD -1
REMARK  0 active torsions:
REMARK  status: ('A' for Active; 'I' for Inactive)
ROOT
ATOM      1  C4' PXY d   1       0.670  -1.451   0.945  0.00  0.00     0.077 C 
ATOM      2  C1' PXY d   1       0.745   1.353   6.000  0.00  0.00     0.077 C 
ATOM      3  C1  PXY d   1       0.734   0.609   4.679  0.00  0.00    -0.082 A 
ATOM      4  C2  PXY d   1       0.363   1.240   3.576  0.00  0.00     0.003 A 
ATOM      5  C3  PXY d   1       0.317   0.574   2.378  0.00  0.00     0.003 A 
ATOM      6  C4  PXY d   1       0.706  -0.737   2.299  0.00  0.00    -0.082 A 
ATOM      7  C5  PXY d   1       1.096  -1.384   3.418  0.00  0.00     0.003 A 
ATOM      8  C6  PXY d   1       1.096  -0.701   4.631  0.00  0.00     0.003 A 
ENDROOT
TORSDOF 0
ENDMDL
