MODEL 1
REMARK minimizedAffinity 15.0929909
REMARK minimizedRMSD -1
REMARK  0 active torsions:
REMARK  status: ('A' for Active; 'I' for Inactive)
ROOT
ATOM      1  C4' PXY d   1       0.376   2.983   6.000  0.00  0.00     0.077 C 
ATOM      2  C1' PXY d   1      -0.168  -0.633   1.523  0.00  0.00     0.077 C 
ATOM      3  C1  PXY d   1      -0.028   0.326   2.689  0.00  0.00    -0.082 A 
ATOM      4  C2  PXY d   1       0.728  -0.008   3.723  0.00  0.00     0.003 A 
ATOM      5  C3  PXY d   1       0.839   0.833   4.800  0.00  0.00     0.003 A 
ATOM      6  C4  PXY d   1       0.214   2.051   4.796  0.00  0.00    -0.082 A 
ATOM      7  C5  PXY d   1      -0.551   2.403   3.741  0.00  0.00     0.003 A 
ATOM      8  C6  PXY d   1      -0.684   1.518   2.675  0.00  0.00     0.003 A 
ENDROOT
TORSDOF 0
ENDMDL
