MODEL 1
REMARK minimizedAffinity 8.01234245
REMARK minimizedRMSD -1
REMARK  0 active torsions:
REMARK  status: ('A' for Active; 'I' for Inactive)
ROOT
ATOM      1  C4' PXY d   1      -0.091   1.841   2.319  0.00  0.00     0.077 C 
ATOM      2  C1' PXY d   1       1.231  -3.135   4.946  0.00  0.00     0.077 C 
ATOM      3  C1  PXY d   1       0.884  -1.836   4.246  0.00  0.00    -0.082 A 
ATOM      4  C2  PXY d   1       1.233  -0.683   4.794  0.00  0.00     0.003 A 
ATOM      5  C3  PXY d   1       0.899   0.501   4.190  0.00  0.00     0.003 A 
ATOM      6  C4  PXY d   1       0.247   0.505   2.986  0.00  0.00    -0.082 A 
ATOM      7  C5  PXY d   1      -0.103  -0.667   2.415  0.00  0.00     0.003 A 
ATOM      8  C6  PXY d   1       0.209  -1.857   3.064  0.00  0.00     0.003 A 
ENDROOT
TORSDOF 0
ENDMDL
