MODEL 1
REMARK minimizedAffinity 19.3103123
REMARK minimizedRMSD -1
REMARK  0 active torsions:
REMARK  status: ('A' for Active; 'I' for Inactive)
ROOT
ATOM      1  C4' PXY d   1       1.749  -5.751  -5.996  0.00  0.00     0.077 C 
ATOM      2  C1' PXY d   1       0.203  -0.449  -4.289  0.00  0.00     0.077 C 
ATOM      3  C1  PXY d   1       0.596  -1.843  -4.738  0.00  0.00    -0.082 A 
ATOM      4  C2  PXY d   1       1.792  -2.317  -4.428  0.00  0.00     0.003 A 
ATOM      5  C3  PXY d   1       2.175  -3.563  -4.853  0.00  0.00     0.003 A 
ATOM      6  C4  PXY d   1       1.306  -4.353  -5.556  0.00  0.00    -0.082 A 
ATOM      7  C5  PXY d   1       0.080  -3.881  -5.867  0.00  0.00     0.003 A 
ATOM      8  C6  PXY d   1      -0.275  -2.598  -5.461  0.00  0.00     0.003 A 
ENDROOT
TORSDOF 0
ENDMDL
