MODEL 1
REMARK minimizedAffinity 5.73163176
REMARK minimizedRMSD -1
REMARK  0 active torsions:
REMARK  status: ('A' for Active; 'I' for Inactive)
ROOT
ATOM      1  C4' PXY d   1       0.386   2.575   6.000  0.00  0.00     0.077 C 
ATOM      2  C1' PXY d   1      -0.022  -0.685   1.244  0.00  0.00     0.077 C 
ATOM      3  C1  PXY d   1       0.082   0.180   2.484  0.00  0.00    -0.082 A 
ATOM      4  C2  PXY d   1       0.853  -0.204   3.488  0.00  0.00     0.003 A 
ATOM      5  C3  PXY d   1       0.934   0.550   4.630  0.00  0.00     0.003 A 
ATOM      6  C4  PXY d   1       0.259   1.738   4.724  0.00  0.00    -0.082 A 
ATOM      7  C5  PXY d   1      -0.522   2.142   3.701  0.00  0.00     0.003 A 
ATOM      8  C6  PXY d   1      -0.623   1.342   2.567  0.00  0.00     0.003 A 
ENDROOT
TORSDOF 0
ENDMDL
