MODEL 1
REMARK minimizedAffinity 13.7231045
REMARK minimizedRMSD -1
REMARK  0 active torsions:
REMARK  status: ('A' for Active; 'I' for Inactive)
ROOT
ATOM      1  C4' PXY d   1      -3.116  -2.059  -0.227  0.00  0.00     0.077 C 
ATOM      2  C1' PXY d   1      -5.698   3.080  -0.816  0.00  0.00     0.077 C 
ATOM      3  C1  PXY d   1      -5.012   1.738  -0.654  0.00  0.00    -0.082 A 
ATOM      4  C2  PXY d   1      -5.182   0.801  -1.573  0.00  0.00     0.003 A 
ATOM      5  C3  PXY d   1      -4.594  -0.429  -1.426  0.00  0.00     0.003 A 
ATOM      6  C4  PXY d   1      -3.782  -0.686  -0.354  0.00  0.00    -0.082 A 
ATOM      7  C5  PXY d   1      -3.595   0.269   0.582  0.00  0.00     0.003 A 
ATOM      8  C6  PXY d   1      -4.233   1.497   0.435  0.00  0.00     0.003 A 
ENDROOT
TORSDOF 0
ENDMDL
