MODEL 1
REMARK minimizedAffinity 17.8453026
REMARK minimizedRMSD -1
REMARK  0 active torsions:
REMARK  status: ('A' for Active; 'I' for Inactive)
ROOT
ATOM      1  C4' PXY d   1       1.870   0.805   3.718  0.00  0.00     0.077 C 
ATOM      2  C1' PXY d   1      -1.072  -1.772  -0.539  0.00  0.00     0.077 C 
ATOM      3  C1  PXY d   1      -0.304  -1.084   0.573  0.00  0.00    -0.082 A 
ATOM      4  C2  PXY d   1       0.712  -1.707   1.148  0.00  0.00     0.003 A 
ATOM      5  C3  PXY d   1       1.397  -1.113   2.177  0.00  0.00     0.003 A 
ATOM      6  C4  PXY d   1       1.072   0.153   2.586  0.00  0.00    -0.082 A 
ATOM      7  C5  PXY d   1       0.043   0.799   1.997  0.00  0.00     0.003 A 
ATOM      8  C6  PXY d   1      -0.665   0.162   0.982  0.00  0.00     0.003 A 
ENDROOT
TORSDOF 0
ENDMDL
