MODEL 1
REMARK minimizedAffinity 19.5173473
REMARK minimizedRMSD -1
REMARK  0 active torsions:
REMARK  status: ('A' for Active; 'I' for Inactive)
ROOT
ATOM      1  C4' PXY d   1       1.034  -0.660   2.233  0.00  0.00     0.077 C 
ATOM      2  C1' PXY d   1      -4.265   1.566   1.615  0.00  0.00     0.077 C 
ATOM      3  C1  PXY d   1      -2.881   0.971   1.779  0.00  0.00    -0.082 A 
ATOM      4  C2  PXY d   1      -1.878   1.743   2.163  0.00  0.00     0.003 A 
ATOM      5  C3  PXY d   1      -0.613   1.228   2.286  0.00  0.00     0.003 A 
ATOM      6  C4  PXY d   1      -0.383  -0.103   2.064  0.00  0.00    -0.082 A 
ATOM      7  C5  PXY d   1      -1.403  -0.900   1.681  0.00  0.00     0.003 A 
ATOM      8  C6  PXY d   1      -2.671  -0.349   1.523  0.00  0.00     0.003 A 
ENDROOT
TORSDOF 0
ENDMDL
