MODEL 1
REMARK minimizedAffinity 1.70035863
REMARK minimizedRMSD -1
REMARK  0 active torsions:
REMARK  status: ('A' for Active; 'I' for Inactive)
ROOT
ATOM      1  C   UNL d   1      -0.529   0.464  -0.525  0.00  0.00     0.077 C 
ATOM      2  C1  UNL d   1      -0.569  -0.354   0.731  0.00  0.00    -0.074 A 
ATOM      3  C2  UNL d   1       0.537  -0.414   1.585  0.00  0.00    -0.005 A 
ATOM      4  C3  UNL d   1       0.482  -1.172   2.755  0.00  0.00     0.006 A 
ATOM      5  C4  UNL d   1      -0.678  -1.876   3.082  0.00  0.00    -0.005 A 
ATOM      6  C5  UNL d   1      -1.794  -1.827   2.240  0.00  0.00    -0.074 A 
ATOM      7  C6  UNL d   1      -3.051  -2.570   2.582  0.00  0.00     0.077 C 
ATOM      8  C7  UNL d   1      -1.733  -1.058   1.070  0.00  0.00    -0.001 A 
ENDROOT
TORSDOF 0
ENDMDL
