MODEL 1
REMARK minimizedAffinity -2.86578584
REMARK minimizedRMSD -1
REMARK  0 active torsions:
REMARK  status: ('A' for Active; 'I' for Inactive)
ROOT
ATOM      1  C   UNL d   1      -1.139  -5.255  -5.252  0.00  0.00     0.077 C 
ATOM      2  C1  UNL d   1      -2.624  -5.059  -5.321  0.00  0.00    -0.074 A 
ATOM      3  C2  UNL d   1      -3.445  -6.000  -5.951  0.00  0.00    -0.005 A 
ATOM      4  C3  UNL d   1      -4.826  -5.808  -5.999  0.00  0.00     0.006 A 
ATOM      5  C4  UNL d   1      -5.399  -4.676  -5.419  0.00  0.00    -0.005 A 
ATOM      6  C5  UNL d   1      -4.594  -3.725  -4.783  0.00  0.00    -0.074 A 
ATOM      7  C6  UNL d   1      -5.195  -2.507  -4.146  0.00  0.00     0.077 C 
ATOM      8  C7  UNL d   1      -3.208  -3.928  -4.733  0.00  0.00    -0.001 A 
ENDROOT
TORSDOF 0
ENDMDL
