MODEL 1
REMARK minimizedAffinity -3.65468407
REMARK minimizedRMSD -1
REMARK  0 active torsions:
REMARK  status: ('A' for Active; 'I' for Inactive)
ROOT
ATOM      1  C   UNL d   1      -1.918  -4.499  -5.314  0.00  0.00     0.077 C 
ATOM      2  C1  UNL d   1      -3.342  -4.167  -4.981  0.00  0.00    -0.074 A 
ATOM      3  C2  UNL d   1      -4.053  -4.915  -4.038  0.00  0.00    -0.005 A 
ATOM      4  C3  UNL d   1      -5.375  -4.589  -3.732  0.00  0.00     0.006 A 
ATOM      5  C4  UNL d   1      -5.997  -3.513  -4.366  0.00  0.00    -0.005 A 
ATOM      6  C5  UNL d   1      -5.302  -2.753  -5.312  0.00  0.00    -0.074 A 
ATOM      7  C6  UNL d   1      -5.953  -1.587  -5.995  0.00  0.00     0.077 C 
ATOM      8  C7  UNL d   1      -3.972  -3.083  -5.608  0.00  0.00    -0.001 A 
ENDROOT
TORSDOF 0
ENDMDL
