MODEL 1
REMARK minimizedAffinity -2.77760124
REMARK minimizedRMSD -1
REMARK  0 active torsions:
REMARK  status: ('A' for Active; 'I' for Inactive)
ROOT
ATOM      1  C   UNL d   1      -1.982  -5.637  -6.000  0.00  0.00     0.077 C 
ATOM      2  C1  UNL d   1      -3.016  -4.863  -5.237  0.00  0.00    -0.074 A 
ATOM      3  C2  UNL d   1      -3.012  -4.843  -3.839  0.00  0.00    -0.005 A 
ATOM      4  C3  UNL d   1      -3.974  -4.111  -3.143  0.00  0.00     0.006 A 
ATOM      5  C4  UNL d   1      -4.947  -3.392  -3.838  0.00  0.00    -0.005 A 
ATOM      6  C5  UNL d   1      -4.966  -3.399  -5.236  0.00  0.00    -0.074 A 
ATOM      7  C6  UNL d   1      -6.000  -2.624  -5.998  0.00  0.00     0.077 C 
ATOM      8  C7  UNL d   1      -3.992  -4.132  -5.928  0.00  0.00    -0.001 A 
ENDROOT
TORSDOF 0
ENDMDL
