MODEL 1
REMARK minimizedAffinity -4.18724489
REMARK minimizedRMSD -1
REMARK  0 active torsions:
REMARK  status: ('A' for Active; 'I' for Inactive)
ROOT
ATOM      1  C   UNL d   1      -5.540  -1.462  -5.107  0.00  0.00     0.077 C 
ATOM      2  C1  UNL d   1      -5.091  -2.886  -4.961  0.00  0.00    -0.074 A 
ATOM      3  C2  UNL d   1      -5.975  -3.876  -4.519  0.00  0.00    -0.005 A 
ATOM      4  C3  UNL d   1      -5.547  -5.198  -4.398  0.00  0.00     0.006 A 
ATOM      5  C4  UNL d   1      -4.232  -5.542  -4.715  0.00  0.00    -0.005 A 
ATOM      6  C5  UNL d   1      -3.335  -4.566  -5.159  0.00  0.00    -0.074 A 
ATOM      7  C6  UNL d   1      -1.922  -4.922  -5.514  0.00  0.00     0.077 C 
ATOM      8  C7  UNL d   1      -3.775  -3.242  -5.286  0.00  0.00    -0.001 A 
ENDROOT
TORSDOF 0
ENDMDL
