MODEL 1
REMARK minimizedAffinity -2.66867518
REMARK minimizedRMSD -1
REMARK  0 active torsions:
REMARK  status: ('A' for Active; 'I' for Inactive)
ROOT
ATOM      1  C   UNL d   1      -1.726  -4.542  -5.961  0.00  0.00     0.077 C 
ATOM      2  C1  UNL d   1      -2.976  -3.877  -5.467  0.00  0.00    -0.074 A 
ATOM      3  C2  UNL d   1      -3.271  -2.553  -5.811  0.00  0.00    -0.005 A 
ATOM      4  C3  UNL d   1      -4.442  -1.951  -5.352  0.00  0.00     0.006 A 
ATOM      5  C4  UNL d   1      -5.329  -2.665  -4.545  0.00  0.00    -0.005 A 
ATOM      6  C5  UNL d   1      -5.052  -3.989  -4.191  0.00  0.00    -0.074 A 
ATOM      7  C6  UNL d   1      -6.000  -4.773  -3.333  0.00  0.00     0.077 C 
ATOM      8  C7  UNL d   1      -3.876  -4.590  -4.662  0.00  0.00    -0.001 A 
ENDROOT
TORSDOF 0
ENDMDL
