MODEL 1
REMARK minimizedAffinity -3.57635331
REMARK minimizedRMSD -1
REMARK  0 active torsions:
REMARK  status: ('A' for Active; 'I' for Inactive)
ROOT
ATOM      1  C   UNL d   1      -5.502  -2.629  -3.751  0.00  0.00     0.077 C 
ATOM      2  C1  UNL d   1      -4.862  -3.791  -4.451  0.00  0.00    -0.074 A 
ATOM      3  C2  UNL d   1      -5.605  -4.929  -4.780  0.00  0.00    -0.005 A 
ATOM      4  C3  UNL d   1      -4.999  -5.999  -5.439  0.00  0.00     0.006 A 
ATOM      5  C4  UNL d   1      -3.647  -5.941  -5.776  0.00  0.00    -0.005 A 
ATOM      6  C5  UNL d   1      -2.888  -4.810  -5.457  0.00  0.00    -0.074 A 
ATOM      7  C6  UNL d   1      -1.435  -4.727  -5.821  0.00  0.00     0.077 C 
ATOM      8  C7  UNL d   1      -3.506  -3.737  -4.800  0.00  0.00    -0.001 A 
ENDROOT
TORSDOF 0
ENDMDL
