MODEL 1
REMARK minimizedAffinity -3.88699603
REMARK minimizedRMSD -1
REMARK  0 active torsions:
REMARK  status: ('A' for Active; 'I' for Inactive)
ROOT
ATOM      1  C   UNL d   1      -1.558  -5.982  -5.209  0.00  0.00     0.077 C 
ATOM      2  C1  UNL d   1      -2.570  -4.875  -5.233  0.00  0.00    -0.074 A 
ATOM      3  C2  UNL d   1      -2.348  -3.714  -5.980  0.00  0.00    -0.005 A 
ATOM      4  C3  UNL d   1      -3.302  -2.697  -6.000  0.00  0.00     0.006 A 
ATOM      5  C4  UNL d   1      -4.487  -2.831  -5.275  0.00  0.00    -0.005 A 
ATOM      6  C5  UNL d   1      -4.727  -3.986  -4.523  0.00  0.00    -0.074 A 
ATOM      7  C6  UNL d   1      -6.000  -4.151  -3.746  0.00  0.00     0.077 C 
ATOM      8  C7  UNL d   1      -3.766  -5.006  -4.514  0.00  0.00    -0.001 A 
ENDROOT
TORSDOF 0
ENDMDL
