MODEL 1
REMARK minimizedAffinity -3.80381012
REMARK minimizedRMSD -1
REMARK  0 active torsions:
REMARK  status: ('A' for Active; 'I' for Inactive)
ROOT
ATOM      1  C   UNL d   1      -5.800  -2.708  -3.293  0.00  0.00     0.077 C 
ATOM      2  C1  UNL d   1      -5.194  -3.706  -4.235  0.00  0.00    -0.074 A 
ATOM      3  C2  UNL d   1      -6.000  -4.505  -5.052  0.00  0.00    -0.005 A 
ATOM      4  C3  UNL d   1      -5.422  -5.422  -5.930  0.00  0.00     0.006 A 
ATOM      5  C4  UNL d   1      -4.034  -5.549  -5.999  0.00  0.00    -0.005 A 
ATOM      6  C5  UNL d   1      -3.212  -4.758  -5.190  0.00  0.00    -0.074 A 
ATOM      7  C6  UNL d   1      -1.718  -4.875  -5.259  0.00  0.00     0.077 C 
ATOM      8  C7  UNL d   1      -3.800  -3.834  -4.316  0.00  0.00    -0.001 A 
ENDROOT
TORSDOF 0
ENDMDL
