MODEL 1
REMARK minimizedAffinity -3.75020576
REMARK minimizedRMSD -1
REMARK  0 active torsions:
REMARK  status: ('A' for Active; 'I' for Inactive)
ROOT
ATOM      1  C   UNL d   1      -4.882  -1.952  -4.299  0.00  0.00     0.077 C 
ATOM      2  C1  UNL d   1      -4.577  -3.367  -4.693  0.00  0.00    -0.074 A 
ATOM      3  C2  UNL d   1      -5.605  -4.295  -4.891  0.00  0.00    -0.005 A 
ATOM      4  C3  UNL d   1      -5.306  -5.605  -5.267  0.00  0.00     0.006 A 
ATOM      5  C4  UNL d   1      -3.980  -5.999  -5.449  0.00  0.00    -0.005 A 
ATOM      6  C5  UNL d   1      -2.940  -5.084  -5.256  0.00  0.00    -0.074 A 
ATOM      7  C6  UNL d   1      -1.509  -5.489  -5.456  0.00  0.00     0.077 C 
ATOM      8  C7  UNL d   1      -3.248  -3.768  -4.885  0.00  0.00    -0.001 A 
ENDROOT
TORSDOF 0
ENDMDL
