MODEL 1
REMARK minimizedAffinity -2.00983071
REMARK minimizedRMSD -1
REMARK  0 active torsions:
REMARK  status: ('A' for Active; 'I' for Inactive)
ROOT
ATOM      1  C   UNL d   1      -1.697  -4.924  -5.263  0.00  0.00     0.077 C 
ATOM      2  C1  UNL d   1      -3.197  -4.908  -5.264  0.00  0.00    -0.074 A 
ATOM      3  C2  UNL d   1      -3.926  -5.878  -5.959  0.00  0.00    -0.005 A 
ATOM      4  C3  UNL d   1      -5.320  -5.855  -5.943  0.00  0.00     0.006 A 
ATOM      5  C4  UNL d   1      -5.999  -4.864  -5.232  0.00  0.00    -0.005 A 
ATOM      6  C5  UNL d   1      -5.286  -3.887  -4.530  0.00  0.00    -0.074 A 
ATOM      7  C6  UNL d   1      -6.000  -2.820  -3.753  0.00  0.00     0.077 C 
ATOM      8  C7  UNL d   1      -3.885  -3.920  -4.546  0.00  0.00    -0.001 A 
ENDROOT
TORSDOF 0
ENDMDL
