MODEL 1
REMARK minimizedAffinity -3.73033834
REMARK minimizedRMSD -1
REMARK  0 active torsions:
REMARK  status: ('A' for Active; 'I' for Inactive)
ROOT
ATOM      1  C   UNL d   1      -1.729  -5.152  -5.237  0.00  0.00     0.077 C 
ATOM      2  C1  UNL d   1      -3.218  -4.974  -5.263  0.00  0.00    -0.074 A 
ATOM      3  C2  UNL d   1      -4.034  -5.845  -5.993  0.00  0.00    -0.005 A 
ATOM      4  C3  UNL d   1      -5.418  -5.673  -6.000  0.00  0.00     0.006 A 
ATOM      5  C4  UNL d   1      -6.000  -4.630  -5.278  0.00  0.00    -0.005 A 
ATOM      6  C5  UNL d   1      -5.201  -3.750  -4.542  0.00  0.00    -0.074 A 
ATOM      7  C6  UNL d   1      -5.811  -2.630  -3.752  0.00  0.00     0.077 C 
ATOM      8  C7  UNL d   1      -3.811  -3.934  -4.534  0.00  0.00    -0.001 A 
ENDROOT
TORSDOF 0
ENDMDL
