MODEL 1
REMARK minimizedAffinity -3.71232009
REMARK minimizedRMSD -1
REMARK  0 active torsions:
REMARK  status: ('A' for Active; 'I' for Inactive)
ROOT
ATOM      1  C   UNL d   1      -5.563  -1.517  -5.247  0.00  0.00     0.077 C 
ATOM      2  C1  UNL d   1      -5.105  -2.944  -5.224  0.00  0.00    -0.074 A 
ATOM      3  C2  UNL d   1      -5.995  -3.980  -4.923  0.00  0.00    -0.005 A 
ATOM      4  C3  UNL d   1      -5.556  -5.304  -4.914  0.00  0.00     0.006 A 
ATOM      5  C4  UNL d   1      -4.225  -5.606  -5.206  0.00  0.00    -0.005 A 
ATOM      6  C5  UNL d   1      -3.321  -4.583  -5.511  0.00  0.00    -0.074 A 
ATOM      7  C6  UNL d   1      -1.890  -4.890  -5.837  0.00  0.00     0.077 C 
ATOM      8  C7  UNL d   1      -3.771  -3.256  -5.524  0.00  0.00    -0.001 A 
ENDROOT
TORSDOF 0
ENDMDL
