MODEL 1
REMARK minimizedAffinity -2.75849271
REMARK minimizedRMSD -1
REMARK  0 active torsions:
REMARK  status: ('A' for Active; 'I' for Inactive)
ROOT
ATOM      1  C   UNL d   1      -1.858  -4.722  -5.901  0.00  0.00     0.077 C 
ATOM      2  C1  UNL d   1      -3.038  -4.134  -5.185  0.00  0.00    -0.074 A 
ATOM      3  C2  UNL d   1      -3.245  -4.373  -3.823  0.00  0.00    -0.005 A 
ATOM      4  C3  UNL d   1      -4.341  -3.811  -3.169  0.00  0.00     0.006 A 
ATOM      5  C4  UNL d   1      -5.240  -3.006  -3.869  0.00  0.00    -0.005 A 
ATOM      6  C5  UNL d   1      -5.049  -2.755  -5.232  0.00  0.00    -0.074 A 
ATOM      7  C6  UNL d   1      -6.000  -1.884  -5.997  0.00  0.00     0.077 C 
ATOM      8  C7  UNL d   1      -3.941  -3.317  -5.880  0.00  0.00    -0.001 A 
ENDROOT
TORSDOF 0
ENDMDL
