MODEL 1
REMARK minimizedAffinity -4.0832119
REMARK minimizedRMSD -1
REMARK  0 active torsions:
REMARK  status: ('A' for Active; 'I' for Inactive)
ROOT
ATOM      1  C   UNL d   1      -5.796  -1.109  -6.000  0.00  0.00     0.077 C 
ATOM      2  C1  UNL d   1      -5.248  -2.426  -5.537  0.00  0.00    -0.074 A 
ATOM      3  C2  UNL d   1      -5.997  -3.263  -4.703  0.00  0.00    -0.005 A 
ATOM      4  C3  UNL d   1      -5.478  -4.489  -4.288  0.00  0.00     0.006 A 
ATOM      5  C4  UNL d   1      -4.207  -4.891  -4.702  0.00  0.00    -0.005 A 
ATOM      6  C5  UNL d   1      -3.444  -4.067  -5.537  0.00  0.00    -0.074 A 
ATOM      7  C6  UNL d   1      -2.081  -4.488  -5.999  0.00  0.00     0.077 C 
ATOM      8  C7  UNL d   1      -3.976  -2.840  -5.955  0.00  0.00    -0.001 A 
ENDROOT
TORSDOF 0
ENDMDL
