MODEL 1
REMARK minimizedAffinity -3.87401223
REMARK minimizedRMSD -1
REMARK  0 active torsions:
REMARK  status: ('A' for Active; 'I' for Inactive)
ROOT
ATOM      1  C   UNL d   1      -5.978  -5.247  -3.415  0.00  0.00     0.077 C 
ATOM      2  C1  UNL d   1      -5.083  -4.457  -4.322  0.00  0.00    -0.074 A 
ATOM      3  C2  UNL d   1      -5.516  -3.255  -4.891  0.00  0.00    -0.005 A 
ATOM      4  C3  UNL d   1      -4.668  -2.526  -5.726  0.00  0.00     0.006 A 
ATOM      5  C4  UNL d   1      -3.382  -2.991  -5.999  0.00  0.00    -0.005 A 
ATOM      6  C5  UNL d   1      -2.931  -4.190  -5.439  0.00  0.00    -0.074 A 
ATOM      7  C6  UNL d   1      -1.547  -4.699  -5.715  0.00  0.00     0.077 C 
ATOM      8  C7  UNL d   1      -3.786  -4.913  -4.596  0.00  0.00    -0.001 A 
ENDROOT
TORSDOF 0
ENDMDL
