MODEL 1
REMARK minimizedAffinity -3.19011998
REMARK minimizedRMSD -1
REMARK  0 active torsions:
REMARK  status: ('A' for Active; 'I' for Inactive)
ROOT
ATOM      1  C   UNL d   1      -5.999  -2.272  -5.978  0.00  0.00     0.077 C 
ATOM      2  C1  UNL d   1      -5.196  -3.426  -5.458  0.00  0.00    -0.074 A 
ATOM      3  C2  UNL d   1      -5.729  -4.303  -4.508  0.00  0.00    -0.005 A 
ATOM      4  C3  UNL d   1      -4.973  -5.378  -4.041  0.00  0.00     0.006 A 
ATOM      5  C4  UNL d   1      -3.678  -5.587  -4.518  0.00  0.00    -0.005 A 
ATOM      6  C5  UNL d   1      -3.129  -4.721  -5.469  0.00  0.00    -0.074 A 
ATOM      7  C6  UNL d   1      -1.743  -4.937  -6.000  0.00  0.00     0.077 C 
ATOM      8  C7  UNL d   1      -3.897  -3.647  -5.939  0.00  0.00    -0.001 A 
ENDROOT
TORSDOF 0
ENDMDL
