MODEL 1
REMARK minimizedAffinity -3.14129782
REMARK minimizedRMSD -1
REMARK  0 active torsions:
REMARK  status: ('A' for Active; 'I' for Inactive)
ROOT
ATOM      1  C   UNL d   1      -0.924  -5.203  -4.875  0.00  0.00     0.077 C 
ATOM      2  C1  UNL d   1      -2.390  -4.969  -5.089  0.00  0.00    -0.074 A 
ATOM      3  C2  UNL d   1      -3.164  -5.878  -5.817  0.00  0.00    -0.005 A 
ATOM      4  C3  UNL d   1      -4.528  -5.652  -6.000  0.00  0.00     0.006 A 
ATOM      5  C4  UNL d   1      -5.131  -4.516  -5.457  0.00  0.00    -0.005 A 
ATOM      6  C5  UNL d   1      -4.373  -3.597  -4.725  0.00  0.00    -0.074 A 
ATOM      7  C6  UNL d   1      -5.008  -2.376  -4.127  0.00  0.00     0.077 C 
ATOM      8  C7  UNL d   1      -3.004  -3.835  -4.540  0.00  0.00    -0.001 A 
ENDROOT
TORSDOF 0
ENDMDL
