MODEL 1
REMARK minimizedAffinity -1.96900725
REMARK minimizedRMSD -1
REMARK  0 active torsions:
REMARK  status: ('A' for Active; 'I' for Inactive)
ROOT
ATOM      1  C   UNL d   1       0.417  -0.595  -0.222  0.00  0.00     0.172 C 
ATOM      2  N   UNL d   1       0.643   0.740   0.278  0.00  0.00    -0.070 N 
ATOM      3  C1  UNL d   1       1.279   1.748  -0.396  0.00  0.00    -0.004 A 
ATOM      4  C2  UNL d   1       1.290   2.859   0.419  0.00  0.00    -0.047 A 
ATOM      5  C3  UNL d   1       0.638   2.507   1.625  0.00  0.00    -0.047 A 
ATOM      6  C4  UNL d   1       0.247   1.189   1.510  0.00  0.00    -0.004 A 
ENDROOT
TORSDOF 0
ENDMDL
