MODEL 1
REMARK minimizedAffinity -2.74688315
REMARK minimizedRMSD -1
REMARK  0 active torsions:
REMARK  status: ('A' for Active; 'I' for Inactive)
ROOT
ATOM      1  C   UNL d   1      -1.498  -1.875  -1.577  0.00  0.00     0.172 C 
ATOM      2  N   UNL d   1      -0.549  -1.003  -0.927  0.00  0.00    -0.070 N 
ATOM      3  C1  UNL d   1       0.719  -1.347  -0.543  0.00  0.00    -0.004 A 
ATOM      4  C2  UNL d   1       1.300  -0.241   0.038  0.00  0.00    -0.047 A 
ATOM      5  C3  UNL d   1       0.347   0.805   0.003  0.00  0.00    -0.047 A 
ATOM      6  C4  UNL d   1      -0.788   0.306  -0.600  0.00  0.00    -0.004 A 
ENDROOT
TORSDOF 0
ENDMDL
