MODEL 1
REMARK minimizedAffinity -3.75478005
REMARK minimizedRMSD -1
REMARK  0 active torsions:
REMARK  status: ('A' for Active; 'I' for Inactive)
ROOT
ATOM      1  C   UNL d   1       1.104   2.599   1.240  0.00  0.00     0.172 C 
ATOM      2  N   UNL d   1       0.519   1.329   0.881  0.00  0.00    -0.070 N 
ATOM      3  C1  UNL d   1       1.030   0.443  -0.030  0.00  0.00    -0.004 A 
ATOM      4  C2  UNL d   1       0.182  -0.641  -0.087  0.00  0.00    -0.047 A 
ATOM      5  C3  UNL d   1      -0.876  -0.399   0.821  0.00  0.00    -0.047 A 
ATOM      6  C4  UNL d   1      -0.643   0.828   1.406  0.00  0.00    -0.004 A 
ENDROOT
TORSDOF 0
ENDMDL
