MODEL 1
REMARK minimizedAffinity -3.26696563
REMARK minimizedRMSD -1
REMARK  0 active torsions:
REMARK  status: ('A' for Active; 'I' for Inactive)
ROOT
ATOM      1  C   UNL d   1       1.573   2.398  -0.006  0.00  0.00     0.172 C 
ATOM      2  N   UNL d   1       1.059   1.051  -0.090  0.00  0.00    -0.070 N 
ATOM      3  C1  UNL d   1      -0.188   0.698  -0.533  0.00  0.00    -0.004 A 
ATOM      4  C2  UNL d   1      -0.289  -0.675  -0.461  0.00  0.00    -0.047 A 
ATOM      5  C3  UNL d   1       0.940  -1.164   0.044  0.00  0.00    -0.047 A 
ATOM      6  C4  UNL d   1       1.756  -0.074   0.265  0.00  0.00    -0.004 A 
ENDROOT
TORSDOF 0
ENDMDL
