MODEL 1
REMARK minimizedAffinity -3.64368796
REMARK minimizedRMSD -1
REMARK  0 active torsions:
REMARK  status: ('A' for Active; 'I' for Inactive)
ROOT
ATOM      1  C   UNL d   1      -0.396   0.322   1.481  0.00  0.00     0.172 C 
ATOM      2  N   UNL d   1       0.728   1.210   1.299  0.00  0.00    -0.070 N 
ATOM      3  C1  UNL d   1       1.706   1.076   0.349  0.00  0.00    -0.004 A 
ATOM      4  C2  UNL d   1       2.592   2.120   0.505  0.00  0.00    -0.047 A 
ATOM      5  C3  UNL d   1       2.131   2.909   1.586  0.00  0.00    -0.047 A 
ATOM      6  C4  UNL d   1       0.976   2.323   2.058  0.00  0.00    -0.004 A 
ENDROOT
TORSDOF 0
ENDMDL
