MODEL 1
REMARK minimizedAffinity -1.5216105
REMARK minimizedRMSD -1
REMARK  0 active torsions:
REMARK  status: ('A' for Active; 'I' for Inactive)
ROOT
ATOM      1  C   UNL d   1       1.741  -0.378  -0.549  0.00  0.00     0.172 C 
ATOM      2  N   UNL d   1       1.331   0.783   0.206  0.00  0.00    -0.070 N 
ATOM      3  C1  UNL d   1       1.614   2.084  -0.114  0.00  0.00    -0.004 A 
ATOM      4  C2  UNL d   1       1.048   2.889   0.851  0.00  0.00    -0.047 A 
ATOM      5  C3  UNL d   1       0.404   2.042   1.784  0.00  0.00    -0.047 A 
ATOM      6  C4  UNL d   1       0.595   0.744   1.361  0.00  0.00    -0.004 A 
ENDROOT
TORSDOF 0
ENDMDL
