MODEL 1
REMARK minimizedAffinity -3.62060833
REMARK minimizedRMSD -1
REMARK  0 active torsions:
REMARK  status: ('A' for Active; 'I' for Inactive)
ROOT
ATOM      1  C   UNL d   1      -0.343  -1.277  -0.691  0.00  0.00     0.172 C 
ATOM      2  N   UNL d   1       0.072  -0.138   0.094  0.00  0.00    -0.070 N 
ATOM      3  C1  UNL d   1      -0.491   0.263   1.277  0.00  0.00    -0.004 A 
ATOM      4  C2  UNL d   1       0.186   1.384   1.707  0.00  0.00    -0.047 A 
ATOM      5  C3  UNL d   1       1.189   1.667   0.749  0.00  0.00    -0.047 A 
ATOM      6  C4  UNL d   1       1.096   0.709  -0.238  0.00  0.00    -0.004 A 
ENDROOT
TORSDOF 0
ENDMDL
