MODEL 1
REMARK minimizedAffinity -2.55954552
REMARK minimizedRMSD -1
REMARK  0 active torsions:
REMARK  status: ('A' for Active; 'I' for Inactive)
ROOT
ATOM      1  C   UNL d   1       0.084  -1.343   0.081  0.00  0.00     0.172 C 
ATOM      2  N   UNL d   1       0.793  -0.123  -0.228  0.00  0.00    -0.070 N 
ATOM      3  C1  UNL d   1       2.064  -0.044  -0.730  0.00  0.00    -0.004 A 
ATOM      4  C2  UNL d   1       2.374   1.290  -0.886  0.00  0.00    -0.047 A 
ATOM      5  C3  UNL d   1       1.251   2.038  -0.461  0.00  0.00    -0.047 A 
ATOM      6  C4  UNL d   1       0.286   1.139  -0.060  0.00  0.00    -0.004 A 
ENDROOT
TORSDOF 0
ENDMDL
