MODEL 1
REMARK minimizedAffinity -3.38599801
REMARK minimizedRMSD -1
REMARK  0 active torsions:
REMARK  status: ('A' for Active; 'I' for Inactive)
ROOT
ATOM      1  C   UNL d   1      -0.003  -0.832  -0.182  0.00  0.00     0.172 C 
ATOM      2  N   UNL d   1       0.189   0.446   0.463  0.00  0.00    -0.070 N 
ATOM      3  C1  UNL d   1      -0.449   0.871   1.597  0.00  0.00    -0.004 A 
ATOM      4  C2  UNL d   1       0.008   2.138   1.889  0.00  0.00    -0.047 A 
ATOM      5  C3  UNL d   1       0.954   2.486   0.895  0.00  0.00    -0.047 A 
ATOM      6  C4  UNL d   1       1.046   1.420   0.025  0.00  0.00    -0.004 A 
ENDROOT
TORSDOF 0
ENDMDL
