MODEL 1
REMARK minimizedAffinity -4.04521513
REMARK minimizedRMSD -1
REMARK  0 active torsions:
REMARK  status: ('A' for Active; 'I' for Inactive)
ROOT
ATOM      1  C   UNL d   1      -0.927  -0.480   1.334  0.00  0.00     0.172 C 
ATOM      2  N   UNL d   1      -0.061   0.624   0.995  0.00  0.00    -0.070 N 
ATOM      3  C1  UNL d   1      -0.065   1.855   1.595  0.00  0.00    -0.004 A 
ATOM      4  C2  UNL d   1       0.906   2.623   0.988  0.00  0.00    -0.047 A 
ATOM      5  C3  UNL d   1       1.513   1.827  -0.011  0.00  0.00    -0.047 A 
ATOM      6  C4  UNL d   1       0.896   0.594   0.015  0.00  0.00    -0.004 A 
ENDROOT
TORSDOF 0
ENDMDL
