MODEL 1
REMARK minimizedAffinity -2.96655703
REMARK minimizedRMSD -1
REMARK  0 active torsions:
REMARK  status: ('A' for Active; 'I' for Inactive)
ROOT
ATOM      1  C   UNL d   1      -1.065  -1.072  -1.218  0.00  0.00     0.172 C 
ATOM      2  N   UNL d   1      -0.290  -0.177  -0.391  0.00  0.00    -0.070 N 
ATOM      3  C1  UNL d   1       0.680  -0.552   0.500  0.00  0.00    -0.004 A 
ATOM      4  C2  UNL d   1       1.180   0.591   1.086  0.00  0.00    -0.047 A 
ATOM      5  C3  UNL d   1       0.485   1.691   0.529  0.00  0.00    -0.047 A 
ATOM      6  C4  UNL d   1      -0.419   1.187  -0.382  0.00  0.00    -0.004 A 
ENDROOT
TORSDOF 0
ENDMDL
