MODEL 1
REMARK minimizedAffinity -2.45087147
REMARK minimizedRMSD -1
REMARK  0 active torsions:
REMARK  status: ('A' for Active; 'I' for Inactive)
ROOT
ATOM      1  C   UNL d   1       0.757   2.167   1.057  0.00  0.00     0.172 C 
ATOM      2  N   UNL d   1       0.582   0.815   0.580  0.00  0.00    -0.070 N 
ATOM      3  C1  UNL d   1      -0.495   0.011   0.837  0.00  0.00    -0.004 A 
ATOM      4  C2  UNL d   1      -0.282  -1.195   0.205  0.00  0.00    -0.047 A 
ATOM      5  C3  UNL d   1       0.968  -1.113  -0.453  0.00  0.00    -0.047 A 
ATOM      6  C4  UNL d   1       1.481   0.142  -0.205  0.00  0.00    -0.004 A 
ENDROOT
TORSDOF 0
ENDMDL
