MODEL 1
REMARK minimizedAffinity -3.5466857
REMARK minimizedRMSD -1
REMARK  0 active torsions:
REMARK  status: ('A' for Active; 'I' for Inactive)
ROOT
ATOM      1  C   UNL d   1       0.697   2.410   0.896  0.00  0.00     0.172 C 
ATOM      2  N   UNL d   1       0.267   1.053   0.654  0.00  0.00    -0.070 N 
ATOM      3  C1  UNL d   1      -0.908   0.499   1.089  0.00  0.00    -0.004 A 
ATOM      4  C2  UNL d   1      -0.944  -0.808   0.653  0.00  0.00    -0.047 A 
ATOM      5  C3  UNL d   1       0.250  -1.048  -0.067  0.00  0.00    -0.047 A 
ATOM      6  C4  UNL d   1       0.981   0.121  -0.051  0.00  0.00    -0.004 A 
ENDROOT
TORSDOF 0
ENDMDL
