MODEL 1
REMARK minimizedAffinity -3.80399537
REMARK minimizedRMSD -1
REMARK  0 active torsions:
REMARK  status: ('A' for Active; 'I' for Inactive)
ROOT
ATOM      1  C   UNL d   1       2.526  -0.414  -0.182  0.00  0.00     0.172 C 
ATOM      2  N   UNL d   1       1.596   0.561   0.338  0.00  0.00    -0.070 N 
ATOM      3  C1  UNL d   1       0.579   0.305   1.218  0.00  0.00    -0.004 A 
ATOM      4  C2  UNL d   1      -0.074   1.492   1.466  0.00  0.00    -0.047 A 
ATOM      5  C3  UNL d   1       0.571   2.497   0.707  0.00  0.00    -0.047 A 
ATOM      6  C4  UNL d   1       1.602   1.893   0.018  0.00  0.00    -0.004 A 
ENDROOT
TORSDOF 0
ENDMDL
