MODEL 1
REMARK minimizedAffinity -4.64561319
REMARK minimizedRMSD -1
REMARK  0 active torsions:
REMARK  status: ('A' for Active; 'I' for Inactive)
ROOT
ATOM      1  C1  DEN d   1       1.154  -0.790   0.492  0.00  0.00     0.130 A 
ATOM      2  C2  DEN d   1       1.120   0.543  -0.104  0.00  0.00    -0.031 A 
ATOM      3  C3  DEN d   1      -0.290   0.977  -0.170  0.00  0.00     0.027 A 
ATOM      4  C4  DEN d   1      -2.411  -0.276   0.592  0.00  0.00     0.027 A 
ATOM      5  C5  DEN d   1      -2.887  -1.443   1.148  0.00  0.00    -0.003 A 
ATOM      6  C6  DEN d   1      -2.059  -2.479   1.491  0.00  0.00     0.001 A 
ATOM      7  C7  DEN d   1      -0.705  -2.351   1.322  0.00  0.00     0.017 A 
ATOM      8  C8  DEN d   1      -0.219  -1.180   0.755  0.00  0.00    -0.094 A 
ATOM      9  C9  DEN d   1      -1.071  -0.139   0.427  0.00  0.00    -0.072 A 
ENDROOT
TORSDOF 0
ENDMDL
