MODEL 1
REMARK minimizedAffinity -1.71295297
REMARK minimizedRMSD -1
REMARK  0 active torsions:
REMARK  status: ('A' for Active; 'I' for Inactive)
ROOT
ATOM      1  C1  DEN d   1      -0.867  -1.841   1.755  0.00  0.00     0.130 A 
ATOM      2  C2  DEN d   1       0.195  -2.569   1.068  0.00  0.00    -0.031 A 
ATOM      3  C3  DEN d   1       0.920  -1.614   0.206  0.00  0.00     0.027 A 
ATOM      4  C4  DEN d   1       0.505   0.910  -0.126  0.00  0.00     0.027 A 
ATOM      5  C5  DEN d   1      -0.292   1.973   0.235  0.00  0.00    -0.003 A 
ATOM      6  C6  DEN d   1      -1.349   1.834   1.095  0.00  0.00     0.001 A 
ATOM      7  C7  DEN d   1      -1.611   0.613   1.658  0.00  0.00     0.017 A 
ATOM      8  C8  DEN d   1      -0.816  -0.466   1.293  0.00  0.00    -0.094 A 
ATOM      9  C9  DEN d   1       0.256  -0.302   0.432  0.00  0.00    -0.072 A 
ENDROOT
TORSDOF 0
ENDMDL
