MODEL 1
REMARK minimizedAffinity -1.4737345
REMARK minimizedRMSD -1
REMARK  0 active torsions:
REMARK  status: ('A' for Active; 'I' for Inactive)
ROOT
ATOM      1  C1  DEN d   1      -2.220  -0.928   0.767  0.00  0.00     0.130 A 
ATOM      2  C2  DEN d   1      -1.931  -2.272   1.261  0.00  0.00    -0.031 A 
ATOM      3  C3  DEN d   1      -0.491  -2.533   1.060  0.00  0.00     0.027 A 
ATOM      4  C4  DEN d   1       1.309  -0.993   0.040  0.00  0.00     0.027 A 
ATOM      5  C5  DEN d   1       1.540   0.239  -0.531  0.00  0.00    -0.003 A 
ATOM      6  C6  DEN d   1       0.536   1.147  -0.739  0.00  0.00     0.001 A 
ATOM      7  C7  DEN d   1      -0.738   0.855  -0.332  0.00  0.00     0.017 A 
ATOM      8  C8  DEN d   1      -0.980  -0.388   0.239  0.00  0.00    -0.094 A 
ATOM      9  C9  DEN d   1       0.050  -1.287   0.452  0.00  0.00    -0.072 A 
ENDROOT
TORSDOF 0
ENDMDL
