MODEL 1
REMARK minimizedAffinity -4.49249125
REMARK minimizedRMSD -1
REMARK  0 active torsions:
REMARK  status: ('A' for Active; 'I' for Inactive)
ROOT
ATOM      1  C1  DEN d   1      -2.333  -1.899   1.382  0.00  0.00     0.130 A 
ATOM      2  C2  DEN d   1      -1.730  -2.938   2.213  0.00  0.00    -0.031 A 
ATOM      3  C3  DEN d   1      -0.262  -2.807   2.113  0.00  0.00     0.027 A 
ATOM      4  C4  DEN d   1       1.127  -1.104   0.763  0.00  0.00     0.027 A 
ATOM      5  C5  DEN d   1       1.059  -0.036  -0.105  0.00  0.00    -0.003 A 
ATOM      6  C6  DEN d   1      -0.134   0.460  -0.560  0.00  0.00     0.001 A 
ATOM      7  C7  DEN d   1      -1.309  -0.084  -0.114  0.00  0.00     0.017 A 
ATOM      8  C8  DEN d   1      -1.249  -1.166   0.754  0.00  0.00    -0.094 A 
ATOM      9  C9  DEN d   1      -0.034  -1.645   1.213  0.00  0.00    -0.072 A 
ENDROOT
TORSDOF 0
ENDMDL
