MODEL 1
REMARK minimizedAffinity -5.99810171
REMARK minimizedRMSD -1
REMARK  0 active torsions:
REMARK  status: ('A' for Active; 'I' for Inactive)
ROOT
ATOM      1  C1  DEN d   1       0.123  -0.397  -0.403  0.00  0.00     0.130 A 
ATOM      2  C2  DEN d   1       0.213   1.059  -0.332  0.00  0.00    -0.031 A 
ATOM      3  C3  DEN d   1      -0.799   1.532   0.633  0.00  0.00     0.027 A 
ATOM      4  C4  DEN d   1      -2.486   0.160   2.020  0.00  0.00     0.027 A 
ATOM      5  C5  DEN d   1      -2.947  -1.110   2.290  0.00  0.00    -0.003 A 
ATOM      6  C6  DEN d   1      -2.445  -2.218   1.661  0.00  0.00     0.001 A 
ATOM      7  C7  DEN d   1      -1.420  -2.083   0.763  0.00  0.00     0.017 A 
ATOM      8  C8  DEN d   1      -0.954  -0.806   0.481  0.00  0.00    -0.094 A 
ATOM      9  C9  DEN d   1      -1.466   0.301   1.136  0.00  0.00    -0.072 A 
ENDROOT
TORSDOF 0
ENDMDL
