MODEL 1
REMARK minimizedAffinity -5.99646187
REMARK minimizedRMSD -1
REMARK  0 active torsions:
REMARK  status: ('A' for Active; 'I' for Inactive)
ROOT
ATOM      1  C1  DEN d   1      -1.988  -1.984   2.164  0.00  0.00     0.130 A 
ATOM      2  C2  DEN d   1      -1.074  -3.026   1.706  0.00  0.00    -0.031 A 
ATOM      3  C3  DEN d   1      -0.045  -2.391   0.858  0.00  0.00     0.027 A 
ATOM      4  C4  DEN d   1       0.222   0.093   0.216  0.00  0.00     0.027 A 
ATOM      5  C5  DEN d   1      -0.318   1.352   0.355  0.00  0.00    -0.003 A 
ATOM      6  C6  DEN d   1      -1.463   1.581   1.072  0.00  0.00     0.001 A 
ATOM      7  C7  DEN d   1      -2.080   0.541   1.716  0.00  0.00     0.017 A 
ATOM      8  C8  DEN d   1      -1.545  -0.733   1.575  0.00  0.00    -0.094 A 
ATOM      9  C9  DEN d   1      -0.380  -0.942   0.856  0.00  0.00    -0.072 A 
ENDROOT
TORSDOF 0
ENDMDL
