MODEL 1
REMARK minimizedAffinity -2.69808269
REMARK minimizedRMSD -1
REMARK  0 active torsions:
REMARK  status: ('A' for Active; 'I' for Inactive)
ROOT
ATOM      1  C1  DEN d   1       0.852   0.502   0.499  0.00  0.00     0.130 A 
ATOM      2  C2  DEN d   1       0.447   1.183  -0.728  0.00  0.00    -0.031 A 
ATOM      3  C3  DEN d   1      -0.708   0.456  -1.293  0.00  0.00     0.027 A 
ATOM      4  C4  DEN d   1      -1.905  -1.642  -0.389  0.00  0.00     0.027 A 
ATOM      5  C5  DEN d   1      -1.914  -2.584   0.616  0.00  0.00    -0.003 A 
ATOM      6  C6  DEN d   1      -0.988  -2.583   1.626  0.00  0.00     0.001 A 
ATOM      7  C7  DEN d   1      -0.041  -1.594   1.677  0.00  0.00     0.017 A 
ATOM      8  C8  DEN d   1      -0.021  -0.646   0.664  0.00  0.00    -0.094 A 
ATOM      9  C9  DEN d   1      -0.974  -0.656  -0.341  0.00  0.00    -0.072 A 
ENDROOT
TORSDOF 0
ENDMDL
