MODEL 1
REMARK minimizedAffinity -4.99579334
REMARK minimizedRMSD -1
REMARK  0 active torsions:
REMARK  status: ('A' for Active; 'I' for Inactive)
ROOT
ATOM      1  C1  DEN d   1      -1.966  -1.948   0.531  0.00  0.00     0.130 A 
ATOM      2  C2  DEN d   1      -1.316  -3.082   1.182  0.00  0.00    -0.031 A 
ATOM      3  C3  DEN d   1       0.130  -2.791   1.270  0.00  0.00     0.027 A 
ATOM      4  C4  DEN d   1       1.416  -0.703   0.470  0.00  0.00     0.027 A 
ATOM      5  C5  DEN d   1       1.294   0.520  -0.152  0.00  0.00    -0.003 A 
ATOM      6  C6  DEN d   1       0.094   0.987  -0.617  0.00  0.00     0.001 A 
ATOM      7  C7  DEN d   1      -1.043   0.246  -0.426  0.00  0.00     0.017 A 
ATOM      8  C8  DEN d   1      -0.927  -0.991   0.194  0.00  0.00    -0.094 A 
ATOM      9  C9  DEN d   1       0.293  -1.440   0.667  0.00  0.00    -0.072 A 
ENDROOT
TORSDOF 0
ENDMDL
