MODEL 1
REMARK minimizedAffinity 4.07739305
REMARK minimizedRMSD -1
REMARK  0 active torsions:
REMARK  status: ('A' for Active; 'I' for Inactive)
ROOT
ATOM      1  C1  DEN d   1      -1.452  -2.292   3.097  0.00  0.00     0.130 A 
ATOM      2  C2  DEN d   1      -0.397  -3.300   3.155  0.00  0.00    -0.031 A 
ATOM      3  C3  DEN d   1       0.582  -2.998   2.092  0.00  0.00     0.027 A 
ATOM      4  C4  DEN d   1       0.570  -1.074   0.374  0.00  0.00     0.027 A 
ATOM      5  C5  DEN d   1      -0.126   0.027  -0.074  0.00  0.00    -0.003 A 
ATOM      6  C6  DEN d   1      -1.321   0.409   0.477  0.00  0.00     0.001 A 
ATOM      7  C7  DEN d   1      -1.833  -0.290   1.539  0.00  0.00     0.017 A 
ATOM      8  C8  DEN d   1      -1.140  -1.405   1.991  0.00  0.00    -0.094 A 
ATOM      9  C9  DEN d   1       0.072  -1.768   1.428  0.00  0.00    -0.072 A 
ENDROOT
TORSDOF 0
ENDMDL
