MODEL 1
REMARK minimizedAffinity -0.570333779
REMARK minimizedRMSD -1
REMARK  0 active torsions:
REMARK  status: ('A' for Active; 'I' for Inactive)
ROOT
ATOM      1  C1  DEN d   1      -0.030   2.257   0.206  0.00  0.00     0.130 A 
ATOM      2  C2  DEN d   1       1.144   1.589  -0.349  0.00  0.00    -0.031 A 
ATOM      3  C3  DEN d   1       0.798   0.172  -0.576  0.00  0.00     0.027 A 
ATOM      4  C4  DEN d   1      -1.431  -1.047  -0.128  0.00  0.00     0.027 A 
ATOM      5  C5  DEN d   1      -2.714  -0.899   0.350  0.00  0.00    -0.003 A 
ATOM      6  C6  DEN d   1      -3.178   0.292   0.840  0.00  0.00     0.001 A 
ATOM      7  C7  DEN d   1      -2.367   1.396   0.823  0.00  0.00     0.017 A 
ATOM      8  C8  DEN d   1      -1.069   1.253   0.350  0.00  0.00    -0.094 A 
ATOM      9  C9  DEN d   1      -0.622   0.043  -0.154  0.00  0.00    -0.072 A 
ENDROOT
TORSDOF 0
ENDMDL
