MODEL 1
REMARK minimizedAffinity -3.65849137
REMARK minimizedRMSD -1
REMARK  0 active torsions:
REMARK  status: ('A' for Active; 'I' for Inactive)
ROOT
ATOM      1  C1  DEN d   1       1.122  -0.432  -0.152  0.00  0.00     0.130 A 
ATOM      2  C2  DEN d   1       0.389   0.340  -1.151  0.00  0.00    -0.031 A 
ATOM      3  C3  DEN d   1      -1.041  -0.012  -1.040  0.00  0.00     0.027 A 
ATOM      4  C4  DEN d   1      -2.185  -1.663   0.577  0.00  0.00     0.027 A 
ATOM      5  C5  DEN d   1      -1.973  -2.562   1.599  0.00  0.00    -0.003 A 
ATOM      6  C6  DEN d   1      -0.721  -2.837   2.082  0.00  0.00     0.001 A 
ATOM      7  C7  DEN d   1       0.363  -2.172   1.573  0.00  0.00     0.017 A 
ATOM      8  C8  DEN d   1       0.159  -1.270   0.538  0.00  0.00    -0.094 A 
ATOM      9  C9  DEN d   1      -1.116  -0.997   0.072  0.00  0.00    -0.072 A 
ENDROOT
TORSDOF 0
ENDMDL
