MODEL 1
REMARK minimizedAffinity -3.24987459
REMARK minimizedRMSD -1
REMARK  0 active torsions:
REMARK  status: ('A' for Active; 'I' for Inactive)
ROOT
ATOM      1  C1  DEN d   1      -1.896  -0.860   0.611  0.00  0.00     0.130 A 
ATOM      2  C2  DEN d   1      -1.521  -2.182   1.104  0.00  0.00    -0.031 A 
ATOM      3  C3  DEN d   1      -0.049  -2.289   1.050  0.00  0.00     0.027 A 
ATOM      4  C4  DEN d   1       1.677  -0.544   0.257  0.00  0.00     0.027 A 
ATOM      5  C5  DEN d   1       1.836   0.722  -0.261  0.00  0.00    -0.003 A 
ATOM      6  C6  DEN d   1       0.769   1.530  -0.555  0.00  0.00     0.001 A 
ATOM      7  C7  DEN d   1      -0.503   1.098  -0.290  0.00  0.00     0.017 A 
ATOM      8  C8  DEN d   1      -0.672  -0.180   0.226  0.00  0.00    -0.094 A 
ATOM      9  C9  DEN d   1       0.419  -0.977   0.528  0.00  0.00    -0.072 A 
ENDROOT
TORSDOF 0
ENDMDL
