MODEL 1
REMARK minimizedAffinity -3.03453445
REMARK minimizedRMSD -1
REMARK  0 active torsions:
REMARK  status: ('A' for Active; 'I' for Inactive)
ROOT
ATOM      1  C1  DEN d   1      -1.624   1.486   0.358  0.00  0.00     0.130 A 
ATOM      2  C2  DEN d   1      -0.386   2.260   0.357  0.00  0.00    -0.031 A 
ATOM      3  C3  DEN d   1       0.746   1.312   0.378  0.00  0.00     0.027 A 
ATOM      4  C4  DEN d   1       0.701  -1.267   0.405  0.00  0.00     0.027 A 
ATOM      5  C5  DEN d   1      -0.116  -2.375   0.424  0.00  0.00    -0.003 A 
ATOM      6  C6  DEN d   1      -1.482  -2.275   0.456  0.00  0.00     0.001 A 
ATOM      7  C7  DEN d   1      -2.073  -1.039   0.425  0.00  0.00     0.017 A 
ATOM      8  C8  DEN d   1      -1.255   0.083   0.413  0.00  0.00    -0.094 A 
ATOM      9  C9  DEN d   1       0.123  -0.040   0.369  0.00  0.00    -0.072 A 
ENDROOT
TORSDOF 0
ENDMDL
