MODEL 1
REMARK minimizedAffinity -2.55989599
REMARK minimizedRMSD -1
REMARK  0 active torsions:
REMARK  status: ('A' for Active; 'I' for Inactive)
ROOT
ATOM      1  C1  DEN d   1      -0.344  -2.471   2.096  0.00  0.00     0.130 A 
ATOM      2  C2  DEN d   1      -1.721  -2.727   1.683  0.00  0.00    -0.031 A 
ATOM      3  C3  DEN d   1      -2.016  -1.865   0.520  0.00  0.00     0.027 A 
ATOM      4  C4  DEN d   1      -0.482  -0.171  -0.675  0.00  0.00     0.027 A 
ATOM      5  C5  DEN d   1       0.771   0.401  -0.679  0.00  0.00    -0.003 A 
ATOM      6  C6  DEN d   1       1.721   0.084   0.256  0.00  0.00     0.001 A 
ATOM      7  C7  DEN d   1       1.448  -0.864   1.206  0.00  0.00     0.017 A 
ATOM      8  C8  DEN d   1       0.185  -1.440   1.220  0.00  0.00    -0.094 A 
ATOM      9  C9  DEN d   1      -0.758  -1.115   0.260  0.00  0.00    -0.072 A 
ENDROOT
TORSDOF 0
ENDMDL
