MODEL 1
REMARK minimizedAffinity -4.83539534
REMARK minimizedRMSD -1
REMARK  0 active torsions:
REMARK  status: ('A' for Active; 'I' for Inactive)
ROOT
ATOM      1  C1  DEN d   1      -1.745   0.718   1.334  0.00  0.00     0.130 A 
ATOM      2  C2  DEN d   1      -1.176   2.051   1.151  0.00  0.00    -0.031 A 
ATOM      3  C3  DEN d   1       0.237   1.893   0.755  0.00  0.00     0.027 A 
ATOM      4  C4  DEN d   1       1.592  -0.274   0.405  0.00  0.00     0.027 A 
ATOM      5  C5  DEN d   1       1.542  -1.650   0.454  0.00  0.00    -0.003 A 
ATOM      6  C6  DEN d   1       0.412  -2.326   0.830  0.00  0.00     0.001 A 
ATOM      7  C7  DEN d   1      -0.729  -1.629   1.128  0.00  0.00     0.017 A 
ATOM      8  C8  DEN d   1      -0.684  -0.241   1.088  0.00  0.00    -0.094 A 
ATOM      9  C9  DEN d   1       0.465   0.424   0.693  0.00  0.00    -0.072 A 
ENDROOT
TORSDOF 0
ENDMDL
