MODEL 1
REMARK minimizedAffinity -5.03914309
REMARK minimizedRMSD -1
REMARK  0 active torsions:
REMARK  status: ('A' for Active; 'I' for Inactive)
ROOT
ATOM      1  C1  DEN d   1       1.414  -0.110   0.572  0.00  0.00     0.130 A 
ATOM      2  C2  DEN d   1       1.022   0.831  -0.473  0.00  0.00    -0.031 A 
ATOM      3  C3  DEN d   1      -0.365   0.518  -0.872  0.00  0.00     0.027 A 
ATOM      4  C4  DEN d   1      -1.936  -1.320   0.025  0.00  0.00     0.027 A 
ATOM      5  C5  DEN d   1      -2.044  -2.372   0.908  0.00  0.00    -0.003 A 
ATOM      6  C6  DEN d   1      -1.004  -2.762   1.710  0.00  0.00     0.001 A 
ATOM      7  C7  DEN d   1       0.175  -2.066   1.678  0.00  0.00     0.017 A 
ATOM      8  C8  DEN d   1       0.294  -1.009   0.785  0.00  0.00    -0.094 A 
ATOM      9  C9  DEN d   1      -0.772  -0.623  -0.009  0.00  0.00    -0.072 A 
ENDROOT
TORSDOF 0
ENDMDL
