MODEL 1
REMARK minimizedAffinity -3.99051356
REMARK minimizedRMSD -1
REMARK  0 active torsions:
REMARK  status: ('A' for Active; 'I' for Inactive)
ROOT
ATOM      1  C1  DEN d   1      -1.152  -1.768   1.362  0.00  0.00     0.130 A 
ATOM      2  C2  DEN d   1      -0.240  -2.681   0.679  0.00  0.00    -0.031 A 
ATOM      3  C3  DEN d   1       0.645  -1.878  -0.189  0.00  0.00     0.027 A 
ATOM      4  C4  DEN d   1       0.695   0.677  -0.535  0.00  0.00     0.027 A 
ATOM      5  C5  DEN d   1       0.104   1.870  -0.179  0.00  0.00    -0.003 A 
ATOM      6  C6  DEN d   1      -0.960   1.930   0.681  0.00  0.00     0.001 A 
ATOM      7  C7  DEN d   1      -1.438   0.779   1.251  0.00  0.00     0.017 A 
ATOM      8  C8  DEN d   1      -0.852  -0.428   0.892  0.00  0.00    -0.094 A 
ATOM      9  C9  DEN d   1       0.231  -0.466   0.030  0.00  0.00    -0.072 A 
ENDROOT
TORSDOF 0
ENDMDL
