MODEL 1
REMARK minimizedAffinity -2.29779267
REMARK minimizedRMSD -1
REMARK  0 active torsions:
REMARK  status: ('A' for Active; 'I' for Inactive)
ROOT
ATOM      1  C1  DEN d   1       0.765   1.163  -0.053  0.00  0.00     0.130 A 
ATOM      2  C2  DEN d   1      -0.500   1.806   0.295  0.00  0.00    -0.031 A 
ATOM      3  C3  DEN d   1      -1.395   0.776   0.858  0.00  0.00     0.027 A 
ATOM      4  C4  DEN d   1      -0.947  -1.737   1.230  0.00  0.00     0.027 A 
ATOM      5  C5  DEN d   1      -0.023  -2.746   1.079  0.00  0.00    -0.003 A 
ATOM      6  C6  DEN d   1       1.207  -2.532   0.515  0.00  0.00     0.001 A 
ATOM      7  C7  DEN d   1       1.562  -1.269   0.120  0.00  0.00     0.017 A 
ATOM      8  C8  DEN d   1       0.632  -0.248   0.262  0.00  0.00    -0.094 A 
ATOM      9  C9  DEN d   1      -0.601  -0.482   0.847  0.00  0.00    -0.072 A 
ENDROOT
TORSDOF 0
ENDMDL
