MODEL 1
REMARK minimizedAffinity -2.59914207
REMARK minimizedRMSD -1
REMARK  3 active torsions:
REMARK  status: ('A' for Active; 'I' for Inactive)
REMARK    1  A    between atoms: C3'_2  and  C2'_3 
REMARK    2  A    between atoms: C2'_3  and  C1'_4 
REMARK    3  A    between atoms: C1'_4  and  C1_5 
ROOT
ATOM      1  C1  N4B d   1      -0.979   0.177   0.587  0.00  0.00    -0.075 A 
ATOM      2  C2  N4B d   1      -0.913   0.850  -0.653  0.00  0.00     0.002 A 
ATOM      3  C3  N4B d   1       0.305   1.091  -1.240  0.00  0.00     0.002 A 
ATOM      4  C4  N4B d   1       1.467   0.686  -0.599  0.00  0.00    -0.004 A 
ATOM      5  C5  N4B d   1       1.393   0.014   0.586  0.00  0.00     0.002 A 
ATOM      6  C6  N4B d   1       0.176  -0.238   1.185  0.00  0.00     0.002 A 
ENDROOT
BRANCH   1   7
ATOM      7  C1' N4B d   1      -2.282  -0.033   1.308  0.00  0.00     0.057 C 
BRANCH   7   8
ATOM      8  C2' N4B d   1      -2.397   0.984   2.440  0.00  0.00     0.009 C 
BRANCH   8   9
ATOM      9  C3' N4B d   1      -3.180   2.216   2.019  0.00  0.00     0.004 C 
ATOM     10  C4' N4B d   1      -3.016   3.362   2.973  0.00  0.00     0.003 C 
ENDBRANCH   8   9
ENDBRANCH   7   8
ENDBRANCH   1   7
TORSDOF 3
ENDMDL
