MODEL 1
REMARK minimizedAffinity -3.72112346
REMARK minimizedRMSD -1
REMARK  3 active torsions:
REMARK  status: ('A' for Active; 'I' for Inactive)
REMARK    1  A    between atoms: C3'_2  and  C2'_3 
REMARK    2  A    between atoms: C2'_3  and  C1'_4 
REMARK    3  A    between atoms: C1'_4  and  C1_5 
ROOT
ATOM      1  C1  N4B d   1       0.134  -0.112   0.539  0.00  0.00    -0.075 A 
ATOM      2  C2  N4B d   1       0.129  -1.474   0.169  0.00  0.00     0.002 A 
ATOM      3  C3  N4B d   1       0.794  -1.881  -0.962  0.00  0.00     0.002 A 
ATOM      4  C4  N4B d   1       1.452  -0.945  -1.744  0.00  0.00    -0.004 A 
ATOM      5  C5  N4B d   1       1.474   0.366  -1.366  0.00  0.00     0.002 A 
ATOM      6  C6  N4B d   1       0.814   0.788  -0.230  0.00  0.00     0.002 A 
ENDROOT
BRANCH   1   7
ATOM      7  C1' N4B d   1      -0.650   0.394   1.719  0.00  0.00     0.057 C 
BRANCH   7   8
ATOM      8  C2' N4B d   1      -2.127   0.069   1.515  0.00  0.00     0.009 C 
BRANCH   8   9
ATOM      9  C3' N4B d   1      -3.016   0.835   2.480  0.00  0.00     0.004 C 
ATOM     10  C4' N4B d   1      -3.016   2.312   2.223  0.00  0.00     0.003 C 
ENDBRANCH   8   9
ENDBRANCH   7   8
ENDBRANCH   1   7
TORSDOF 3
ENDMDL
