MODEL 1
REMARK minimizedAffinity -4.54059124
REMARK minimizedRMSD -1
REMARK  3 active torsions:
REMARK  status: ('A' for Active; 'I' for Inactive)
REMARK    1  A    between atoms: C3'_2  and  C2'_3 
REMARK    2  A    between atoms: C2'_3  and  C1'_4 
REMARK    3  A    between atoms: C1'_4  and  C1_5 
ROOT
ATOM      1  C1  N4B d   1       0.080   0.189  -0.024  0.00  0.00    -0.075 A 
ATOM      2  C2  N4B d   1       1.429   0.533  -0.261  0.00  0.00     0.002 A 
ATOM      3  C3  N4B d   1       1.875   0.722  -1.546  0.00  0.00     0.002 A 
ATOM      4  C4  N4B d   1       0.998   0.554  -2.607  0.00  0.00    -0.004 A 
ATOM      5  C5  N4B d   1      -0.310   0.247  -2.369  0.00  0.00     0.002 A 
ATOM      6  C6  N4B d   1      -0.772   0.058  -1.082  0.00  0.00     0.002 A 
ENDROOT
BRANCH   1   7
ATOM      7  C1' N4B d   1      -0.432  -0.111   1.358  0.00  0.00     0.057 C 
BRANCH   7   8
ATOM      8  C2' N4B d   1      -1.938   0.134   1.398  0.00  0.00     0.009 C 
BRANCH   8   9
ATOM      9  C3' N4B d   1      -2.381   0.731   2.723  0.00  0.00     0.004 C 
ATOM     10  C4' N4B d   1      -2.881   2.138   2.587  0.00  0.00     0.003 C 
ENDBRANCH   8   9
ENDBRANCH   7   8
ENDBRANCH   1   7
TORSDOF 3
ENDMDL
