MODEL 1
REMARK minimizedAffinity -2.96160722
REMARK minimizedRMSD -1
REMARK  3 active torsions:
REMARK  status: ('A' for Active; 'I' for Inactive)
REMARK    1  A    between atoms: C3'_2  and  C2'_3 
REMARK    2  A    between atoms: C2'_3  and  C1'_4 
REMARK    3  A    between atoms: C1'_4  and  C1_5 
ROOT
ATOM      1  C1  N4B d   1       0.388  -0.724  -0.050  0.00  0.00    -0.075 A 
ATOM      2  C2  N4B d   1       0.426  -1.772  -0.995  0.00  0.00     0.002 A 
ATOM      3  C3  N4B d   1       1.010  -1.570  -2.222  0.00  0.00     0.002 A 
ATOM      4  C4  N4B d   1       1.543  -0.328  -2.531  0.00  0.00    -0.004 A 
ATOM      5  C5  N4B d   1       1.526   0.672  -1.604  0.00  0.00     0.002 A 
ATOM      6  C6  N4B d   1       0.946   0.482  -0.365  0.00  0.00     0.002 A 
ENDROOT
BRANCH   1   7
ATOM      7  C1' N4B d   1      -0.315  -0.871   1.271  0.00  0.00     0.057 C 
BRANCH   7   8
ATOM      8  C2' N4B d   1      -1.742  -0.347   1.140  0.00  0.00     0.009 C 
BRANCH   8   9
ATOM      9  C3' N4B d   1      -2.032   0.765   2.133  0.00  0.00     0.004 C 
ATOM     10  C4' N4B d   1      -3.492   1.097   2.223  0.00  0.00     0.003 C 
ENDBRANCH   8   9
ENDBRANCH   7   8
ENDBRANCH   1   7
TORSDOF 3
ENDMDL
