MODEL 1
REMARK minimizedAffinity -4.47965717
REMARK minimizedRMSD -1
REMARK  3 active torsions:
REMARK  status: ('A' for Active; 'I' for Inactive)
REMARK    1  A    between atoms: C3'_2  and  C2'_3 
REMARK    2  A    between atoms: C2'_3  and  C1'_4 
REMARK    3  A    between atoms: C1'_4  and  C1_5 
ROOT
ATOM      1  C1  N4B d   1       0.089  -0.320  -0.566  0.00  0.00    -0.075 A 
ATOM      2  C2  N4B d   1       0.902   0.832  -0.480  0.00  0.00     0.002 A 
ATOM      3  C3  N4B d   1       1.887   1.048  -1.411  0.00  0.00     0.002 A 
ATOM      4  C4  N4B d   1       2.091   0.121  -2.422  0.00  0.00    -0.004 A 
ATOM      5  C5  N4B d   1       1.285  -0.976  -2.513  0.00  0.00     0.002 A 
ATOM      6  C6  N4B d   1       0.288  -1.204  -1.586  0.00  0.00     0.002 A 
ENDROOT
BRANCH   1   7
ATOM      7  C1' N4B d   1      -0.944  -0.643   0.479  0.00  0.00     0.057 C 
BRANCH   7   8
ATOM      8  C2' N4B d   1      -0.830   0.360   1.623  0.00  0.00     0.009 C 
BRANCH   8   9
ATOM      9  C3' N4B d   1      -2.191   0.758   2.168  0.00  0.00     0.004 C 
ATOM     10  C4' N4B d   1      -2.264   2.206   2.548  0.00  0.00     0.003 C 
ENDBRANCH   8   9
ENDBRANCH   7   8
ENDBRANCH   1   7
TORSDOF 3
ENDMDL
