MODEL 1
REMARK minimizedAffinity -1.74539018
REMARK minimizedRMSD -1
REMARK  3 active torsions:
REMARK  status: ('A' for Active; 'I' for Inactive)
REMARK    1  A    between atoms: C3'_2  and  C2'_3 
REMARK    2  A    between atoms: C2'_3  and  C1'_4 
REMARK    3  A    between atoms: C1'_4  and  C1_5 
ROOT
ATOM      1  C1  N4B d   1       0.722  -0.285  -1.303  0.00  0.00    -0.075 A 
ATOM      2  C2  N4B d   1       1.421  -0.360  -2.527  0.00  0.00     0.002 A 
ATOM      3  C3  N4B d   1       1.702  -1.584  -3.083  0.00  0.00     0.002 A 
ATOM      4  C4  N4B d   1       1.313  -2.742  -2.426  0.00  0.00    -0.004 A 
ATOM      5  C5  N4B d   1       0.615  -2.659  -1.257  0.00  0.00     0.002 A 
ATOM      6  C6  N4B d   1       0.322  -1.436  -0.688  0.00  0.00     0.002 A 
ENDROOT
BRANCH   1   7
ATOM      7  C1' N4B d   1       0.467   1.028  -0.614  0.00  0.00     0.057 C 
BRANCH   7   8
ATOM      8  C2' N4B d   1       1.722   1.447   0.146  0.00  0.00     0.009 C 
BRANCH   8   9
ATOM      9  C3' N4B d   1       2.888   1.720  -0.790  0.00  0.00     0.004 C 
ATOM     10  C4' N4B d   1       4.128   0.970  -0.406  0.00  0.00     0.003 C 
ENDBRANCH   8   9
ENDBRANCH   7   8
ENDBRANCH   1   7
TORSDOF 3
ENDMDL
