MODEL 1
REMARK minimizedAffinity -5.61366415
REMARK minimizedRMSD -1
REMARK  3 active torsions:
REMARK  status: ('A' for Active; 'I' for Inactive)
REMARK    1  A    between atoms: C3'_2  and  C2'_3 
REMARK    2  A    between atoms: C2'_3  and  C1'_4 
REMARK    3  A    between atoms: C1'_4  and  C1_5 
ROOT
ATOM      1  C1  N4B d   1       0.296  -0.308  -0.637  0.00  0.00    -0.075 A 
ATOM      2  C2  N4B d   1       0.306  -1.720  -0.661  0.00  0.00     0.002 A 
ATOM      3  C3  N4B d   1       1.157  -2.386  -1.508  0.00  0.00     0.002 A 
ATOM      4  C4  N4B d   1       1.991  -1.665  -2.349  0.00  0.00    -0.004 A 
ATOM      5  C5  N4B d   1       1.993  -0.302  -2.302  0.00  0.00     0.002 A 
ATOM      6  C6  N4B d   1       1.146   0.381  -1.453  0.00  0.00     0.002 A 
ENDROOT
BRANCH   1   7
ATOM      7  C1' N4B d   1      -0.677   0.465   0.210  0.00  0.00     0.057 C 
BRANCH   7   8
ATOM      8  C2' N4B d   1      -0.856  -0.250   1.546  0.00  0.00     0.009 C 
BRANCH   8   9
ATOM      9  C3' N4B d   1      -1.864   0.455   2.438  0.00  0.00     0.004 C 
ATOM     10  C4' N4B d   1      -3.278   0.044   2.154  0.00  0.00     0.003 C 
ENDBRANCH   8   9
ENDBRANCH   7   8
ENDBRANCH   1   7
TORSDOF 3
ENDMDL
