MODEL 1
REMARK minimizedAffinity 4.44100666
REMARK minimizedRMSD -1
REMARK  0 active torsions:
REMARK  status: ('A' for Active; 'I' for Inactive)
ROOT
ATOM      1  C   UNL d   1       1.742   3.615   1.085  0.00  0.00     0.124 A 
ATOM      2  C1  UNL d   1       0.420   3.531   0.670  0.00  0.00     0.062 A 
ATOM      3  C2  UNL d   1      -0.024   2.413  -0.029  0.00  0.00     0.162 A 
ATOM      4  C3  UNL d   1       0.854   1.368  -0.318  0.00  0.00    -0.034 A 
ATOM      5  C4  UNL d   1       2.183   1.461   0.102  0.00  0.00     0.162 A 
ATOM      6  C5  UNL d   1       2.622   2.580   0.801  0.00  0.00     0.062 A 
ATOM      7  F   UNL d   1       3.899   2.660   1.201  0.00  0.00    -0.097 F 
ATOM      8  F1  UNL d   1       3.054   0.474  -0.159  0.00  0.00    -0.096 F 
ATOM      9  I   UNL d   1       0.194  -0.305  -1.363  0.00  0.00    -0.060 I 
ATOM     10  F2  UNL d   1      -1.307   2.359  -0.418  0.00  0.00    -0.096 F 
ATOM     11  F3  UNL d   1      -0.431   4.530   0.943  0.00  0.00    -0.097 F 
ATOM     12  F4  UNL d   1       2.167   4.693   1.757  0.00  0.00    -0.092 F 
ENDROOT
TORSDOF 0
ENDMDL
