MODEL 1
REMARK minimizedAffinity 3.95239282
REMARK minimizedRMSD -1
REMARK  0 active torsions:
REMARK  status: ('A' for Active; 'I' for Inactive)
ROOT
ATOM      1  C   UNL d   1      -0.886   1.103  -1.467  0.00  0.00     0.124 A 
ATOM      2  C1  UNL d   1       0.036   0.336  -2.165  0.00  0.00     0.062 A 
ATOM      3  C2  UNL d   1       0.455  -0.890  -1.656  0.00  0.00     0.162 A 
ATOM      4  C3  UNL d   1      -0.050  -1.357  -0.442  0.00  0.00    -0.034 A 
ATOM      5  C4  UNL d   1      -0.976  -0.579   0.254  0.00  0.00     0.162 A 
ATOM      6  C5  UNL d   1      -1.391   0.645  -0.259  0.00  0.00     0.062 A 
ATOM      7  F   UNL d   1      -2.283   1.385   0.416  0.00  0.00    -0.097 F 
ATOM      8  F1  UNL d   1      -1.482  -0.998   1.424  0.00  0.00    -0.096 F 
ATOM      9  I   UNL d   1       0.574  -3.190   0.323  0.00  0.00    -0.060 I 
ATOM     10  F2  UNL d   1       1.347  -1.610  -2.351  0.00  0.00    -0.096 F 
ATOM     11  F3  UNL d   1       0.527   0.777  -3.333  0.00  0.00    -0.097 F 
ATOM     12  F4  UNL d   1      -1.286   2.283  -1.959  0.00  0.00    -0.092 F 
ENDROOT
TORSDOF 0
ENDMDL
