MODEL 1
REMARK minimizedAffinity -1.45345569
REMARK minimizedRMSD -1
REMARK  0 active torsions:
REMARK  status: ('A' for Active; 'I' for Inactive)
ROOT
ATOM      1  C   UNL d   1       0.452  -1.004   0.940  0.00  0.00     0.124 A 
ATOM      2  C1  UNL d   1       1.116  -0.296   1.932  0.00  0.00     0.062 A 
ATOM      3  C2  UNL d   1       1.468   1.035   1.725  0.00  0.00     0.162 A 
ATOM      4  C3  UNL d   1       1.157   1.667   0.521  0.00  0.00    -0.034 A 
ATOM      5  C4  UNL d   1       0.491   0.947  -0.473  0.00  0.00     0.162 A 
ATOM      6  C5  UNL d   1       0.141  -0.382  -0.261  0.00  0.00     0.062 A 
ATOM      7  F   UNL d   1      -0.500  -1.065  -1.221  0.00  0.00    -0.097 F 
ATOM      8  F1  UNL d   1       0.176   1.524  -1.642  0.00  0.00    -0.096 F 
ATOM      9  I   UNL d   1       1.682   3.656   0.208  0.00  0.00    -0.060 I 
ATOM     10  F2  UNL d   1       2.108   1.695   2.702  0.00  0.00    -0.096 F 
ATOM     11  F3  UNL d   1       1.419  -0.894   3.092  0.00  0.00    -0.097 F 
ATOM     12  F4  UNL d   1       0.115  -2.285   1.141  0.00  0.00    -0.092 F 
ENDROOT
TORSDOF 0
ENDMDL
