MODEL 1
REMARK minimizedAffinity 0.0410618484
REMARK minimizedRMSD -1
REMARK  0 active torsions:
REMARK  status: ('A' for Active; 'I' for Inactive)
ROOT
ATOM      1  C   UNL d   1      -0.821  -2.514  -0.124  0.00  0.00     0.124 A 
ATOM      2  C1  UNL d   1      -0.034  -1.853  -1.057  0.00  0.00     0.062 A 
ATOM      3  C2  UNL d   1       0.278  -0.508  -0.883  0.00  0.00     0.162 A 
ATOM      4  C3  UNL d   1      -0.195   0.186   0.230  0.00  0.00    -0.034 A 
ATOM      5  C4  UNL d   1      -0.986  -0.485   1.165  0.00  0.00     0.162 A 
ATOM      6  C5  UNL d   1      -1.296  -1.829   0.986  0.00  0.00     0.062 A 
ATOM      7  F   UNL d   1      -2.055  -2.466   1.889  0.00  0.00    -0.097 F 
ATOM      8  F1  UNL d   1      -1.458   0.152   2.247  0.00  0.00    -0.096 F 
ATOM      9  I   UNL d   1       0.270   2.197   0.494  0.00  0.00    -0.060 I 
ATOM     10  F2  UNL d   1       1.040   0.105  -1.801  0.00  0.00    -0.096 F 
ATOM     11  F3  UNL d   1       0.425  -2.512  -2.131  0.00  0.00    -0.097 F 
ATOM     12  F4  UNL d   1      -1.121  -3.808  -0.294  0.00  0.00    -0.092 F 
ENDROOT
TORSDOF 0
ENDMDL
