MODEL 1
REMARK minimizedAffinity 0.0935391709
REMARK minimizedRMSD -1
REMARK  0 active torsions:
REMARK  status: ('A' for Active; 'I' for Inactive)
ROOT
ATOM      1  C   UNL d   1       0.598   2.223  -0.742  0.00  0.00     0.124 A 
ATOM      2  C1  UNL d   1       0.627   1.883   0.603  0.00  0.00     0.062 A 
ATOM      3  C2  UNL d   1       0.397   0.569   0.999  0.00  0.00     0.162 A 
ATOM      4  C3  UNL d   1       0.137  -0.417   0.047  0.00  0.00    -0.034 A 
ATOM      5  C4  UNL d   1       0.109  -0.068  -1.304  0.00  0.00     0.162 A 
ATOM      6  C5  UNL d   1       0.340   1.247  -1.694  0.00  0.00     0.062 A 
ATOM      7  F   UNL d   1       0.311   1.573  -2.995  0.00  0.00    -0.097 F 
ATOM      8  F1  UNL d   1      -0.137  -0.991  -2.245  0.00  0.00    -0.096 F 
ATOM      9  I   UNL d   1      -0.207  -2.384   0.635  0.00  0.00    -0.060 I 
ATOM     10  F2  UNL d   1       0.431   0.270   2.306  0.00  0.00    -0.096 F 
ATOM     11  F3  UNL d   1       0.876   2.825   1.526  0.00  0.00    -0.097 F 
ATOM     12  F4  UNL d   1       0.819   3.488  -1.120  0.00  0.00    -0.092 F 
ENDROOT
TORSDOF 0
ENDMDL
