MODEL 1
REMARK minimizedAffinity -2.88509607
REMARK minimizedRMSD -1
REMARK  0 active torsions:
REMARK  status: ('A' for Active; 'I' for Inactive)
ROOT
ATOM      1  C   UNL d   1      -1.182  -1.360   0.856  0.00  0.00     0.124 A 
ATOM      2  C1  UNL d   1       0.190  -1.566   0.896  0.00  0.00     0.062 A 
ATOM      3  C2  UNL d   1       1.063  -0.484   0.818  0.00  0.00     0.162 A 
ATOM      4  C3  UNL d   1       0.566   0.814   0.701  0.00  0.00    -0.034 A 
ATOM      5  C4  UNL d   1      -0.815   1.013   0.661  0.00  0.00     0.162 A 
ATOM      6  C5  UNL d   1      -1.683  -0.071   0.739  0.00  0.00     0.062 A 
ATOM      7  F   UNL d   1      -3.009   0.130   0.700  0.00  0.00    -0.097 F 
ATOM      8  F1  UNL d   1      -1.327   2.248   0.548  0.00  0.00    -0.096 F 
ATOM      9  I   UNL d   1       1.867   2.434   0.584  0.00  0.00    -0.060 I 
ATOM     10  F2  UNL d   1       2.384  -0.713   0.858  0.00  0.00    -0.096 F 
ATOM     11  F3  UNL d   1       0.677  -2.810   1.008  0.00  0.00    -0.097 F 
ATOM     12  F4  UNL d   1      -2.019  -2.402   0.930  0.00  0.00    -0.092 F 
ENDROOT
TORSDOF 0
ENDMDL
