MODEL 1
REMARK minimizedAffinity -5.09835339
REMARK minimizedRMSD -1
REMARK  0 active torsions:
REMARK  status: ('A' for Active; 'I' for Inactive)
ROOT
ATOM      1  C   UNL d   1       0.082  -2.420  -2.122  0.00  0.00     0.124 A 
ATOM      2  C1  UNL d   1       0.047  -1.042  -2.281  0.00  0.00     0.062 A 
ATOM      3  C2  UNL d   1      -0.345  -0.225  -1.225  0.00  0.00     0.162 A 
ATOM      4  C3  UNL d   1      -0.705  -0.785   0.001  0.00  0.00    -0.034 A 
ATOM      5  C4  UNL d   1      -0.668  -2.172   0.153  0.00  0.00     0.162 A 
ATOM      6  C5  UNL d   1      -0.276  -2.984  -0.906  0.00  0.00     0.062 A 
ATOM      7  F   UNL d   1      -0.243  -4.316  -0.751  0.00  0.00    -0.097 F 
ATOM      8  F1  UNL d   1      -1.008  -2.743   1.318  0.00  0.00    -0.096 F 
ATOM      9  I   UNL d   1      -1.292   0.433   1.584  0.00  0.00    -0.060 I 
ATOM     10  F2  UNL d   1      -0.369   1.104  -1.407  0.00  0.00    -0.096 F 
ATOM     11  F3  UNL d   1       0.392  -0.495  -3.456  0.00  0.00    -0.097 F 
ATOM     12  F4  UNL d   1       0.459  -3.204  -3.141  0.00  0.00    -0.092 F 
ENDROOT
TORSDOF 0
ENDMDL
