MODEL 1
REMARK minimizedAffinity -2.3947475
REMARK minimizedRMSD -1
REMARK  0 active torsions:
REMARK  status: ('A' for Active; 'I' for Inactive)
ROOT
ATOM      1  C   UNL d   1      -0.751  -2.193  -0.534  0.00  0.00     0.124 A 
ATOM      2  C1  UNL d   1      -0.620  -1.727   0.767  0.00  0.00     0.062 A 
ATOM      3  C2  UNL d   1      -0.227  -0.414   1.004  0.00  0.00     0.162 A 
ATOM      4  C3  UNL d   1       0.038   0.445  -0.063  0.00  0.00    -0.034 A 
ATOM      5  C4  UNL d   1      -0.094  -0.030  -1.368  0.00  0.00     0.162 A 
ATOM      6  C5  UNL d   1      -0.488  -1.344  -1.600  0.00  0.00     0.062 A 
ATOM      7  F   UNL d   1      -0.613  -1.792  -2.858  0.00  0.00    -0.097 F 
ATOM      8  F1  UNL d   1       0.153   0.768  -2.417  0.00  0.00    -0.096 F 
ATOM      9  I   UNL d   1       0.627   2.410   0.288  0.00  0.00    -0.060 I 
ATOM     10  F2  UNL d   1      -0.109   0.009   2.272  0.00  0.00    -0.096 F 
ATOM     11  F3  UNL d   1      -0.873  -2.545   1.799  0.00  0.00    -0.097 F 
ATOM     12  F4  UNL d   1      -1.129  -3.458  -0.759  0.00  0.00    -0.092 F 
ENDROOT
TORSDOF 0
ENDMDL
