MODEL 1
REMARK minimizedAffinity -2.0347352
REMARK minimizedRMSD -1
REMARK  0 active torsions:
REMARK  status: ('A' for Active; 'I' for Inactive)
ROOT
ATOM      1  C   UNL d   1      -0.943  -2.309  -1.137  0.00  0.00     0.124 A 
ATOM      2  C1  UNL d   1      -0.971  -1.860   0.176  0.00  0.00     0.062 A 
ATOM      3  C2  UNL d   1      -0.622  -0.545   0.474  0.00  0.00     0.162 A 
ATOM      4  C3  UNL d   1      -0.243   0.330  -0.544  0.00  0.00    -0.034 A 
ATOM      5  C4  UNL d   1      -0.216  -0.130  -1.862  0.00  0.00     0.162 A 
ATOM      6  C5  UNL d   1      -0.565  -1.445  -2.154  0.00  0.00     0.062 A 
ATOM      7  F   UNL d   1      -0.538  -1.877  -3.423  0.00  0.00    -0.097 F 
ATOM      8  F1  UNL d   1       0.144   0.685  -2.865  0.00  0.00    -0.096 F 
ATOM      9  I   UNL d   1       0.280   2.296  -0.104  0.00  0.00    -0.060 I 
ATOM     10  F2  UNL d   1      -0.658  -0.138   1.751  0.00  0.00    -0.096 F 
ATOM     11  F3  UNL d   1      -1.334  -2.693   1.161  0.00  0.00    -0.097 F 
ATOM     12  F4  UNL d   1      -1.278  -3.575  -1.420  0.00  0.00    -0.092 F 
ENDROOT
TORSDOF 0
ENDMDL
