MODEL 1
REMARK minimizedAffinity -5.62470102
REMARK minimizedRMSD -1
REMARK  0 active torsions:
REMARK  status: ('A' for Active; 'I' for Inactive)
ROOT
ATOM      1  C   UNL d   1      -0.034  -2.750  -2.252  0.00  0.00     0.124 A 
ATOM      2  C1  UNL d   1      -0.227  -1.481  -2.782  0.00  0.00     0.062 A 
ATOM      3  C2  UNL d   1      -0.592  -0.425  -1.953  0.00  0.00     0.162 A 
ATOM      4  C3  UNL d   1      -0.767  -0.631  -0.585  0.00  0.00    -0.034 A 
ATOM      5  C4  UNL d   1      -0.572  -1.910  -0.059  0.00  0.00     0.162 A 
ATOM      6  C5  UNL d   1      -0.207  -2.963  -0.892  0.00  0.00     0.062 A 
ATOM      7  F   UNL d   1      -0.021  -4.188  -0.378  0.00  0.00    -0.097 F 
ATOM      8  F1  UNL d   1      -0.731  -2.144   1.252  0.00  0.00    -0.096 F 
ATOM      9  I   UNL d   1      -1.313   0.946   0.658  0.00  0.00    -0.060 I 
ATOM     10  F2  UNL d   1      -0.772   0.790  -2.492  0.00  0.00    -0.096 F 
ATOM     11  F3  UNL d   1      -0.061  -1.273  -4.096  0.00  0.00    -0.097 F 
ATOM     12  F4  UNL d   1       0.317  -3.765  -3.052  0.00  0.00    -0.092 F 
ENDROOT
TORSDOF 0
ENDMDL
