MODEL 1
REMARK minimizedAffinity 3.39671373
REMARK minimizedRMSD -1
REMARK  0 active torsions:
REMARK  status: ('A' for Active; 'I' for Inactive)
ROOT
ATOM      1  C   UNL d   1      -0.129  -1.781  -2.601  0.00  0.00     0.124 A 
ATOM      2  C1  UNL d   1      -0.740  -2.577  -1.643  0.00  0.00     0.062 A 
ATOM      3  C2  UNL d   1      -0.941  -2.093  -0.353  0.00  0.00     0.162 A 
ATOM      4  C3  UNL d   1      -0.530  -0.804  -0.014  0.00  0.00    -0.034 A 
ATOM      5  C4  UNL d   1       0.085  -0.009  -0.983  0.00  0.00     0.162 A 
ATOM      6  C5  UNL d   1       0.283  -0.497  -2.270  0.00  0.00     0.062 A 
ATOM      7  F   UNL d   1       0.875   0.274  -3.194  0.00  0.00    -0.097 F 
ATOM      8  F1  UNL d   1       0.492   1.236  -0.691  0.00  0.00    -0.096 F 
ATOM      9  I   UNL d   1      -0.828  -0.076   1.912  0.00  0.00    -0.060 I 
ATOM     10  F2  UNL d   1      -1.534  -2.885   0.552  0.00  0.00    -0.096 F 
ATOM     11  F3  UNL d   1      -1.138  -3.818  -1.960  0.00  0.00    -0.097 F 
ATOM     12  F4  UNL d   1       0.064  -2.250  -3.840  0.00  0.00    -0.092 F 
ENDROOT
TORSDOF 0
ENDMDL
