MODEL 1
REMARK minimizedAffinity -0.699955821
REMARK minimizedRMSD -1
REMARK  0 active torsions:
REMARK  status: ('A' for Active; 'I' for Inactive)
ROOT
ATOM      1  C   UNL d   1      -0.781  -2.334  -0.756  0.00  0.00     0.124 A 
ATOM      2  C1  UNL d   1      -0.778  -1.864   0.550  0.00  0.00     0.062 A 
ATOM      3  C2  UNL d   1      -0.484  -0.529   0.813  0.00  0.00     0.162 A 
ATOM      4  C3  UNL d   1      -0.192   0.346  -0.233  0.00  0.00    -0.034 A 
ATOM      5  C4  UNL d   1      -0.196  -0.134  -1.544  0.00  0.00     0.162 A 
ATOM      6  C5  UNL d   1      -0.490  -1.469  -1.801  0.00  0.00     0.062 A 
ATOM      7  F   UNL d   1      -0.493  -1.921  -3.064  0.00  0.00    -0.097 F 
ATOM      8  F1  UNL d   1       0.080   0.680  -2.573  0.00  0.00    -0.096 F 
ATOM      9  I   UNL d   1       0.247   2.343   0.156  0.00  0.00    -0.060 I 
ATOM     10  F2  UNL d   1      -0.489  -0.102   2.085  0.00  0.00    -0.096 F 
ATOM     11  F3  UNL d   1      -1.058  -2.698   1.562  0.00  0.00    -0.097 F 
ATOM     12  F4  UNL d   1      -1.063  -3.619  -1.006  0.00  0.00    -0.092 F 
ENDROOT
TORSDOF 0
ENDMDL
