MODEL 1
REMARK minimizedAffinity 0.406249851
REMARK minimizedRMSD -1
REMARK  0 active torsions:
REMARK  status: ('A' for Active; 'I' for Inactive)
ROOT
ATOM      1  C   UNL d   1      -0.078  -2.840  -0.236  0.00  0.00     0.124 A 
ATOM      2  C1  UNL d   1       0.130  -2.277   1.015  0.00  0.00     0.062 A 
ATOM      3  C2  UNL d   1       0.471  -0.932   1.129  0.00  0.00     0.162 A 
ATOM      4  C3  UNL d   1       0.605  -0.140  -0.011  0.00  0.00    -0.034 A 
ATOM      5  C4  UNL d   1       0.395  -0.714  -1.266  0.00  0.00     0.162 A 
ATOM      6  C5  UNL d   1       0.054  -2.059  -1.376  0.00  0.00     0.062 A 
ATOM      7  F   UNL d   1      -0.147  -2.601  -2.585  0.00  0.00    -0.097 F 
ATOM      8  F1  UNL d   1       0.515   0.018  -2.384  0.00  0.00    -0.096 F 
ATOM      9  I   UNL d   1       1.115   1.870   0.156  0.00  0.00    -0.060 I 
ATOM     10  F2  UNL d   1       0.667  -0.414   2.351  0.00  0.00    -0.096 F 
ATOM     11  F3  UNL d   1       0.004  -3.030   2.117  0.00  0.00    -0.097 F 
ATOM     12  F4  UNL d   1      -0.405  -4.134  -0.344  0.00  0.00    -0.092 F 
ENDROOT
TORSDOF 0
ENDMDL
