MODEL 1
REMARK minimizedAffinity -5.17076349
REMARK minimizedRMSD -1
REMARK  0 active torsions:
REMARK  status: ('A' for Active; 'I' for Inactive)
ROOT
ATOM      1  C   UNL d   1       0.890   1.208  -2.157  0.00  0.00     0.124 A 
ATOM      2  C1  UNL d   1       0.548   0.056  -2.851  0.00  0.00     0.062 A 
ATOM      3  C2  UNL d   1       0.073  -1.059  -2.166  0.00  0.00     0.162 A 
ATOM      4  C3  UNL d   1      -0.063  -1.027  -0.778  0.00  0.00    -0.034 A 
ATOM      5  C4  UNL d   1       0.284   0.136  -0.087  0.00  0.00     0.162 A 
ATOM      6  C5  UNL d   1       0.758   1.247  -0.777  0.00  0.00     0.062 A 
ATOM      7  F   UNL d   1       1.088   2.360  -0.105  0.00  0.00    -0.097 F 
ATOM      8  F1  UNL d   1       0.165   0.201   1.247  0.00  0.00    -0.096 F 
ATOM      9  I   UNL d   1      -0.772  -2.691   0.250  0.00  0.00    -0.060 I 
ATOM     10  F2  UNL d   1      -0.250  -2.159  -2.862  0.00  0.00    -0.096 F 
ATOM     11  F3  UNL d   1       0.676   0.015  -4.185  0.00  0.00    -0.097 F 
ATOM     12  F4  UNL d   1       1.347   2.279  -2.819  0.00  0.00    -0.092 F 
ENDROOT
TORSDOF 0
ENDMDL
