MODEL 1
REMARK minimizedAffinity 0.242964372
REMARK minimizedRMSD -1
REMARK  0 active torsions:
REMARK  status: ('A' for Active; 'I' for Inactive)
ROOT
ATOM      1  C   UNL d   1      -0.242  -0.134  -1.368  0.00  0.00     0.124 A 
ATOM      2  C1  UNL d   1      -0.265   1.163  -1.862  0.00  0.00     0.062 A 
ATOM      3  C2  UNL d   1       0.083   2.231  -1.039  0.00  0.00     0.162 A 
ATOM      4  C3  UNL d   1       0.457   2.006   0.285  0.00  0.00    -0.034 A 
ATOM      5  C4  UNL d   1       0.476   0.699   0.775  0.00  0.00     0.162 A 
ATOM      6  C5  UNL d   1       0.128  -0.365  -0.051  0.00  0.00     0.062 A 
ATOM      7  F   UNL d   1       0.151  -1.617   0.428  0.00  0.00    -0.097 F 
ATOM      8  F1  UNL d   1       0.831   0.448   2.044  0.00  0.00    -0.096 F 
ATOM      9  I   UNL d   1       0.976   3.601   1.518  0.00  0.00    -0.060 I 
ATOM     10  F2  UNL d   1       0.052   3.474  -1.543  0.00  0.00    -0.096 F 
ATOM     11  F3  UNL d   1      -0.623   1.388  -3.134  0.00  0.00    -0.097 F 
ATOM     12  F4  UNL d   1      -0.577  -1.160  -2.161  0.00  0.00    -0.092 F 
ENDROOT
TORSDOF 0
ENDMDL
