MODEL 1
REMARK minimizedAffinity -3.25868893
REMARK minimizedRMSD -1
REMARK  0 active torsions:
REMARK  status: ('A' for Active; 'I' for Inactive)
ROOT
ATOM      1  C   UNL d   1       0.472  -1.509  -1.505  0.00  0.00     0.124 A 
ATOM      2  C1  UNL d   1       0.244  -0.164  -1.249  0.00  0.00     0.062 A 
ATOM      3  C2  UNL d   1      -0.291   0.236  -0.028  0.00  0.00     0.162 A 
ATOM      4  C3  UNL d   1      -0.601  -0.710   0.948  0.00  0.00    -0.034 A 
ATOM      5  C4  UNL d   1      -0.370  -2.062   0.684  0.00  0.00     0.162 A 
ATOM      6  C5  UNL d   1       0.165  -2.456  -0.538  0.00  0.00     0.062 A 
ATOM      7  F   UNL d   1       0.384  -3.756  -0.783  0.00  0.00    -0.097 F 
ATOM      8  F1  UNL d   1      -0.657  -2.998   1.600  0.00  0.00    -0.096 F 
ATOM      9  I   UNL d   1      -1.401  -0.116   2.775  0.00  0.00    -0.060 I 
ATOM     10  F2  UNL d   1      -0.501   1.543   0.191  0.00  0.00    -0.096 F 
ATOM     11  F3  UNL d   1       0.539   0.753  -2.182  0.00  0.00    -0.097 F 
ATOM     12  F4  UNL d   1       0.986  -1.891  -2.681  0.00  0.00    -0.092 F 
ENDROOT
TORSDOF 0
ENDMDL
