MODEL 1
REMARK minimizedAffinity -4.18449163
REMARK minimizedRMSD -1
REMARK  0 active torsions:
REMARK  status: ('A' for Active; 'I' for Inactive)
ROOT
ATOM      1  C   UNL d   1       0.106  -2.794  -1.438  0.00  0.00     0.124 A 
ATOM      2  C1  UNL d   1      -0.435  -1.728  -2.143  0.00  0.00     0.062 A 
ATOM      3  C2  UNL d   1      -0.207  -0.422  -1.721  0.00  0.00     0.162 A 
ATOM      4  C3  UNL d   1       0.568  -0.173  -0.588  0.00  0.00    -0.034 A 
ATOM      5  C4  UNL d   1       1.109  -1.250   0.116  0.00  0.00     0.162 A 
ATOM      6  C5  UNL d   1       0.877  -2.554  -0.309  0.00  0.00     0.062 A 
ATOM      7  F   UNL d   1       1.401  -3.583   0.373  0.00  0.00    -0.097 F 
ATOM      8  F1  UNL d   1       1.859  -1.047   1.210  0.00  0.00    -0.096 F 
ATOM      9  I   UNL d   1       0.913   1.779   0.045  0.00  0.00    -0.060 I 
ATOM     10  F2  UNL d   1      -0.742   0.589  -2.422  0.00  0.00    -0.096 F 
ATOM     11  F3  UNL d   1      -1.182  -1.957  -3.233  0.00  0.00    -0.097 F 
ATOM     12  F4  UNL d   1      -0.117  -4.050  -1.845  0.00  0.00    -0.092 F 
ENDROOT
TORSDOF 0
ENDMDL
