MODEL 1
REMARK minimizedAffinity -3.61264563
REMARK minimizedRMSD -1
REMARK  0 active torsions:
REMARK  status: ('A' for Active; 'I' for Inactive)
ROOT
ATOM      1  C   UNL d   1      -0.795  -0.679   0.412  0.00  0.00     0.124 A 
ATOM      2  C1  UNL d   1      -0.353   0.147  -0.612  0.00  0.00     0.062 A 
ATOM      3  C2  UNL d   1       0.464   1.238  -0.328  0.00  0.00     0.162 A 
ATOM      4  C3  UNL d   1       0.845   1.508   0.986  0.00  0.00    -0.034 A 
ATOM      5  C4  UNL d   1       0.396   0.673   2.011  0.00  0.00     0.162 A 
ATOM      6  C5  UNL d   1      -0.420  -0.416   1.721  0.00  0.00     0.062 A 
ATOM      7  F   UNL d   1      -0.847  -1.213   2.712  0.00  0.00    -0.097 F 
ATOM      8  F1  UNL d   1       0.743   0.904   3.285  0.00  0.00    -0.096 F 
ATOM      9  I   UNL d   1       2.067   3.138   1.415  0.00  0.00    -0.060 I 
ATOM     10  F2  UNL d   1       0.877   2.019  -1.337  0.00  0.00    -0.096 F 
ATOM     11  F3  UNL d   1      -0.714  -0.105  -1.879  0.00  0.00    -0.097 F 
ATOM     12  F4  UNL d   1      -1.581  -1.727   0.136  0.00  0.00    -0.092 F 
ENDROOT
TORSDOF 0
ENDMDL
