MODEL 1
REMARK minimizedAffinity -1.1184659
REMARK minimizedRMSD -1
REMARK  1 active torsions:
REMARK  status: ('A' for Active; 'I' for Inactive)
REMARK    1  A    between atoms: C3_4  and  O_7 
ROOT
ATOM      1  C   UNL d   1       1.179  -1.319   3.133  0.00  0.00    -0.033 A 
ATOM      2  C1  UNL d   1      -0.135  -1.477   3.577  0.00  0.00     0.039 A 
ATOM      3  C2  UNL d   1      -1.184  -0.855   2.896  0.00  0.00    -0.080 A 
ATOM      4  C3  UNL d   1      -0.905  -0.080   1.774  0.00  0.00     0.150 A 
ATOM      5  C4  UNL d   1       0.401   0.079   1.323  0.00  0.00    -0.007 A 
ATOM      6  C5  UNL d   1       1.447  -0.542   2.005  0.00  0.00     0.039 A 
ENDROOT
BRANCH   4   7
ATOM      7  O   UNL d   1      -1.895   0.550   1.079  0.00  0.00    -0.526 OA
ATOM      8  H5  UNL d   1      -2.742   0.374   1.522  0.00  0.00     0.418 HD
ENDBRANCH   4   7
TORSDOF 1
ENDMDL
