MODEL 1
REMARK minimizedAffinity -4.35357046
REMARK minimizedRMSD -1
REMARK  1 active torsions:
REMARK  status: ('A' for Active; 'I' for Inactive)
REMARK    1  A    between atoms: C3_4  and  O_7 
ROOT
ATOM      1  C   UNL d   1       1.681  -5.847  -5.690  0.00  0.00    -0.033 A 
ATOM      2  C1  UNL d   1       2.370  -5.650  -4.492  0.00  0.00     0.039 A 
ATOM      3  C2  UNL d   1       1.671  -5.589  -3.285  0.00  0.00    -0.080 A 
ATOM      4  C3  UNL d   1       0.286  -5.728  -3.289  0.00  0.00     0.150 A 
ATOM      5  C4  UNL d   1      -0.407  -5.928  -4.479  0.00  0.00    -0.007 A 
ATOM      6  C5  UNL d   1       0.293  -5.987  -5.684  0.00  0.00     0.039 A 
ENDROOT
BRANCH   4   7
ATOM      7  O   UNL d   1      -0.440  -5.671  -2.137  0.00  0.00    -0.526 OA
ATOM      8  H5  UNL d   1       0.168  -5.500  -1.398  0.00  0.00     0.418 HD
ENDBRANCH   4   7
TORSDOF 1
ENDMDL
