MODEL 1
REMARK minimizedAffinity -4.39237165
REMARK minimizedRMSD -1
REMARK  1 active torsions:
REMARK  status: ('A' for Active; 'I' for Inactive)
REMARK    1  A    between atoms: C3_4  and  O_7 
ROOT
ATOM      1  C   UNL d   1      -1.647  -1.062   2.462  0.00  0.00    -0.033 A 
ATOM      2  C1  UNL d   1      -1.549  -2.193   3.276  0.00  0.00     0.039 A 
ATOM      3  C2  UNL d   1      -0.299  -2.629   3.719  0.00  0.00    -0.080 A 
ATOM      4  C3  UNL d   1       0.843  -1.927   3.344  0.00  0.00     0.150 A 
ATOM      5  C4  UNL d   1       0.752  -0.798   2.537  0.00  0.00    -0.007 A 
ATOM      6  C5  UNL d   1      -0.497  -0.364   2.094  0.00  0.00     0.039 A 
ENDROOT
BRANCH   4   7
ATOM      7  O   UNL d   1       2.085  -2.318   3.748  0.00  0.00    -0.526 OA
ATOM      8  H5  UNL d   1       1.996  -3.129   4.276  0.00  0.00     0.418 HD
ENDBRANCH   4   7
TORSDOF 1
ENDMDL
