MODEL 1
REMARK minimizedAffinity -4.24284506
REMARK minimizedRMSD -1
REMARK  1 active torsions:
REMARK  status: ('A' for Active; 'I' for Inactive)
REMARK    1  A    between atoms: C3_4  and  O_7 
ROOT
ATOM      1  C   UNL d   1       0.380  -6.000  -5.296  0.00  0.00    -0.033 A 
ATOM      2  C1  UNL d   1       1.767  -5.950  -5.140  0.00  0.00     0.039 A 
ATOM      3  C2  UNL d   1       2.320  -5.571  -3.915  0.00  0.00    -0.080 A 
ATOM      4  C3  UNL d   1       1.477  -5.247  -2.856  0.00  0.00     0.150 A 
ATOM      5  C4  UNL d   1       0.094  -5.298  -3.003  0.00  0.00    -0.007 A 
ATOM      6  C5  UNL d   1      -0.456  -5.675  -4.228  0.00  0.00     0.039 A 
ENDROOT
BRANCH   4   7
ATOM      7  O   UNL d   1       1.970  -4.867  -1.643  0.00  0.00    -0.526 OA
ATOM      8  H5  UNL d   1       2.940  -4.850  -1.697  0.00  0.00     0.418 HD
ENDBRANCH   4   7
TORSDOF 1
ENDMDL
