MODEL 1
REMARK minimizedAffinity -2.03028846
REMARK minimizedRMSD -1
REMARK  1 active torsions:
REMARK  status: ('A' for Active; 'I' for Inactive)
REMARK    1  A    between atoms: C3_4  and  O_7 
ROOT
ATOM      1  C   UNL d   1      -0.013  -6.000  -3.578  0.00  0.00    -0.033 A 
ATOM      2  C1  UNL d   1       0.306  -5.995  -4.938  0.00  0.00     0.039 A 
ATOM      3  C2  UNL d   1       1.426  -5.297  -5.391  0.00  0.00    -0.080 A 
ATOM      4  C3  UNL d   1       2.220  -4.609  -4.477  0.00  0.00     0.150 A 
ATOM      5  C4  UNL d   1       1.911  -4.614  -3.121  0.00  0.00    -0.007 A 
ATOM      6  C5  UNL d   1       0.791  -5.311  -2.669  0.00  0.00     0.039 A 
ENDROOT
BRANCH   4   7
ATOM      7  O   UNL d   1       3.321  -3.910  -4.873  0.00  0.00    -0.526 OA
ATOM      8  H5  UNL d   1       3.394  -3.973  -5.840  0.00  0.00     0.418 HD
ENDBRANCH   4   7
TORSDOF 1
ENDMDL
