MODEL 1
REMARK minimizedAffinity 4.93851566
REMARK minimizedRMSD -1
REMARK  1 active torsions:
REMARK  status: ('A' for Active; 'I' for Inactive)
REMARK    1  A    between atoms: C3_4  and  O_7 
ROOT
ATOM      1  C   UNL d   1      -0.624  -0.447   2.198  0.00  0.00    -0.033 A 
ATOM      2  C1  UNL d   1       0.722  -0.331   1.845  0.00  0.00     0.039 A 
ATOM      3  C2  UNL d   1       1.709  -0.902   2.652  0.00  0.00    -0.080 A 
ATOM      4  C3  UNL d   1       1.336  -1.585   3.806  0.00  0.00     0.150 A 
ATOM      5  C4  UNL d   1      -0.003  -1.708   4.161  0.00  0.00    -0.007 A 
ATOM      6  C5  UNL d   1      -0.987  -1.136   3.355  0.00  0.00     0.039 A 
ENDROOT
BRANCH   4   7
ATOM      7  O   UNL d   1       2.263  -2.155   4.628  0.00  0.00    -0.526 OA
ATOM      8  H5  UNL d   1       3.147  -1.965   4.272  0.00  0.00     0.418 HD
ENDBRANCH   4   7
TORSDOF 1
ENDMDL
