MODEL 1
REMARK minimizedAffinity -2.46852326
REMARK minimizedRMSD -1
REMARK  1 active torsions:
REMARK  status: ('A' for Active; 'I' for Inactive)
REMARK    1  A    between atoms: C3_4  and  O_7 
ROOT
ATOM      1  C   UNL d   1      -0.416  -0.675   1.916  0.00  0.00    -0.033 A 
ATOM      2  C1  UNL d   1       0.943  -0.566   1.616  0.00  0.00     0.039 A 
ATOM      3  C2  UNL d   1       1.898  -1.043   2.516  0.00  0.00    -0.080 A 
ATOM      4  C3  UNL d   1       1.482  -1.627   3.709  0.00  0.00     0.150 A 
ATOM      5  C4  UNL d   1       0.129  -1.741   4.013  0.00  0.00    -0.007 A 
ATOM      6  C5  UNL d   1      -0.823  -1.264   3.114  0.00  0.00     0.039 A 
ENDROOT
BRANCH   4   7
ATOM      7  O   UNL d   1       2.378  -2.102   4.620  0.00  0.00    -0.526 OA
ATOM      8  H5  UNL d   1       3.275  -1.929   4.289  0.00  0.00     0.418 HD
ENDBRANCH   4   7
TORSDOF 1
ENDMDL
