MODEL 1
REMARK minimizedAffinity -4.64655685
REMARK minimizedRMSD -1
REMARK  1 active torsions:
REMARK  status: ('A' for Active; 'I' for Inactive)
REMARK    1  A    between atoms: C3_4  and  O_7 
ROOT
ATOM      1  C   UNL d   1      -1.136  -0.450   3.356  0.00  0.00    -0.033 A 
ATOM      2  C1  UNL d   1      -0.909  -1.357   4.393  0.00  0.00     0.039 A 
ATOM      3  C2  UNL d   1       0.378  -1.846   4.625  0.00  0.00    -0.080 A 
ATOM      4  C3  UNL d   1       1.428  -1.420   3.815  0.00  0.00     0.150 A 
ATOM      5  C4  UNL d   1       1.209  -0.514   2.783  0.00  0.00    -0.007 A 
ATOM      6  C5  UNL d   1      -0.077  -0.028   2.552  0.00  0.00     0.039 A 
ENDROOT
BRANCH   4   7
ATOM      7  O   UNL d   1       2.700  -1.874   4.001  0.00  0.00    -0.526 OA
ATOM      8  H5  UNL d   1       2.695  -2.515   4.731  0.00  0.00     0.418 HD
ENDBRANCH   4   7
TORSDOF 1
ENDMDL
