MODEL 1
REMARK minimizedAffinity 0.974211335
REMARK minimizedRMSD -1
REMARK  1 active torsions:
REMARK  status: ('A' for Active; 'I' for Inactive)
REMARK    1  A    between atoms: C3_4  and  O_7 
ROOT
ATOM      1  C   UNL d   1      -1.013  -1.333   2.775  0.00  0.00    -0.033 A 
ATOM      2  C1  UNL d   1      -1.128  -2.451   3.604  0.00  0.00     0.039 A 
ATOM      3  C2  UNL d   1      -0.054  -2.841   4.407  0.00  0.00    -0.080 A 
ATOM      4  C3  UNL d   1       1.127  -2.104   4.373  0.00  0.00     0.150 A 
ATOM      5  C4  UNL d   1       1.247  -0.987   3.553  0.00  0.00    -0.007 A 
ATOM      6  C5  UNL d   1       0.174  -0.600   2.751  0.00  0.00     0.039 A 
ENDROOT
BRANCH   4   7
ATOM      7  O   UNL d   1       2.203  -2.448   5.135  0.00  0.00    -0.526 OA
ATOM      8  H5  UNL d   1       1.985  -3.256   5.629  0.00  0.00     0.418 HD
ENDBRANCH   4   7
TORSDOF 1
ENDMDL
