MODEL 1
REMARK minimizedAffinity -0.286263883
REMARK minimizedRMSD -1
REMARK  1 active torsions:
REMARK  status: ('A' for Active; 'I' for Inactive)
REMARK    1  A    between atoms: C3_4  and  O_7 
ROOT
ATOM      1  C   UNL d   1      -0.214   0.020   1.195  0.00  0.00    -0.033 A 
ATOM      2  C1  UNL d   1       1.164  -0.207   1.219  0.00  0.00     0.039 A 
ATOM      3  C2  UNL d   1       1.726  -0.989   2.229  0.00  0.00    -0.080 A 
ATOM      4  C3  UNL d   1       0.902  -1.539   3.207  0.00  0.00     0.150 A 
ATOM      5  C4  UNL d   1      -0.471  -1.320   3.187  0.00  0.00    -0.007 A 
ATOM      6  C5  UNL d   1      -1.032  -0.538   2.178  0.00  0.00     0.039 A 
ENDROOT
BRANCH   4   7
ATOM      7  O   UNL d   1       1.406  -2.305   4.216  0.00  0.00    -0.526 OA
ATOM      8  H5  UNL d   1       2.372  -2.346   4.118  0.00  0.00     0.418 HD
ENDBRANCH   4   7
TORSDOF 1
ENDMDL
