MODEL 1
REMARK minimizedAffinity 2.35846519
REMARK minimizedRMSD -1
REMARK  3 active torsions:
REMARK  status: ('A' for Active; 'I' for Inactive)
REMARK    1  A    between atoms: C3'_2  and  C2'_3 
REMARK    2  A    between atoms: C2'_3  and  C1'_4 
REMARK    3  A    between atoms: C1'_4  and  C1_5 
ROOT
ATOM      1  C1  N4B d   1       2.936   5.564   4.867  0.00  0.00    -0.075 A 
ATOM      2  C2  N4B d   1       2.240   5.867   3.676  0.00  0.00     0.002 A 
ATOM      3  C3  N4B d   1       0.867   5.859   3.663  0.00  0.00     0.002 A 
ATOM      4  C4  N4B d   1       0.171   5.535   4.818  0.00  0.00    -0.004 A 
ATOM      5  C5  N4B d   1       0.851   5.269   5.971  0.00  0.00     0.002 A 
ATOM      6  C6  N4B d   1       2.231   5.277   6.000  0.00  0.00     0.002 A 
ENDROOT
BRANCH   1   7
ATOM      7  C1' N4B d   1       4.437   5.476   4.908  0.00  0.00     0.057 C 
BRANCH   7   8
ATOM      8  C2' N4B d   1       4.852   4.008   4.925  0.00  0.00     0.009 C 
BRANCH   8   9
ATOM      9  C3' N4B d   1       3.995   3.164   3.997  0.00  0.00     0.004 C 
ATOM     10  C4' N4B d   1       4.278   1.696   4.119  0.00  0.00     0.003 C 
ENDBRANCH   8   9
ENDBRANCH   7   8
ENDBRANCH   1   7
TORSDOF 3
ENDMDL
