MODEL 1
REMARK minimizedAffinity 8.2614584
REMARK minimizedRMSD -1
REMARK  3 active torsions:
REMARK  status: ('A' for Active; 'I' for Inactive)
REMARK    1  A    between atoms: C3'_2  and  C2'_3 
REMARK    2  A    between atoms: C2'_3  and  C1'_4 
REMARK    3  A    between atoms: C1'_4  and  C1_5 
ROOT
ATOM      1  C1  N4B d   1       1.668   5.915   3.947  0.00  0.00    -0.075 A 
ATOM      2  C2  N4B d   1       1.613   5.869   5.358  0.00  0.00     0.002 A 
ATOM      3  C3  N4B d   1       0.399   5.891   5.998  0.00  0.00     0.002 A 
ATOM      4  C4  N4B d   1      -0.768   5.979   5.254  0.00  0.00    -0.004 A 
ATOM      5  C5  N4B d   1      -0.708   5.998   3.891  0.00  0.00     0.002 A 
ATOM      6  C6  N4B d   1       0.506   5.972   3.234  0.00  0.00     0.002 A 
ENDROOT
BRANCH   1   7
ATOM      7  C1' N4B d   1       2.975   5.979   3.205  0.00  0.00     0.057 C 
BRANCH   7   8
ATOM      8  C2' N4B d   1       3.011   4.871   2.157  0.00  0.00     0.009 C 
BRANCH   8   9
ATOM      9  C3' N4B d   1       3.011   3.490   2.791  0.00  0.00     0.004 C 
ATOM     10  C4' N4B d   1       3.569   2.435   1.883  0.00  0.00     0.003 C 
ENDBRANCH   8   9
ENDBRANCH   7   8
ENDBRANCH   1   7
TORSDOF 3
ENDMDL
