MODEL 1
REMARK minimizedAffinity 4.06206179
REMARK minimizedRMSD -1
REMARK  3 active torsions:
REMARK  status: ('A' for Active; 'I' for Inactive)
REMARK    1  A    between atoms: C3'_2  and  C2'_3 
REMARK    2  A    between atoms: C2'_3  and  C1'_4 
REMARK    3  A    between atoms: C1'_4  and  C1_5 
ROOT
ATOM      1  C1  N4B d   1       3.756   3.028   3.089  0.00  0.00    -0.075 A 
ATOM      2  C2  N4B d   1       3.623   2.261   4.267  0.00  0.00     0.002 A 
ATOM      3  C3  N4B d   1       3.059   2.818   5.389  0.00  0.00     0.002 A 
ATOM      4  C4  N4B d   1       2.640   4.139   5.361  0.00  0.00    -0.004 A 
ATOM      5  C5  N4B d   1       2.748   4.865   4.211  0.00  0.00     0.002 A 
ATOM      6  C6  N4B d   1       3.309   4.317   3.076  0.00  0.00     0.002 A 
ENDROOT
BRANCH   1   7
ATOM      7  C1' N4B d   1       4.444   2.489   1.864  0.00  0.00     0.057 C 
BRANCH   7   8
ATOM      8  C2' N4B d   1       3.832   1.140   1.499  0.00  0.00     0.009 C 
BRANCH   8   9
ATOM      9  C3' N4B d   1       3.627   0.996   0.000  0.00  0.00     0.004 C 
ATOM     10  C4' N4B d   1       2.188   0.796  -0.372  0.00  0.00     0.003 C 
ENDBRANCH   8   9
ENDBRANCH   7   8
ENDBRANCH   1   7
TORSDOF 3
ENDMDL
