MODEL 1
REMARK minimizedAffinity 8.09777641
REMARK minimizedRMSD -1
REMARK  3 active torsions:
REMARK  status: ('A' for Active; 'I' for Inactive)
REMARK    1  A    between atoms: C3'_2  and  C2'_3 
REMARK    2  A    between atoms: C2'_3  and  C1'_4 
REMARK    3  A    between atoms: C1'_4  and  C1_5 
ROOT
ATOM      1  C1  N4B d   1       3.269   1.511   1.489  0.00  0.00    -0.075 A 
ATOM      2  C2  N4B d   1       4.651   1.751   1.325  0.00  0.00     0.002 A 
ATOM      3  C3  N4B d   1       5.248   1.525   0.109  0.00  0.00     0.002 A 
ATOM      4  C4  N4B d   1       4.490   1.045  -0.948  0.00  0.00    -0.004 A 
ATOM      5  C5  N4B d   1       3.150   0.840  -0.789  0.00  0.00     0.002 A 
ATOM      6  C6  N4B d   1       2.536   1.066   0.426  0.00  0.00     0.002 A 
ENDROOT
BRANCH   1   7
ATOM      7  C1' N4B d   1       2.589   1.661   2.822  0.00  0.00     0.057 C 
BRANCH   7   8
ATOM      8  C2' N4B d   1       3.435   2.563   3.717  0.00  0.00     0.009 C 
BRANCH   8   9
ATOM      9  C3' N4B d   1       3.332   2.169   5.180  0.00  0.00     0.004 C 
ATOM     10  C4' N4B d   1       2.534   3.148   5.990  0.00  0.00     0.003 C 
ENDBRANCH   8   9
ENDBRANCH   7   8
ENDBRANCH   1   7
TORSDOF 3
ENDMDL
