MODEL 1
REMARK minimizedAffinity -5.27704239
REMARK minimizedRMSD -1
REMARK  3 active torsions:
REMARK  status: ('A' for Active; 'I' for Inactive)
REMARK    1  A    between atoms: C3'_2  and  C2'_3 
REMARK    2  A    between atoms: C2'_3  and  C1'_4 
REMARK    3  A    between atoms: C1'_4  and  C1_5 
ROOT
ATOM      1  C1  N4B d   1       2.249   4.553   5.337  0.00  0.00    -0.075 A 
ATOM      2  C2  N4B d   1       1.640   3.464   6.000  0.00  0.00     0.002 A 
ATOM      3  C3  N4B d   1       2.150   2.198   5.852  0.00  0.00     0.002 A 
ATOM      4  C4  N4B d   1       3.253   1.994   5.036  0.00  0.00    -0.004 A 
ATOM      5  C5  N4B d   1       3.850   3.054   4.420  0.00  0.00     0.002 A 
ATOM      6  C6  N4B d   1       3.351   4.332   4.562  0.00  0.00     0.002 A 
ENDROOT
BRANCH   1   7
ATOM      7  C1' N4B d   1       1.675   5.942   5.399  0.00  0.00     0.057 C 
BRANCH   7   8
ATOM      8  C2' N4B d   1       0.161   5.852   5.565  0.00  0.00     0.009 C 
BRANCH   8   9
ATOM      9  C3' N4B d   1      -0.559   5.869   4.227  0.00  0.00     0.004 C 
ATOM     10  C4' N4B d   1       0.347   5.550   3.076  0.00  0.00     0.003 C 
ENDBRANCH   8   9
ENDBRANCH   7   8
ENDBRANCH   1   7
TORSDOF 3
ENDMDL
