MODEL 1
REMARK minimizedAffinity 6.50392723
REMARK minimizedRMSD -1
REMARK  3 active torsions:
REMARK  status: ('A' for Active; 'I' for Inactive)
REMARK    1  A    between atoms: C3'_2  and  C2'_3 
REMARK    2  A    between atoms: C2'_3  and  C1'_4 
REMARK    3  A    between atoms: C1'_4  and  C1_5 
ROOT
ATOM      1  C1  N4B d   1       1.336  -2.154  -1.058  0.00  0.00    -0.075 A 
ATOM      2  C2  N4B d   1       1.127  -3.297  -0.255  0.00  0.00     0.002 A 
ATOM      3  C3  N4B d   1      -0.007  -4.054  -0.421  0.00  0.00     0.002 A 
ATOM      4  C4  N4B d   1      -0.950  -3.679  -1.366  0.00  0.00    -0.004 A 
ATOM      5  C5  N4B d   1      -0.728  -2.588  -2.155  0.00  0.00     0.002 A 
ATOM      6  C6  N4B d   1       0.409  -1.820  -2.002  0.00  0.00     0.002 A 
ENDROOT
BRANCH   1   7
ATOM      7  C1' N4B d   1       2.519  -1.247  -0.855  0.00  0.00     0.057 C 
BRANCH   7   8
ATOM      8  C2' N4B d   1       2.024   0.179  -0.632  0.00  0.00     0.009 C 
BRANCH   8   9
ATOM      9  C3' N4B d   1       3.169   1.146  -0.384  0.00  0.00     0.004 C 
ATOM     10  C4' N4B d   1       4.139   1.202  -1.526  0.00  0.00     0.003 C 
ENDBRANCH   8   9
ENDBRANCH   7   8
ENDBRANCH   1   7
TORSDOF 3
ENDMDL
