MODEL 1
REMARK minimizedAffinity -2.84618306
REMARK minimizedRMSD -1
REMARK  2 active torsions:
REMARK  status: ('A' for Active; 'I' for Inactive)
REMARK    1  A    between atoms: C2'_3  and  C1'_4 
REMARK    2  A    between atoms: C1'_4  and  C1_5 
ROOT
ATOM      1  C1  I4B d   1       0.423  -0.579   0.825  0.00  0.00    -0.075 A 
ATOM      2  C2  I4B d   1       1.402   0.300   1.217  0.00  0.00     0.003 A 
ATOM      3  C3  I4B d   1       1.349   0.901   2.498  0.00  0.00     0.002 A 
ATOM      4  C4  I4B d   1       0.280   0.634   3.330  0.00  0.00    -0.004 A 
ATOM      5  C5  I4B d   1      -0.698  -0.275   2.940  0.00  0.00     0.002 A 
ATOM      6  C6  I4B d   1      -0.621  -0.895   1.684  0.00  0.00     0.003 A 
ENDROOT
BRANCH   1   7
ATOM      7  C1' I4B d   1       0.493  -1.169  -0.548  0.00  0.00     0.060 C 
BRANCH   7   8
ATOM      8  C2' I4B d   1       0.422  -0.034  -1.549  0.00  0.00    -0.013 C 
ATOM      9  C4' I4B d   1       1.119  -0.396  -2.834  0.00  0.00     0.013 C 
ATOM     10  C3' I4B d   1      -1.024   0.283  -1.788  0.00  0.00     0.013 C 
ENDBRANCH   7   8
ENDBRANCH   1   7
TORSDOF 2
ENDMDL
