MODEL 1
REMARK minimizedAffinity -3.07323647
REMARK minimizedRMSD -1
REMARK  2 active torsions:
REMARK  status: ('A' for Active; 'I' for Inactive)
REMARK    1  A    between atoms: C2'_3  and  C1'_4 
REMARK    2  A    between atoms: C1'_4  and  C1_5 
ROOT
ATOM      1  C1  I4B d   1      -0.058  -0.135  -0.202  0.00  0.00    -0.075 A 
ATOM      2  C2  I4B d   1       1.033   0.127   0.589  0.00  0.00     0.003 A 
ATOM      3  C3  I4B d   1       0.954  -0.049   1.992  0.00  0.00     0.002 A 
ATOM      4  C4  I4B d   1      -0.241  -0.437   2.562  0.00  0.00    -0.004 A 
ATOM      5  C5  I4B d   1      -1.339  -0.723   1.756  0.00  0.00     0.002 A 
ATOM      6  C6  I4B d   1      -1.244  -0.584   0.364  0.00  0.00     0.003 A 
ENDROOT
BRANCH   1   7
ATOM      7  C1' I4B d   1       0.051   0.093  -1.677  0.00  0.00     0.060 C 
BRANCH   7   8
ATOM      8  C2' I4B d   1       0.467  -1.213  -2.322  0.00  0.00    -0.013 C 
ATOM      9  C4' I4B d   1      -0.694  -1.868  -3.024  0.00  0.00     0.013 C 
ATOM     10  C3' I4B d   1       1.584  -0.922  -3.278  0.00  0.00     0.013 C 
ENDBRANCH   7   8
ENDBRANCH   1   7
TORSDOF 2
ENDMDL
