MODEL 1
REMARK minimizedAffinity -4.51611757
REMARK minimizedRMSD -1
REMARK  2 active torsions:
REMARK  status: ('A' for Active; 'I' for Inactive)
REMARK    1  A    between atoms: C2'_3  and  C1'_4 
REMARK    2  A    between atoms: C1'_4  and  C1_5 
ROOT
ATOM      1  C1  I4B d   1       0.637  -0.267  -1.375  0.00  0.00    -0.075 A 
ATOM      2  C2  I4B d   1       1.089   0.559  -2.374  0.00  0.00     0.003 A 
ATOM      3  C3  I4B d   1       1.472   0.020  -3.625  0.00  0.00     0.002 A 
ATOM      4  C4  I4B d   1       1.435  -1.346  -3.817  0.00  0.00    -0.004 A 
ATOM      5  C5  I4B d   1       0.955  -2.180  -2.810  0.00  0.00     0.002 A 
ATOM      6  C6  I4B d   1       0.542  -1.636  -1.586  0.00  0.00     0.003 A 
ENDROOT
BRANCH   1   7
ATOM      7  C1' I4B d   1       0.271   0.333  -0.054  0.00  0.00     0.060 C 
BRANCH   7   8
ATOM      8  C2' I4B d   1      -0.956  -0.389   0.463  0.00  0.00    -0.013 C 
ATOM      9  C4' I4B d   1      -0.991  -0.395   1.969  0.00  0.00     0.013 C 
ATOM     10  C3' I4B d   1      -2.167   0.290  -0.104  0.00  0.00     0.013 C 
ENDBRANCH   7   8
ENDBRANCH   1   7
TORSDOF 2
ENDMDL
