MODEL 1
REMARK minimizedAffinity -3.127707
REMARK minimizedRMSD -1
REMARK  2 active torsions:
REMARK  status: ('A' for Active; 'I' for Inactive)
REMARK    1  A    between atoms: C2'_3  and  C1'_4 
REMARK    2  A    between atoms: C1'_4  and  C1_5 
ROOT
ATOM      1  C1  I4B d   1       0.515  -0.343  -0.975  0.00  0.00    -0.075 A 
ATOM      2  C2  I4B d   1       0.644   0.217  -2.222  0.00  0.00     0.003 A 
ATOM      3  C3  I4B d   1       0.967  -0.592  -3.337  0.00  0.00     0.002 A 
ATOM      4  C4  I4B d   1       1.200  -1.940  -3.154  0.00  0.00    -0.004 A 
ATOM      5  C5  I4B d   1       1.046  -2.511  -1.894  0.00  0.00     0.002 A 
ATOM      6  C6  I4B d   1       0.689  -1.710  -0.800  0.00  0.00     0.003 A 
ENDROOT
BRANCH   1   7
ATOM      7  C1' I4B d   1       0.205   0.546   0.186  0.00  0.00     0.060 C 
BRANCH   7   8
ATOM      8  C2' I4B d   1      -0.520  -0.281   1.228  0.00  0.00    -0.013 C 
ATOM      9  C4' I4B d   1      -0.030   0.037   2.616  0.00  0.00     0.013 C 
ATOM     10  C3' I4B d   1      -1.989  -0.007   1.096  0.00  0.00     0.013 C 
ENDBRANCH   7   8
ENDBRANCH   1   7
TORSDOF 2
ENDMDL
