MODEL 1
REMARK minimizedAffinity -2.22381377
REMARK minimizedRMSD -1
REMARK  2 active torsions:
REMARK  status: ('A' for Active; 'I' for Inactive)
REMARK    1  A    between atoms: C2'_3  and  C1'_4 
REMARK    2  A    between atoms: C1'_4  and  C1_5 
ROOT
ATOM      1  C1  I4B d   1       0.053  -0.177  -0.862  0.00  0.00    -0.075 A 
ATOM      2  C2  I4B d   1       1.152  -0.767  -0.289  0.00  0.00     0.003 A 
ATOM      3  C3  I4B d   1       1.278  -0.823   1.120  0.00  0.00     0.002 A 
ATOM      4  C4  I4B d   1       0.313  -0.237   1.913  0.00  0.00    -0.004 A 
ATOM      5  C5  I4B d   1      -0.812   0.341   1.331  0.00  0.00     0.002 A 
ATOM      6  C6  I4B d   1      -0.949   0.360  -0.065  0.00  0.00     0.003 A 
ENDROOT
BRANCH   1   7
ATOM      7  C1' I4B d   1      -0.031  -0.105  -2.353  0.00  0.00     0.060 C 
BRANCH   7   8
ATOM      8  C2' I4B d   1       1.051  -0.997  -2.926  0.00  0.00    -0.013 C 
ATOM      9  C4' I4B d   1       0.487  -1.957  -3.940  0.00  0.00     0.013 C 
ATOM     10  C3' I4B d   1       2.100  -0.118  -3.538  0.00  0.00     0.013 C 
ENDBRANCH   7   8
ENDBRANCH   1   7
TORSDOF 2
ENDMDL
