MODEL 1
REMARK minimizedAffinity -3.40403461
REMARK minimizedRMSD -1
REMARK  2 active torsions:
REMARK  status: ('A' for Active; 'I' for Inactive)
REMARK    1  A    between atoms: C2'_3  and  C1'_4 
REMARK    2  A    between atoms: C1'_4  and  C1_5 
ROOT
ATOM      1  C1  I4B d   1       0.197   0.433   1.011  0.00  0.00    -0.075 A 
ATOM      2  C2  I4B d   1      -0.445   0.182  -0.176  0.00  0.00     0.003 A 
ATOM      3  C3  I4B d   1       0.303  -0.117  -1.341  0.00  0.00     0.002 A 
ATOM      4  C4  I4B d   1       1.681  -0.104  -1.286  0.00  0.00    -0.004 A 
ATOM      5  C5  I4B d   1       2.330   0.129  -0.076  0.00  0.00     0.002 A 
ATOM      6  C6  I4B d   1       1.583   0.387   1.082  0.00  0.00     0.003 A 
ENDROOT
BRANCH   1   7
ATOM      7  C1' I4B d   1      -0.622   0.778   2.214  0.00  0.00     0.060 C 
BRANCH   7   8
ATOM      8  C2' I4B d   1      -1.799  -0.175   2.266  0.00  0.00    -0.013 C 
ATOM      9  C4' I4B d   1      -1.888  -0.859   3.604  0.00  0.00     0.013 C 
ATOM     10  C3' I4B d   1      -3.044   0.610   1.975  0.00  0.00     0.013 C 
ENDBRANCH   7   8
ENDBRANCH   1   7
TORSDOF 2
ENDMDL
