MODEL 1
REMARK minimizedAffinity -3.64822459
REMARK minimizedRMSD -1
REMARK  2 active torsions:
REMARK  status: ('A' for Active; 'I' for Inactive)
REMARK    1  A    between atoms: C2'_3  and  C1'_4 
REMARK    2  A    between atoms: C1'_4  and  C1_5 
ROOT
ATOM      1  C1  I4B d   1      -0.082  -0.044  -0.010  0.00  0.00    -0.075 A 
ATOM      2  C2  I4B d   1       0.931   0.313   0.845  0.00  0.00     0.003 A 
ATOM      3  C3  I4B d   1       0.924  -0.139   2.187  0.00  0.00     0.002 A 
ATOM      4  C4  I4B d   1      -0.133  -0.899   2.643  0.00  0.00    -0.004 A 
ATOM      5  C5  I4B d   1      -1.148  -1.279   1.769  0.00  0.00     0.002 A 
ATOM      6  C6  I4B d   1      -1.116  -0.859   0.431  0.00  0.00     0.003 A 
ENDROOT
BRANCH   1   7
ATOM      7  C1' I4B d   1      -0.060   0.478  -1.411  0.00  0.00     0.060 C 
BRANCH   7   8
ATOM      8  C2' I4B d   1       0.817  -0.440  -2.238  0.00  0.00    -0.013 C 
ATOM      9  C4' I4B d   1      -0.010  -1.424  -3.023  0.00  0.00     0.013 C 
ATOM     10  C3' I4B d   1       1.652   0.412  -3.146  0.00  0.00     0.013 C 
ENDBRANCH   7   8
ENDBRANCH   1   7
TORSDOF 2
ENDMDL
