MODEL 1
REMARK minimizedAffinity -5.70229864
REMARK minimizedRMSD -1
REMARK  2 active torsions:
REMARK  status: ('A' for Active; 'I' for Inactive)
REMARK    1  A    between atoms: C2'_3  and  C1'_4 
REMARK    2  A    between atoms: C1'_4  and  C1_5 
ROOT
ATOM      1  C1  I4B d   1       0.402  -0.092   0.021  0.00  0.00    -0.075 A 
ATOM      2  C2  I4B d   1       0.650  -1.394  -0.337  0.00  0.00     0.003 A 
ATOM      3  C3  I4B d   1       0.958  -1.717  -1.681  0.00  0.00     0.002 A 
ATOM      4  C4  I4B d   1       0.957  -0.722  -2.637  0.00  0.00    -0.004 A 
ATOM      5  C5  I4B d   1       0.728   0.601  -2.268  0.00  0.00     0.002 A 
ATOM      6  C6  I4B d   1       0.460   0.920  -0.929  0.00  0.00     0.003 A 
ENDROOT
BRANCH   1   7
ATOM      7  C1' I4B d   1       0.047   0.209   1.442  0.00  0.00     0.060 C 
BRANCH   7   8
ATOM      8  C2' I4B d   1      -1.135  -0.660   1.823  0.00  0.00    -0.013 C 
ATOM      9  C4' I4B d   1      -0.987  -1.201   3.220  0.00  0.00     0.013 C 
ATOM     10  C3' I4B d   1      -2.378   0.168   1.692  0.00  0.00     0.013 C 
ENDBRANCH   7   8
ENDBRANCH   1   7
TORSDOF 2
ENDMDL
