MODEL 1
REMARK minimizedAffinity -2.48559785
REMARK minimizedRMSD -1
REMARK  2 active torsions:
REMARK  status: ('A' for Active; 'I' for Inactive)
REMARK    1  A    between atoms: C2'_3  and  C1'_4 
REMARK    2  A    between atoms: C1'_4  and  C1_5 
ROOT
ATOM      1  C1  I4B d   1       0.654  -0.249  -0.631  0.00  0.00    -0.075 A 
ATOM      2  C2  I4B d   1       1.255   0.831  -0.034  0.00  0.00     0.003 A 
ATOM      3  C3  I4B d   1       1.367   0.895   1.376  0.00  0.00     0.002 A 
ATOM      4  C4  I4B d   1       0.822  -0.112   2.148  0.00  0.00    -0.004 A 
ATOM      5  C5  I4B d   1       0.233  -1.217   1.540  0.00  0.00     0.002 A 
ATOM      6  C6  I4B d   1       0.159  -1.292   0.141  0.00  0.00     0.003 A 
ENDROOT
BRANCH   1   7
ATOM      7  C1' I4B d   1       0.523  -0.269  -2.121  0.00  0.00     0.060 C 
BRANCH   7   8
ATOM      8  C2' I4B d   1       1.777  -0.900  -2.691  0.00  0.00    -0.013 C 
ATOM      9  C4' I4B d   1       1.441  -1.992  -3.672  0.00  0.00     0.013 C 
ATOM     10  C3' I4B d   1       2.586   0.183  -3.342  0.00  0.00     0.013 C 
ENDBRANCH   7   8
ENDBRANCH   1   7
TORSDOF 2
ENDMDL
