MODEL 1
REMARK minimizedAffinity -3.82008433
REMARK minimizedRMSD -1
REMARK  2 active torsions:
REMARK  status: ('A' for Active; 'I' for Inactive)
REMARK    1  A    between atoms: C2'_3  and  C1'_4 
REMARK    2  A    between atoms: C1'_4  and  C1_5 
ROOT
ATOM      1  C1  I4B d   1       0.143  -0.251  -0.585  0.00  0.00    -0.075 A 
ATOM      2  C2  I4B d   1       0.763   0.792   0.058  0.00  0.00     0.003 A 
ATOM      3  C3  I4B d   1       1.007   0.727   1.451  0.00  0.00     0.002 A 
ATOM      4  C4  I4B d   1       0.572  -0.370   2.166  0.00  0.00    -0.004 A 
ATOM      5  C5  I4B d   1      -0.036  -1.436   1.510  0.00  0.00     0.002 A 
ATOM      6  C6  I4B d   1      -0.241  -1.382   0.124  0.00  0.00     0.003 A 
ENDROOT
BRANCH   1   7
ATOM      7  C1' I4B d   1      -0.128  -0.135  -2.051  0.00  0.00     0.060 C 
BRANCH   7   8
ATOM      8  C2' I4B d   1       1.060  -0.712  -2.793  0.00  0.00    -0.013 C 
ATOM      9  C4' I4B d   1       0.624  -1.744  -3.800  0.00  0.00     0.013 C 
ATOM     10  C3' I4B d   1       1.786   0.420  -3.456  0.00  0.00     0.013 C 
ENDBRANCH   7   8
ENDBRANCH   1   7
TORSDOF 2
ENDMDL
