MODEL 1
REMARK minimizedAffinity -5.50738764
REMARK minimizedRMSD -1
REMARK  2 active torsions:
REMARK  status: ('A' for Active; 'I' for Inactive)
REMARK    1  A    between atoms: C2'_3  and  C1'_4 
REMARK    2  A    between atoms: C1'_4  and  C1_5 
ROOT
ATOM      1  C1  I4B d   1       0.574   0.133  -0.743  0.00  0.00    -0.075 A 
ATOM      2  C2  I4B d   1      -0.690   0.460  -0.319  0.00  0.00     0.003 A 
ATOM      3  C3  I4B d   1      -0.994   0.484   1.064  0.00  0.00     0.002 A 
ATOM      4  C4  I4B d   1      -0.024   0.128   1.979  0.00  0.00    -0.004 A 
ATOM      5  C5  I4B d   1       1.263  -0.181   1.549  0.00  0.00     0.002 A 
ATOM      6  C6  I4B d   1       1.567  -0.167   0.180  0.00  0.00     0.003 A 
ENDROOT
BRANCH   1   7
ATOM      7  C1' I4B d   1       0.851   0.085  -2.212  0.00  0.00     0.060 C 
BRANCH   7   8
ATOM      8  C2' I4B d   1       0.715  -1.355  -2.666  0.00  0.00    -0.013 C 
ATOM      9  C4' I4B d   1      -0.278  -1.480  -3.791  0.00  0.00     0.013 C 
ATOM     10  C3' I4B d   1       2.072  -1.838  -3.085  0.00  0.00     0.013 C 
ENDBRANCH   7   8
ENDBRANCH   1   7
TORSDOF 2
ENDMDL
