MODEL 1
REMARK minimizedAffinity -2.53416276
REMARK minimizedRMSD -1
REMARK  2 active torsions:
REMARK  status: ('A' for Active; 'I' for Inactive)
REMARK    1  A    between atoms: C2'_3  and  C1'_4 
REMARK    2  A    between atoms: C1'_4  and  C1_5 
ROOT
ATOM      1  C1  I4B d   1       0.774  -0.026  -2.421  0.00  0.00    -0.075 A 
ATOM      2  C2  I4B d   1       0.414  -1.332  -2.644  0.00  0.00     0.003 A 
ATOM      3  C3  I4B d   1       0.993  -2.058  -3.712  0.00  0.00     0.002 A 
ATOM      4  C4  I4B d   1       1.885  -1.429  -4.557  0.00  0.00    -0.004 A 
ATOM      5  C5  I4B d   1       2.266  -0.113  -4.316  0.00  0.00     0.002 A 
ATOM      6  C6  I4B d   1       1.716   0.590  -3.234  0.00  0.00     0.003 A 
ENDROOT
BRANCH   1   7
ATOM      7  C1' I4B d   1       0.117   0.722  -1.304  0.00  0.00     0.060 C 
BRANCH   7   8
ATOM      8  C2' I4B d   1       0.503   0.050  -0.002  0.00  0.00    -0.013 C 
ATOM      9  C4' I4B d   1       1.499   0.878   0.765  0.00  0.00     0.013 C 
ATOM     10  C3' I4B d   1      -0.749  -0.167   0.795  0.00  0.00     0.013 C 
ENDBRANCH   7   8
ENDBRANCH   1   7
TORSDOF 2
ENDMDL
