MODEL 1
REMARK minimizedAffinity -2.2595396
REMARK minimizedRMSD -1
REMARK  2 active torsions:
REMARK  status: ('A' for Active; 'I' for Inactive)
REMARK    1  A    between atoms: C2'_3  and  C1'_4 
REMARK    2  A    between atoms: C1'_4  and  C1_5 
ROOT
ATOM      1  C1  I4B d   1      -0.060   0.222  -1.097  0.00  0.00    -0.075 A 
ATOM      2  C2  I4B d   1       0.756  -0.116  -0.046  0.00  0.00     0.003 A 
ATOM      3  C3  I4B d   1       0.210  -0.315   1.245  0.00  0.00     0.002 A 
ATOM      4  C4  I4B d   1      -1.141  -0.119   1.450  0.00  0.00    -0.004 A 
ATOM      5  C5  I4B d   1      -1.970   0.201   0.379  0.00  0.00     0.002 A 
ATOM      6  C6  I4B d   1      -1.429   0.361  -0.905  0.00  0.00     0.003 A 
ENDROOT
BRANCH   1   7
ATOM      7  C1' I4B d   1       0.555   0.457  -2.440  0.00  0.00     0.060 C 
BRANCH   7   8
ATOM      8  C2' I4B d   1       1.328  -0.788  -2.824  0.00  0.00    -0.013 C 
ATOM      9  C4' I4B d   1       0.421  -1.828  -3.427  0.00  0.00     0.013 C 
ATOM     10  C3' I4B d   1       2.405  -0.386  -3.786  0.00  0.00     0.013 C 
ENDBRANCH   7   8
ENDBRANCH   1   7
TORSDOF 2
ENDMDL
