MODEL 1
REMARK minimizedAffinity 2.23675704
REMARK minimizedRMSD -1
REMARK  0 active torsions:
REMARK  status: ('A' for Active; 'I' for Inactive)
ROOT
ATOM      1  C   UNL d   1      -0.522  -1.744  -1.882  0.00  0.00     0.077 C 
ATOM      2  C1  UNL d   1       0.269  -0.549  -1.440  0.00  0.00    -0.074 A 
ATOM      3  C2  UNL d   1       0.959   0.239  -2.366  0.00  0.00    -0.005 A 
ATOM      4  C3  UNL d   1       1.683   1.353  -1.940  0.00  0.00     0.006 A 
ATOM      5  C4  UNL d   1       1.722   1.690  -0.587  0.00  0.00    -0.005 A 
ATOM      6  C5  UNL d   1       1.037   0.914   0.354  0.00  0.00    -0.074 A 
ATOM      7  C6  UNL d   1       1.061   1.268   1.811  0.00  0.00     0.077 C 
ATOM      8  C7  UNL d   1       0.307  -0.200  -0.082  0.00  0.00    -0.001 A 
ENDROOT
TORSDOF 0
ENDMDL
