MODEL 1
REMARK minimizedAffinity 6.47971201
REMARK minimizedRMSD -1
REMARK  0 active torsions:
REMARK  status: ('A' for Active; 'I' for Inactive)
ROOT
ATOM      1  C   UNL d   1      -0.625  -1.706  -1.583  0.00  0.00     0.077 C 
ATOM      2  C1  UNL d   1       0.201  -0.472  -1.377  0.00  0.00    -0.074 A 
ATOM      3  C2  UNL d   1       0.593   0.320  -2.460  0.00  0.00    -0.005 A 
ATOM      4  C3  UNL d   1       1.354   1.471  -2.252  0.00  0.00     0.006 A 
ATOM      5  C4  UNL d   1       1.730   1.840  -0.960  0.00  0.00    -0.005 A 
ATOM      6  C5  UNL d   1       1.347   1.060   0.136  0.00  0.00    -0.074 A 
ATOM      7  C6  UNL d   1       1.734   1.448   1.532  0.00  0.00     0.077 C 
ATOM      8  C7  UNL d   1       0.577  -0.090  -0.081  0.00  0.00    -0.001 A 
ENDROOT
TORSDOF 0
ENDMDL
