MODEL 1
REMARK minimizedAffinity 2.67415738
REMARK minimizedRMSD -1
REMARK  0 active torsions:
REMARK  status: ('A' for Active; 'I' for Inactive)
ROOT
ATOM      1  C   UNL d   1       2.173   3.626  -1.196  0.00  0.00     0.077 C 
ATOM      2  C1  UNL d   1       1.713   2.209  -1.025  0.00  0.00    -0.074 A 
ATOM      3  C2  UNL d   1       1.196   1.763   0.196  0.00  0.00    -0.005 A 
ATOM      4  C3  UNL d   1       0.763   0.444   0.337  0.00  0.00     0.006 A 
ATOM      5  C4  UNL d   1       0.843  -0.440  -0.740  0.00  0.00    -0.005 A 
ATOM      6  C5  UNL d   1       1.356  -0.012  -1.968  0.00  0.00    -0.074 A 
ATOM      7  C6  UNL d   1       1.439  -0.947  -3.138  0.00  0.00     0.077 C 
ATOM      8  C7  UNL d   1       1.782   1.316  -2.104  0.00  0.00    -0.001 A 
ENDROOT
TORSDOF 0
ENDMDL
