MODEL 1
REMARK minimizedAffinity 4.09698439
REMARK minimizedRMSD -1
REMARK  0 active torsions:
REMARK  status: ('A' for Active; 'I' for Inactive)
ROOT
ATOM      1  C   UNL d   1      -1.993   1.174   5.299  0.00  0.00     0.077 C 
ATOM      2  C1  UNL d   1      -2.854   1.332   4.081  0.00  0.00    -0.074 A 
ATOM      3  C2  UNL d   1      -3.984   0.530   3.890  0.00  0.00    -0.005 A 
ATOM      4  C3  UNL d   1      -4.781   0.695   2.757  0.00  0.00     0.006 A 
ATOM      5  C4  UNL d   1      -4.456   1.662   1.805  0.00  0.00    -0.005 A 
ATOM      6  C5  UNL d   1      -3.330   2.474   1.979  0.00  0.00    -0.074 A 
ATOM      7  C6  UNL d   1      -2.972   3.524   0.970  0.00  0.00     0.077 C 
ATOM      8  C7  UNL d   1      -2.539   2.306   3.124  0.00  0.00    -0.001 A 
ENDROOT
TORSDOF 0
ENDMDL
