MODEL 1
REMARK minimizedAffinity -0.29615134
REMARK minimizedRMSD -1
REMARK  0 active torsions:
REMARK  status: ('A' for Active; 'I' for Inactive)
ROOT
ATOM      1  C   UNL d   1       1.830   0.868   2.111  0.00  0.00     0.077 C 
ATOM      2  C1  UNL d   1       1.469   0.568   0.687  0.00  0.00    -0.074 A 
ATOM      3  C2  UNL d   1       1.141  -0.732   0.287  0.00  0.00    -0.005 A 
ATOM      4  C3  UNL d   1       0.798  -0.995  -1.039  0.00  0.00     0.006 A 
ATOM      5  C4  UNL d   1       0.780   0.038  -1.978  0.00  0.00    -0.005 A 
ATOM      6  C5  UNL d   1       1.104   1.343  -1.596  0.00  0.00    -0.074 A 
ATOM      7  C6  UNL d   1       1.080   2.466  -2.591  0.00  0.00     0.077 C 
ATOM      8  C7  UNL d   1       1.441   1.601  -0.260  0.00  0.00    -0.001 A 
ENDROOT
TORSDOF 0
ENDMDL
