MODEL 1
REMARK minimizedAffinity 0.228969276
REMARK minimizedRMSD -1
REMARK  0 active torsions:
REMARK  status: ('A' for Active; 'I' for Inactive)
ROOT
ATOM      1  C   UNL d   1       1.162   2.348   1.631  0.00  0.00     0.077 C 
ATOM      2  C1  UNL d   1       0.963   1.226   0.656  0.00  0.00    -0.074 A 
ATOM      3  C2  UNL d   1       0.406   1.460  -0.605  0.00  0.00    -0.005 A 
ATOM      4  C3  UNL d   1       0.236   0.408  -1.505  0.00  0.00     0.006 A 
ATOM      5  C4  UNL d   1       0.619  -0.887  -1.153  0.00  0.00    -0.005 A 
ATOM      6  C5  UNL d   1       1.178  -1.140   0.104  0.00  0.00    -0.074 A 
ATOM      7  C6  UNL d   1       1.605  -2.524   0.495  0.00  0.00     0.077 C 
ATOM      8  C7  UNL d   1       1.353  -0.076   1.000  0.00  0.00    -0.001 A 
ENDROOT
TORSDOF 0
ENDMDL
