MODEL 1
REMARK minimizedAffinity 2.7913847
REMARK minimizedRMSD -1
REMARK  0 active torsions:
REMARK  status: ('A' for Active; 'I' for Inactive)
ROOT
ATOM      1  C   UNL d   1       2.612   3.465   2.675  0.00  0.00     0.077 C 
ATOM      2  C1  UNL d   1       2.678   2.291   1.743  0.00  0.00    -0.074 A 
ATOM      3  C2  UNL d   1       3.873   1.590   1.554  0.00  0.00    -0.005 A 
ATOM      4  C3  UNL d   1       3.916   0.495   0.691  0.00  0.00     0.006 A 
ATOM      5  C4  UNL d   1       2.768   0.091   0.010  0.00  0.00    -0.005 A 
ATOM      6  C5  UNL d   1       1.563   0.780   0.187  0.00  0.00    -0.074 A 
ATOM      7  C6  UNL d   1       0.317   0.352  -0.530  0.00  0.00     0.077 C 
ATOM      8  C7  UNL d   1       1.526   1.875   1.061  0.00  0.00    -0.001 A 
ENDROOT
TORSDOF 0
ENDMDL
