MODEL 1
REMARK minimizedAffinity 4.96337748
REMARK minimizedRMSD -1
REMARK  0 active torsions:
REMARK  status: ('A' for Active; 'I' for Inactive)
ROOT
ATOM      1  C   UNL d   1       0.799   2.231  -2.954  0.00  0.00     0.077 C 
ATOM      2  C1  UNL d   1       0.910   1.308  -1.777  0.00  0.00    -0.074 A 
ATOM      3  C2  UNL d   1       0.873  -0.080  -1.946  0.00  0.00    -0.005 A 
ATOM      4  C3  UNL d   1       0.986  -0.926  -0.843  0.00  0.00     0.006 A 
ATOM      5  C4  UNL d   1       1.137  -0.393   0.438  0.00  0.00    -0.005 A 
ATOM      6  C5  UNL d   1       1.178   0.992   0.626  0.00  0.00    -0.074 A 
ATOM      7  C6  UNL d   1       1.350   1.580   1.995  0.00  0.00     0.077 C 
ATOM      8  C7  UNL d   1       1.070   1.835  -0.488  0.00  0.00    -0.001 A 
ENDROOT
TORSDOF 0
ENDMDL
