MODEL 1
REMARK minimizedAffinity 7.09533978
REMARK minimizedRMSD -1
REMARK  0 active torsions:
REMARK  status: ('A' for Active; 'I' for Inactive)
ROOT
ATOM      1  C   UNL d   1      -3.248   3.218  -0.985  0.00  0.00     0.077 C 
ATOM      2  C1  UNL d   1      -3.117   2.898   0.475  0.00  0.00    -0.074 A 
ATOM      3  C2  UNL d   1      -2.417   3.749   1.337  0.00  0.00    -0.005 A 
ATOM      4  C3  UNL d   1      -2.311   3.444   2.694  0.00  0.00     0.006 A 
ATOM      5  C4  UNL d   1      -2.903   2.287   3.202  0.00  0.00    -0.005 A 
ATOM      6  C5  UNL d   1      -3.608   1.425   2.355  0.00  0.00    -0.074 A 
ATOM      7  C6  UNL d   1      -4.259   0.182   2.887  0.00  0.00     0.077 C 
ATOM      8  C7  UNL d   1      -3.716   1.742   0.994  0.00  0.00    -0.001 A 
ENDROOT
TORSDOF 0
ENDMDL
