MODEL 1
REMARK minimizedAffinity 5.00079155
REMARK minimizedRMSD -1
REMARK  0 active torsions:
REMARK  status: ('A' for Active; 'I' for Inactive)
ROOT
ATOM      1  C   UNL d   1       0.360   2.390  -2.571  0.00  0.00     0.077 C 
ATOM      2  C1  UNL d   1       0.733   1.408  -1.501  0.00  0.00    -0.074 A 
ATOM      3  C2  UNL d   1       0.733   0.033  -1.756  0.00  0.00    -0.005 A 
ATOM      4  C3  UNL d   1       1.092  -0.869  -0.754  0.00  0.00     0.006 A 
ATOM      5  C4  UNL d   1       1.455  -0.405   0.511  0.00  0.00    -0.005 A 
ATOM      6  C5  UNL d   1       1.462   0.966   0.784  0.00  0.00    -0.074 A 
ATOM      7  C6  UNL d   1       1.858   1.482   2.136  0.00  0.00     0.077 C 
ATOM      8  C7  UNL d   1       1.106   1.866  -0.230  0.00  0.00    -0.001 A 
ENDROOT
TORSDOF 0
ENDMDL
