MODEL 1
REMARK minimizedAffinity -2.27146244
REMARK minimizedRMSD -1
REMARK  0 active torsions:
REMARK  status: ('A' for Active; 'I' for Inactive)
ROOT
ATOM      1  C   UNL d   1      -0.571  -3.330  -0.939  0.00  0.00     0.077 C 
ATOM      2  C1  UNL d   1       0.617  -2.421  -0.835  0.00  0.00    -0.074 A 
ATOM      3  C2  UNL d   1       1.819  -2.868  -0.275  0.00  0.00    -0.005 A 
ATOM      4  C3  UNL d   1       2.918  -2.014  -0.194  0.00  0.00     0.006 A 
ATOM      5  C4  UNL d   1       2.828  -0.705  -0.670  0.00  0.00    -0.005 A 
ATOM      6  C5  UNL d   1       1.635  -0.240  -1.234  0.00  0.00    -0.074 A 
ATOM      7  C6  UNL d   1       1.524   1.160  -1.759  0.00  0.00     0.077 C 
ATOM      8  C7  UNL d   1       0.537  -1.107  -1.318  0.00  0.00    -0.001 A 
ENDROOT
TORSDOF 0
ENDMDL
