MODEL 1
REMARK minimizedAffinity 3.71884012
REMARK minimizedRMSD -1
REMARK  0 active torsions:
REMARK  status: ('A' for Active; 'I' for Inactive)
ROOT
ATOM      1  C   UNL d   1       0.616   2.276  -2.862  0.00  0.00     0.077 C 
ATOM      2  C1  UNL d   1       0.917   1.353  -1.719  0.00  0.00    -0.074 A 
ATOM      3  C2  UNL d   1       0.919  -0.034  -1.896  0.00  0.00    -0.005 A 
ATOM      4  C3  UNL d   1       1.210  -0.880  -0.826  0.00  0.00     0.006 A 
ATOM      5  C4  UNL d   1       1.500  -0.348   0.431  0.00  0.00    -0.005 A 
ATOM      6  C5  UNL d   1       1.504   1.036   0.627  0.00  0.00    -0.074 A 
ATOM      7  C6  UNL d   1       1.824   1.625   1.969  0.00  0.00     0.077 C 
ATOM      8  C7  UNL d   1       1.217   1.880  -0.455  0.00  0.00    -0.001 A 
ENDROOT
TORSDOF 0
ENDMDL
