MODEL 1
REMARK minimizedAffinity 1.92302513
REMARK minimizedRMSD -1
REMARK  0 active torsions:
REMARK  status: ('A' for Active; 'I' for Inactive)
ROOT
ATOM      1  C   UNL d   1       0.554  -1.619  -1.223  0.00  0.00     0.077 C 
ATOM      2  C1  UNL d   1       1.057  -0.457  -0.419  0.00  0.00    -0.074 A 
ATOM      3  C2  UNL d   1       0.168   0.431   0.195  0.00  0.00    -0.005 A 
ATOM      4  C3  UNL d   1       0.651   1.502   0.947  0.00  0.00     0.006 A 
ATOM      5  C4  UNL d   1       2.025   1.694   1.094  0.00  0.00    -0.005 A 
ATOM      6  C5  UNL d   1       2.929   0.816   0.488  0.00  0.00    -0.074 A 
ATOM      7  C6  UNL d   1       4.410   1.003   0.644  0.00  0.00     0.077 C 
ATOM      8  C7  UNL d   1       2.436  -0.262  -0.261  0.00  0.00    -0.001 A 
ENDROOT
TORSDOF 0
ENDMDL
