MODEL 1
REMARK minimizedAffinity 4.79704714
REMARK minimizedRMSD -1
REMARK  0 active torsions:
REMARK  status: ('A' for Active; 'I' for Inactive)
ROOT
ATOM      1  C   UNL d   1       1.152   3.624   0.914  0.00  0.00     0.077 C 
ATOM      2  C1  UNL d   1       1.201   2.376   0.083  0.00  0.00    -0.074 A 
ATOM      3  C2  UNL d   1       1.316   2.444  -1.310  0.00  0.00    -0.005 A 
ATOM      4  C3  UNL d   1       1.370   1.275  -2.068  0.00  0.00     0.006 A 
ATOM      5  C4  UNL d   1       1.310   0.028  -1.444  0.00  0.00    -0.005 A 
ATOM      6  C5  UNL d   1       1.196  -0.059  -0.053  0.00  0.00    -0.074 A 
ATOM      7  C6  UNL d   1       1.140  -1.391   0.635  0.00  0.00     0.077 C 
ATOM      8  C7  UNL d   1       1.149   1.120   0.703  0.00  0.00    -0.001 A 
ENDROOT
TORSDOF 0
ENDMDL
