MODEL 1
REMARK minimizedAffinity -1.68589938
REMARK minimizedRMSD -1
REMARK  0 active torsions:
REMARK  status: ('A' for Active; 'I' for Inactive)
ROOT
ATOM      1  C   UNL d   1       0.147   0.668  -1.032  0.00  0.00     0.077 C 
ATOM      2  C1  UNL d   1       1.450   0.753  -0.294  0.00  0.00    -0.074 A 
ATOM      3  C2  UNL d   1       2.536  -0.050  -0.658  0.00  0.00    -0.005 A 
ATOM      4  C3  UNL d   1       3.745   0.047   0.031  0.00  0.00     0.006 A 
ATOM      5  C4  UNL d   1       3.880   0.945   1.090  0.00  0.00    -0.005 A 
ATOM      6  C5  UNL d   1       2.805   1.756   1.468  0.00  0.00    -0.074 A 
ATOM      7  C6  UNL d   1       2.936   2.734   2.598  0.00  0.00     0.077 C 
ATOM      8  C7  UNL d   1       1.596   1.658   0.766  0.00  0.00    -0.001 A 
ENDROOT
TORSDOF 0
ENDMDL
