MODEL 1
REMARK minimizedAffinity 2.73574829
REMARK minimizedRMSD -1
REMARK  0 active torsions:
REMARK  status: ('A' for Active; 'I' for Inactive)
ROOT
ATOM      1  C   UNL d   1       0.535   2.843   1.455  0.00  0.00     0.077 C 
ATOM      2  C1  UNL d   1       0.879   1.649   0.615  0.00  0.00    -0.074 A 
ATOM      3  C2  UNL d   1       0.126   1.327  -0.518  0.00  0.00    -0.005 A 
ATOM      4  C3  UNL d   1       0.463   0.219  -1.295  0.00  0.00     0.006 A 
ATOM      5  C4  UNL d   1       1.556  -0.577  -0.947  0.00  0.00    -0.005 A 
ATOM      6  C5  UNL d   1       2.321  -0.269   0.183  0.00  0.00    -0.074 A 
ATOM      7  C6  UNL d   1       3.504  -1.108   0.565  0.00  0.00     0.077 C 
ATOM      8  C7  UNL d   1       1.979   0.850   0.954  0.00  0.00    -0.001 A 
ENDROOT
TORSDOF 0
ENDMDL
