MODEL 1
REMARK minimizedAffinity 6.69053268
REMARK minimizedRMSD -1
REMARK  0 active torsions:
REMARK  status: ('A' for Active; 'I' for Inactive)
ROOT
ATOM      1  C   UNL d   1       1.228   0.250   1.871  0.00  0.00     0.077 C 
ATOM      2  C1  UNL d   1       1.143   0.540   0.402  0.00  0.00    -0.074 A 
ATOM      3  C2  UNL d   1       0.820  -0.467  -0.512  0.00  0.00    -0.005 A 
ATOM      4  C3  UNL d   1       0.735  -0.180  -1.875  0.00  0.00     0.006 A 
ATOM      5  C4  UNL d   1       0.973   1.115  -2.336  0.00  0.00    -0.005 A 
ATOM      6  C5  UNL d   1       1.296   2.136  -1.436  0.00  0.00    -0.074 A 
ATOM      7  C6  UNL d   1       1.545   3.536  -1.914  0.00  0.00     0.077 C 
ATOM      8  C7  UNL d   1       1.373   1.841  -0.068  0.00  0.00    -0.001 A 
ENDROOT
TORSDOF 0
ENDMDL
