MODEL 1
REMARK minimizedAffinity 8.92719936
REMARK minimizedRMSD -1
REMARK  2 active torsions:
REMARK  status: ('A' for Active; 'I' for Inactive)
REMARK    1  A    between atoms: C2'_3  and  C1'_4 
REMARK    2  A    between atoms: C1'_4  and  C1_5 
ROOT
ATOM      1  C1  I4B d   1       0.992  -1.972   1.848  0.00  0.00    -0.075 A 
ATOM      2  C2  I4B d   1       0.756  -3.269   2.232  0.00  0.00     0.003 A 
ATOM      3  C3  I4B d   1       1.354  -3.784   3.408  0.00  0.00     0.002 A 
ATOM      4  C4  I4B d   1       2.215  -2.990   4.136  0.00  0.00    -0.004 A 
ATOM      5  C5  I4B d   1       2.436  -1.669   3.758  0.00  0.00     0.002 A 
ATOM      6  C6  I4B d   1       1.811  -1.152   2.614  0.00  0.00     0.003 A 
ENDROOT
BRANCH   1   7
ATOM      7  C1' I4B d   1       0.371  -1.470   0.584  0.00  0.00     0.060 C 
BRANCH   7   8
ATOM      8  C2' I4B d   1      -0.443  -2.599  -0.016  0.00  0.00    -0.013 C 
ATOM      9  C4' I4B d   1      -1.818  -2.129  -0.411  0.00  0.00     0.013 C 
ATOM     10  C3' I4B d   1       0.307  -3.132  -1.200  0.00  0.00     0.013 C 
ENDBRANCH   7   8
ENDBRANCH   1   7
TORSDOF 2
ENDMDL
