MODEL 1
REMARK minimizedAffinity -0.0198887642
REMARK minimizedRMSD -1
REMARK  2 active torsions:
REMARK  status: ('A' for Active; 'I' for Inactive)
REMARK    1  A    between atoms: C2'_3  and  C1'_4 
REMARK    2  A    between atoms: C1'_4  and  C1_5 
ROOT
ATOM      1  C1  I4B d   1       1.429  -0.492   1.823  0.00  0.00    -0.075 A 
ATOM      2  C2  I4B d   1       1.587   0.312   0.722  0.00  0.00     0.003 A 
ATOM      3  C3  I4B d   1       2.203   1.581   0.848  0.00  0.00     0.002 A 
ATOM      4  C4  I4B d   1       2.598   2.023   2.094  0.00  0.00    -0.004 A 
ATOM      5  C5  I4B d   1       2.459   1.197   3.205  0.00  0.00     0.002 A 
ATOM      6  C6  I4B d   1       1.882  -0.074   3.068  0.00  0.00     0.003 A 
ENDROOT
BRANCH   1   7
ATOM      7  C1' I4B d   1       0.745  -1.812   1.660  0.00  0.00     0.060 C 
BRANCH   7   8
ATOM      8  C2' I4B d   1       0.413  -1.987   0.192  0.00  0.00    -0.013 C 
ATOM      9  C4' I4B d   1       0.999  -3.264  -0.351  0.00  0.00     0.013 C 
ATOM     10  C3' I4B d   1      -1.080  -1.973   0.050  0.00  0.00     0.013 C 
ENDBRANCH   7   8
ENDBRANCH   1   7
TORSDOF 2
ENDMDL
