MODEL 1
REMARK minimizedAffinity 0.882240593
REMARK minimizedRMSD -1
REMARK  2 active torsions:
REMARK  status: ('A' for Active; 'I' for Inactive)
REMARK    1  A    between atoms: C2'_3  and  C1'_4 
REMARK    2  A    between atoms: C1'_4  and  C1_5 
ROOT
ATOM      1  C1  I4B d   1       1.919   0.773   1.345  0.00  0.00    -0.075 A 
ATOM      2  C2  I4B d   1       2.491   1.951   1.756  0.00  0.00     0.003 A 
ATOM      3  C3  I4B d   1       3.000   2.075   3.072  0.00  0.00     0.002 A 
ATOM      4  C4  I4B d   1       2.871   1.021   3.953  0.00  0.00    -0.004 A 
ATOM      5  C5  I4B d   1       2.311  -0.180   3.527  0.00  0.00     0.002 A 
ATOM      6  C6  I4B d   1       1.843  -0.310   2.211  0.00  0.00     0.003 A 
ENDROOT
BRANCH   1   7
ATOM      7  C1' I4B d   1       1.363   0.688  -0.041  0.00  0.00     0.060 C 
BRANCH   7   8
ATOM      8  C2' I4B d   1       0.433   1.866  -0.244  0.00  0.00    -0.013 C 
ATOM      9  C4' I4B d   1       0.762   2.608  -1.513  0.00  0.00     0.013 C 
ATOM     10  C3' I4B d   1      -0.974   1.347  -0.270  0.00  0.00     0.013 C 
ENDBRANCH   7   8
ENDBRANCH   1   7
TORSDOF 2
ENDMDL
