MODEL 1
REMARK minimizedAffinity -2.0534904
REMARK minimizedRMSD -1
REMARK  2 active torsions:
REMARK  status: ('A' for Active; 'I' for Inactive)
REMARK    1  A    between atoms: C2'_3  and  C1'_4 
REMARK    2  A    between atoms: C1'_4  and  C1_5 
ROOT
ATOM      1  C1  I4B d   1       1.081  -0.767   1.204  0.00  0.00    -0.075 A 
ATOM      2  C2  I4B d   1       2.196  -0.552   1.974  0.00  0.00     0.003 A 
ATOM      3  C3  I4B d   1       2.917   0.661   1.861  0.00  0.00     0.002 A 
ATOM      4  C4  I4B d   1       2.519   1.605   0.936  0.00  0.00    -0.004 A 
ATOM      5  C5  I4B d   1       1.374   1.395   0.172  0.00  0.00     0.002 A 
ATOM      6  C6  I4B d   1       0.643   0.207   0.315  0.00  0.00     0.003 A 
ENDROOT
BRANCH   1   7
ATOM      7  C1' I4B d   1       0.362  -2.074   1.325  0.00  0.00     0.060 C 
BRANCH   7   8
ATOM      8  C2' I4B d   1      -0.360  -2.332   0.018  0.00  0.00    -0.013 C 
ATOM      9  C4' I4B d   1       0.298  -3.440  -0.760  0.00  0.00     0.013 C 
ATOM     10  C3' I4B d   1      -1.787  -2.667   0.337  0.00  0.00     0.013 C 
ENDBRANCH   7   8
ENDBRANCH   1   7
TORSDOF 2
ENDMDL
