MODEL 1
REMARK minimizedAffinity 0.255188167
REMARK minimizedRMSD -1
REMARK  0 active torsions:
REMARK  status: ('A' for Active; 'I' for Inactive)
ROOT
ATOM      1  O1  BZF d   1      -0.904   2.129   2.896  0.00  0.00    -0.204 OA
ATOM      2  C2  BZF d   1      -1.775   2.779   2.043  0.00  0.00     0.174 A 
ATOM      3  C3  BZF d   1      -1.890   2.112   0.877  0.00  0.00    -0.012 A 
ATOM      4  C3A BZF d   1      -1.109   0.925   1.043  0.00  0.00    -0.107 A 
ATOM      5  C4  BZF d   1      -0.843  -0.145   0.237  0.00  0.00     0.055 A 
ATOM      6  C5  BZF d   1       0.018  -1.102   0.672  0.00  0.00    -0.016 A 
ATOM      7  C6  BZF d   1       0.635  -1.018   1.903  0.00  0.00     0.022 A 
ATOM      8  C7  BZF d   1       0.398   0.022   2.740  0.00  0.00     0.029 A 
ATOM      9  C7A BZF d   1      -0.497   0.974   2.317  0.00  0.00     0.058 A 
ENDROOT
TORSDOF 0
ENDMDL
