MODEL 1
REMARK minimizedAffinity -3.85697055
REMARK minimizedRMSD -1
REMARK  0 active torsions:
REMARK  status: ('A' for Active; 'I' for Inactive)
ROOT
ATOM      1  O1  BZF d   1       0.500  -0.091   1.681  0.00  0.00    -0.204 OA
ATOM      2  C2  BZF d   1       0.904  -0.683   0.500  0.00  0.00     0.174 A 
ATOM      3  C3  BZF d   1       0.386  -0.032  -0.562  0.00  0.00    -0.012 A 
ATOM      4  C3A BZF d   1      -0.314   1.088  -0.013  0.00  0.00    -0.107 A 
ATOM      5  C4  BZF d   1      -1.024   2.115  -0.566  0.00  0.00     0.055 A 
ATOM      6  C5  BZF d   1      -1.645   3.005   0.252  0.00  0.00    -0.016 A 
ATOM      7  C6  BZF d   1      -1.583   2.894   1.626  0.00  0.00     0.022 A 
ATOM      8  C7  BZF d   1      -0.887   1.895   2.221  0.00  0.00     0.029 A 
ATOM      9  C7A BZF d   1      -0.230   1.014   1.397  0.00  0.00     0.058 A 
ENDROOT
TORSDOF 0
ENDMDL
