MODEL 1
REMARK minimizedAffinity 0.732781887
REMARK minimizedRMSD -1
REMARK  0 active torsions:
REMARK  status: ('A' for Active; 'I' for Inactive)
ROOT
ATOM      1  O1  BZF d   1      -0.110  -0.704   0.625  0.00  0.00    -0.204 OA
ATOM      2  C2  BZF d   1       0.334  -0.998   1.899  0.00  0.00     0.174 A 
ATOM      3  C3  BZF d   1       0.101   0.034   2.736  0.00  0.00    -0.012 A 
ATOM      4  C3A BZF d   1      -0.611   0.999   1.956  0.00  0.00    -0.107 A 
ATOM      5  C4  BZF d   1      -1.134   2.229   2.233  0.00  0.00     0.055 A 
ATOM      6  C5  BZF d   1      -1.706   2.945   1.229  0.00  0.00    -0.016 A 
ATOM      7  C6  BZF d   1      -1.766   2.464  -0.063  0.00  0.00     0.022 A 
ATOM      8  C7  BZF d   1      -1.265   1.247  -0.385  0.00  0.00     0.029 A 
ATOM      9  C7A BZF d   1      -0.717   0.507   0.634  0.00  0.00     0.058 A 
ENDROOT
TORSDOF 0
ENDMDL
