MODEL 1
REMARK minimizedAffinity 7.14879274
REMARK minimizedRMSD -1
REMARK  0 active torsions:
REMARK  status: ('A' for Active; 'I' for Inactive)
ROOT
ATOM      1  O1  BZF d   1      -1.954   2.899   1.927  0.00  0.00    -0.204 OA
ATOM      2  C2  BZF d   1      -0.795   3.282   2.575  0.00  0.00     0.174 A 
ATOM      3  C3  BZF d   1       0.291   2.951   1.847  0.00  0.00    -0.012 A 
ATOM      4  C3A BZF d   1      -0.224   2.406   0.628  0.00  0.00    -0.107 A 
ATOM      5  C4  BZF d   1       0.363   1.913  -0.502  0.00  0.00     0.055 A 
ATOM      6  C5  BZF d   1      -0.423   1.389  -1.479  0.00  0.00    -0.016 A 
ATOM      7  C6  BZF d   1      -1.796   1.338  -1.358  0.00  0.00     0.022 A 
ATOM      8  C7  BZF d   1      -2.424   1.819  -0.257  0.00  0.00     0.029 A 
ATOM      9  C7A BZF d   1      -1.635   2.379   0.718  0.00  0.00     0.058 A 
ENDROOT
TORSDOF 0
ENDMDL
