MODEL 1
REMARK minimizedAffinity -4.94982672
REMARK minimizedRMSD -1
REMARK  0 active torsions:
REMARK  status: ('A' for Active; 'I' for Inactive)
ROOT
ATOM      1  O1  BZF d   1      -1.421   0.977   2.560  0.00  0.00    -0.204 OA
ATOM      2  C2  BZF d   1      -2.174   1.963   1.953  0.00  0.00     0.174 A 
ATOM      3  C3  BZF d   1      -2.010   1.934   0.614  0.00  0.00    -0.012 A 
ATOM      4  C3A BZF d   1      -1.170   0.804   0.362  0.00  0.00    -0.107 A 
ATOM      5  C4  BZF d   1      -0.665   0.245  -0.777  0.00  0.00     0.055 A 
ATOM      6  C5  BZF d   1       0.183  -0.812  -0.674  0.00  0.00    -0.016 A 
ATOM      7  C6  BZF d   1       0.550  -1.332   0.550  0.00  0.00     0.022 A 
ATOM      8  C7  BZF d   1       0.071  -0.814   1.707  0.00  0.00     0.029 A 
ATOM      9  C7A BZF d   1      -0.812   0.233   1.605  0.00  0.00     0.058 A 
ENDROOT
TORSDOF 0
ENDMDL
