MODEL 1
REMARK minimizedAffinity -3.026366
REMARK minimizedRMSD -1
REMARK  0 active torsions:
REMARK  status: ('A' for Active; 'I' for Inactive)
ROOT
ATOM      1  O1  BZF d   1      -0.800  -2.860  -0.692  0.00  0.00    -0.204 OA
ATOM      2  C2  BZF d   1       0.302  -3.110  -1.486  0.00  0.00     0.174 A 
ATOM      3  C3  BZF d   1       1.008  -1.981  -1.695  0.00  0.00    -0.012 A 
ATOM      4  C3A BZF d   1       0.355  -0.978  -0.911  0.00  0.00    -0.107 A 
ATOM      5  C4  BZF d   1       0.596   0.348  -0.693  0.00  0.00     0.055 A 
ATOM      6  C5  BZF d   1      -0.274   1.061   0.069  0.00  0.00    -0.016 A 
ATOM      7  C6  BZF d   1      -1.398   0.482   0.623  0.00  0.00     0.022 A 
ATOM      8  C7  BZF d   1      -1.677  -0.831   0.438  0.00  0.00     0.029 A 
ATOM      9  C7A BZF d   1      -0.781  -1.562  -0.304  0.00  0.00     0.058 A 
ENDROOT
TORSDOF 0
ENDMDL
