MODEL 1
REMARK minimizedAffinity -4.50284767
REMARK minimizedRMSD -1
REMARK  0 active torsions:
REMARK  status: ('A' for Active; 'I' for Inactive)
ROOT
ATOM      1  O1  BZF d   1      -1.282   1.225   2.742  0.00  0.00    -0.204 OA
ATOM      2  C2  BZF d   1      -1.927   2.173   1.972  0.00  0.00     0.174 A 
ATOM      3  C3  BZF d   1      -1.695   1.963   0.660  0.00  0.00    -0.012 A 
ATOM      4  C3A BZF d   1      -0.928   0.756   0.602  0.00  0.00    -0.107 A 
ATOM      5  C4  BZF d   1      -0.406   0.024  -0.425  0.00  0.00     0.055 A 
ATOM      6  C5  BZF d   1       0.355  -1.065  -0.140  0.00  0.00    -0.016 A 
ATOM      7  C6  BZF d   1       0.618  -1.447   1.159  0.00  0.00     0.022 A 
ATOM      8  C7  BZF d   1       0.118  -0.755   2.212  0.00  0.00     0.029 A 
ATOM      9  C7A BZF d   1      -0.679   0.327   1.926  0.00  0.00     0.058 A 
ENDROOT
TORSDOF 0
ENDMDL
