MODEL 1
REMARK minimizedAffinity -3.79322243
REMARK minimizedRMSD -1
REMARK  0 active torsions:
REMARK  status: ('A' for Active; 'I' for Inactive)
ROOT
ATOM      1  O1  BZF d   1       0.178  -0.280  -0.640  0.00  0.00    -0.204 OA
ATOM      2  C2  BZF d   1       0.737  -1.191   0.234  0.00  0.00     0.174 A 
ATOM      3  C3  BZF d   1       0.465  -0.857   1.512  0.00  0.00    -0.012 A 
ATOM      4  C3A BZF d   1      -0.390   0.287   1.428  0.00  0.00    -0.107 A 
ATOM      5  C4  BZF d   1      -1.009   1.067   2.362  0.00  0.00     0.055 A 
ATOM      6  C5  BZF d   1      -1.716   2.153   1.953  0.00  0.00    -0.016 A 
ATOM      7  C6  BZF d   1      -1.821   2.490   0.619  0.00  0.00     0.022 A 
ATOM      8  C7  BZF d   1      -1.229   1.744  -0.345  0.00  0.00     0.029 A 
ATOM      9  C7A BZF d   1      -0.541   0.627   0.064  0.00  0.00     0.058 A 
ENDROOT
TORSDOF 0
ENDMDL
