MODEL 1
REMARK minimizedAffinity -2.00657153
REMARK minimizedRMSD -1
REMARK  0 active torsions:
REMARK  status: ('A' for Active; 'I' for Inactive)
ROOT
ATOM      1  O1  BZF d   1      -0.320   0.097  -1.214  0.00  0.00    -0.204 OA
ATOM      2  C2  BZF d   1       0.518  -0.992  -1.072  0.00  0.00     0.174 A 
ATOM      3  C3  BZF d   1       0.833  -1.187   0.224  0.00  0.00    -0.012 A 
ATOM      4  C3A BZF d   1       0.075  -0.213   0.947  0.00  0.00    -0.107 A 
ATOM      5  C4  BZF d   1      -0.051   0.084   2.274  0.00  0.00     0.055 A 
ATOM      6  C5  BZF d   1      -0.817   1.144   2.644  0.00  0.00    -0.016 A 
ATOM      7  C6  BZF d   1      -1.466   1.931   1.715  0.00  0.00     0.022 A 
ATOM      8  C7  BZF d   1      -1.375   1.672   0.387  0.00  0.00     0.029 A 
ATOM      9  C7A BZF d   1      -0.629   0.582   0.012  0.00  0.00     0.058 A 
ENDROOT
TORSDOF 0
ENDMDL
