MODEL 1
REMARK minimizedAffinity -5.35463047
REMARK minimizedRMSD -1
REMARK  0 active torsions:
REMARK  status: ('A' for Active; 'I' for Inactive)
ROOT
ATOM      1  O1  BZF d   1       1.111  -1.182   0.708  0.00  0.00    -0.204 OA
ATOM      2  C2  BZF d   1       0.867  -1.012  -0.641  0.00  0.00     0.174 A 
ATOM      3  C3  BZF d   1      -0.093  -0.086  -0.841  0.00  0.00    -0.012 A 
ATOM      4  C3A BZF d   1      -0.407   0.417   0.460  0.00  0.00    -0.107 A 
ATOM      5  C4  BZF d   1      -1.275   1.369   0.914  0.00  0.00     0.055 A 
ATOM      6  C5  BZF d   1      -1.394   1.569   2.253  0.00  0.00    -0.016 A 
ATOM      7  C6  BZF d   1      -0.665   0.834   3.165  0.00  0.00     0.022 A 
ATOM      8  C7  BZF d   1       0.213  -0.117   2.762  0.00  0.00     0.029 A 
ATOM      9  C7A BZF d   1       0.359  -0.299   1.409  0.00  0.00     0.058 A 
ENDROOT
TORSDOF 0
ENDMDL
