MODEL 1
REMARK minimizedAffinity -4.78867865
REMARK minimizedRMSD -1
REMARK  0 active torsions:
REMARK  status: ('A' for Active; 'I' for Inactive)
ROOT
ATOM      1  O1  BZF d   1      -0.030   0.132  -1.179  0.00  0.00    -0.204 OA
ATOM      2  C2  BZF d   1       0.756  -0.992  -1.016  0.00  0.00     0.174 A 
ATOM      3  C3  BZF d   1       0.834  -1.336   0.286  0.00  0.00    -0.012 A 
ATOM      4  C3A BZF d   1      -0.028  -0.421   0.969  0.00  0.00    -0.107 A 
ATOM      5  C4  BZF d   1      -0.383  -0.265   2.279  0.00  0.00     0.055 A 
ATOM      6  C5  BZF d   1      -1.189   0.773   2.625  0.00  0.00    -0.016 A 
ATOM      7  C6  BZF d   1      -1.653   1.675   1.691  0.00  0.00     0.022 A 
ATOM      8  C7  BZF d   1      -1.333   1.558   0.379  0.00  0.00     0.029 A 
ATOM      9  C7A BZF d   1      -0.545   0.492   0.021  0.00  0.00     0.058 A 
ENDROOT
TORSDOF 0
ENDMDL
