MODEL 1
REMARK minimizedAffinity -4.6300807
REMARK minimizedRMSD -1
REMARK  0 active torsions:
REMARK  status: ('A' for Active; 'I' for Inactive)
ROOT
ATOM      1  O1  BZF d   1       1.249  -5.790  -1.393  0.00  0.00    -0.204 OA
ATOM      2  C2  BZF d   1       2.130  -5.932  -0.338  0.00  0.00     0.174 A 
ATOM      3  C3  BZF d   1       2.527  -4.727   0.119  0.00  0.00    -0.012 A 
ATOM      4  C3A BZF d   1       1.781  -3.771  -0.641  0.00  0.00    -0.107 A 
ATOM      5  C4  BZF d   1       1.724  -2.407  -0.637  0.00  0.00     0.055 A 
ATOM      6  C5  BZF d   1       0.946  -1.776  -1.556  0.00  0.00    -0.016 A 
ATOM      7  C6  BZF d   1       0.218  -2.476  -2.495  0.00  0.00     0.022 A 
ATOM      8  C7  BZF d   1       0.238  -3.831  -2.534  0.00  0.00     0.029 A 
ATOM      9  C7A BZF d   1       0.997  -4.473  -1.586  0.00  0.00     0.058 A 
ENDROOT
TORSDOF 0
ENDMDL
