MODEL 1
REMARK minimizedAffinity -5.40523005
REMARK minimizedRMSD -1
REMARK  0 active torsions:
REMARK  status: ('A' for Active; 'I' for Inactive)
ROOT
ATOM      1  O1  BZF d   1      -1.892   1.746   2.431  0.00  0.00    -0.204 OA
ATOM      2  C2  BZF d   1      -2.304   2.704   1.526  0.00  0.00     0.174 A 
ATOM      3  C3  BZF d   1      -1.792   2.458   0.303  0.00  0.00    -0.012 A 
ATOM      4  C3A BZF d   1      -1.086   1.221   0.432  0.00  0.00    -0.107 A 
ATOM      5  C4  BZF d   1      -0.378   0.448  -0.443  0.00  0.00     0.055 A 
ATOM      6  C5  BZF d   1       0.250  -0.666   0.018  0.00  0.00    -0.016 A 
ATOM      7  C6  BZF d   1       0.196  -1.032   1.346  0.00  0.00     0.022 A 
ATOM      8  C7  BZF d   1      -0.498  -0.300   2.251  0.00  0.00     0.029 A 
ATOM      9  C7A BZF d   1      -1.161   0.808   1.782  0.00  0.00     0.058 A 
ENDROOT
TORSDOF 0
ENDMDL
