MODEL 1
REMARK minimizedAffinity -5.25550318
REMARK minimizedRMSD -1
REMARK  0 active torsions:
REMARK  status: ('A' for Active; 'I' for Inactive)
ROOT
ATOM      1  O1  BZF d   1       0.367  -0.982   1.147  0.00  0.00    -0.204 OA
ATOM      2  C2  BZF d   1      -0.151  -1.338   2.377  0.00  0.00     0.174 A 
ATOM      3  C3  BZF d   1      -1.048  -0.425   2.802  0.00  0.00    -0.012 A 
ATOM      4  C3A BZF d   1      -1.162   0.517   1.731  0.00  0.00    -0.107 A 
ATOM      5  C4  BZF d   1      -1.909   1.646   1.548  0.00  0.00     0.055 A 
ATOM      6  C5  BZF d   1      -1.731   2.380   0.418  0.00  0.00    -0.016 A 
ATOM      7  C6  BZF d   1      -0.813   2.018  -0.546  0.00  0.00     0.022 A 
ATOM      8  C7  BZF d   1      -0.052   0.904  -0.411  0.00  0.00     0.029 A 
ATOM      9  C7A BZF d   1      -0.253   0.143   0.714  0.00  0.00     0.058 A 
ENDROOT
TORSDOF 0
ENDMDL
