MODEL 1
REMARK minimizedAffinity -5.70606661
REMARK minimizedRMSD -1
REMARK  0 active torsions:
REMARK  status: ('A' for Active; 'I' for Inactive)
ROOT
ATOM      1  O1  BZF d   1       0.191   0.010  -1.344  0.00  0.00    -0.204 OA
ATOM      2  C2  BZF d   1       1.003  -1.093  -1.163  0.00  0.00     0.174 A 
ATOM      3  C3  BZF d   1       1.016  -1.470   0.132  0.00  0.00    -0.012 A 
ATOM      4  C3A BZF d   1       0.086  -0.600   0.786  0.00  0.00    -0.107 A 
ATOM      5  C4  BZF d   1      -0.349  -0.491   2.076  0.00  0.00     0.055 A 
ATOM      6  C5  BZF d   1      -1.207   0.512   2.401  0.00  0.00    -0.016 A 
ATOM      7  C6  BZF d   1      -1.645   1.424   1.463  0.00  0.00     0.022 A 
ATOM      8  C7  BZF d   1      -1.245   1.353   0.170  0.00  0.00     0.029 A 
ATOM      9  C7A BZF d   1      -0.404   0.321  -0.168  0.00  0.00     0.058 A 
ENDROOT
TORSDOF 0
ENDMDL
