MODEL 1
REMARK minimizedAffinity -4.92440605
REMARK minimizedRMSD -1
REMARK  0 active torsions:
REMARK  status: ('A' for Active; 'I' for Inactive)
ROOT
ATOM      1  O1  BZF d   1       0.296   0.040  -0.919  0.00  0.00    -0.204 OA
ATOM      2  C2  BZF d   1       0.856  -1.136  -0.459  0.00  0.00     0.174 A 
ATOM      3  C3  BZF d   1       0.579  -1.319   0.848  0.00  0.00    -0.012 A 
ATOM      4  C3A BZF d   1      -0.279  -0.232   1.206  0.00  0.00    -0.107 A 
ATOM      5  C4  BZF d   1      -0.903   0.129   2.366  0.00  0.00     0.055 A 
ATOM      6  C5  BZF d   1      -1.613   1.287   2.402  0.00  0.00    -0.016 A 
ATOM      7  C6  BZF d   1      -1.715   2.110   1.300  0.00  0.00     0.022 A 
ATOM      8  C7  BZF d   1      -1.118   1.792   0.125  0.00  0.00     0.029 A 
ATOM      9  C7A BZF d   1      -0.428   0.606   0.077  0.00  0.00     0.058 A 
ENDROOT
TORSDOF 0
ENDMDL
