MODEL 1
REMARK minimizedAffinity -1.46207917
REMARK minimizedRMSD -1
REMARK  0 active torsions:
REMARK  status: ('A' for Active; 'I' for Inactive)
ROOT
ATOM      1  O1  BZF d   1       0.222  -0.325  -1.990  0.00  0.00    -0.204 OA
ATOM      2  C2  BZF d   1       0.637   0.205  -0.783  0.00  0.00     0.174 A 
ATOM      3  C3  BZF d   1       1.144  -0.759   0.013  0.00  0.00    -0.012 A 
ATOM      4  C3A BZF d   1       1.124  -1.950  -0.779  0.00  0.00    -0.107 A 
ATOM      5  C4  BZF d   1       1.515  -3.238  -0.547  0.00  0.00     0.055 A 
ATOM      6  C5  BZF d   1       1.293  -4.178  -1.503  0.00  0.00    -0.016 A 
ATOM      7  C6  BZF d   1       0.678  -3.867  -2.698  0.00  0.00     0.022 A 
ATOM      8  C7  BZF d   1       0.278  -2.602  -2.976  0.00  0.00     0.029 A 
ATOM      9  C7A BZF d   1       0.531  -1.644  -2.025  0.00  0.00     0.058 A 
ENDROOT
TORSDOF 0
ENDMDL
