MODEL 1
REMARK minimizedAffinity 11.8294945
REMARK minimizedRMSD -1
REMARK  1 active torsions:
REMARK  status: ('A' for Active; 'I' for Inactive)
REMARK    1  A    between atoms: C1_2  and  C2_3 
ROOT
ATOM      1  C2  UNL d   1      -3.558   1.607  -1.300  0.00  0.00    -0.073 A 
ATOM      2  C3  UNL d   1      -2.855   1.157  -0.176  0.00  0.00    -0.002 A 
ATOM      3  C4  UNL d   1      -3.160   1.656   1.091  0.00  0.00     0.004 A 
ATOM      4  C5  UNL d   1      -4.173   2.602   1.249  0.00  0.00    -0.004 A 
ATOM      5  C6  UNL d   1      -4.894   3.054   0.139  0.00  0.00    -0.075 A 
ATOM      6  C7  UNL d   1      -5.985   4.073   0.292  0.00  0.00     0.076 C 
ATOM      7  C8  UNL d   1      -4.581   2.551  -1.130  0.00  0.00     0.001 A 
ENDROOT
BRANCH   1   8
ATOM      8  C1  UNL d   1      -3.237   1.067  -2.670  0.00  0.00     0.053 C 
ATOM      9  C   UNL d   1      -4.440   1.116  -3.598  0.00  0.00     0.018 C 
ENDBRANCH   1   8
TORSDOF 1
ENDMDL
