MODEL 1
REMARK minimizedAffinity 17.121624
REMARK minimizedRMSD -1
REMARK  1 active torsions:
REMARK  status: ('A' for Active; 'I' for Inactive)
REMARK    1  A    between atoms: C1_2  and  C2_3 
ROOT
ATOM      1  C2  UNL d   1      -4.666  -0.872  -3.372  0.00  0.00    -0.073 A 
ATOM      2  C3  UNL d   1      -3.644  -0.652  -2.442  0.00  0.00    -0.002 A 
ATOM      3  C4  UNL d   1      -3.069   0.613  -2.313  0.00  0.00     0.004 A 
ATOM      4  C5  UNL d   1      -3.515   1.671  -3.105  0.00  0.00    -0.004 A 
ATOM      5  C6  UNL d   1      -4.543   1.473  -4.032  0.00  0.00    -0.075 A 
ATOM      6  C7  UNL d   1      -5.033   2.600  -4.894  0.00  0.00     0.076 C 
ATOM      7  C8  UNL d   1      -5.113   0.199  -4.158  0.00  0.00     0.001 A 
ENDROOT
BRANCH   1   8
ATOM      8  C1  UNL d   1      -5.294  -2.235  -3.510  0.00  0.00     0.053 C 
ATOM      9  C   UNL d   1      -4.930  -2.899  -4.829  0.00  0.00     0.018 C 
ENDBRANCH   1   8
TORSDOF 1
ENDMDL
