MODEL 1
REMARK minimizedAffinity -1.20968878
REMARK minimizedRMSD -1
REMARK  1 active torsions:
REMARK  status: ('A' for Active; 'I' for Inactive)
REMARK    1  A    between atoms: C1_2  and  C2_3 
ROOT
ATOM      1  C2  UNL d   1       2.418  -2.265   3.372  0.00  0.00    -0.073 A 
ATOM      2  C3  UNL d   1       3.709  -2.468   3.871  0.00  0.00    -0.002 A 
ATOM      3  C4  UNL d   1       3.904  -3.177   5.056  0.00  0.00     0.004 A 
ATOM      4  C5  UNL d   1       2.811  -3.696   5.751  0.00  0.00    -0.004 A 
ATOM      5  C6  UNL d   1       1.514  -3.514   5.262  0.00  0.00    -0.075 A 
ATOM      6  C7  UNL d   1       0.328  -4.064   5.999  0.00  0.00     0.076 C 
ATOM      7  C8  UNL d   1       1.326  -2.798   4.072  0.00  0.00     0.001 A 
ENDROOT
BRANCH   1   8
ATOM      8  C1  UNL d   1       2.203  -1.505   2.088  0.00  0.00     0.053 C 
ATOM      9  C   UNL d   1       0.729  -1.257   1.812  0.00  0.00     0.018 C 
ENDBRANCH   1   8
TORSDOF 1
ENDMDL
