MODEL 1
REMARK minimizedAffinity 13.6089993
REMARK minimizedRMSD -1
REMARK  1 active torsions:
REMARK  status: ('A' for Active; 'I' for Inactive)
REMARK    1  A    between atoms: C1_2  and  C2_3 
ROOT
ATOM      1  C2  UNL d   1       1.554  -0.601   1.561  0.00  0.00    -0.073 A 
ATOM      2  C3  UNL d   1       2.132  -0.468   0.293  0.00  0.00    -0.002 A 
ATOM      3  C4  UNL d   1       2.792   0.709  -0.061  0.00  0.00     0.004 A 
ATOM      4  C5  UNL d   1       2.887   1.762   0.849  0.00  0.00    -0.004 A 
ATOM      5  C6  UNL d   1       2.326   1.643   2.125  0.00  0.00    -0.075 A 
ATOM      6  C7  UNL d   1       2.418   2.767   3.115  0.00  0.00     0.076 C 
ATOM      7  C8  UNL d   1       1.663   0.459   2.472  0.00  0.00     0.001 A 
ENDROOT
BRANCH   1   8
ATOM      8  C1  UNL d   1       0.847  -1.873   1.950  0.00  0.00     0.053 C 
ATOM      9  C   UNL d   1       1.323  -2.403   3.293  0.00  0.00     0.018 C 
ENDBRANCH   1   8
TORSDOF 1
ENDMDL
