MODEL 1
REMARK minimizedAffinity 8.15503979
REMARK minimizedRMSD -1
REMARK  1 active torsions:
REMARK  status: ('A' for Active; 'I' for Inactive)
REMARK    1  A    between atoms: C1_2  and  C2_3 
ROOT
ATOM      1  C2  UNL d   1       2.190  -2.936   2.403  0.00  0.00    -0.073 A 
ATOM      2  C3  UNL d   1       1.885  -4.279   2.650  0.00  0.00    -0.002 A 
ATOM      3  C4  UNL d   1       2.906  -5.222   2.781  0.00  0.00     0.004 A 
ATOM      4  C5  UNL d   1       4.240  -4.831   2.672  0.00  0.00    -0.004 A 
ATOM      5  C6  UNL d   1       4.566  -3.491   2.437  0.00  0.00    -0.075 A 
ATOM      6  C7  UNL d   1       5.996  -3.054   2.316  0.00  0.00     0.076 C 
ATOM      7  C8  UNL d   1       3.535  -2.551   2.305  0.00  0.00     0.001 A 
ENDROOT
BRANCH   1   8
ATOM      8  C1  UNL d   1       1.092  -1.914   2.268  0.00  0.00     0.053 C 
ATOM      9  C   UNL d   1       1.368  -0.924   1.147  0.00  0.00     0.018 C 
ENDBRANCH   1   8
TORSDOF 1
ENDMDL
