MODEL 1
REMARK minimizedAffinity 8.92041111
REMARK minimizedRMSD -1
REMARK  1 active torsions:
REMARK  status: ('A' for Active; 'I' for Inactive)
REMARK    1  A    between atoms: C1_2  and  C2_3 
ROOT
ATOM      1  C2  UNL d   1       3.581  -3.360   4.313  0.00  0.00    -0.073 A 
ATOM      2  C3  UNL d   1       2.852  -4.542   4.482  0.00  0.00    -0.002 A 
ATOM      3  C4  UNL d   1       1.536  -4.630   4.026  0.00  0.00     0.004 A 
ATOM      4  C5  UNL d   1       0.939  -3.541   3.391  0.00  0.00    -0.004 A 
ATOM      5  C6  UNL d   1       1.656  -2.355   3.202  0.00  0.00    -0.075 A 
ATOM      6  C7  UNL d   1       1.027  -1.174   2.522  0.00  0.00     0.076 C 
ATOM      7  C8  UNL d   1       2.976  -2.274   3.665  0.00  0.00     0.001 A 
ENDROOT
BRANCH   1   8
ATOM      8  C1  UNL d   1       5.005  -3.262   4.798  0.00  0.00     0.053 C 
ATOM      9  C   UNL d   1       6.000  -3.254   3.649  0.00  0.00     0.018 C 
ENDBRANCH   1   8
TORSDOF 1
ENDMDL
