MODEL 1
REMARK minimizedAffinity 9.65911293
REMARK minimizedRMSD -1
REMARK  1 active torsions:
REMARK  status: ('A' for Active; 'I' for Inactive)
REMARK    1  A    between atoms: C1_2  and  C2_3 
ROOT
ATOM      1  C2  UNL d   1      -3.336   3.459   1.482  0.00  0.00    -0.073 A 
ATOM      2  C3  UNL d   1      -4.034   3.772   2.654  0.00  0.00    -0.002 A 
ATOM      3  C4  UNL d   1      -5.358   4.206   2.591  0.00  0.00     0.004 A 
ATOM      4  C5  UNL d   1      -6.000   4.326   1.358  0.00  0.00    -0.004 A 
ATOM      5  C6  UNL d   1      -5.323   4.007   0.177  0.00  0.00    -0.075 A 
ATOM      6  C7  UNL d   1      -5.998   4.133  -1.157  0.00  0.00     0.076 C 
ATOM      7  C8  UNL d   1      -3.992   3.574   0.248  0.00  0.00     0.001 A 
ENDROOT
BRANCH   1   8
ATOM      8  C1  UNL d   1      -1.908   2.983   1.546  0.00  0.00     0.053 C 
ATOM      9  C   UNL d   1      -1.495   2.247   0.281  0.00  0.00     0.018 C 
ENDBRANCH   1   8
TORSDOF 1
ENDMDL
