MODEL 1
REMARK minimizedAffinity 7.94900417
REMARK minimizedRMSD -1
REMARK  1 active torsions:
REMARK  status: ('A' for Active; 'I' for Inactive)
REMARK    1  A    between atoms: C1_2  and  C2_3 
ROOT
ATOM      1  C2  UNL d   1       5.327   3.410  -5.497  0.00  0.00    -0.073 A 
ATOM      2  C3  UNL d   1       4.116   3.467  -4.800  0.00  0.00    -0.002 A 
ATOM      3  C4  UNL d   1       3.514   2.297  -4.335  0.00  0.00     0.004 A 
ATOM      4  C5  UNL d   1       4.119   1.060  -4.557  0.00  0.00    -0.004 A 
ATOM      5  C6  UNL d   1       5.336   0.984  -5.242  0.00  0.00    -0.075 A 
ATOM      6  C7  UNL d   1       6.000  -0.339  -5.491  0.00  0.00     0.076 C 
ATOM      7  C8  UNL d   1       5.933   2.163  -5.708  0.00  0.00     0.001 A 
ENDROOT
BRANCH   1   8
ATOM      8  C1  UNL d   1       5.984   4.672  -5.995  0.00  0.00     0.053 C 
ATOM      9  C   UNL d   1       5.025   5.852  -5.995  0.00  0.00     0.018 C 
ENDBRANCH   1   8
TORSDOF 1
ENDMDL
