MODEL 1
REMARK minimizedAffinity -0.385379583
REMARK minimizedRMSD -1
REMARK  1 active torsions:
REMARK  status: ('A' for Active; 'I' for Inactive)
REMARK    1  A    between atoms: C1_2  and  C2_3 
ROOT
ATOM      1  C2  UNL d   1      -0.333  -0.582  -0.054  0.00  0.00    -0.073 A 
ATOM      2  C3  UNL d   1       0.648  -0.618  -1.051  0.00  0.00    -0.002 A 
ATOM      3  C4  UNL d   1       1.977  -0.890  -0.724  0.00  0.00     0.004 A 
ATOM      4  C5  UNL d   1       2.337  -1.135   0.601  0.00  0.00    -0.004 A 
ATOM      5  C6  UNL d   1       1.369  -1.116   1.611  0.00  0.00    -0.075 A 
ATOM      6  C7  UNL d   1       1.741  -1.376   3.041  0.00  0.00     0.076 C 
ATOM      7  C8  UNL d   1       0.037  -0.839   1.274  0.00  0.00     0.001 A 
ENDROOT
BRANCH   1   8
ATOM      8  C1  UNL d   1      -1.770  -0.295  -0.404  0.00  0.00     0.053 C 
ATOM      9  C   UNL d   1      -2.724  -0.741   0.693  0.00  0.00     0.018 C 
ENDBRANCH   1   8
TORSDOF 1
ENDMDL
