MODEL 1
REMARK minimizedAffinity 6.53481531
REMARK minimizedRMSD -1
REMARK  1 active torsions:
REMARK  status: ('A' for Active; 'I' for Inactive)
REMARK    1  A    between atoms: C1_2  and  C2_3 
ROOT
ATOM      1  C2  UNL d   1       4.568   3.894   0.764  0.00  0.00    -0.073 A 
ATOM      2  C3  UNL d   1       3.808   3.920  -0.411  0.00  0.00    -0.002 A 
ATOM      3  C4  UNL d   1       3.765   2.804  -1.248  0.00  0.00     0.004 A 
ATOM      4  C5  UNL d   1       4.474   1.650  -0.915  0.00  0.00    -0.004 A 
ATOM      5  C6  UNL d   1       5.230   1.600   0.261  0.00  0.00    -0.075 A 
ATOM      6  C7  UNL d   1       6.000   0.367   0.632  0.00  0.00     0.076 C 
ATOM      7  C8  UNL d   1       5.270   2.726   1.094  0.00  0.00     0.001 A 
ENDROOT
BRANCH   1   8
ATOM      8  C1  UNL d   1       4.613   5.095   1.673  0.00  0.00     0.053 C 
ATOM      9  C   UNL d   1       3.222   5.545   2.091  0.00  0.00     0.018 C 
ENDBRANCH   1   8
TORSDOF 1
ENDMDL
