MODEL 1
REMARK minimizedAffinity -2.78953505
REMARK minimizedRMSD -1
REMARK  1 active torsions:
REMARK  status: ('A' for Active; 'I' for Inactive)
REMARK    1  A    between atoms: C1_2  and  C2_3 
ROOT
ATOM      1  C2  UNL d   1       0.055  -1.569   1.697  0.00  0.00    -0.073 A 
ATOM      2  C3  UNL d   1       0.530  -1.219   0.428  0.00  0.00    -0.002 A 
ATOM      3  C4  UNL d   1      -0.297  -0.548  -0.474  0.00  0.00     0.004 A 
ATOM      4  C5  UNL d   1      -1.603  -0.214  -0.114  0.00  0.00    -0.004 A 
ATOM      5  C6  UNL d   1      -2.091  -0.544   1.154  0.00  0.00    -0.075 A 
ATOM      6  C7  UNL d   1      -3.494  -0.194   1.556  0.00  0.00     0.076 C 
ATOM      7  C8  UNL d   1      -1.256  -1.221   2.053  0.00  0.00     0.001 A 
ENDROOT
BRANCH   1   8
ATOM      8  C1  UNL d   1       0.947  -2.288   2.676  0.00  0.00     0.053 C 
ATOM      9  C   UNL d   1       1.608  -3.508   2.056  0.00  0.00     0.018 C 
ENDBRANCH   1   8
TORSDOF 1
ENDMDL
