MODEL 1
REMARK minimizedAffinity 2.4677496
REMARK minimizedRMSD -1
REMARK  1 active torsions:
REMARK  status: ('A' for Active; 'I' for Inactive)
REMARK    1  A    between atoms: C3_4  and  O_7 
ROOT
ATOM      1  C   UNL d   1      -2.232  -3.729   3.571  0.00  0.00    -0.033 A 
ATOM      2  C1  UNL d   1      -1.626  -3.410   2.354  0.00  0.00     0.039 A 
ATOM      3  C2  UNL d   1      -1.539  -2.078   1.943  0.00  0.00    -0.080 A 
ATOM      4  C3  UNL d   1      -2.059  -1.076   2.758  0.00  0.00     0.150 A 
ATOM      5  C4  UNL d   1      -2.660  -1.386   3.974  0.00  0.00    -0.007 A 
ATOM      6  C5  UNL d   1      -2.747  -2.717   4.382  0.00  0.00     0.039 A 
ENDROOT
BRANCH   4   7
ATOM      7  O   UNL d   1      -2.002   0.237   2.397  0.00  0.00    -0.526 OA
ATOM      8  H5  UNL d   1      -1.586   0.297   1.521  0.00  0.00     0.418 HD
ENDBRANCH   4   7
TORSDOF 1
ENDMDL
