MODEL 1
REMARK minimizedAffinity 2.79066062
REMARK minimizedRMSD -1
REMARK  1 active torsions:
REMARK  status: ('A' for Active; 'I' for Inactive)
REMARK    1  A    between atoms: C3_4  and  O_7 
ROOT
ATOM      1  C   UNL d   1       0.993   0.854   1.700  0.00  0.00    -0.033 A 
ATOM      2  C1  UNL d   1       0.053   0.725   0.676  0.00  0.00     0.039 A 
ATOM      3  C2  UNL d   1      -0.021   1.688  -0.332  0.00  0.00    -0.080 A 
ATOM      4  C3  UNL d   1       0.850   2.774  -0.305  0.00  0.00     0.150 A 
ATOM      5  C4  UNL d   1       1.792   2.907   0.710  0.00  0.00    -0.007 A 
ATOM      6  C5  UNL d   1       1.864   1.945   1.716  0.00  0.00     0.039 A 
ENDROOT
BRANCH   4   7
ATOM      7  O   UNL d   1       0.812   3.742  -1.264  0.00  0.00    -0.526 OA
ATOM      8  H5  UNL d   1       0.094   3.533  -1.884  0.00  0.00     0.418 HD
ENDBRANCH   4   7
TORSDOF 1
ENDMDL
