MODEL 1
REMARK minimizedAffinity -1.13645411
REMARK minimizedRMSD -1
REMARK  1 active torsions:
REMARK  status: ('A' for Active; 'I' for Inactive)
REMARK    1  A    between atoms: C3_4  and  O_7 
ROOT
ATOM      1  C   UNL d   1      -0.937   6.000  -4.005  0.00  0.00    -0.033 A 
ATOM      2  C1  UNL d   1      -1.174   5.996  -2.629  0.00  0.00     0.039 A 
ATOM      3  C2  UNL d   1      -2.483   5.995  -2.144  0.00  0.00    -0.080 A 
ATOM      4  C3  UNL d   1      -3.545   5.996  -3.045  0.00  0.00     0.150 A 
ATOM      5  C4  UNL d   1      -3.317   5.996  -4.417  0.00  0.00    -0.007 A 
ATOM      6  C5  UNL d   1      -2.009   5.998  -4.899  0.00  0.00     0.039 A 
ENDROOT
BRANCH   4   7
ATOM      7  O   UNL d   1      -4.840   6.000  -2.619  0.00  0.00    -0.526 OA
ATOM      8  H5  UNL d   1      -4.845   6.029  -1.647  0.00  0.00     0.418 HD
ENDBRANCH   4   7
TORSDOF 1
ENDMDL
