MODEL 1
REMARK minimizedAffinity -0.235559344
REMARK minimizedRMSD -1
REMARK  1 active torsions:
REMARK  status: ('A' for Active; 'I' for Inactive)
REMARK    1  A    between atoms: C3_4  and  O_7 
ROOT
ATOM      1  C   UNL d   1      -2.687   6.000  -1.710  0.00  0.00    -0.033 A 
ATOM      2  C1  UNL d   1      -3.341   6.000  -2.943  0.00  0.00     0.039 A 
ATOM      3  C2  UNL d   1      -2.602   5.999  -4.127  0.00  0.00    -0.080 A 
ATOM      4  C3  UNL d   1      -1.211   5.996  -4.064  0.00  0.00     0.150 A 
ATOM      5  C4  UNL d   1      -0.553   5.992  -2.839  0.00  0.00    -0.007 A 
ATOM      6  C5  UNL d   1      -1.293   5.994  -1.657  0.00  0.00     0.039 A 
ENDROOT
BRANCH   4   7
ATOM      7  O   UNL d   1      -0.446   6.000  -5.193  0.00  0.00    -0.526 OA
ATOM      8  H5  UNL d   1      -1.036   6.032  -5.964  0.00  0.00     0.418 HD
ENDBRANCH   4   7
TORSDOF 1
ENDMDL
