MODEL 1
REMARK minimizedAffinity 2.11270952
REMARK minimizedRMSD -1
REMARK  1 active torsions:
REMARK  status: ('A' for Active; 'I' for Inactive)
REMARK    1  A    between atoms: C3_4  and  O_7 
ROOT
ATOM      1  C   UNL d   1       5.795   5.940  -4.781  0.00  0.00    -0.033 A 
ATOM      2  C1  UNL d   1       5.092   5.912  -3.575  0.00  0.00     0.039 A 
ATOM      3  C2  UNL d   1       3.696   5.930  -3.578  0.00  0.00    -0.080 A 
ATOM      4  C3  UNL d   1       3.016   5.975  -4.791  0.00  0.00     0.150 A 
ATOM      5  C4  UNL d   1       3.709   5.999  -5.997  0.00  0.00    -0.007 A 
ATOM      6  C5  UNL d   1       5.104   5.982  -5.992  0.00  0.00     0.039 A 
ENDROOT
BRANCH   4   7
ATOM      7  O   UNL d   1       1.654   5.999  -4.844  0.00  0.00    -0.526 OA
ATOM      8  H5  UNL d   1       1.311   6.007  -3.935  0.00  0.00     0.418 HD
ENDBRANCH   4   7
TORSDOF 1
ENDMDL
