MODEL 1
REMARK minimizedAffinity 1.38405335
REMARK minimizedRMSD -1
REMARK  1 active torsions:
REMARK  status: ('A' for Active; 'I' for Inactive)
REMARK    1  A    between atoms: C3_4  and  O_7 
ROOT
ATOM      1  C   UNL d   1      -0.146   5.983  -5.835  0.00  0.00    -0.033 A 
ATOM      2  C1  UNL d   1       1.054   5.995  -5.120  0.00  0.00     0.039 A 
ATOM      3  C2  UNL d   1       1.036   5.998  -3.724  0.00  0.00    -0.080 A 
ATOM      4  C3  UNL d   1      -0.185   5.987  -3.056  0.00  0.00     0.150 A 
ATOM      5  C4  UNL d   1      -1.384   5.971  -3.762  0.00  0.00    -0.007 A 
ATOM      6  C5  UNL d   1      -1.364   5.969  -5.156  0.00  0.00     0.039 A 
ENDROOT
BRANCH   4   7
ATOM      7  O   UNL d   1      -0.253   5.995  -1.695  0.00  0.00    -0.526 OA
ATOM      8  H5  UNL d   1       0.652   6.035  -1.342  0.00  0.00     0.418 HD
ENDBRANCH   4   7
TORSDOF 1
ENDMDL
