MODEL 1
REMARK minimizedAffinity -1.71081865
REMARK minimizedRMSD -1
REMARK  1 active torsions:
REMARK  status: ('A' for Active; 'I' for Inactive)
REMARK    1  A    between atoms: C3_4  and  O_7 
ROOT
ATOM      1  C   UNL d   1      -1.624   5.971  -4.227  0.00  0.00    -0.033 A 
ATOM      2  C1  UNL d   1      -2.976   5.987  -4.576  0.00  0.00     0.039 A 
ATOM      3  C2  UNL d   1      -3.955   5.998  -3.581  0.00  0.00    -0.080 A 
ATOM      4  C3  UNL d   1      -3.570   5.994  -2.243  0.00  0.00     0.150 A 
ATOM      5  C4  UNL d   1      -2.225   5.982  -1.889  0.00  0.00    -0.007 A 
ATOM      6  C5  UNL d   1      -1.249   5.970  -2.884  0.00  0.00     0.039 A 
ENDROOT
BRANCH   4   7
ATOM      7  O   UNL d   1      -4.490   6.000  -1.237  0.00  0.00    -0.526 OA
ATOM      8  H5  UNL d   1      -5.378   5.978  -1.631  0.00  0.00     0.418 HD
ENDBRANCH   4   7
TORSDOF 1
ENDMDL
