MODEL 1
REMARK minimizedAffinity -0.770215511
REMARK minimizedRMSD -1
REMARK  1 active torsions:
REMARK  status: ('A' for Active; 'I' for Inactive)
REMARK    1  A    between atoms: C3_4  and  O_7 
ROOT
ATOM      1  C   UNL d   1      -1.247   5.994  -4.855  0.00  0.00    -0.033 A 
ATOM      2  C1  UNL d   1      -2.643   5.996  -4.873  0.00  0.00     0.039 A 
ATOM      3  C2  UNL d   1      -3.358   5.996  -3.674  0.00  0.00    -0.080 A 
ATOM      4  C3  UNL d   1      -2.667   5.996  -2.466  0.00  0.00     0.150 A 
ATOM      5  C4  UNL d   1      -1.276   5.998  -2.441  0.00  0.00    -0.007 A 
ATOM      6  C5  UNL d   1      -0.563   5.997  -3.639  0.00  0.00     0.039 A 
ENDROOT
BRANCH   4   7
ATOM      7  O   UNL d   1      -3.321   5.992  -1.270  0.00  0.00    -0.526 OA
ATOM      8  H5  UNL d   1      -4.277   5.962  -1.443  0.00  0.00     0.418 HD
ENDBRANCH   4   7
TORSDOF 1
ENDMDL
