MODEL 1
REMARK minimizedAffinity -3.08640909
REMARK minimizedRMSD -1
REMARK  1 active torsions:
REMARK  status: ('A' for Active; 'I' for Inactive)
REMARK    1  A    between atoms: C3_4  and  O_7 
ROOT
ATOM      1  C   UNL d   1      -0.373   6.000  -4.094  0.00  0.00    -0.033 A 
ATOM      2  C1  UNL d   1      -0.813   5.996  -2.769  0.00  0.00     0.039 A 
ATOM      3  C2  UNL d   1      -2.180   5.994  -2.485  0.00  0.00    -0.080 A 
ATOM      4  C3  UNL d   1      -3.095   5.996  -3.534  0.00  0.00     0.150 A 
ATOM      5  C4  UNL d   1      -2.664   5.996  -4.857  0.00  0.00    -0.007 A 
ATOM      6  C5  UNL d   1      -1.298   5.998  -5.138  0.00  0.00     0.039 A 
ENDROOT
BRANCH   4   7
ATOM      7  O   UNL d   1      -4.439   5.999  -3.307  0.00  0.00    -0.526 OA
ATOM      8  H5  UNL d   1      -4.589   6.028  -2.347  0.00  0.00     0.418 HD
ENDBRANCH   4   7
TORSDOF 1
ENDMDL
