MODEL 1
REMARK minimizedAffinity 0.0397919714
REMARK minimizedRMSD -1
REMARK  1 active torsions:
REMARK  status: ('A' for Active; 'I' for Inactive)
REMARK    1  A    between atoms: C3_4  and  O_7 
ROOT
ATOM      1  C   UNL d   1       1.417   5.944  -4.764  0.00  0.00    -0.033 A 
ATOM      2  C1  UNL d   1       2.124   5.998  -3.561  0.00  0.00     0.039 A 
ATOM      3  C2  UNL d   1       3.520   6.000  -3.569  0.00  0.00    -0.080 A 
ATOM      4  C3  UNL d   1       4.196   5.949  -4.785  0.00  0.00     0.150 A 
ATOM      5  C4  UNL d   1       3.499   5.900  -5.987  0.00  0.00    -0.007 A 
ATOM      6  C5  UNL d   1       2.105   5.897  -5.977  0.00  0.00     0.039 A 
ENDROOT
BRANCH   4   7
ATOM      7  O   UNL d   1       5.559   5.945  -4.843  0.00  0.00    -0.526 OA
ATOM      8  H5  UNL d   1       5.905   5.953  -3.935  0.00  0.00     0.418 HD
ENDBRANCH   4   7
TORSDOF 1
ENDMDL
