MODEL 1
REMARK minimizedAffinity -2.20909762
REMARK minimizedRMSD -1
REMARK  1 active torsions:
REMARK  status: ('A' for Active; 'I' for Inactive)
REMARK    1  A    between atoms: C3_4  and  O_7 
ROOT
ATOM      1  C   UNL d   1      -1.489   5.963  -4.764  0.00  0.00    -0.033 A 
ATOM      2  C1  UNL d   1      -0.789   5.957  -3.556  0.00  0.00     0.039 A 
ATOM      3  C2  UNL d   1       0.608   5.970  -3.556  0.00  0.00    -0.080 A 
ATOM      4  C3  UNL d   1       1.291   5.990  -4.769  0.00  0.00     0.150 A 
ATOM      5  C4  UNL d   1       0.600   6.000  -5.977  0.00  0.00    -0.007 A 
ATOM      6  C5  UNL d   1      -0.795   5.986  -5.975  0.00  0.00     0.039 A 
ENDROOT
BRANCH   4   7
ATOM      7  O   UNL d   1       2.653   5.999  -4.820  0.00  0.00    -0.526 OA
ATOM      8  H5  UNL d   1       2.995   5.961  -3.911  0.00  0.00     0.418 HD
ENDBRANCH   4   7
TORSDOF 1
ENDMDL
