MODEL 1
REMARK minimizedAffinity 3.84947562
REMARK minimizedRMSD -1
REMARK  1 active torsions:
REMARK  status: ('A' for Active; 'I' for Inactive)
REMARK    1  A    between atoms: C3_4  and  O_7 
ROOT
ATOM      1  C   UNL d   1       0.167  -0.440  -4.655  0.00  0.00    -0.033 A 
ATOM      2  C1  UNL d   1       0.360  -0.880  -3.344  0.00  0.00     0.039 A 
ATOM      3  C2  UNL d   1      -0.738  -1.101  -2.511  0.00  0.00    -0.080 A 
ATOM      4  C3  UNL d   1      -2.022  -0.879  -3.000  0.00  0.00     0.150 A 
ATOM      5  C4  UNL d   1      -2.223  -0.445  -4.306  0.00  0.00    -0.007 A 
ATOM      6  C5  UNL d   1      -1.125  -0.224  -5.137  0.00  0.00     0.039 A 
ENDROOT
BRANCH   4   7
ATOM      7  O   UNL d   1      -3.125  -1.076  -2.223  0.00  0.00    -0.526 OA
ATOM      8  H5  UNL d   1      -2.832  -1.348  -1.337  0.00  0.00     0.418 HD
ENDBRANCH   4   7
TORSDOF 1
ENDMDL
