MODEL 1
REMARK minimizedAffinity -2.40566969
REMARK minimizedRMSD -1
REMARK  1 active torsions:
REMARK  status: ('A' for Active; 'I' for Inactive)
REMARK    1  A    between atoms: C3_4  and  O_7 
ROOT
ATOM      1  C   UNL d   1       4.263   6.000  -5.600  0.00  0.00    -0.033 A 
ATOM      2  C1  UNL d   1       5.213   5.059  -6.000  0.00  0.00     0.039 A 
ATOM      3  C2  UNL d   1       5.603   4.042  -5.126  0.00  0.00    -0.080 A 
ATOM      4  C3  UNL d   1       5.034   3.976  -3.857  0.00  0.00     0.150 A 
ATOM      5  C4  UNL d   1       4.083   4.908  -3.453  0.00  0.00    -0.007 A 
ATOM      6  C5  UNL d   1       3.696   5.923  -4.327  0.00  0.00     0.039 A 
ENDROOT
BRANCH   4   7
ATOM      7  O   UNL d   1       5.386   3.004  -2.968  0.00  0.00    -0.526 OA
ATOM      8  H5  UNL d   1       6.072   2.450  -3.374  0.00  0.00     0.418 HD
ENDBRANCH   4   7
TORSDOF 1
ENDMDL
