MODEL 1
REMARK minimizedAffinity 2.43775392
REMARK minimizedRMSD -1
REMARK  1 active torsions:
REMARK  status: ('A' for Active; 'I' for Inactive)
REMARK    1  A    between atoms: C3_4  and  O_7 
ROOT
ATOM      1  C   UNL d   1      -4.175  -2.094  -0.976  0.00  0.00    -0.033 A 
ATOM      2  C1  UNL d   1      -3.110  -1.191  -0.963  0.00  0.00     0.039 A 
ATOM      3  C2  UNL d   1      -2.484  -0.831  -2.158  0.00  0.00    -0.080 A 
ATOM      4  C3  UNL d   1      -2.932  -1.378  -3.357  0.00  0.00     0.150 A 
ATOM      5  C4  UNL d   1      -3.995  -2.275  -3.377  0.00  0.00    -0.007 A 
ATOM      6  C5  UNL d   1      -4.619  -2.635  -2.183  0.00  0.00     0.039 A 
ENDROOT
BRANCH   4   7
ATOM      7  O   UNL d   1      -2.349  -1.060  -4.547  0.00  0.00    -0.526 OA
ATOM      8  H5  UNL d   1      -1.610  -0.452  -4.376  0.00  0.00     0.418 HD
ENDBRANCH   4   7
TORSDOF 1
ENDMDL
