MODEL 1
REMARK minimizedAffinity -3.38558507
REMARK minimizedRMSD -1
REMARK  1 active torsions:
REMARK  status: ('A' for Active; 'I' for Inactive)
REMARK    1  A    between atoms: C3_4  and  O_7 
ROOT
ATOM      1  C   UNL d   1      -2.013   6.000  -4.831  0.00  0.00    -0.033 A 
ATOM      2  C1  UNL d   1      -0.787   5.994  -4.163  0.00  0.00     0.039 A 
ATOM      3  C2  UNL d   1      -0.750   5.993  -2.767  0.00  0.00    -0.080 A 
ATOM      4  C3  UNL d   1      -1.944   5.996  -2.052  0.00  0.00     0.150 A 
ATOM      5  C4  UNL d   1      -3.169   5.998  -2.711  0.00  0.00    -0.007 A 
ATOM      6  C5  UNL d   1      -3.204   6.000  -4.105  0.00  0.00     0.039 A 
ENDROOT
BRANCH   4   7
ATOM      7  O   UNL d   1      -1.959   6.000  -0.689  0.00  0.00    -0.526 OA
ATOM      8  H5  UNL d   1      -1.041   6.027  -0.371  0.00  0.00     0.418 HD
ENDBRANCH   4   7
TORSDOF 1
ENDMDL
