MODEL 1
REMARK minimizedAffinity 1.50716102
REMARK minimizedRMSD -1
REMARK  1 active torsions:
REMARK  status: ('A' for Active; 'I' for Inactive)
REMARK    1  A    between atoms: C3_4  and  O_7 
ROOT
ATOM      1  C   UNL d   1      -3.070   5.940  -5.340  0.00  0.00    -0.033 A 
ATOM      2  C1  UNL d   1      -1.690   5.923  -5.127  0.00  0.00     0.039 A 
ATOM      3  C2  UNL d   1      -1.183   5.937  -3.826  0.00  0.00    -0.080 A 
ATOM      4  C3  UNL d   1      -2.065   5.967  -2.749  0.00  0.00     0.150 A 
ATOM      5  C4  UNL d   1      -3.440   5.980  -2.954  0.00  0.00    -0.007 A 
ATOM      6  C5  UNL d   1      -3.945   5.967  -4.254  0.00  0.00     0.039 A 
ENDROOT
BRANCH   4   7
ATOM      7  O   UNL d   1      -1.616   5.986  -1.462  0.00  0.00    -0.526 OA
ATOM      8  H5  UNL d   1      -0.645   6.003  -1.475  0.00  0.00     0.418 HD
ENDBRANCH   4   7
TORSDOF 1
ENDMDL
