MODEL 1
REMARK minimizedAffinity -5.27107716
REMARK minimizedRMSD -1
REMARK  0 active torsions:
REMARK  status: ('A' for Active; 'I' for Inactive)
ROOT
ATOM      1  O1  BZF d   1      -1.479   1.142   2.366  0.00  0.00    -0.204 OA
ATOM      2  C2  BZF d   1      -0.340   1.428   3.094  0.00  0.00     0.174 A 
ATOM      3  C3  BZF d   1       0.762   1.000   2.445  0.00  0.00    -0.012 A 
ATOM      4  C3A BZF d   1       0.289   0.491   1.194  0.00  0.00    -0.107 A 
ATOM      5  C4  BZF d   1       0.909  -0.059   0.109  0.00  0.00     0.055 A 
ATOM      6  C5  BZF d   1       0.152  -0.521  -0.921  0.00  0.00    -0.016 A 
ATOM      7  C6  BZF d   1      -1.225  -0.453  -0.897  0.00  0.00     0.022 A 
ATOM      8  C7  BZF d   1      -1.886   0.089   0.155  0.00  0.00     0.029 A 
ATOM      9  C7A BZF d   1      -1.122   0.587   1.183  0.00  0.00     0.058 A 
ENDROOT
TORSDOF 0
ENDMDL
