MODEL 1
REMARK minimizedAffinity -2.51700139
REMARK minimizedRMSD -1
REMARK  0 active torsions:
REMARK  status: ('A' for Active; 'I' for Inactive)
ROOT
ATOM      1  O1  BZF d   1       1.029   0.371   0.494  0.00  0.00    -0.204 OA
ATOM      2  C2  BZF d   1       0.775  -0.334  -0.667  0.00  0.00     0.174 A 
ATOM      3  C3  BZF d   1      -0.501  -0.769  -0.693  0.00  0.00    -0.012 A 
ATOM      4  C3A BZF d   1      -1.107  -0.229   0.485  0.00  0.00    -0.107 A 
ATOM      5  C4  BZF d   1      -2.366  -0.296   1.009  0.00  0.00     0.055 A 
ATOM      6  C5  BZF d   1      -2.612   0.282   2.214  0.00  0.00    -0.016 A 
ATOM      7  C6  BZF d   1      -1.623   0.930   2.924  0.00  0.00     0.022 A 
ATOM      8  C7  BZF d   1      -0.359   1.026   2.444  0.00  0.00     0.029 A 
ATOM      9  C7A BZF d   1      -0.116   0.472   1.211  0.00  0.00     0.058 A 
ENDROOT
TORSDOF 0
ENDMDL
