MODEL 1
REMARK minimizedAffinity 0.820735812
REMARK minimizedRMSD -1
REMARK  0 active torsions:
REMARK  status: ('A' for Active; 'I' for Inactive)
ROOT
ATOM      1  O1  BZF d   1      -0.010  -1.424  -0.753  0.00  0.00    -0.204 OA
ATOM      2  C2  BZF d   1       0.401  -0.668   0.327  0.00  0.00     0.174 A 
ATOM      3  C3  BZF d   1       1.055   0.437  -0.084  0.00  0.00    -0.012 A 
ATOM      4  C3A BZF d   1       0.972   0.414  -1.513  0.00  0.00    -0.107 A 
ATOM      5  C4  BZF d   1       1.419   1.254  -2.493  0.00  0.00     0.055 A 
ATOM      6  C5  BZF d   1       1.236   0.906  -3.794  0.00  0.00    -0.016 A 
ATOM      7  C6  BZF d   1       0.617  -0.274  -4.150  0.00  0.00     0.022 A 
ATOM      8  C7  BZF d   1       0.153  -1.136  -3.213  0.00  0.00     0.029 A 
ATOM      9  C7A BZF d   1       0.306  -0.772  -1.898  0.00  0.00     0.058 A 
ENDROOT
TORSDOF 0
ENDMDL
