MODEL 1
REMARK minimizedAffinity -3.67082596
REMARK minimizedRMSD -1
REMARK  0 active torsions:
REMARK  status: ('A' for Active; 'I' for Inactive)
ROOT
ATOM      1  O1  BZF d   1       1.093   0.593   0.187  0.00  0.00    -0.204 OA
ATOM      2  C2  BZF d   1       0.718  -0.173  -0.899  0.00  0.00     0.174 A 
ATOM      3  C3  BZF d   1      -0.560  -0.586  -0.775  0.00  0.00    -0.012 A 
ATOM      4  C3A BZF d   1      -1.041   0.033   0.422  0.00  0.00    -0.107 A 
ATOM      5  C4  BZF d   1      -2.245   0.020   1.067  0.00  0.00     0.055 A 
ATOM      6  C5  BZF d   1      -2.365   0.671   2.254  0.00  0.00    -0.016 A 
ATOM      7  C6  BZF d   1      -1.303   1.341   2.826  0.00  0.00     0.022 A 
ATOM      8  C7  BZF d   1      -0.091   1.386   2.220  0.00  0.00     0.029 A 
ATOM      9  C7A BZF d   1       0.025   0.757   1.005  0.00  0.00     0.058 A 
ENDROOT
TORSDOF 0
ENDMDL
