MODEL 1
REMARK minimizedAffinity -3.66547036
REMARK minimizedRMSD -1
REMARK  0 active torsions:
REMARK  status: ('A' for Active; 'I' for Inactive)
ROOT
ATOM      1  O1  BZF d   1       1.086   0.733  -0.622  0.00  0.00    -0.204 OA
ATOM      2  C2  BZF d   1       0.684   0.267  -1.859  0.00  0.00     0.174 A 
ATOM      3  C3  BZF d   1      -0.541  -0.292  -1.785  0.00  0.00    -0.012 A 
ATOM      4  C3A BZF d   1      -0.968  -0.086  -0.435  0.00  0.00    -0.107 A 
ATOM      5  C4  BZF d   1      -2.107  -0.403   0.248  0.00  0.00     0.055 A 
ATOM      6  C5  BZF d   1      -2.179  -0.127   1.576  0.00  0.00    -0.016 A 
ATOM      7  C6  BZF d   1      -1.130   0.461   2.254  0.00  0.00     0.022 A 
ATOM      8  C7  BZF d   1       0.018   0.798   1.617  0.00  0.00     0.029 A 
ATOM      9  C7A BZF d   1       0.081   0.550   0.268  0.00  0.00     0.058 A 
ENDROOT
TORSDOF 0
ENDMDL
