MODEL 1
REMARK minimizedAffinity -3.50705433
REMARK minimizedRMSD -1
REMARK  0 active torsions:
REMARK  status: ('A' for Active; 'I' for Inactive)
ROOT
ATOM      1  O1  BZF d   1      -0.794  -0.755  -0.490  0.00  0.00    -0.204 OA
ATOM      2  C2  BZF d   1      -2.168  -0.609  -0.506  0.00  0.00     0.174 A 
ATOM      3  C3  BZF d   1      -2.593   0.045   0.594  0.00  0.00    -0.012 A 
ATOM      4  C3A BZF d   1      -1.402   0.407   1.300  0.00  0.00    -0.107 A 
ATOM      5  C4  BZF d   1      -1.169   1.087   2.460  0.00  0.00     0.055 A 
ATOM      6  C5  BZF d   1       0.108   1.206   2.911  0.00  0.00    -0.016 A 
ATOM      7  C6  BZF d   1       1.173   0.652   2.231  0.00  0.00     0.022 A 
ATOM      8  C7  BZF d   1       0.991  -0.027   1.072  0.00  0.00     0.029 A 
ATOM      9  C7A BZF d   1      -0.294  -0.120   0.597  0.00  0.00     0.058 A 
ENDROOT
TORSDOF 0
ENDMDL
