MODEL 1
REMARK minimizedAffinity -2.73996162
REMARK minimizedRMSD -1
REMARK  0 active torsions:
REMARK  status: ('A' for Active; 'I' for Inactive)
ROOT
ATOM      1  O1  BZF d   1       1.235   0.086  -1.397  0.00  0.00    -0.204 OA
ATOM      2  C2  BZF d   1       0.191  -0.711  -0.967  0.00  0.00     0.174 A 
ATOM      3  C3  BZF d   1      -0.493  -1.210  -2.017  0.00  0.00    -0.012 A 
ATOM      4  C3A BZF d   1       0.220  -0.766  -3.176  0.00  0.00    -0.107 A 
ATOM      5  C4  BZF d   1       0.039  -0.951  -4.517  0.00  0.00     0.055 A 
ATOM      6  C5  BZF d   1       0.871  -0.322  -5.388  0.00  0.00    -0.016 A 
ATOM      7  C6  BZF d   1       1.888   0.503  -4.954  0.00  0.00     0.022 A 
ATOM      8  C7  BZF d   1       2.109   0.713  -3.633  0.00  0.00     0.029 A 
ATOM      9  C7A BZF d   1       1.291   0.052  -2.750  0.00  0.00     0.058 A 
ENDROOT
TORSDOF 0
ENDMDL
