MODEL 1
REMARK minimizedAffinity -1.73289216
REMARK minimizedRMSD -1
REMARK  0 active torsions:
REMARK  status: ('A' for Active; 'I' for Inactive)
ROOT
ATOM      1  O1  BZF d   1      -2.400   1.244   2.242  0.00  0.00    -0.204 OA
ATOM      2  C2  BZF d   1      -1.225   1.578   2.887  0.00  0.00     0.174 A 
ATOM      3  C3  BZF d   1      -0.160   1.072   2.233  0.00  0.00    -0.012 A 
ATOM      4  C3A BZF d   1      -0.697   0.457   1.058  0.00  0.00    -0.107 A 
ATOM      5  C4  BZF d   1      -0.135  -0.204   0.003  0.00  0.00     0.055 A 
ATOM      6  C5  BZF d   1      -0.945  -0.747  -0.943  0.00  0.00    -0.016 A 
ATOM      7  C6  BZF d   1      -2.319  -0.654  -0.864  0.00  0.00     0.022 A 
ATOM      8  C7  BZF d   1      -2.923  -0.004   0.161  0.00  0.00     0.029 A 
ATOM      9  C7A BZF d   1      -2.106   0.575   1.102  0.00  0.00     0.058 A 
ENDROOT
TORSDOF 0
ENDMDL
