MODEL 1
REMARK minimizedAffinity 9.27410316
REMARK minimizedRMSD -1
REMARK  0 active torsions:
REMARK  status: ('A' for Active; 'I' for Inactive)
ROOT
ATOM      1  C   UNL d   1       5.095  -5.984   5.969  0.00  0.00     0.020 A 
ATOM      2  C1  UNL d   1       5.988  -5.985   4.898  0.00  0.00     0.020 A 
ATOM      3  C2  UNL d   1       5.506  -5.990   3.588  0.00  0.00     0.034 A 
ATOM      4  C3  UNL d   1       4.127  -5.994   3.345  0.00  0.00     0.017 A 
ATOM      5  C4  UNL d   1       3.232  -5.994   4.421  0.00  0.00     0.017 A 
ATOM      6  C5  UNL d   1       3.721  -5.989   5.731  0.00  0.00     0.034 A 
ATOM      7 Cl   UNL d   1       1.518  -5.999   4.201  0.00  0.00    -0.070 Cl
ATOM      8 Cl1  UNL d   1       3.601  -6.000   1.699  0.00  0.00    -0.070 Cl
ENDROOT
TORSDOF 0
ENDMDL
