MODEL 1
REMARK minimizedAffinity 15.2599955
REMARK minimizedRMSD -1
REMARK  0 active torsions:
REMARK  status: ('A' for Active; 'I' for Inactive)
ROOT
ATOM      1  C   UNL d   1      -0.819  -1.194   3.418  0.00  0.00     0.020 A 
ATOM      2  C1  UNL d   1      -1.300  -1.126   2.111  0.00  0.00     0.020 A 
ATOM      3  C2  UNL d   1      -0.473  -0.665   1.085  0.00  0.00     0.034 A 
ATOM      4  C3  UNL d   1       0.841  -0.270   1.364  0.00  0.00     0.017 A 
ATOM      5  C4  UNL d   1       1.323  -0.339   2.676  0.00  0.00     0.017 A 
ATOM      6  C5  UNL d   1       0.490  -0.801   3.700  0.00  0.00     0.034 A 
ATOM      7 Cl   UNL d   1       2.933   0.131   3.098  0.00  0.00    -0.070 Cl
ATOM      8 Cl1  UNL d   1       1.809   0.290   0.047  0.00  0.00    -0.070 Cl
ENDROOT
TORSDOF 0
ENDMDL
