MODEL 1
REMARK minimizedAffinity 12.2487135
REMARK minimizedRMSD -1
REMARK  0 active torsions:
REMARK  status: ('A' for Active; 'I' for Inactive)
ROOT
ATOM      1  C   UNL d   1      -1.100  -1.134   2.587  0.00  0.00     0.020 A 
ATOM      2  C1  UNL d   1      -1.044  -1.465   1.234  0.00  0.00     0.020 A 
ATOM      3  C2  UNL d   1       0.141  -1.282   0.518  0.00  0.00     0.034 A 
ATOM      4  C3  UNL d   1       1.276  -0.767   1.156  0.00  0.00     0.017 A 
ATOM      5  C4  UNL d   1       1.219  -0.435   2.514  0.00  0.00     0.017 A 
ATOM      6  C5  UNL d   1       0.030  -0.620   3.226  0.00  0.00     0.034 A 
ATOM      7 Cl   UNL d   1       2.578   0.205   3.369  0.00  0.00    -0.070 Cl
ATOM      8 Cl1  UNL d   1       2.708  -0.568   0.209  0.00  0.00    -0.070 Cl
ENDROOT
TORSDOF 0
ENDMDL
