MODEL 1
REMARK minimizedAffinity 8.8240118
REMARK minimizedRMSD -1
REMARK  0 active torsions:
REMARK  status: ('A' for Active; 'I' for Inactive)
ROOT
ATOM      1  C   UNL d   1       2.121  -0.209   2.407  0.00  0.00     0.020 A 
ATOM      2  C1  UNL d   1       1.769  -0.383   1.069  0.00  0.00     0.020 A 
ATOM      3  C2  UNL d   1       0.495  -0.848   0.737  0.00  0.00     0.034 A 
ATOM      4  C3  UNL d   1      -0.431  -1.142   1.744  0.00  0.00     0.017 A 
ATOM      5  C4  UNL d   1      -0.077  -0.968   3.087  0.00  0.00     0.017 A 
ATOM      6  C5  UNL d   1       1.200  -0.501   3.414  0.00  0.00     0.034 A 
ATOM      7 Cl   UNL d   1      -1.167  -1.309   4.384  0.00  0.00    -0.070 Cl
ATOM      8 Cl1  UNL d   1      -1.989  -1.714   1.260  0.00  0.00    -0.070 Cl
ENDROOT
TORSDOF 0
ENDMDL
