MODEL 1
REMARK minimizedAffinity 2.72230935
REMARK minimizedRMSD -1
REMARK  0 active torsions:
REMARK  status: ('A' for Active; 'I' for Inactive)
ROOT
ATOM      1  C   UNL d   1       2.075   0.395  -0.427  0.00  0.00     0.020 A 
ATOM      2  C1  UNL d   1       2.696  -0.844  -0.581  0.00  0.00     0.020 A 
ATOM      3  C2  UNL d   1       3.859  -0.952  -1.347  0.00  0.00     0.034 A 
ATOM      4  C3  UNL d   1       4.404   0.181  -1.962  0.00  0.00     0.017 A 
ATOM      5  C4  UNL d   1       3.780   1.424  -1.806  0.00  0.00     0.017 A 
ATOM      6  C5  UNL d   1       2.616   1.526  -1.038  0.00  0.00     0.034 A 
ATOM      7 Cl   UNL d   1       4.394   2.867  -2.534  0.00  0.00    -0.070 Cl
ATOM      8 Cl1  UNL d   1       5.844  -0.026  -2.894  0.00  0.00    -0.070 Cl
ENDROOT
TORSDOF 0
ENDMDL
