MODEL 1
REMARK minimizedAffinity 7.2271862
REMARK minimizedRMSD -1
REMARK  0 active torsions:
REMARK  status: ('A' for Active; 'I' for Inactive)
ROOT
ATOM      1  C   UNL d   1       1.957   0.730  -0.439  0.00  0.00     0.020 A 
ATOM      2  C1  UNL d   1       2.240  -0.571  -0.853  0.00  0.00     0.020 A 
ATOM      3  C2  UNL d   1       3.402  -0.835  -1.581  0.00  0.00     0.034 A 
ATOM      4  C3  UNL d   1       4.285   0.203  -1.898  0.00  0.00     0.017 A 
ATOM      5  C4  UNL d   1       4.001   1.509  -1.482  0.00  0.00     0.017 A 
ATOM      6  C5  UNL d   1       2.836   1.768  -0.753  0.00  0.00     0.034 A 
ATOM      7 Cl   UNL d   1       5.043   2.842  -1.835  0.00  0.00    -0.070 Cl
ATOM      8 Cl1  UNL d   1       5.703  -0.196  -2.801  0.00  0.00    -0.070 Cl
ENDROOT
TORSDOF 0
ENDMDL
