MODEL 1
REMARK minimizedAffinity 20.1700516
REMARK minimizedRMSD -1
REMARK  0 active torsions:
REMARK  status: ('A' for Active; 'I' for Inactive)
ROOT
ATOM      1  C   UNL d   1      -1.923   2.111  -3.464  0.00  0.00     0.020 A 
ATOM      2  C1  UNL d   1      -0.745   1.736  -4.110  0.00  0.00     0.020 A 
ATOM      3  C2  UNL d   1       0.255   2.682  -4.343  0.00  0.00     0.034 A 
ATOM      4  C3  UNL d   1       0.080   4.008  -3.930  0.00  0.00     0.017 A 
ATOM      5  C4  UNL d   1      -1.103   4.383  -3.282  0.00  0.00     0.017 A 
ATOM      6  C5  UNL d   1      -2.101   3.432  -3.051  0.00  0.00     0.034 A 
ATOM      7 Cl   UNL d   1      -1.391   6.000  -2.744  0.00  0.00    -0.070 Cl
ATOM      8 Cl1  UNL d   1       1.358   5.125  -4.251  0.00  0.00    -0.070 Cl
ENDROOT
TORSDOF 0
ENDMDL
