MODEL 1
REMARK minimizedAffinity 3.30546951
REMARK minimizedRMSD -1
REMARK  0 active torsions:
REMARK  status: ('A' for Active; 'I' for Inactive)
ROOT
ATOM      1  C   UNL d   1      -0.059  -0.521   0.663  0.00  0.00     0.020 A 
ATOM      2  C1  UNL d   1      -1.194  -1.096   1.231  0.00  0.00     0.020 A 
ATOM      3  C2  UNL d   1      -1.198  -1.445   2.584  0.00  0.00     0.034 A 
ATOM      4  C3  UNL d   1      -0.065  -1.218   3.372  0.00  0.00     0.017 A 
ATOM      5  C4  UNL d   1       1.075  -0.640   2.801  0.00  0.00     0.017 A 
ATOM      6  C5  UNL d   1       1.073  -0.293   1.446  0.00  0.00     0.034 A 
ATOM      7 Cl   UNL d   1       2.512  -0.330   3.710  0.00  0.00    -0.070 Cl
ATOM      8 Cl1  UNL d   1      -0.140  -1.673   5.037  0.00  0.00    -0.070 Cl
ENDROOT
TORSDOF 0
ENDMDL
