MODEL 1
REMARK minimizedAffinity 6.97989178
REMARK minimizedRMSD -1
REMARK  0 active torsions:
REMARK  status: ('A' for Active; 'I' for Inactive)
ROOT
ATOM      1  C   UNL d   1       0.610  -0.765   0.233  0.00  0.00     0.020 A 
ATOM      2  C1  UNL d   1      -0.645  -1.274   0.563  0.00  0.00     0.020 A 
ATOM      3  C2  UNL d   1      -1.021  -1.389   1.903  0.00  0.00     0.034 A 
ATOM      4  C3  UNL d   1      -0.141  -0.995   2.917  0.00  0.00     0.017 A 
ATOM      5  C4  UNL d   1       1.119  -0.484   2.585  0.00  0.00     0.017 A 
ATOM      6  C5  UNL d   1       1.490  -0.371   1.242  0.00  0.00     0.034 A 
ATOM      7 Cl   UNL d   1       2.258   0.023   3.781  0.00  0.00    -0.070 Cl
ATOM      8 Cl1  UNL d   1      -0.673  -1.165   4.553  0.00  0.00    -0.070 Cl
ENDROOT
TORSDOF 0
ENDMDL
