MODEL 1
REMARK minimizedAffinity 9.25756359
REMARK minimizedRMSD -1
REMARK  0 active torsions:
REMARK  status: ('A' for Active; 'I' for Inactive)
ROOT
ATOM      1  C   UNL d   1      -1.198  -1.258   2.762  0.00  0.00     0.020 A 
ATOM      2  C1  UNL d   1      -1.234  -1.641   1.422  0.00  0.00     0.020 A 
ATOM      3  C2  UNL d   1      -0.126  -1.419   0.603  0.00  0.00     0.034 A 
ATOM      4  C3  UNL d   1       1.023  -0.811   1.122  0.00  0.00     0.017 A 
ATOM      5  C4  UNL d   1       1.058  -0.427   2.467  0.00  0.00     0.017 A 
ATOM      6  C5  UNL d   1      -0.054  -0.652   3.284  0.00  0.00     0.034 A 
ATOM      7 Cl   UNL d   1       2.440   0.328   3.180  0.00  0.00    -0.070 Cl
ATOM      8 Cl1  UNL d   1       2.357  -0.567   0.051  0.00  0.00    -0.070 Cl
ENDROOT
TORSDOF 0
ENDMDL
