MODEL 1
REMARK minimizedAffinity 12.3380346
REMARK minimizedRMSD -1
REMARK  0 active torsions:
REMARK  status: ('A' for Active; 'I' for Inactive)
ROOT
ATOM      1  C   UNL d   1      -1.090  -1.102   1.729  0.00  0.00     0.020 A 
ATOM      2  C1  UNL d   1      -0.737  -1.096   3.078  0.00  0.00     0.020 A 
ATOM      3  C2  UNL d   1       0.544  -0.695   3.463  0.00  0.00     0.034 A 
ATOM      4  C3  UNL d   1       1.477  -0.298   2.499  0.00  0.00     0.017 A 
ATOM      5  C4  UNL d   1       1.122  -0.303   1.145  0.00  0.00     0.017 A 
ATOM      6  C5  UNL d   1      -0.162  -0.706   0.765  0.00  0.00     0.034 A 
ATOM      7 Cl   UNL d   1       2.219   0.174  -0.103  0.00  0.00    -0.070 Cl
ATOM      8 Cl1  UNL d   1       3.042   0.186   3.046  0.00  0.00    -0.070 Cl
ENDROOT
TORSDOF 0
ENDMDL
