MODEL 1
REMARK minimizedAffinity 2.6372571
REMARK minimizedRMSD -1
REMARK  0 active torsions:
REMARK  status: ('A' for Active; 'I' for Inactive)
ROOT
ATOM      1  C   UNL d   1       2.440  -0.015   1.393  0.00  0.00     0.020 A 
ATOM      2  C1  UNL d   1       2.664   0.073   2.766  0.00  0.00     0.020 A 
ATOM      3  C2  UNL d   1       1.641  -0.244   3.663  0.00  0.00     0.034 A 
ATOM      4  C3  UNL d   1       0.389  -0.651   3.187  0.00  0.00     0.017 A 
ATOM      5  C4  UNL d   1       0.165  -0.739   1.808  0.00  0.00     0.017 A 
ATOM      6  C5  UNL d   1       1.193  -0.420   0.915  0.00  0.00     0.034 A 
ATOM      7 Cl   UNL d   1      -1.353  -1.233   1.145  0.00  0.00    -0.070 Cl
ATOM      8 Cl1  UNL d   1      -0.830  -1.028   4.352  0.00  0.00    -0.070 Cl
ENDROOT
TORSDOF 0
ENDMDL
