MODEL 1
REMARK minimizedAffinity 16.1200466
REMARK minimizedRMSD -1
REMARK  0 active torsions:
REMARK  status: ('A' for Active; 'I' for Inactive)
ROOT
ATOM      1  C   UNL d   1      -2.056   2.094  -4.740  0.00  0.00     0.020 A 
ATOM      2  C1  UNL d   1      -0.908   1.643  -5.390  0.00  0.00     0.020 A 
ATOM      3  C2  UNL d   1       0.309   2.300  -5.194  0.00  0.00     0.034 A 
ATOM      4  C3  UNL d   1       0.380   3.410  -4.345  0.00  0.00     0.017 A 
ATOM      5  C4  UNL d   1      -0.773   3.862  -3.693  0.00  0.00     0.017 A 
ATOM      6  C5  UNL d   1      -1.989   3.201  -3.893  0.00  0.00     0.034 A 
ATOM      7 Cl   UNL d   1      -0.763   5.226  -2.632  0.00  0.00    -0.070 Cl
ATOM      8 Cl1  UNL d   1       1.918   4.173  -4.149  0.00  0.00    -0.070 Cl
ENDROOT
TORSDOF 0
ENDMDL
