MODEL 1
REMARK minimizedAffinity 8.42149448
REMARK minimizedRMSD -1
REMARK  0 active torsions:
REMARK  status: ('A' for Active; 'I' for Inactive)
ROOT
ATOM      1  C   UNL d   1      -2.557   2.717  -4.164  0.00  0.00     0.020 A 
ATOM      2  C1  UNL d   1      -1.541   1.987  -4.778  0.00  0.00     0.020 A 
ATOM      3  C2  UNL d   1      -0.207   2.354  -4.592  0.00  0.00     0.034 A 
ATOM      4  C3  UNL d   1       0.115   3.454  -3.789  0.00  0.00     0.017 A 
ATOM      5  C4  UNL d   1      -0.906   4.187  -3.172  0.00  0.00     0.017 A 
ATOM      6  C5  UNL d   1      -2.240   3.815  -3.362  0.00  0.00     0.034 A 
ATOM      7 Cl   UNL d   1      -0.587   5.556  -2.166  0.00  0.00    -0.070 Cl
ATOM      8 Cl1  UNL d   1       1.786   3.851  -3.601  0.00  0.00    -0.070 Cl
ENDROOT
TORSDOF 0
ENDMDL
