MODEL 1
REMARK minimizedAffinity 13.5507383
REMARK minimizedRMSD -1
REMARK  0 active torsions:
REMARK  status: ('A' for Active; 'I' for Inactive)
ROOT
ATOM      1  C   UNL d   1      -0.054   5.506  -2.645  0.00  0.00     0.020 A 
ATOM      2  C1  UNL d   1      -1.386   5.574  -2.239  0.00  0.00     0.020 A 
ATOM      3  C2  UNL d   1      -2.306   4.629  -2.699  0.00  0.00     0.034 A 
ATOM      4  C3  UNL d   1      -1.895   3.612  -3.568  0.00  0.00     0.017 A 
ATOM      5  C4  UNL d   1      -0.558   3.545  -3.976  0.00  0.00     0.017 A 
ATOM      6  C5  UNL d   1       0.359   4.493  -3.512  0.00  0.00     0.034 A 
ATOM      7 Cl   UNL d   1       0.024   2.319  -5.047  0.00  0.00    -0.070 Cl
ATOM      8 Cl1  UNL d   1      -3.086   2.477  -4.097  0.00  0.00    -0.070 Cl
ENDROOT
TORSDOF 0
ENDMDL
