MODEL 1
REMARK minimizedAffinity 10.0812283
REMARK minimizedRMSD -1
REMARK  0 active torsions:
REMARK  status: ('A' for Active; 'I' for Inactive)
ROOT
ATOM      1  C   UNL d   1      -0.472   2.054  -4.283  0.00  0.00     0.020 A 
ATOM      2  C1  UNL d   1       0.230   3.022  -3.566  0.00  0.00     0.020 A 
ATOM      3  C2  UNL d   1      -0.434   4.153  -3.086  0.00  0.00     0.034 A 
ATOM      4  C3  UNL d   1      -1.803   4.319  -3.323  0.00  0.00     0.017 A 
ATOM      5  C4  UNL d   1      -2.506   3.347  -4.044  0.00  0.00     0.017 A 
ATOM      6  C5  UNL d   1      -1.837   2.216  -4.522  0.00  0.00     0.034 A 
ATOM      7 Cl   UNL d   1      -4.197   3.482  -4.376  0.00  0.00    -0.070 Cl
ATOM      8 Cl1  UNL d   1      -2.559   5.742  -2.700  0.00  0.00    -0.070 Cl
ENDROOT
TORSDOF 0
ENDMDL
