MODEL 1
REMARK minimizedAffinity 13.2232475
REMARK minimizedRMSD -1
REMARK  0 active torsions:
REMARK  status: ('A' for Active; 'I' for Inactive)
ROOT
ATOM      1  C   UNL d   1       0.207  -0.609   0.779  0.00  0.00     0.020 A 
ATOM      2  C1  UNL d   1      -0.640  -0.188   1.803  0.00  0.00     0.020 A 
ATOM      3  C2  UNL d   1      -1.905  -0.763   1.942  0.00  0.00     0.034 A 
ATOM      4  C3  UNL d   1      -2.326  -1.762   1.057  0.00  0.00     0.017 A 
ATOM      5  C4  UNL d   1      -1.474  -2.183   0.029  0.00  0.00     0.017 A 
ATOM      6  C5  UNL d   1      -0.209  -1.604  -0.106  0.00  0.00     0.034 A 
ATOM      7 Cl   UNL d   1      -1.923  -3.410  -1.102  0.00  0.00    -0.070 Cl
ATOM      8 Cl1  UNL d   1      -3.903  -2.429   1.288  0.00  0.00    -0.070 Cl
ENDROOT
TORSDOF 0
ENDMDL
