MODEL 1
REMARK minimizedAffinity 7.090693
REMARK minimizedRMSD -1
REMARK  0 active torsions:
REMARK  status: ('A' for Active; 'I' for Inactive)
ROOT
ATOM      1  C   UNL d   1      -0.835  -1.169   1.827  0.00  0.00     0.020 A 
ATOM      2  C1  UNL d   1      -0.319  -1.128   3.122  0.00  0.00     0.020 A 
ATOM      3  C2  UNL d   1       1.016  -0.772   3.330  0.00  0.00     0.034 A 
ATOM      4  C3  UNL d   1       1.838  -0.456   2.242  0.00  0.00     0.017 A 
ATOM      5  C4  UNL d   1       1.319  -0.498   0.943  0.00  0.00     0.017 A 
ATOM      6  C5  UNL d   1      -0.018  -0.854   0.740  0.00  0.00     0.034 A 
ATOM      7 Cl   UNL d   1       2.272  -0.121  -0.448  0.00  0.00    -0.070 Cl
ATOM      8 Cl1  UNL d   1       3.478  -0.025   2.574  0.00  0.00    -0.070 Cl
ENDROOT
TORSDOF 0
ENDMDL
