MODEL 1
REMARK minimizedAffinity 1.56149197
REMARK minimizedRMSD -1
REMARK  0 active torsions:
REMARK  status: ('A' for Active; 'I' for Inactive)
ROOT
ATOM      1  C   UNL d   1      -1.472   5.452  -2.089  0.00  0.00     0.020 A 
ATOM      2  C1  UNL d   1      -0.208   4.989  -2.452  0.00  0.00     0.020 A 
ATOM      3  C2  UNL d   1      -0.078   3.779  -3.137  0.00  0.00     0.034 A 
ATOM      4  C3  UNL d   1      -1.214   3.028  -3.461  0.00  0.00     0.017 A 
ATOM      5  C4  UNL d   1      -2.482   3.494  -3.096  0.00  0.00     0.017 A 
ATOM      6  C5  UNL d   1      -2.606   4.706  -2.410  0.00  0.00     0.034 A 
ATOM      7 Cl   UNL d   1      -3.930   2.623  -3.461  0.00  0.00    -0.070 Cl
ATOM      8 Cl1  UNL d   1      -0.979   1.541  -4.310  0.00  0.00    -0.070 Cl
ENDROOT
TORSDOF 0
ENDMDL
