MODEL 1
REMARK minimizedAffinity -2.58692956
REMARK minimizedRMSD -1
REMARK  0 active torsions:
REMARK  status: ('A' for Active; 'I' for Inactive)
ROOT
ATOM      1  C   UNL d   1       2.613   2.604   0.809  0.00  0.00     0.077 C 
ATOM      2  C1  UNL d   1       1.983   1.260   0.589  0.00  0.00    -0.074 A 
ATOM      3  C2  UNL d   1       2.629   0.088   0.996  0.00  0.00    -0.005 A 
ATOM      4  C3  UNL d   1       2.026  -1.153   0.793  0.00  0.00     0.006 A 
ATOM      5  C4  UNL d   1       0.774  -1.235   0.183  0.00  0.00    -0.005 A 
ATOM      6  C5  UNL d   1       0.113  -0.074  -0.230  0.00  0.00    -0.074 A 
ATOM      7  C6  UNL d   1      -1.238  -0.144  -0.879  0.00  0.00     0.077 C 
ATOM      8  C7  UNL d   1       0.722   1.170  -0.016  0.00  0.00    -0.001 A 
ENDROOT
TORSDOF 0
ENDMDL
