MODEL 1
REMARK minimizedAffinity 0.402210891
REMARK minimizedRMSD -1
REMARK  0 active torsions:
REMARK  status: ('A' for Active; 'I' for Inactive)
ROOT
ATOM      1  C   UNL d   1      -1.111   0.606   0.285  0.00  0.00     0.077 C 
ATOM      2  C1  UNL d   1      -2.567   0.615   0.645  0.00  0.00    -0.074 A 
ATOM      3  C2  UNL d   1      -3.018   1.260   1.801  0.00  0.00    -0.005 A 
ATOM      4  C3  UNL d   1      -4.376   1.268   2.118  0.00  0.00     0.006 A 
ATOM      5  C4  UNL d   1      -5.296   0.632   1.283  0.00  0.00    -0.005 A 
ATOM      6  C5  UNL d   1      -4.864  -0.017   0.122  0.00  0.00    -0.074 A 
ATOM      7  C6  UNL d   1      -5.841  -0.697  -0.791  0.00  0.00     0.077 C 
ATOM      8  C7  UNL d   1      -3.498  -0.015  -0.193  0.00  0.00    -0.001 A 
ENDROOT
TORSDOF 0
ENDMDL
