MODEL 1
REMARK minimizedAffinity -0.139242634
REMARK minimizedRMSD -1
REMARK  0 active torsions:
REMARK  status: ('A' for Active; 'I' for Inactive)
ROOT
ATOM      1  C   UNL d   1      -0.531  -0.006   0.258  0.00  0.00     0.077 C 
ATOM      2  C1  UNL d   1      -1.905   0.401   0.703  0.00  0.00    -0.074 A 
ATOM      3  C2  UNL d   1      -2.085   1.224   1.819  0.00  0.00    -0.005 A 
ATOM      4  C3  UNL d   1      -3.368   1.602   2.214  0.00  0.00     0.006 A 
ATOM      5  C4  UNL d   1      -4.482   1.162   1.499  0.00  0.00    -0.005 A 
ATOM      6  C5  UNL d   1      -4.321   0.339   0.379  0.00  0.00    -0.074 A 
ATOM      7  C6  UNL d   1      -5.507  -0.135  -0.407  0.00  0.00     0.077 C 
ATOM      8  C7  UNL d   1      -3.028  -0.031  -0.016  0.00  0.00    -0.001 A 
ENDROOT
TORSDOF 0
ENDMDL
