MODEL 1
REMARK minimizedAffinity -2.18927622
REMARK minimizedRMSD -1
REMARK  0 active torsions:
REMARK  status: ('A' for Active; 'I' for Inactive)
ROOT
ATOM      1  C   UNL d   1      -1.230  -0.001   1.138  0.00  0.00     0.077 C 
ATOM      2  C1  UNL d   1      -2.679   0.351   1.295  0.00  0.00    -0.074 A 
ATOM      3  C2  UNL d   1      -3.094   1.274   2.261  0.00  0.00    -0.005 A 
ATOM      4  C3  UNL d   1      -4.444   1.599   2.389  0.00  0.00     0.006 A 
ATOM      5  C4  UNL d   1      -5.392   1.006   1.554  0.00  0.00    -0.005 A 
ATOM      6  C5  UNL d   1      -4.996   0.082   0.581  0.00  0.00    -0.074 A 
ATOM      7  C6  UNL d   1      -6.000  -0.557  -0.331  0.00  0.00     0.077 C 
ATOM      8  C7  UNL d   1      -3.636  -0.234   0.454  0.00  0.00    -0.001 A 
ENDROOT
TORSDOF 0
ENDMDL
