MODEL 1
REMARK minimizedAffinity -3.2935698
REMARK minimizedRMSD -1
REMARK  0 active torsions:
REMARK  status: ('A' for Active; 'I' for Inactive)
ROOT
ATOM      1  C   UNL d   1      -4.125   2.027   2.494  0.00  0.00     0.077 C 
ATOM      2  C1  UNL d   1      -4.322   1.130   1.308  0.00  0.00    -0.074 A 
ATOM      3  C2  UNL d   1      -5.529   0.452   1.113  0.00  0.00    -0.005 A 
ATOM      4  C3  UNL d   1      -5.701  -0.372   0.000  0.00  0.00     0.006 A 
ATOM      5  C4  UNL d   1      -4.669  -0.526  -0.926  0.00  0.00    -0.005 A 
ATOM      6  C5  UNL d   1      -3.455   0.144  -0.748  0.00  0.00    -0.074 A 
ATOM      7  C6  UNL d   1      -2.339  -0.002  -1.739  0.00  0.00     0.077 C 
ATOM      8  C7  UNL d   1      -3.292   0.976   0.369  0.00  0.00    -0.001 A 
ENDROOT
TORSDOF 0
ENDMDL
