MODEL 1
REMARK minimizedAffinity -1.14898634
REMARK minimizedRMSD -1
REMARK  0 active torsions:
REMARK  status: ('A' for Active; 'I' for Inactive)
ROOT
ATOM      1  C   UNL d   1       2.910  -2.417  -1.964  0.00  0.00     0.077 C 
ATOM      2  C1  UNL d   1       2.244  -1.790  -0.776  0.00  0.00    -0.074 A 
ATOM      3  C2  UNL d   1       2.901  -1.708   0.456  0.00  0.00    -0.005 A 
ATOM      4  C3  UNL d   1       2.273  -1.114   1.550  0.00  0.00     0.006 A 
ATOM      5  C4  UNL d   1       0.983  -0.597   1.424  0.00  0.00    -0.005 A 
ATOM      6  C5  UNL d   1       0.310  -0.669   0.200  0.00  0.00    -0.074 A 
ATOM      7  C6  UNL d   1      -1.072  -0.110   0.044  0.00  0.00     0.077 C 
ATOM      8  C7  UNL d   1       0.952  -1.262  -0.897  0.00  0.00    -0.001 A 
ENDROOT
TORSDOF 0
ENDMDL
