MODEL 1
REMARK minimizedAffinity -1.22218132
REMARK minimizedRMSD -1
REMARK  0 active torsions:
REMARK  status: ('A' for Active; 'I' for Inactive)
ROOT
ATOM      1  C   UNL d   1       3.012  -0.731   1.649  0.00  0.00     0.077 C 
ATOM      2  C1  UNL d   1       1.971   0.180   1.069  0.00  0.00    -0.074 A 
ATOM      3  C2  UNL d   1       2.221   1.547   0.908  0.00  0.00    -0.005 A 
ATOM      4  C3  UNL d   1       1.247   2.380   0.358  0.00  0.00     0.006 A 
ATOM      5  C4  UNL d   1       0.015   1.856  -0.036  0.00  0.00    -0.005 A 
ATOM      6  C5  UNL d   1      -0.252   0.492   0.116  0.00  0.00    -0.074 A 
ATOM      7  C6  UNL d   1      -1.567  -0.090  -0.312  0.00  0.00     0.077 C 
ATOM      8  C7  UNL d   1       0.734  -0.340   0.663  0.00  0.00    -0.001 A 
ENDROOT
TORSDOF 0
ENDMDL
