MODEL 1
REMARK minimizedAffinity -2.83049178
REMARK minimizedRMSD -1
REMARK  0 active torsions:
REMARK  status: ('A' for Active; 'I' for Inactive)
ROOT
ATOM      1  C   UNL d   1       3.028  -2.546  -1.749  0.00  0.00     0.077 C 
ATOM      2  C1  UNL d   1       2.451  -1.728  -0.632  0.00  0.00    -0.074 A 
ATOM      3  C2  UNL d   1       3.108  -1.627   0.599  0.00  0.00    -0.005 A 
ATOM      4  C3  UNL d   1       2.564  -0.855   1.625  0.00  0.00     0.006 A 
ATOM      5  C4  UNL d   1       1.360  -0.177   1.432  0.00  0.00    -0.005 A 
ATOM      6  C5  UNL d   1       0.689  -0.266   0.208  0.00  0.00    -0.074 A 
ATOM      7  C6  UNL d   1      -0.602   0.463  -0.019  0.00  0.00     0.077 C 
ATOM      8  C7  UNL d   1       1.245  -1.038  -0.820  0.00  0.00    -0.001 A 
ENDROOT
TORSDOF 0
ENDMDL
