MODEL 1
REMARK minimizedAffinity -3.59687471
REMARK minimizedRMSD -1
REMARK  0 active torsions:
REMARK  status: ('A' for Active; 'I' for Inactive)
ROOT
ATOM      1  C   UNL d   1       1.128   0.787  -0.009  0.00  0.00     0.077 C 
ATOM      2  C1  UNL d   1      -0.264   1.264   0.281  0.00  0.00    -0.074 A 
ATOM      3  C2  UNL d   1      -1.254   0.375   0.709  0.00  0.00    -0.005 A 
ATOM      4  C3  UNL d   1      -2.542   0.835   0.984  0.00  0.00     0.006 A 
ATOM      5  C4  UNL d   1      -2.852   2.187   0.834  0.00  0.00    -0.005 A 
ATOM      6  C5  UNL d   1      -1.874   3.092   0.407  0.00  0.00    -0.074 A 
ATOM      7  C6  UNL d   1      -2.188   4.550   0.250  0.00  0.00     0.077 C 
ATOM      8  C7  UNL d   1      -0.581   2.623   0.140  0.00  0.00    -0.001 A 
ENDROOT
TORSDOF 0
ENDMDL
