MODEL 1
REMARK minimizedAffinity 6.17429447
REMARK minimizedRMSD -1
REMARK  2 active torsions:
REMARK  status: ('A' for Active; 'I' for Inactive)
REMARK    1  A    between atoms: C1_2  and  C2_3 
REMARK    2  A    between atoms: C2_3  and  C3_4 
ROOT
ATOM      1  C3  UNL d   1      -0.156   3.041  -0.700  0.00  0.00    -0.075 A 
ATOM      2  C4  UNL d   1      -1.145   2.883  -1.682  0.00  0.00     0.002 A 
ATOM      3  C5  UNL d   1      -2.001   3.937  -2.001  0.00  0.00     0.002 A 
ATOM      4  C6  UNL d   1      -1.886   5.157  -1.338  0.00  0.00    -0.004 A 
ATOM      5  C7  UNL d   1      -0.918   5.320  -0.350  0.00  0.00     0.002 A 
ATOM      6  C8  UNL d   1      -0.057   4.268  -0.031  0.00  0.00     0.002 A 
ENDROOT
BRANCH   1   7
ATOM      7  C2  UNL d   1       0.793   1.913  -0.371  0.00  0.00     0.056 C 
BRANCH   7   8
ATOM      8  C1  UNL d   1       1.234   1.093  -1.588  0.00  0.00     0.007 C 
ATOM      9  C   UNL d   1       2.174  -0.051  -1.233  0.00  0.00     0.009 C 
ENDBRANCH   7   8
ENDBRANCH   1   7
TORSDOF 2
ENDMDL
