MODEL 1
REMARK minimizedAffinity 0.831341326
REMARK minimizedRMSD -1
REMARK  2 active torsions:
REMARK  status: ('A' for Active; 'I' for Inactive)
REMARK    1  A    between atoms: C1_2  and  C2_3 
REMARK    2  A    between atoms: C2_3  and  C3_4 
ROOT
ATOM      1  C3  UNL d   1      -5.290   3.141  -3.453  0.00  0.00    -0.075 A 
ATOM      2  C4  UNL d   1      -4.012   2.639  -3.738  0.00  0.00     0.002 A 
ATOM      3  C5  UNL d   1      -3.448   2.812  -5.003  0.00  0.00     0.002 A 
ATOM      4  C6  UNL d   1      -4.158   3.477  -6.000  0.00  0.00    -0.004 A 
ATOM      5  C7  UNL d   1      -5.436   3.965  -5.733  0.00  0.00     0.002 A 
ATOM      6  C8  UNL d   1      -6.000   3.798  -4.467  0.00  0.00     0.002 A 
ENDROOT
BRANCH   1   7
ATOM      7  C2  UNL d   1      -5.893   2.984  -2.078  0.00  0.00     0.056 C 
BRANCH   7   8
ATOM      8  C1  UNL d   1      -6.000   1.530  -1.606  0.00  0.00     0.007 C 
ATOM      9  C   UNL d   1      -4.802   1.076  -0.782  0.00  0.00     0.009 C 
ENDBRANCH   7   8
ENDBRANCH   1   7
TORSDOF 2
ENDMDL
