MODEL 1
REMARK minimizedAffinity 4.39489222
REMARK minimizedRMSD -1
REMARK  2 active torsions:
REMARK  status: ('A' for Active; 'I' for Inactive)
REMARK    1  A    between atoms: C1_2  and  C2_3 
REMARK    2  A    between atoms: C2_3  and  C3_4 
ROOT
ATOM      1  C3  UNL d   1       0.712  -1.579  -1.620  0.00  0.00    -0.075 A 
ATOM      2  C4  UNL d   1      -0.085  -2.105  -2.646  0.00  0.00     0.002 A 
ATOM      3  C5  UNL d   1      -0.408  -3.462  -2.668  0.00  0.00     0.002 A 
ATOM      4  C6  UNL d   1       0.069  -4.311  -1.673  0.00  0.00    -0.004 A 
ATOM      5  C7  UNL d   1       0.876  -3.803  -0.657  0.00  0.00     0.002 A 
ATOM      6  C8  UNL d   1       1.198  -2.444  -0.630  0.00  0.00     0.002 A 
ENDROOT
BRANCH   1   7
ATOM      7  C2  UNL d   1       1.041  -0.106  -1.574  0.00  0.00     0.056 C 
BRANCH   7   8
ATOM      8  C1  UNL d   1      -0.105   0.773  -1.062  0.00  0.00     0.007 C 
ATOM      9  C   UNL d   1       0.356   2.147  -0.594  0.00  0.00     0.009 C 
ENDBRANCH   7   8
ENDBRANCH   1   7
TORSDOF 2
ENDMDL
