MODEL 1
REMARK minimizedAffinity 4.98556328
REMARK minimizedRMSD -1
REMARK  3 active torsions:
REMARK  status: ('A' for Active; 'I' for Inactive)
REMARK    1  A    between atoms: C3'_2  and  C2'_3 
REMARK    2  A    between atoms: C2'_3  and  C1'_4 
REMARK    3  A    between atoms: C1'_4  and  C1_5 
ROOT
ATOM      1  C1  N4B d   1      -0.226   1.485   0.115  0.00  0.00    -0.075 A 
ATOM      2  C2  N4B d   1      -0.106   0.477   1.097  0.00  0.00     0.002 A 
ATOM      3  C3  N4B d   1       1.108   0.241   1.694  0.00  0.00     0.002 A 
ATOM      4  C4  N4B d   1       2.215   0.985   1.312  0.00  0.00    -0.004 A 
ATOM      5  C5  N4B d   1       2.085   1.973   0.381  0.00  0.00     0.002 A 
ATOM      6  C6  N4B d   1       0.870   2.224  -0.224  0.00  0.00     0.002 A 
ENDROOT
BRANCH   1   7
ATOM      7  C1' N4B d   1      -1.513   1.721  -0.627  0.00  0.00     0.057 C 
BRANCH   7   8
ATOM      8  C2' N4B d   1      -1.679   0.646  -1.698  0.00  0.00     0.009 C 
BRANCH   8   9
ATOM      9  C3' N4B d   1      -2.999   0.781  -2.438  0.00  0.00     0.004 C 
ATOM     10  C4' N4B d   1      -2.880   0.461  -3.899  0.00  0.00     0.003 C 
ENDBRANCH   8   9
ENDBRANCH   7   8
ENDBRANCH   1   7
TORSDOF 3
ENDMDL
