MODEL 1
REMARK minimizedAffinity -1.57233608
REMARK minimizedRMSD -1
REMARK  0 active torsions:
REMARK  status: ('A' for Active; 'I' for Inactive)
ROOT
ATOM      1  C   UNL d   1       2.073  -2.104  -3.726  0.00  0.00    -0.002 A 
ATOM      2  C1  UNL d   1       1.265  -1.364  -4.578  0.00  0.00     0.010 A 
ATOM      3  C2  UNL d   1       0.480  -0.321  -4.084  0.00  0.00     0.041 A 
ATOM      4  C3  UNL d   1       0.522  -0.029  -2.706  0.00  0.00    -0.075 A 
ATOM      5  S   UNL d   1      -0.354   1.204  -1.877  0.00  0.00     0.015 SA
ATOM      6  C4  UNL d   1       0.325   0.778  -0.373  0.00  0.00     0.022 A 
ATOM      7  C5  UNL d   1       1.200  -0.277  -0.482  0.00  0.00     0.026 A 
ATOM      8  C6  UNL d   1       1.328  -0.759  -1.828  0.00  0.00    -0.082 A 
ATOM      9  C7  UNL d   1       2.112  -1.812  -2.360  0.00  0.00     0.045 A 
ENDROOT
TORSDOF 0
ENDMDL
