MODEL 1
REMARK minimizedAffinity -5.60609627
REMARK minimizedRMSD -1
REMARK  0 active torsions:
REMARK  status: ('A' for Active; 'I' for Inactive)
ROOT
ATOM      1  C   UNL d   1      -2.664  -0.292   2.736  0.00  0.00    -0.002 A 
ATOM      2  C1  UNL d   1      -1.496  -0.294   3.484  0.00  0.00     0.010 A 
ATOM      3  C2  UNL d   1      -0.259  -0.084   2.871  0.00  0.00     0.041 A 
ATOM      4  C3  UNL d   1      -0.217   0.132   1.479  0.00  0.00    -0.075 A 
ATOM      5  S   UNL d   1       1.183   0.413   0.513  0.00  0.00     0.015 SA
ATOM      6  C4  UNL d   1       0.263   0.543  -0.915  0.00  0.00     0.022 A 
ATOM      7  C5  UNL d   1      -1.081   0.379  -0.679  0.00  0.00     0.026 A 
ATOM      8  C6  UNL d   1      -1.380   0.140   0.705  0.00  0.00    -0.082 A 
ATOM      9  C7  UNL d   1      -2.618  -0.077   1.356  0.00  0.00     0.045 A 
ENDROOT
TORSDOF 0
ENDMDL
