MODEL 1
REMARK minimizedAffinity -4.47753716
REMARK minimizedRMSD -1
REMARK  0 active torsions:
REMARK  status: ('A' for Active; 'I' for Inactive)
ROOT
ATOM      1  C   UNL d   1      -1.449  -0.323   3.090  0.00  0.00    -0.002 A 
ATOM      2  C1  UNL d   1      -2.564  -0.516   2.287  0.00  0.00     0.010 A 
ATOM      3  C2  UNL d   1      -2.469  -0.392   0.899  0.00  0.00     0.041 A 
ATOM      4  C3  UNL d   1      -1.223  -0.069   0.327  0.00  0.00    -0.075 A 
ATOM      5  S   UNL d   1      -0.869   0.133  -1.348  0.00  0.00     0.015 SA
ATOM      6  C4  UNL d   1       0.770   0.480  -1.036  0.00  0.00     0.022 A 
ATOM      7  C5  UNL d   1       1.058   0.447   0.308  0.00  0.00     0.026 A 
ATOM      8  C6  UNL d   1      -0.086   0.129   1.116  0.00  0.00    -0.082 A 
ATOM      9  C7  UNL d   1      -0.215  -0.003   2.519  0.00  0.00     0.045 A 
ENDROOT
TORSDOF 0
ENDMDL
