MODEL 1
REMARK minimizedAffinity 0.391282439
REMARK minimizedRMSD -1
REMARK  0 active torsions:
REMARK  status: ('A' for Active; 'I' for Inactive)
ROOT
ATOM      1  C   UNL d   1      -0.145   0.114   3.308  0.00  0.00    -0.002 A 
ATOM      2  C1  UNL d   1      -1.199  -0.677   2.874  0.00  0.00     0.010 A 
ATOM      3  C2  UNL d   1      -1.411  -0.892   1.510  0.00  0.00     0.041 A 
ATOM      4  C3  UNL d   1      -0.536  -0.295   0.582  0.00  0.00    -0.075 A 
ATOM      5  S   UNL d   1      -0.601  -0.419  -1.136  0.00  0.00     0.015 SA
ATOM      6  C4  UNL d   1       0.770   0.575  -1.335  0.00  0.00     0.022 A 
ATOM      7  C5  UNL d   1       1.277   1.000  -0.130  0.00  0.00     0.026 A 
ATOM      8  C6  UNL d   1       0.533   0.506   0.995  0.00  0.00    -0.082 A 
ATOM      9  C7  UNL d   1       0.721   0.705   2.384  0.00  0.00     0.045 A 
ENDROOT
TORSDOF 0
ENDMDL
