MODEL 1
REMARK minimizedAffinity -1.40680313
REMARK minimizedRMSD -1
REMARK  0 active torsions:
REMARK  status: ('A' for Active; 'I' for Inactive)
ROOT
ATOM      1  C   UNL d   1       0.319  -0.541  -3.914  0.00  0.00    -0.002 A 
ATOM      2  C1  UNL d   1       1.364  -1.403  -3.615  0.00  0.00     0.010 A 
ATOM      3  C2  UNL d   1       1.905  -1.444  -2.329  0.00  0.00     0.041 A 
ATOM      4  C3  UNL d   1       1.372  -0.597  -1.338  0.00  0.00    -0.075 A 
ATOM      5  S   UNL d   1       1.875  -0.476   0.307  0.00  0.00     0.015 SA
ATOM      6  C4  UNL d   1       0.714   0.723   0.652  0.00  0.00     0.022 A 
ATOM      7  C5  UNL d   1      -0.047   1.036  -0.450  0.00  0.00     0.026 A 
ATOM      8  C6  UNL d   1       0.319   0.280  -1.614  0.00  0.00    -0.082 A 
ATOM      9  C7  UNL d   1      -0.207   0.298  -2.928  0.00  0.00     0.045 A 
ENDROOT
TORSDOF 0
ENDMDL
