MODEL 1
REMARK minimizedAffinity -4.24976158
REMARK minimizedRMSD -1
REMARK  0 active torsions:
REMARK  status: ('A' for Active; 'I' for Inactive)
ROOT
ATOM      1  C   UNL d   1      -0.259  -0.464   3.369  0.00  0.00    -0.002 A 
ATOM      2  C1  UNL d   1      -1.612  -0.425   3.066  0.00  0.00     0.010 A 
ATOM      3  C2  UNL d   1      -2.041  -0.195   1.757  0.00  0.00     0.041 A 
ATOM      4  C3  UNL d   1      -1.076  -0.005   0.748  0.00  0.00    -0.075 A 
ATOM      5  S   UNL d   1      -1.368   0.291  -0.926  0.00  0.00     0.015 SA
ATOM      6  C4  UNL d   1       0.298   0.372  -1.278  0.00  0.00     0.022 A 
ATOM      7  C5  UNL d   1       1.072   0.181  -0.158  0.00  0.00     0.026 A 
ATOM      8  C6  UNL d   1       0.292  -0.040   1.028  0.00  0.00    -0.082 A 
ATOM      9  C7  UNL d   1       0.695  -0.275   2.365  0.00  0.00     0.045 A 
ENDROOT
TORSDOF 0
ENDMDL
