MODEL 1
REMARK minimizedAffinity -0.437615782
REMARK minimizedRMSD -1
REMARK  0 active torsions:
REMARK  status: ('A' for Active; 'I' for Inactive)
ROOT
ATOM      1  C   UNL d   1      -0.442  -0.275   2.948  0.00  0.00    -0.002 A 
ATOM      2  C1  UNL d   1      -1.669  -0.569   2.369  0.00  0.00     0.010 A 
ATOM      3  C2  UNL d   1      -1.838  -0.489   0.985  0.00  0.00     0.041 A 
ATOM      4  C3  UNL d   1      -0.743  -0.107   0.186  0.00  0.00    -0.075 A 
ATOM      5  S   UNL d   1      -0.716   0.058  -1.530  0.00  0.00     0.015 SA
ATOM      6  C4  UNL d   1       0.924   0.522  -1.535  0.00  0.00     0.022 A 
ATOM      7  C5  UNL d   1       1.454   0.555  -0.267  0.00  0.00     0.026 A 
ATOM      8  C6  UNL d   1       0.502   0.193   0.746  0.00  0.00    -0.082 A 
ATOM      9  C7  UNL d   1       0.642   0.104   2.152  0.00  0.00     0.045 A 
ENDROOT
TORSDOF 0
ENDMDL
