MODEL 1
REMARK minimizedAffinity -5.32643604
REMARK minimizedRMSD -1
REMARK  0 active torsions:
REMARK  status: ('A' for Active; 'I' for Inactive)
ROOT
ATOM      1  C   UNL d   1      -1.508  -0.165   3.194  0.00  0.00    -0.002 A 
ATOM      2  C1  UNL d   1      -2.598  -0.061   2.341  0.00  0.00     0.010 A 
ATOM      3  C2  UNL d   1      -2.413   0.082   0.965  0.00  0.00     0.041 A 
ATOM      4  C3  UNL d   1      -1.100   0.117   0.454  0.00  0.00    -0.075 A 
ATOM      5  S   UNL d   1      -0.631   0.284  -1.196  0.00  0.00     0.015 SA
ATOM      6  C4  UNL d   1       1.027   0.221  -0.809  0.00  0.00     0.022 A 
ATOM      7  C5  UNL d   1       1.236   0.076   0.542  0.00  0.00     0.026 A 
ATOM      8  C6  UNL d   1       0.013   0.014   1.292  0.00  0.00    -0.082 A 
ATOM      9  C7  UNL d   1      -0.208  -0.130   2.683  0.00  0.00     0.045 A 
ENDROOT
TORSDOF 0
ENDMDL
