MODEL 1
REMARK minimizedAffinity -2.16940355
REMARK minimizedRMSD -1
REMARK  0 active torsions:
REMARK  status: ('A' for Active; 'I' for Inactive)
ROOT
ATOM      1  C   UNL d   1      -1.593  -0.137   3.114  0.00  0.00    -0.002 A 
ATOM      2  C1  UNL d   1      -2.748   0.216   2.432  0.00  0.00     0.010 A 
ATOM      3  C2  UNL d   1      -2.735   0.374   1.045  0.00  0.00     0.041 A 
ATOM      4  C3  UNL d   1      -1.528   0.167   0.347  0.00  0.00    -0.075 A 
ATOM      5  S   UNL d   1      -1.274   0.302  -1.352  0.00  0.00     0.015 SA
ATOM      6  C4  UNL d   1       0.375  -0.106  -1.214  0.00  0.00     0.022 A 
ATOM      7  C5  UNL d   1       0.739  -0.343   0.091  0.00  0.00     0.026 A 
ATOM      8  C6  UNL d   1      -0.352  -0.190   1.012  0.00  0.00    -0.082 A 
ATOM      9  C7  UNL d   1      -0.398  -0.342   2.419  0.00  0.00     0.045 A 
ENDROOT
TORSDOF 0
ENDMDL
