MODEL 1
REMARK minimizedAffinity 6.75715733
REMARK minimizedRMSD -1
REMARK  0 active torsions:
REMARK  status: ('A' for Active; 'I' for Inactive)
ROOT
ATOM      1  C   UNL d   1       5.999   5.976  -4.280  0.00  0.00     0.077 C 
ATOM      2  C1  UNL d   1       4.790   5.255  -3.761  0.00  0.00    -0.074 A 
ATOM      3  C2  UNL d   1       4.549   3.920  -4.099  0.00  0.00    -0.005 A 
ATOM      4  C3  UNL d   1       3.426   3.260  -3.601  0.00  0.00     0.006 A 
ATOM      5  C4  UNL d   1       2.534   3.928  -2.761  0.00  0.00    -0.005 A 
ATOM      6  C5  UNL d   1       2.759   5.263  -2.411  0.00  0.00    -0.074 A 
ATOM      7  C6  UNL d   1       1.815   5.992  -1.502  0.00  0.00     0.077 C 
ATOM      8  C7  UNL d   1       3.894   5.917  -2.910  0.00  0.00    -0.001 A 
ENDROOT
TORSDOF 0
ENDMDL
