MODEL 1
REMARK minimizedAffinity -3.16176319
REMARK minimizedRMSD -1
REMARK  0 active torsions:
REMARK  status: ('A' for Active; 'I' for Inactive)
ROOT
ATOM      1  C   UNL d   1      -5.824   5.902  -3.054  0.00  0.00     0.077 C 
ATOM      2  C1  UNL d   1      -4.416   5.880  -3.571  0.00  0.00    -0.074 A 
ATOM      3  C2  UNL d   1      -4.156   5.813  -4.944  0.00  0.00    -0.005 A 
ATOM      4  C3  UNL d   1      -2.842   5.803  -5.411  0.00  0.00     0.006 A 
ATOM      5  C4  UNL d   1      -1.776   5.859  -4.512  0.00  0.00    -0.005 A 
ATOM      6  C5  UNL d   1      -2.017   5.926  -3.136  0.00  0.00    -0.074 A 
ATOM      7  C6  UNL d   1      -0.883   5.997  -2.156  0.00  0.00     0.077 C 
ATOM      8  C7  UNL d   1      -3.341   5.943  -2.675  0.00  0.00    -0.001 A 
ENDROOT
TORSDOF 0
ENDMDL
