MODEL 1
REMARK minimizedAffinity 10.5063486
REMARK minimizedRMSD -1
REMARK  0 active torsions:
REMARK  status: ('A' for Active; 'I' for Inactive)
ROOT
ATOM      1  C   UNL d   1       0.820  -3.136   1.869  0.00  0.00     0.077 C 
ATOM      2  C1  UNL d   1      -0.125  -2.044   2.276  0.00  0.00    -0.074 A 
ATOM      3  C2  UNL d   1       0.001  -1.409   3.516  0.00  0.00    -0.005 A 
ATOM      4  C3  UNL d   1      -0.880  -0.389   3.876  0.00  0.00     0.006 A 
ATOM      5  C4  UNL d   1      -1.893   0.006   3.001  0.00  0.00    -0.005 A 
ATOM      6  C5  UNL d   1      -2.033  -0.616   1.757  0.00  0.00    -0.074 A 
ATOM      7  C6  UNL d   1      -3.110  -0.197   0.801  0.00  0.00     0.077 C 
ATOM      8  C7  UNL d   1      -1.140  -1.636   1.399  0.00  0.00    -0.001 A 
ENDROOT
TORSDOF 0
ENDMDL
