MODEL 1
REMARK minimizedAffinity 7.26078701
REMARK minimizedRMSD -1
REMARK  0 active torsions:
REMARK  status: ('A' for Active; 'I' for Inactive)
ROOT
ATOM      1  C   UNL d   1      -4.699  -0.091  -3.097  0.00  0.00     0.077 C 
ATOM      2  C1  UNL d   1      -4.661   0.273  -1.642  0.00  0.00    -0.074 A 
ATOM      3  C2  UNL d   1      -5.695   1.011  -1.058  0.00  0.00    -0.005 A 
ATOM      4  C3  UNL d   1      -5.650   1.334   0.298  0.00  0.00     0.006 A 
ATOM      5  C4  UNL d   1      -4.572   0.923   1.083  0.00  0.00    -0.005 A 
ATOM      6  C5  UNL d   1      -3.528   0.184   0.516  0.00  0.00    -0.074 A 
ATOM      7  C6  UNL d   1      -2.367  -0.274   1.347  0.00  0.00     0.077 C 
ATOM      8  C7  UNL d   1      -3.584  -0.143  -0.846  0.00  0.00    -0.001 A 
ENDROOT
TORSDOF 0
ENDMDL
