MODEL 1
REMARK minimizedAffinity 9.30983448
REMARK minimizedRMSD -1
REMARK  0 active torsions:
REMARK  status: ('A' for Active; 'I' for Inactive)
ROOT
ATOM      1  C   UNL d   1       2.624   0.922   1.138  0.00  0.00     0.077 C 
ATOM      2  C1  UNL d   1       3.806   1.839   1.040  0.00  0.00    -0.074 A 
ATOM      3  C2  UNL d   1       4.588   1.883  -0.119  0.00  0.00    -0.005 A 
ATOM      4  C3  UNL d   1       5.679   2.748  -0.199  0.00  0.00     0.006 A 
ATOM      5  C4  UNL d   1       6.000   3.577   0.878  0.00  0.00    -0.005 A 
ATOM      6  C5  UNL d   1       5.230   3.547   2.044  0.00  0.00    -0.074 A 
ATOM      7  C6  UNL d   1       5.554   4.438   3.207  0.00  0.00     0.077 C 
ATOM      8  C7  UNL d   1       4.130   2.680   2.115  0.00  0.00    -0.001 A 
ENDROOT
TORSDOF 0
ENDMDL
