MODEL 1
REMARK minimizedAffinity 11.9851017
REMARK minimizedRMSD -1
REMARK  0 active torsions:
REMARK  status: ('A' for Active; 'I' for Inactive)
ROOT
ATOM      1  C   UNL d   1      -1.465  -2.552  -3.046  0.00  0.00     0.077 C 
ATOM      2  C1  UNL d   1      -1.333  -3.746  -3.944  0.00  0.00    -0.074 A 
ATOM      3  C2  UNL d   1      -0.085  -4.327  -4.189  0.00  0.00    -0.005 A 
ATOM      4  C3  UNL d   1       0.021  -5.443  -5.019  0.00  0.00     0.006 A 
ATOM      5  C4  UNL d   1      -1.119  -5.988  -5.612  0.00  0.00    -0.005 A 
ATOM      6  C5  UNL d   1      -2.376  -5.421  -5.378  0.00  0.00    -0.074 A 
ATOM      7  C6  UNL d   1      -3.612  -6.000  -6.000  0.00  0.00     0.077 C 
ATOM      8  C7  UNL d   1      -2.474  -4.304  -4.537  0.00  0.00    -0.001 A 
ENDROOT
TORSDOF 0
ENDMDL
