MODEL 1
REMARK minimizedAffinity 11.2099209
REMARK minimizedRMSD -1
REMARK  0 active torsions:
REMARK  status: ('A' for Active; 'I' for Inactive)
ROOT
ATOM      1  C   UNL d   1       5.701   5.947  -2.050  0.00  0.00     0.077 C 
ATOM      2  C1  UNL d   1       4.717   5.058  -2.750  0.00  0.00    -0.074 A 
ATOM      3  C2  UNL d   1       3.376   5.019  -2.356  0.00  0.00    -0.005 A 
ATOM      4  C3  UNL d   1       2.470   4.194  -3.023  0.00  0.00     0.006 A 
ATOM      5  C4  UNL d   1       2.896   3.401  -4.089  0.00  0.00    -0.005 A 
ATOM      6  C5  UNL d   1       4.233   3.427  -4.498  0.00  0.00    -0.074 A 
ATOM      7  C6  UNL d   1       4.705   2.589  -5.649  0.00  0.00     0.077 C 
ATOM      8  C7  UNL d   1       5.135   4.264  -3.827  0.00  0.00    -0.001 A 
ENDROOT
TORSDOF 0
ENDMDL
