MODEL 1
REMARK minimizedAffinity 9.72830677
REMARK minimizedRMSD -1
REMARK  0 active torsions:
REMARK  status: ('A' for Active; 'I' for Inactive)
ROOT
ATOM      1  C   UNL d   1       5.582   5.986  -2.184  0.00  0.00     0.077 C 
ATOM      2  C1  UNL d   1       4.292   5.291  -2.500  0.00  0.00    -0.074 A 
ATOM      3  C2  UNL d   1       4.284   4.000  -3.039  0.00  0.00    -0.005 A 
ATOM      4  C3  UNL d   1       3.076   3.362  -3.319  0.00  0.00     0.006 A 
ATOM      5  C4  UNL d   1       1.865   4.007  -3.063  0.00  0.00    -0.005 A 
ATOM      6  C5  UNL d   1       1.853   5.297  -2.523  0.00  0.00    -0.074 A 
ATOM      7  C6  UNL d   1       0.560   6.000  -2.233  0.00  0.00     0.077 C 
ATOM      8  C7  UNL d   1       3.071   5.929  -2.238  0.00  0.00    -0.001 A 
ENDROOT
TORSDOF 0
ENDMDL
