MODEL 1
REMARK minimizedAffinity 6.16805506
REMARK minimizedRMSD -1
REMARK  0 active torsions:
REMARK  status: ('A' for Active; 'I' for Inactive)
ROOT
ATOM      1  C   UNL d   1       0.489   5.990  -2.990  0.00  0.00     0.077 C 
ATOM      2  C1  UNL d   1      -0.901   5.999  -3.554  0.00  0.00    -0.074 A 
ATOM      3  C2  UNL d   1      -1.116   6.000  -4.936  0.00  0.00    -0.005 A 
ATOM      4  C3  UNL d   1      -2.414   5.998  -5.445  0.00  0.00     0.006 A 
ATOM      5  C4  UNL d   1      -3.509   5.995  -4.580  0.00  0.00    -0.005 A 
ATOM      6  C5  UNL d   1      -3.313   5.992  -3.195  0.00  0.00    -0.074 A 
ATOM      7  C6  UNL d   1      -4.479   5.979  -2.251  0.00  0.00     0.077 C 
ATOM      8  C7  UNL d   1      -2.006   5.987  -2.691  0.00  0.00    -0.001 A 
ENDROOT
TORSDOF 0
ENDMDL
