MODEL 1
REMARK minimizedAffinity 6.99688673
REMARK minimizedRMSD -1
REMARK  0 active torsions:
REMARK  status: ('A' for Active; 'I' for Inactive)
ROOT
ATOM      1  C   UNL d   1      -0.299   5.464  -4.781  0.00  0.00     0.077 C 
ATOM      2  C1  UNL d   1      -1.786   5.654  -4.796  0.00  0.00    -0.074 A 
ATOM      3  C2  UNL d   1      -2.476   5.833  -6.000  0.00  0.00    -0.005 A 
ATOM      4  C3  UNL d   1      -3.861   5.999  -5.999  0.00  0.00     0.006 A 
ATOM      5  C4  UNL d   1      -4.569   5.989  -4.797  0.00  0.00    -0.005 A 
ATOM      6  C5  UNL d   1      -3.896   5.810  -3.583  0.00  0.00    -0.074 A 
ATOM      7  C6  UNL d   1      -4.644   5.786  -2.283  0.00  0.00     0.077 C 
ATOM      8  C7  UNL d   1      -2.506   5.637  -3.593  0.00  0.00    -0.001 A 
ENDROOT
TORSDOF 0
ENDMDL
