MODEL 1
REMARK minimizedAffinity 8.96393967
REMARK minimizedRMSD -1
REMARK  0 active torsions:
REMARK  status: ('A' for Active; 'I' for Inactive)
ROOT
ATOM      1  C   UNL d   1      -1.717  -1.662   1.097  0.00  0.00     0.077 C 
ATOM      2  C1  UNL d   1      -2.503  -0.446   1.488  0.00  0.00    -0.074 A 
ATOM      3  C2  UNL d   1      -2.234   0.229   2.683  0.00  0.00    -0.005 A 
ATOM      4  C3  UNL d   1      -2.967   1.364   3.029  0.00  0.00     0.006 A 
ATOM      5  C4  UNL d   1      -3.974   1.835   2.186  0.00  0.00    -0.005 A 
ATOM      6  C5  UNL d   1      -4.256   1.173   0.986  0.00  0.00    -0.074 A 
ATOM      7  C6  UNL d   1      -5.328   1.671   0.063  0.00  0.00     0.077 C 
ATOM      8  C7  UNL d   1      -3.510   0.037   0.642  0.00  0.00    -0.001 A 
ENDROOT
TORSDOF 0
ENDMDL
