MODEL 1
REMARK minimizedAffinity 1.56599998
REMARK minimizedRMSD -1
REMARK  0 active torsions:
REMARK  status: ('A' for Active; 'I' for Inactive)
ROOT
ATOM      1  C   UNL d   1      -0.011  -2.271   3.156  0.00  0.00     0.077 C 
ATOM      2  C1  UNL d   1      -1.081  -1.324   2.700  0.00  0.00    -0.074 A 
ATOM      3  C2  UNL d   1      -1.853  -0.613   3.625  0.00  0.00    -0.005 A 
ATOM      4  C3  UNL d   1      -2.838   0.271   3.186  0.00  0.00     0.006 A 
ATOM      5  C4  UNL d   1      -3.061   0.454   1.821  0.00  0.00    -0.005 A 
ATOM      6  C5  UNL d   1      -2.298  -0.247   0.882  0.00  0.00    -0.074 A 
ATOM      7  C6  UNL d   1      -2.517  -0.055  -0.590  0.00  0.00     0.077 C 
ATOM      8  C7  UNL d   1      -1.305  -1.129   1.330  0.00  0.00    -0.001 A 
ENDROOT
TORSDOF 0
ENDMDL
