MODEL 1
REMARK minimizedAffinity 12.8060131
REMARK minimizedRMSD -1
REMARK  0 active torsions:
REMARK  status: ('A' for Active; 'I' for Inactive)
ROOT
ATOM      1  C   UNL d   1       2.154   3.792  -2.186  0.00  0.00     0.077 C 
ATOM      2  C1  UNL d   1       3.083   3.854  -3.361  0.00  0.00    -0.074 A 
ATOM      3  C2  UNL d   1       2.968   2.944  -4.417  0.00  0.00    -0.005 A 
ATOM      4  C3  UNL d   1       3.833   3.020  -5.509  0.00  0.00     0.006 A 
ATOM      5  C4  UNL d   1       4.821   4.005  -5.555  0.00  0.00    -0.005 A 
ATOM      6  C5  UNL d   1       4.951   4.924  -4.509  0.00  0.00    -0.074 A 
ATOM      7  C6  UNL d   1       6.000   5.995  -4.548  0.00  0.00     0.077 C 
ATOM      8  C7  UNL d   1       4.073   4.846  -3.419  0.00  0.00    -0.001 A 
ENDROOT
TORSDOF 0
ENDMDL
