MODEL 1
REMARK minimizedAffinity 7.11917782
REMARK minimizedRMSD -1
REMARK  0 active torsions:
REMARK  status: ('A' for Active; 'I' for Inactive)
ROOT
ATOM      1  C   UNL d   1       6.000   3.933   0.406  0.00  0.00     0.077 C 
ATOM      2  C1  UNL d   1       4.723   3.145   0.398  0.00  0.00    -0.074 A 
ATOM      3  C2  UNL d   1       4.204   2.607   1.580  0.00  0.00    -0.005 A 
ATOM      4  C3  UNL d   1       3.011   1.885   1.559  0.00  0.00     0.006 A 
ATOM      5  C4  UNL d   1       2.326   1.695   0.358  0.00  0.00    -0.005 A 
ATOM      6  C5  UNL d   1       2.829   2.226  -0.834  0.00  0.00    -0.074 A 
ATOM      7  C6  UNL d   1       2.101   2.039  -2.131  0.00  0.00     0.077 C 
ATOM      8  C7  UNL d   1       4.025   2.957  -0.803  0.00  0.00    -0.001 A 
ENDROOT
TORSDOF 0
ENDMDL
