MODEL 1
REMARK minimizedAffinity 6.78745079
REMARK minimizedRMSD -1
REMARK  0 active torsions:
REMARK  status: ('A' for Active; 'I' for Inactive)
ROOT
ATOM      1  C   UNL d   1      -5.995   5.443   4.850  0.00  0.00     0.077 C 
ATOM      2  C1  UNL d   1      -5.914   3.946   4.818  0.00  0.00    -0.074 A 
ATOM      3  C2  UNL d   1      -5.809   3.206   6.000  0.00  0.00    -0.005 A 
ATOM      4  C3  UNL d   1      -5.745   1.814   5.955  0.00  0.00     0.006 A 
ATOM      5  C4  UNL d   1      -5.785   1.148   4.729  0.00  0.00    -0.005 A 
ATOM      6  C5  UNL d   1      -5.890   1.871   3.537  0.00  0.00    -0.074 A 
ATOM      7  C6  UNL d   1      -5.945   1.170   2.212  0.00  0.00     0.077 C 
ATOM      8  C7  UNL d   1      -5.962   3.269   3.591  0.00  0.00    -0.001 A 
ENDROOT
TORSDOF 0
ENDMDL
