MODEL 1
REMARK minimizedAffinity 5.64344978
REMARK minimizedRMSD -1
REMARK  0 active torsions:
REMARK  status: ('A' for Active; 'I' for Inactive)
ROOT
ATOM      1  C   UNL d   1       0.838   4.994  -2.592  0.00  0.00     0.077 C 
ATOM      2  C1  UNL d   1       1.702   3.838  -2.185  0.00  0.00    -0.074 A 
ATOM      3  C2  UNL d   1       2.821   3.475  -2.942  0.00  0.00    -0.005 A 
ATOM      4  C3  UNL d   1       3.621   2.404  -2.545  0.00  0.00     0.006 A 
ATOM      5  C4  UNL d   1       3.312   1.686  -1.389  0.00  0.00    -0.005 A 
ATOM      6  C5  UNL d   1       2.198   2.035  -0.619  0.00  0.00    -0.074 A 
ATOM      7  C6  UNL d   1       1.857   1.280   0.632  0.00  0.00     0.077 C 
ATOM      8  C7  UNL d   1       1.403   3.117  -1.020  0.00  0.00    -0.001 A 
ENDROOT
TORSDOF 0
ENDMDL
