MODEL 1
REMARK minimizedAffinity -4.55250502
REMARK minimizedRMSD -1
REMARK  0 active torsions:
REMARK  status: ('A' for Active; 'I' for Inactive)
ROOT
ATOM      1  C   UNL d   1       2.293   2.162  -3.448  0.00  0.00     0.077 C 
ATOM      2  C1  UNL d   1       1.945   2.753  -2.114  0.00  0.00    -0.074 A 
ATOM      3  C2  UNL d   1       2.717   2.477  -0.981  0.00  0.00    -0.005 A 
ATOM      4  C3  UNL d   1       2.387   3.041   0.251  0.00  0.00     0.006 A 
ATOM      5  C4  UNL d   1       1.282   3.887   0.362  0.00  0.00    -0.005 A 
ATOM      6  C5  UNL d   1       0.499   4.176  -0.759  0.00  0.00    -0.074 A 
ATOM      7  C6  UNL d   1      -0.686   5.090  -0.659  0.00  0.00     0.077 C 
ATOM      8  C7  UNL d   1       0.841   3.610  -1.995  0.00  0.00    -0.001 A 
ENDROOT
TORSDOF 0
ENDMDL
