MODEL 1
REMARK minimizedAffinity -4.13837719
REMARK minimizedRMSD -1
REMARK  0 active torsions:
REMARK  status: ('A' for Active; 'I' for Inactive)
ROOT
ATOM      1  C   UNL d   1       0.814  -3.039   0.320  0.00  0.00     0.078 C 
ATOM      2  C1  UNL d   1       0.610  -1.639  -0.179  0.00  0.00    -0.077 A 
ATOM      3  C2  UNL d   1       0.771  -1.326  -1.534  0.00  0.00    -0.001 A 
ATOM      4  C3  UNL d   1       0.587  -0.017  -1.982  0.00  0.00     0.003 A 
ATOM      5  C4  UNL d   1       0.242   0.989  -1.082  0.00  0.00    -0.005 A 
ATOM      6  C5  UNL d   1       0.082   0.687   0.269  0.00  0.00     0.003 A 
ATOM      7  C6  UNL d   1       0.265  -0.621   0.719  0.00  0.00    -0.001 A 
ENDROOT
TORSDOF 0
ENDMDL
