MODEL 1
REMARK minimizedAffinity -2.91007376
REMARK minimizedRMSD -1
REMARK  0 active torsions:
REMARK  status: ('A' for Active; 'I' for Inactive)
ROOT
ATOM      1  C   UNL d   1       0.148   0.655   0.212  0.00  0.00     0.078 C 
ATOM      2  C1  UNL d   1      -0.587  -0.533   0.756  0.00  0.00    -0.077 A 
ATOM      3  C2  UNL d   1      -0.514  -1.779   0.122  0.00  0.00    -0.001 A 
ATOM      4  C3  UNL d   1      -1.211  -2.874   0.634  0.00  0.00     0.003 A 
ATOM      5  C4  UNL d   1      -1.987  -2.734   1.783  0.00  0.00    -0.005 A 
ATOM      6  C5  UNL d   1      -2.068  -1.498   2.420  0.00  0.00     0.003 A 
ATOM      7  C6  UNL d   1      -1.371  -0.402   1.909  0.00  0.00    -0.001 A 
ENDROOT
TORSDOF 0
ENDMDL
