MODEL 1
REMARK minimizedAffinity -2.83476901
REMARK minimizedRMSD -1
REMARK  0 active torsions:
REMARK  status: ('A' for Active; 'I' for Inactive)
ROOT
ATOM      1  C   UNL d   1      -0.130   1.059  -0.029  0.00  0.00     0.078 C 
ATOM      2  C1  UNL d   1       0.787   2.165   0.401  0.00  0.00    -0.077 A 
ATOM      3  C2  UNL d   1       0.284   3.328   0.998  0.00  0.00    -0.001 A 
ATOM      4  C3  UNL d   1       1.148   4.353   1.385  0.00  0.00     0.003 A 
ATOM      5  C4  UNL d   1       2.520   4.228   1.177  0.00  0.00    -0.005 A 
ATOM      6  C5  UNL d   1       3.029   3.076   0.581  0.00  0.00     0.003 A 
ATOM      7  C6  UNL d   1       2.167   2.049   0.194  0.00  0.00    -0.001 A 
ENDROOT
TORSDOF 0
ENDMDL
