MODEL 1
REMARK minimizedAffinity -4.02549505
REMARK minimizedRMSD -1
REMARK  0 active torsions:
REMARK  status: ('A' for Active; 'I' for Inactive)
ROOT
ATOM      1  C   UNL d   1      -1.174   0.342   0.368  0.00  0.00     0.078 C 
ATOM      2  C1  UNL d   1      -0.586  -0.955  -0.100  0.00  0.00    -0.077 A 
ATOM      3  C2  UNL d   1       0.633  -0.987  -0.789  0.00  0.00    -0.001 A 
ATOM      4  C3  UNL d   1       1.164  -2.201  -1.228  0.00  0.00     0.003 A 
ATOM      5  C4  UNL d   1       0.483  -3.392  -0.983  0.00  0.00    -0.005 A 
ATOM      6  C5  UNL d   1      -0.731  -3.370  -0.300  0.00  0.00     0.003 A 
ATOM      7  C6  UNL d   1      -1.264  -2.157   0.139  0.00  0.00    -0.001 A 
ENDROOT
TORSDOF 0
ENDMDL
