MODEL 1
REMARK minimizedAffinity -1.05508065
REMARK minimizedRMSD -1
REMARK  0 active torsions:
REMARK  status: ('A' for Active; 'I' for Inactive)
ROOT
ATOM      1  C   UNL d   1       1.090  -1.978  -0.768  0.00  0.00     0.078 C 
ATOM      2  C1  UNL d   1      -0.204  -1.909  -0.014  0.00  0.00    -0.077 A 
ATOM      3  C2  UNL d   1      -0.588  -0.740   0.656  0.00  0.00    -0.001 A 
ATOM      4  C3  UNL d   1      -1.790  -0.694   1.362  0.00  0.00     0.003 A 
ATOM      5  C4  UNL d   1      -2.619  -1.813   1.407  0.00  0.00    -0.005 A 
ATOM      6  C5  UNL d   1      -2.245  -2.981   0.746  0.00  0.00     0.003 A 
ATOM      7  C6  UNL d   1      -1.043  -3.029   0.039  0.00  0.00    -0.001 A 
ENDROOT
TORSDOF 0
ENDMDL
