MODEL 1
REMARK minimizedAffinity -3.3962481
REMARK minimizedRMSD -1
REMARK  0 active torsions:
REMARK  status: ('A' for Active; 'I' for Inactive)
ROOT
ATOM      1  C   UNL d   1      -0.006  -2.884   1.034  0.00  0.00     0.078 C 
ATOM      2  C1  UNL d   1      -0.123  -1.454   0.598  0.00  0.00    -0.077 A 
ATOM      3  C2  UNL d   1       0.508  -1.000  -0.566  0.00  0.00    -0.001 A 
ATOM      4  C3  UNL d   1       0.398   0.336  -0.954  0.00  0.00     0.003 A 
ATOM      5  C4  UNL d   1      -0.341   1.230  -0.182  0.00  0.00    -0.005 A 
ATOM      6  C5  UNL d   1      -0.971   0.788   0.979  0.00  0.00     0.003 A 
ATOM      7  C6  UNL d   1      -0.863  -0.548   1.369  0.00  0.00    -0.001 A 
ENDROOT
TORSDOF 0
ENDMDL
