MODEL 1
REMARK minimizedAffinity -5.20896149
REMARK minimizedRMSD -1
REMARK  0 active torsions:
REMARK  status: ('A' for Active; 'I' for Inactive)
ROOT
ATOM      1  C   UNL d   1      -0.039   0.852   0.114  0.00  0.00     0.078 C 
ATOM      2  C1  UNL d   1      -0.241  -0.624   0.281  0.00  0.00    -0.077 A 
ATOM      3  C2  UNL d   1      -1.169  -1.126   1.203  0.00  0.00    -0.001 A 
ATOM      4  C3  UNL d   1      -1.339  -2.502   1.355  0.00  0.00     0.003 A 
ATOM      5  C4  UNL d   1      -0.585  -3.390   0.590  0.00  0.00    -0.005 A 
ATOM      6  C5  UNL d   1       0.342  -2.900  -0.328  0.00  0.00     0.003 A 
ATOM      7  C6  UNL d   1       0.514  -1.524  -0.482  0.00  0.00    -0.001 A 
ENDROOT
TORSDOF 0
ENDMDL
