MODEL 1
REMARK minimizedAffinity -4.62221336
REMARK minimizedRMSD -1
REMARK  0 active torsions:
REMARK  status: ('A' for Active; 'I' for Inactive)
ROOT
ATOM      1  C   UNL d   1      -0.057   1.261  -0.108  0.00  0.00     0.078 C 
ATOM      2  C1  UNL d   1      -0.285  -0.194   0.175  0.00  0.00    -0.077 A 
ATOM      3  C2  UNL d   1      -1.317  -0.610   1.026  0.00  0.00    -0.001 A 
ATOM      4  C3  UNL d   1      -1.512  -1.967   1.287  0.00  0.00     0.003 A 
ATOM      5  C4  UNL d   1      -0.678  -2.919   0.704  0.00  0.00    -0.005 A 
ATOM      6  C5  UNL d   1       0.352  -2.514  -0.143  0.00  0.00     0.003 A 
ATOM      7  C6  UNL d   1       0.549  -1.158  -0.406  0.00  0.00    -0.001 A 
ENDROOT
TORSDOF 0
ENDMDL
