MODEL 1
REMARK minimizedAffinity -3.01643324
REMARK minimizedRMSD -1
REMARK  0 active torsions:
REMARK  status: ('A' for Active; 'I' for Inactive)
ROOT
ATOM      1  C   UNL d   1       0.376   1.267   0.013  0.00  0.00     0.078 C 
ATOM      2  C1  UNL d   1      -0.098  -0.156  -0.030  0.00  0.00    -0.077 A 
ATOM      3  C2  UNL d   1       0.741  -1.181  -0.483  0.00  0.00    -0.001 A 
ATOM      4  C3  UNL d   1       0.284  -2.499  -0.527  0.00  0.00     0.003 A 
ATOM      5  C4  UNL d   1      -1.014  -2.804  -0.121  0.00  0.00    -0.005 A 
ATOM      6  C5  UNL d   1      -1.856  -1.789   0.329  0.00  0.00     0.003 A 
ATOM      7  C6  UNL d   1      -1.401  -0.471   0.374  0.00  0.00    -0.001 A 
ENDROOT
TORSDOF 0
ENDMDL
