MODEL 1
REMARK minimizedAffinity -4.62228346
REMARK minimizedRMSD -1
REMARK  0 active torsions:
REMARK  status: ('A' for Active; 'I' for Inactive)
ROOT
ATOM      1  C   UNL d   1      -0.071   1.135   0.133  0.00  0.00     0.078 C 
ATOM      2  C1  UNL d   1      -0.138  -0.360   0.226  0.00  0.00    -0.077 A 
ATOM      3  C2  UNL d   1       0.942  -1.157  -0.172  0.00  0.00    -0.001 A 
ATOM      4  C3  UNL d   1       0.863  -2.548  -0.089  0.00  0.00     0.003 A 
ATOM      5  C4  UNL d   1      -0.296  -3.155   0.391  0.00  0.00    -0.005 A 
ATOM      6  C5  UNL d   1      -1.377  -2.371   0.787  0.00  0.00     0.003 A 
ATOM      7  C6  UNL d   1      -1.299  -0.980   0.705  0.00  0.00    -0.001 A 
ENDROOT
TORSDOF 0
ENDMDL
