MODEL 1
REMARK minimizedAffinity -5.1004734
REMARK minimizedRMSD -1
REMARK  0 active torsions:
REMARK  status: ('A' for Active; 'I' for Inactive)
ROOT
ATOM      1  C   UNL d   1      -0.251   0.963  -0.268  0.00  0.00     0.078 C 
ATOM      2  C1  UNL d   1      -0.317  -0.470   0.169  0.00  0.00    -0.077 A 
ATOM      3  C2  UNL d   1       0.585  -1.418  -0.329  0.00  0.00    -0.001 A 
ATOM      4  C3  UNL d   1       0.506  -2.750   0.078  0.00  0.00     0.003 A 
ATOM      5  C4  UNL d   1      -0.475  -3.148   0.985  0.00  0.00    -0.005 A 
ATOM      6  C5  UNL d   1      -1.379  -2.212   1.484  0.00  0.00     0.003 A 
ATOM      7  C6  UNL d   1      -1.301  -0.879   1.078  0.00  0.00    -0.001 A 
ENDROOT
TORSDOF 0
ENDMDL
