MODEL 1
REMARK minimizedAffinity -4.39280939
REMARK minimizedRMSD -1
REMARK  0 active torsions:
REMARK  status: ('A' for Active; 'I' for Inactive)
ROOT
ATOM      1  C   UNL d   1       0.288   0.292  -0.042  0.00  0.00     0.078 C 
ATOM      2  C1  UNL d   1      -0.078  -1.162  -0.070  0.00  0.00    -0.077 A 
ATOM      3  C2  UNL d   1      -0.652  -1.782   1.047  0.00  0.00    -0.001 A 
ATOM      4  C3  UNL d   1      -0.979  -3.139   1.011  0.00  0.00     0.003 A 
ATOM      5  C4  UNL d   1      -0.732  -3.887  -0.139  0.00  0.00    -0.005 A 
ATOM      6  C5  UNL d   1      -0.159  -3.279  -1.254  0.00  0.00     0.003 A 
ATOM      7  C6  UNL d   1       0.168  -1.923  -1.219  0.00  0.00    -0.001 A 
ENDROOT
TORSDOF 0
ENDMDL
