MODEL 1
REMARK minimizedAffinity -4.93819475
REMARK minimizedRMSD -1
REMARK  0 active torsions:
REMARK  status: ('A' for Active; 'I' for Inactive)
ROOT
ATOM      1  C   UNL d   1       0.491   1.090  -0.116  0.00  0.00     0.078 C 
ATOM      2  C1  UNL d   1      -0.065  -0.272   0.174  0.00  0.00    -0.077 A 
ATOM      3  C2  UNL d   1       0.246  -1.367  -0.642  0.00  0.00    -0.001 A 
ATOM      4  C3  UNL d   1      -0.286  -2.627  -0.366  0.00  0.00     0.003 A 
ATOM      5  C4  UNL d   1      -1.135  -2.804   0.725  0.00  0.00    -0.005 A 
ATOM      6  C5  UNL d   1      -1.453  -1.720   1.541  0.00  0.00     0.003 A 
ATOM      7  C6  UNL d   1      -0.921  -0.459   1.266  0.00  0.00    -0.001 A 
ENDROOT
TORSDOF 0
ENDMDL
