MODEL 1
REMARK minimizedAffinity 4.35845804
REMARK minimizedRMSD -1
REMARK  0 active torsions:
REMARK  status: ('A' for Active; 'I' for Inactive)
ROOT
ATOM      1  N1  IND d   1       2.081   3.628  -1.798  0.00  0.00    -0.196 N 
ATOM      2  C2  IND d   1       1.433   4.425  -0.896  0.00  0.00     0.054 A 
ATOM      3  C3  IND d   1       0.777   3.670   0.013  0.00  0.00    -0.031 A 
ATOM      4  C4  IND d   1       0.713   1.109   0.272  0.00  0.00     0.051 A 
ATOM      5  C5  IND d   1       1.121  -0.045  -0.335  0.00  0.00    -0.031 A 
ATOM      6  C6  IND d   1       1.887  -0.034  -1.482  0.00  0.00     0.015 A 
ATOM      7  C7  IND d   1       2.286   1.137  -2.062  0.00  0.00    -0.016 A 
ATOM      8  C8  IND d   1       1.868   2.311  -1.452  0.00  0.00    -0.047 A 
ATOM      9  C9  IND d   1       1.054   2.307  -0.312  0.00  0.00    -0.096 A 
ATOM     10  HN1 IND d   1       2.544   3.902  -2.469  0.00  0.00     0.298 HD
ENDROOT
TORSDOF 0
ENDMDL
