MODEL 1
REMARK minimizedAffinity 0.552467167
REMARK minimizedRMSD -1
REMARK  0 active torsions:
REMARK  status: ('A' for Active; 'I' for Inactive)
ROOT
ATOM      1  N1  IND d   1       1.909   3.274  -1.399  0.00  0.00    -0.196 N 
ATOM      2  C2  IND d   1       1.245   3.935  -0.404  0.00  0.00     0.054 A 
ATOM      3  C3  IND d   1       0.645   3.054   0.428  0.00  0.00    -0.031 A 
ATOM      4  C4  IND d   1       0.706   0.480   0.402  0.00  0.00     0.051 A 
ATOM      5  C5  IND d   1       1.153  -0.579  -0.336  0.00  0.00    -0.031 A 
ATOM      6  C6  IND d   1       1.893  -0.405  -1.488  0.00  0.00     0.015 A 
ATOM      7  C7  IND d   1       2.223   0.841  -1.940  0.00  0.00    -0.016 A 
ATOM      8  C8  IND d   1       1.765   1.919  -1.197  0.00  0.00    -0.047 A 
ATOM      9  C9  IND d   1       0.978   1.749  -0.051  0.00  0.00    -0.096 A 
ATOM     10  HN1 IND d   1       2.343   3.643  -2.043  0.00  0.00     0.298 HD
ENDROOT
TORSDOF 0
ENDMDL
