MODEL 1
REMARK minimizedAffinity -5.12159061
REMARK minimizedRMSD -1
REMARK  0 active torsions:
REMARK  status: ('A' for Active; 'I' for Inactive)
ROOT
ATOM      1  N1  IND d   1       1.363   3.905  -1.647  0.00  0.00    -0.196 N 
ATOM      2  C2  IND d   1       1.504   4.721  -0.560  0.00  0.00     0.054 A 
ATOM      3  C3  IND d   1       1.500   3.993   0.579  0.00  0.00    -0.031 A 
ATOM      4  C4  IND d   1       1.377   1.441   0.888  0.00  0.00     0.051 A 
ATOM      5  C5  IND d   1       1.203   0.278   0.190  0.00  0.00    -0.031 A 
ATOM      6  C6  IND d   1       1.074   0.265  -1.184  0.00  0.00     0.015 A 
ATOM      7  C7  IND d   1       1.126   1.417  -1.915  0.00  0.00    -0.016 A 
ATOM      8  C8  IND d   1       1.295   2.600  -1.210  0.00  0.00    -0.047 A 
ATOM      9  C9  IND d   1       1.384   2.624   0.188  0.00  0.00    -0.096 A 
ATOM     10  HN1 IND d   1       1.324   4.162  -2.467  0.00  0.00     0.298 HD
ENDROOT
TORSDOF 0
ENDMDL
