MODEL 1
REMARK minimizedAffinity -4.3912282
REMARK minimizedRMSD -1
REMARK  0 active torsions:
REMARK  status: ('A' for Active; 'I' for Inactive)
ROOT
ATOM      1  N1  IND d   1       1.572   4.209  -1.122  0.00  0.00    -0.196 N 
ATOM      2  C2  IND d   1       1.181   4.841   0.025  0.00  0.00     0.054 A 
ATOM      3  C3  IND d   1       0.731   3.941   0.928  0.00  0.00    -0.031 A 
ATOM      4  C4  IND d   1       0.643   1.373   0.772  0.00  0.00     0.051 A 
ATOM      5  C5  IND d   1       0.858   0.338  -0.095  0.00  0.00    -0.031 A 
ATOM      6  C6  IND d   1       1.334   0.545  -1.374  0.00  0.00     0.015 A 
ATOM      7  C7  IND d   1       1.625   1.799  -1.831  0.00  0.00    -0.016 A 
ATOM      8  C8  IND d   1       1.401   2.853  -0.956  0.00  0.00    -0.047 A 
ATOM      9  C9  IND d   1       0.878   2.652   0.328  0.00  0.00    -0.096 A 
ATOM     10  HN1 IND d   1       1.874   4.595  -1.829  0.00  0.00     0.298 HD
ENDROOT
TORSDOF 0
ENDMDL
