MODEL 1
REMARK minimizedAffinity 1.44914436
REMARK minimizedRMSD -1
REMARK  0 active torsions:
REMARK  status: ('A' for Active; 'I' for Inactive)
ROOT
ATOM      1  N1  IND d   1       1.446   3.339  -0.237  0.00  0.00    -0.196 N 
ATOM      2  C2  IND d   1       1.097   3.739  -1.497  0.00  0.00     0.054 A 
ATOM      3  C3  IND d   1       0.848   2.665  -2.280  0.00  0.00    -0.031 A 
ATOM      4  C4  IND d   1       0.850   0.163  -1.672  0.00  0.00     0.051 A 
ATOM      5  C5  IND d   1       1.142  -0.697  -0.651  0.00  0.00    -0.031 A 
ATOM      6  C6  IND d   1       1.555  -0.246   0.587  0.00  0.00     0.015 A 
ATOM      7  C7  IND d   1       1.682   1.087   0.853  0.00  0.00    -0.016 A 
ATOM      8  C8  IND d   1       1.394   1.963  -0.184  0.00  0.00    -0.047 A 
ATOM      9  C9  IND d   1       1.015   1.511  -1.454  0.00  0.00    -0.096 A 
ATOM     10  HN1 IND d   1       1.661   3.859   0.412  0.00  0.00     0.298 HD
ENDROOT
TORSDOF 0
ENDMDL
