MODEL 1
REMARK minimizedAffinity -1.15961707
REMARK minimizedRMSD -1
REMARK  0 active torsions:
REMARK  status: ('A' for Active; 'I' for Inactive)
ROOT
ATOM      1  N1  IND d   1       1.455   3.684  -1.104  0.00  0.00    -0.196 N 
ATOM      2  C2  IND d   1       1.378   4.148   0.179  0.00  0.00     0.054 A 
ATOM      3  C3  IND d   1       1.176   3.124   1.038  0.00  0.00    -0.031 A 
ATOM      4  C4  IND d   1       1.043   0.597   0.568  0.00  0.00     0.051 A 
ATOM      5  C5  IND d   1       1.022  -0.309  -0.456  0.00  0.00    -0.031 A 
ATOM      6  C6  IND d   1       1.150   0.078  -1.774  0.00  0.00     0.015 A 
ATOM      7  C7  IND d   1       1.315   1.390  -2.119  0.00  0.00    -0.016 A 
ATOM      8  C8  IND d   1       1.330   2.313  -1.083  0.00  0.00    -0.047 A 
ATOM      9  C9  IND d   1       1.158   1.930   0.254  0.00  0.00    -0.096 A 
ATOM     10  HN1 IND d   1       1.564   4.168  -1.807  0.00  0.00     0.298 HD
ENDROOT
TORSDOF 0
ENDMDL
