MODEL 1
REMARK minimizedAffinity -1.16958284
REMARK minimizedRMSD -1
REMARK  0 active torsions:
REMARK  status: ('A' for Active; 'I' for Inactive)
ROOT
ATOM      1  N1  IND d   1       1.840   3.841  -1.975  0.00  0.00    -0.196 N 
ATOM      2  C2  IND d   1       1.748   4.757  -0.964  0.00  0.00     0.054 A 
ATOM      3  C3  IND d   1       1.357   4.155   0.182  0.00  0.00    -0.031 A 
ATOM      4  C4  IND d   1       0.912   1.663   0.651  0.00  0.00     0.051 A 
ATOM      5  C5  IND d   1       0.831   0.448   0.031  0.00  0.00    -0.031 A 
ATOM      6  C6  IND d   1       1.090   0.298  -1.316  0.00  0.00     0.015 A 
ATOM      7  C7  IND d   1       1.453   1.361  -2.094  0.00  0.00    -0.016 A 
ATOM      8  C8  IND d   1       1.529   2.598  -1.470  0.00  0.00    -0.047 A 
ATOM      9  C9  IND d   1       1.226   2.763  -0.112  0.00  0.00    -0.096 A 
ATOM     10  HN1 IND d   1       2.055   4.012  -2.789  0.00  0.00     0.298 HD
ENDROOT
TORSDOF 0
ENDMDL
