MODEL 1
REMARK minimizedAffinity 1.75777149
REMARK minimizedRMSD -1
REMARK  0 active torsions:
REMARK  status: ('A' for Active; 'I' for Inactive)
ROOT
ATOM      1  N1  IND d   1       1.134   1.291   0.726  0.00  0.00    -0.196 N 
ATOM      2  C2  IND d   1       1.061   0.247  -0.153  0.00  0.00     0.054 A 
ATOM      3  C3  IND d   1       1.254   0.683  -1.418  0.00  0.00    -0.031 A 
ATOM      4  C4  IND d   1       1.806   3.050  -2.266  0.00  0.00     0.051 A 
ATOM      5  C5  IND d   1       1.939   4.342  -1.842  0.00  0.00    -0.031 A 
ATOM      6  C6  IND d   1       1.811   4.690  -0.513  0.00  0.00     0.015 A 
ATOM      7  C7  IND d   1       1.555   3.753   0.447  0.00  0.00    -0.016 A 
ATOM      8  C8  IND d   1       1.412   2.441   0.019  0.00  0.00    -0.047 A 
ATOM      9  C9  IND d   1       1.498   2.088  -1.333  0.00  0.00    -0.096 A 
ATOM     10  HN1 IND d   1       1.024   1.239   1.578  0.00  0.00     0.298 HD
ENDROOT
TORSDOF 0
ENDMDL
