MODEL 1
REMARK minimizedAffinity -1.35713637
REMARK minimizedRMSD -1
REMARK  0 active torsions:
REMARK  status: ('A' for Active; 'I' for Inactive)
ROOT
ATOM      1  N1  IND d   1       1.459   4.115   1.032  0.00  0.00    -0.196 N 
ATOM      2  C2  IND d   1       1.719   5.111   0.133  0.00  0.00     0.054 A 
ATOM      3  C3  IND d   1       1.771   4.610  -1.122  0.00  0.00    -0.031 A 
ATOM      4  C4  IND d   1       1.356   2.205  -1.941  0.00  0.00     0.051 A 
ATOM      5  C5  IND d   1       1.121   0.938  -1.487  0.00  0.00    -0.031 A 
ATOM      6  C6  IND d   1       0.980   0.660  -0.142  0.00  0.00     0.015 A 
ATOM      7  C7  IND d   1       1.059   1.645   0.801  0.00  0.00    -0.016 A 
ATOM      8  C8  IND d   1       1.305   2.932   0.344  0.00  0.00    -0.047 A 
ATOM      9  C9  IND d   1       1.491   3.213  -1.016  0.00  0.00    -0.096 A 
ATOM     10  HN1 IND d   1       1.400   4.211   1.885  0.00  0.00     0.298 HD
ENDROOT
TORSDOF 0
ENDMDL
