MODEL 1
REMARK minimizedAffinity 9.11897755
REMARK minimizedRMSD -1
REMARK  0 active torsions:
REMARK  status: ('A' for Active; 'I' for Inactive)
ROOT
ATOM      1  N1  IND d   1       0.945   4.455  -1.903  0.00  0.00    -0.196 N 
ATOM      2  C2  IND d   1       1.026   5.145  -0.726  0.00  0.00     0.054 A 
ATOM      3  C3  IND d   1       1.132   4.289   0.315  0.00  0.00    -0.031 A 
ATOM      4  C4  IND d   1       1.293   1.720   0.310  0.00  0.00     0.051 A 
ATOM      5  C5  IND d   1       1.227   0.638  -0.522  0.00  0.00    -0.031 A 
ATOM      6  C6  IND d   1       1.064   0.776  -1.886  0.00  0.00     0.015 A 
ATOM      7  C7  IND d   1       0.970   2.007  -2.471  0.00  0.00    -0.016 A 
ATOM      8  C8  IND d   1       1.030   3.108  -1.628  0.00  0.00    -0.047 A 
ATOM      9  C9  IND d   1       1.153   2.973  -0.239  0.00  0.00    -0.096 A 
ATOM     10  HN1 IND d   1       0.856   4.804  -2.684  0.00  0.00     0.298 HD
ENDROOT
TORSDOF 0
ENDMDL
