MODEL 1
REMARK minimizedAffinity -1.02063847
REMARK minimizedRMSD -1
REMARK  0 active torsions:
REMARK  status: ('A' for Active; 'I' for Inactive)
ROOT
ATOM      1  N1  IND d   1       1.368   3.830  -0.863  0.00  0.00    -0.196 N 
ATOM      2  C2  IND d   1       1.251   3.815  -2.225  0.00  0.00     0.054 A 
ATOM      3  C3  IND d   1       1.212   2.542  -2.679  0.00  0.00    -0.031 A 
ATOM      4  C4  IND d   1       1.222   0.332  -1.358  0.00  0.00     0.051 A 
ATOM      5  C5  IND d   1       1.352  -0.165  -0.092  0.00  0.00    -0.031 A 
ATOM      6  C6  IND d   1       1.495   0.661   1.004  0.00  0.00     0.015 A 
ATOM      7  C7  IND d   1       1.501   2.021   0.876  0.00  0.00    -0.016 A 
ATOM      8  C8  IND d   1       1.376   2.529  -0.409  0.00  0.00    -0.047 A 
ATOM      9  C9  IND d   1       1.273   1.695  -1.530  0.00  0.00    -0.096 A 
ATOM     10  HN1 IND d   1       1.427   4.533  -0.372  0.00  0.00     0.298 HD
ENDROOT
TORSDOF 0
ENDMDL
