MODEL 1
REMARK minimizedAffinity 4.87495899
REMARK minimizedRMSD -1
REMARK  0 active torsions:
REMARK  status: ('A' for Active; 'I' for Inactive)
ROOT
ATOM      1  N1  IND d   1       1.603   2.517  -1.892  0.00  0.00    -0.196 N 
ATOM      2  C2  IND d   1       1.723   1.190  -1.585  0.00  0.00     0.054 A 
ATOM      3  C3  IND d   1       1.849   1.026  -0.249  0.00  0.00    -0.031 A 
ATOM      4  C4  IND d   1       1.782   2.786   1.628  0.00  0.00     0.051 A 
ATOM      5  C5  IND d   1       1.727   4.135   1.838  0.00  0.00    -0.031 A 
ATOM      6  C6  IND d   1       1.623   5.032   0.794  0.00  0.00     0.015 A 
ATOM      7  C7  IND d   1       1.558   4.610  -0.503  0.00  0.00    -0.016 A 
ATOM      8  C8  IND d   1       1.621   3.241  -0.721  0.00  0.00    -0.047 A 
ATOM      9  C9  IND d   1       1.770   2.329   0.332  0.00  0.00    -0.096 A 
ATOM     10  HN1 IND d   1       1.529   2.843  -2.684  0.00  0.00     0.298 HD
ENDROOT
TORSDOF 0
ENDMDL
