MODEL 1
REMARK minimizedAffinity -2.49114752
REMARK minimizedRMSD -1
REMARK  0 active torsions:
REMARK  status: ('A' for Active; 'I' for Inactive)
ROOT
ATOM      1  N1  IND d   1       1.293   3.506  -0.595  0.00  0.00    -0.196 N 
ATOM      2  C2  IND d   1       1.334   3.654  -1.954  0.00  0.00     0.054 A 
ATOM      3  C3  IND d   1       1.250   2.449  -2.561  0.00  0.00    -0.031 A 
ATOM      4  C4  IND d   1       0.938   0.113  -1.524  0.00  0.00     0.051 A 
ATOM      5  C5  IND d   1       0.883  -0.533  -0.321  0.00  0.00    -0.031 A 
ATOM      6  C6  IND d   1       0.961   0.148   0.876  0.00  0.00     0.015 A 
ATOM      7  C7  IND d   1       1.086   1.508   0.915  0.00  0.00    -0.016 A 
ATOM      8  C8  IND d   1       1.149   2.167  -0.304  0.00  0.00    -0.047 A 
ATOM      9  C9  IND d   1       1.113   1.477  -1.523  0.00  0.00    -0.096 A 
ATOM     10  HN1 IND d   1       1.349   4.142  -0.020  0.00  0.00     0.298 HD
ENDROOT
TORSDOF 0
ENDMDL
