MODEL 1
REMARK minimizedAffinity -1.97856057
REMARK minimizedRMSD -1
REMARK  0 active torsions:
REMARK  status: ('A' for Active; 'I' for Inactive)
ROOT
ATOM      1  N1  IND d   1       1.398   4.274   0.111  0.00  0.00    -0.196 N 
ATOM      2  C2  IND d   1       1.559   4.926  -1.080  0.00  0.00     0.054 A 
ATOM      3  C3  IND d   1       1.485   4.051  -2.108  0.00  0.00    -0.031 A 
ATOM      4  C4  IND d   1       1.003   1.523  -2.073  0.00  0.00     0.051 A 
ATOM      5  C5  IND d   1       0.823   0.472  -1.218  0.00  0.00    -0.031 A 
ATOM      6  C6  IND d   1       0.823   0.639   0.152  0.00  0.00     0.015 A 
ATOM      7  C7  IND d   1       0.992   1.870   0.720  0.00  0.00    -0.016 A 
ATOM      8  C8  IND d   1       1.182   2.938  -0.146  0.00  0.00    -0.047 A 
ATOM      9  C9  IND d   1       1.226   2.768  -1.536  0.00  0.00    -0.096 A 
ATOM     10  HN1 IND d   1       1.426   4.638   0.890  0.00  0.00     0.298 HD
ENDROOT
TORSDOF 0
ENDMDL
