MODEL 1
REMARK minimizedAffinity 5.43721867
REMARK minimizedRMSD -1
REMARK  0 active torsions:
REMARK  status: ('A' for Active; 'I' for Inactive)
ROOT
ATOM      1  N1  IND d   1       1.862   3.207  -0.600  0.00  0.00    -0.196 N 
ATOM      2  C2  IND d   1       1.453   3.504  -1.870  0.00  0.00     0.054 A 
ATOM      3  C3  IND d   1       1.039   2.384  -2.504  0.00  0.00    -0.031 A 
ATOM      4  C4  IND d   1       0.851  -0.025  -1.616  0.00  0.00     0.051 A 
ATOM      5  C5  IND d   1       1.141  -0.797  -0.526  0.00  0.00    -0.031 A 
ATOM      6  C6  IND d   1       1.695  -0.262   0.619  0.00  0.00     0.015 A 
ATOM      7  C7  IND d   1       1.970   1.072   0.722  0.00  0.00    -0.016 A 
ATOM      8  C8  IND d   1       1.684   1.858  -0.386  0.00  0.00    -0.047 A 
ATOM      9  C9  IND d   1       1.161   1.314  -1.566  0.00  0.00    -0.096 A 
ATOM     10  HN1 IND d   1       2.178   3.768  -0.030  0.00  0.00     0.298 HD
ENDROOT
TORSDOF 0
ENDMDL
