MODEL 1
REMARK minimizedAffinity 3.90655136
REMARK minimizedRMSD -1
REMARK  0 active torsions:
REMARK  status: ('A' for Active; 'I' for Inactive)
ROOT
ATOM      1  N1  IND d   1       1.349  -2.496   0.089  0.00  0.00    -0.196 N 
ATOM      2  C2  IND d   1       0.667  -3.089  -0.937  0.00  0.00     0.054 A 
ATOM      3  C3  IND d   1       0.177  -2.152  -1.780  0.00  0.00    -0.031 A 
ATOM      4  C4  IND d   1       0.461   0.406  -1.726  0.00  0.00     0.051 A 
ATOM      5  C5  IND d   1       0.972   1.417  -0.962  0.00  0.00    -0.031 A 
ATOM      6  C6  IND d   1       1.651   1.171   0.214  0.00  0.00     0.015 A 
ATOM      7  C7  IND d   1       1.855  -0.103   0.665  0.00  0.00    -0.016 A 
ATOM      8  C8  IND d   1       1.332  -1.132  -0.104  0.00  0.00    -0.047 A 
ATOM      9  C9  IND d   1       0.605  -0.886  -1.276  0.00  0.00    -0.096 A 
ATOM     10  HN1 IND d   1       1.726  -2.905   0.744  0.00  0.00     0.298 HD
ENDROOT
TORSDOF 0
ENDMDL
