MODEL 1
REMARK minimizedAffinity 7.17685366
REMARK minimizedRMSD -1
REMARK  0 active torsions:
REMARK  status: ('A' for Active; 'I' for Inactive)
ROOT
ATOM      1  N1  IND d   1       2.615   5.169  -2.199  0.00  0.00    -0.196 N 
ATOM      2  C2  IND d   1       2.468   6.000  -1.124  0.00  0.00     0.054 A 
ATOM      3  C3  IND d   1       1.761   5.387  -0.148  0.00  0.00    -0.031 A 
ATOM      4  C4  IND d   1       0.833   2.987  -0.063  0.00  0.00     0.051 A 
ATOM      5  C5  IND d   1       0.685   1.862  -0.824  0.00  0.00    -0.031 A 
ATOM      6  C6  IND d   1       1.185   1.778  -2.107  0.00  0.00     0.015 A 
ATOM      7  C7  IND d   1       1.865   2.818  -2.676  0.00  0.00    -0.016 A 
ATOM      8  C8  IND d   1       2.011   3.965  -1.908  0.00  0.00    -0.047 A 
ATOM      9  C9  IND d   1       1.469   4.071  -0.621  0.00  0.00    -0.096 A 
ATOM     10  HN1 IND d   1       3.016   5.365  -2.934  0.00  0.00     0.298 HD
ENDROOT
TORSDOF 0
ENDMDL
