MODEL 1
REMARK minimizedAffinity -2.84745932
REMARK minimizedRMSD -1
REMARK  0 active torsions:
REMARK  status: ('A' for Active; 'I' for Inactive)
ROOT
ATOM      1  N1  IND d   1       0.868   1.100  -1.414  0.00  0.00    -0.196 N 
ATOM      2  C2  IND d   1       0.813   0.512  -0.181  0.00  0.00     0.054 A 
ATOM      3  C3  IND d   1       1.052   1.425   0.787  0.00  0.00    -0.031 A 
ATOM      4  C4  IND d   1       1.456   3.959   0.582  0.00  0.00     0.051 A 
ATOM      5  C5  IND d   1       1.633   4.950  -0.342  0.00  0.00    -0.031 A 
ATOM      6  C6  IND d   1       1.560   4.704  -1.698  0.00  0.00     0.015 A 
ATOM      7  C7  IND d   1       1.294   3.454  -2.182  0.00  0.00    -0.016 A 
ATOM      8  C8  IND d   1       1.121   2.444  -1.247  0.00  0.00    -0.047 A 
ATOM      9  C9  IND d   1       1.237   2.679   0.129  0.00  0.00    -0.096 A 
ATOM     10  HN1 IND d   1       0.762   0.698  -2.166  0.00  0.00     0.298 HD
ENDROOT
TORSDOF 0
ENDMDL
