MODEL 1
REMARK minimizedAffinity -2.11421204
REMARK minimizedRMSD -1
REMARK  0 active torsions:
REMARK  status: ('A' for Active; 'I' for Inactive)
ROOT
ATOM      1  N1  IND d   1       1.200   3.975   0.582  0.00  0.00    -0.196 N 
ATOM      2  C2  IND d   1       1.412   4.753  -0.522  0.00  0.00     0.054 A 
ATOM      3  C3  IND d   1       1.634   3.979  -1.608  0.00  0.00    -0.031 A 
ATOM      4  C4  IND d   1       1.592   1.414  -1.823  0.00  0.00     0.051 A 
ATOM      5  C5  IND d   1       1.477   0.272  -1.081  0.00  0.00    -0.031 A 
ATOM      6  C6  IND d   1       1.256   0.307   0.281  0.00  0.00     0.015 A 
ATOM      7  C7  IND d   1       1.130   1.491   0.952  0.00  0.00    -0.016 A 
ATOM      8  C8  IND d   1       1.254   2.652   0.202  0.00  0.00    -0.047 A 
ATOM      9  C9  IND d   1       1.521   2.623  -1.173  0.00  0.00    -0.096 A 
ATOM     10  HN1 IND d   1       1.056   4.264   1.379  0.00  0.00     0.298 HD
ENDROOT
TORSDOF 0
ENDMDL
