MODEL 1
REMARK minimizedAffinity 7.12940598
REMARK minimizedRMSD -1
REMARK  3 active torsions:
REMARK  status: ('A' for Active; 'I' for Inactive)
REMARK    1  A    between atoms: C3'_2  and  C2'_3 
REMARK    2  A    between atoms: C2'_3  and  C1'_4 
REMARK    3  A    between atoms: C1'_4  and  C1_5 
ROOT
ATOM      1  C1  N4B d   1      -0.615  -0.905  -1.700  0.00  0.00    -0.075 A 
ATOM      2  C2  N4B d   1       0.409  -0.757  -0.739  0.00  0.00     0.002 A 
ATOM      3  C3  N4B d   1       0.087  -0.562   0.582  0.00  0.00     0.002 A 
ATOM      4  C4  N4B d   1      -1.245  -0.492   0.961  0.00  0.00    -0.004 A 
ATOM      5  C5  N4B d   1      -2.228  -0.661   0.030  0.00  0.00     0.002 A 
ATOM      6  C6  N4B d   1      -1.919  -0.862  -1.301  0.00  0.00     0.002 A 
ENDROOT
BRANCH   1   7
ATOM      7  C1' N4B d   1      -0.313  -1.035  -3.168  0.00  0.00     0.057 C 
BRANCH   7   8
ATOM      8  C2' N4B d   1      -0.269   0.355  -3.795  0.00  0.00     0.009 C 
BRANCH   8   9
ATOM      9  C3' N4B d   1       1.037   0.606  -4.530  0.00  0.00     0.004 C 
ATOM     10  C4' N4B d   1       1.966   1.506  -3.771  0.00  0.00     0.003 C 
ENDBRANCH   8   9
ENDBRANCH   7   8
ENDBRANCH   1   7
TORSDOF 3
ENDMDL
