MODEL 1
REMARK minimizedAffinity -6.11358833
REMARK minimizedRMSD -1
REMARK  3 active torsions:
REMARK  status: ('A' for Active; 'I' for Inactive)
REMARK    1  A    between atoms: C3'_2  and  C2'_3 
REMARK    2  A    between atoms: C2'_3  and  C1'_4 
REMARK    3  A    between atoms: C1'_4  and  C1_5 
ROOT
ATOM      1  C1  N4B d   1       0.410   0.025   0.597  0.00  0.00    -0.075 A 
ATOM      2  C2  N4B d   1      -0.944   0.428   0.585  0.00  0.00     0.002 A 
ATOM      3  C3  N4B d   1      -1.503   0.987   1.708  0.00  0.00     0.002 A 
ATOM      4  C4  N4B d   1      -0.738   1.135   2.855  0.00  0.00    -0.004 A 
ATOM      5  C5  N4B d   1       0.575   0.766   2.851  0.00  0.00     0.002 A 
ATOM      6  C6  N4B d   1       1.152   0.207   1.728  0.00  0.00     0.002 A 
ENDROOT
BRANCH   1   7
ATOM      7  C1' N4B d   1       1.042  -0.669  -0.578  0.00  0.00     0.057 C 
BRANCH   7   8
ATOM      8  C2' N4B d   1       0.419  -0.140  -1.866  0.00  0.00     0.009 C 
BRANCH   8   9
ATOM      9  C3' N4B d   1       1.443  -0.009  -2.980  0.00  0.00     0.004 C 
ATOM     10  C4' N4B d   1       0.979   0.882  -4.094  0.00  0.00     0.003 C 
ENDBRANCH   8   9
ENDBRANCH   7   8
ENDBRANCH   1   7
TORSDOF 3
ENDMDL
