MODEL 1
REMARK minimizedAffinity -3.44003439
REMARK minimizedRMSD -1
REMARK  3 active torsions:
REMARK  status: ('A' for Active; 'I' for Inactive)
REMARK    1  A    between atoms: C3'_2  and  C2'_3 
REMARK    2  A    between atoms: C2'_3  and  C1'_4 
REMARK    3  A    between atoms: C1'_4  and  C1_5 
ROOT
ATOM      1  C1  N4B d   1       0.543   0.221   0.462  0.00  0.00    -0.075 A 
ATOM      2  C2  N4B d   1      -0.704   0.878   0.554  0.00  0.00     0.002 A 
ATOM      3  C3  N4B d   1      -1.085   1.464   1.736  0.00  0.00     0.002 A 
ATOM      4  C4  N4B d   1      -0.248   1.391   2.839  0.00  0.00    -0.004 A 
ATOM      5  C5  N4B d   1       0.966   0.778   2.734  0.00  0.00     0.002 A 
ATOM      6  C6  N4B d   1       1.364   0.187   1.552  0.00  0.00     0.002 A 
ENDROOT
BRANCH   1   7
ATOM      7  C1' N4B d   1       0.966  -0.509  -0.784  0.00  0.00     0.057 C 
BRANCH   7   8
ATOM      8  C2' N4B d   1      -0.214  -0.578  -1.749  0.00  0.00     0.009 C 
BRANCH   8   9
ATOM      9  C3' N4B d   1       0.176  -0.154  -3.154  0.00  0.00     0.004 C 
ATOM     10  C4' N4B d   1      -0.381  -1.062  -4.210  0.00  0.00     0.003 C 
ENDBRANCH   8   9
ENDBRANCH   7   8
ENDBRANCH   1   7
TORSDOF 3
ENDMDL
