MODEL 1
REMARK minimizedAffinity -5.60589314
REMARK minimizedRMSD -1
REMARK  3 active torsions:
REMARK  status: ('A' for Active; 'I' for Inactive)
REMARK    1  A    between atoms: C3'_2  and  C2'_3 
REMARK    2  A    between atoms: C2'_3  and  C1'_4 
REMARK    3  A    between atoms: C1'_4  and  C1_5 
ROOT
ATOM      1  C1  N4B d   1      -0.015   0.177   0.455  0.00  0.00    -0.075 A 
ATOM      2  C2  N4B d   1      -1.110   0.859   1.030  0.00  0.00     0.002 A 
ATOM      3  C3  N4B d   1      -1.024   1.338   2.314  0.00  0.00     0.002 A 
ATOM      4  C4  N4B d   1       0.136   1.131   3.047  0.00  0.00    -0.004 A 
ATOM      5  C5  N4B d   1       1.198   0.494   2.476  0.00  0.00     0.002 A 
ATOM      6  C6  N4B d   1       1.127   0.011   1.185  0.00  0.00     0.002 A 
ENDROOT
BRANCH   1   7
ATOM      7  C1' N4B d   1      -0.093  -0.439  -0.915  0.00  0.00     0.057 C 
BRANCH   7   8
ATOM      8  C2' N4B d   1       1.259  -0.294  -1.607  0.00  0.00     0.009 C 
BRANCH   8   9
ATOM      9  C3' N4B d   1       1.109  -0.030  -3.096  0.00  0.00     0.004 C 
ATOM     10  C4' N4B d   1       2.333   0.590  -3.701  0.00  0.00     0.003 C 
ENDBRANCH   8   9
ENDBRANCH   7   8
ENDBRANCH   1   7
TORSDOF 3
ENDMDL
