MODEL 1
REMARK minimizedAffinity -5.73700571
REMARK minimizedRMSD -1
REMARK  3 active torsions:
REMARK  status: ('A' for Active; 'I' for Inactive)
REMARK    1  A    between atoms: C3'_2  and  C2'_3 
REMARK    2  A    between atoms: C2'_3  and  C1'_4 
REMARK    3  A    between atoms: C1'_4  and  C1_5 
ROOT
ATOM      1  C1  N4B d   1       0.110   0.377   0.268  0.00  0.00    -0.075 A 
ATOM      2  C2  N4B d   1      -1.100   0.738   0.900  0.00  0.00     0.002 A 
ATOM      3  C3  N4B d   1      -1.143   0.891   2.264  0.00  0.00     0.002 A 
ATOM      4  C4  N4B d   1       0.002   0.671   3.015  0.00  0.00    -0.004 A 
ATOM      5  C5  N4B d   1       1.173   0.348   2.395  0.00  0.00     0.002 A 
ATOM      6  C6  N4B d   1       1.232   0.194   1.024  0.00  0.00     0.002 A 
ENDROOT
BRANCH   1   7
ATOM      7  C1' N4B d   1       0.186   0.114  -1.211  0.00  0.00     0.057 C 
BRANCH   7   8
ATOM      8  C2' N4B d   1       1.071   1.172  -1.864  0.00  0.00     0.009 C 
BRANCH   8   9
ATOM      9  C3' N4B d   1       1.270   0.910  -3.347  0.00  0.00     0.004 C 
ATOM     10  C4' N4B d   1      -0.023   0.838  -4.102  0.00  0.00     0.003 C 
ENDBRANCH   8   9
ENDBRANCH   7   8
ENDBRANCH   1   7
TORSDOF 3
ENDMDL
