MODEL 1
REMARK minimizedAffinity -4.2759757
REMARK minimizedRMSD -1
REMARK  3 active torsions:
REMARK  status: ('A' for Active; 'I' for Inactive)
REMARK    1  A    between atoms: C3'_2  and  C2'_3 
REMARK    2  A    between atoms: C2'_3  and  C1'_4 
REMARK    3  A    between atoms: C1'_4  and  C1_5 
ROOT
ATOM      1  C1  N4B d   1      -0.006  -0.049   0.118  0.00  0.00    -0.075 A 
ATOM      2  C2  N4B d   1       0.595   1.177   0.479  0.00  0.00     0.002 A 
ATOM      3  C3  N4B d   1       1.939   1.227   0.756  0.00  0.00     0.002 A 
ATOM      4  C4  N4B d   1       2.696   0.067   0.697  0.00  0.00    -0.004 A 
ATOM      5  C5  N4B d   1       2.113  -1.108   0.322  0.00  0.00     0.002 A 
ATOM      6  C6  N4B d   1       0.764  -1.173   0.037  0.00  0.00     0.002 A 
ENDROOT
BRANCH   1   7
ATOM      7  C1' N4B d   1      -1.487  -0.171  -0.110  0.00  0.00     0.057 C 
BRANCH   7   8
ATOM      8  C2' N4B d   1      -1.744  -0.480  -1.582  0.00  0.00     0.009 C 
BRANCH   8   9
ATOM      9  C3' N4B d   1      -2.909   0.321  -2.137  0.00  0.00     0.004 C 
ATOM     10  C4' N4B d   1      -2.488   1.318  -3.175  0.00  0.00     0.003 C 
ENDBRANCH   8   9
ENDBRANCH   7   8
ENDBRANCH   1   7
TORSDOF 3
ENDMDL
