MODEL 1
REMARK minimizedAffinity -2.56676316
REMARK minimizedRMSD -1
REMARK  3 active torsions:
REMARK  status: ('A' for Active; 'I' for Inactive)
REMARK    1  A    between atoms: C3'_2  and  C2'_3 
REMARK    2  A    between atoms: C2'_3  and  C1'_4 
REMARK    3  A    between atoms: C1'_4  and  C1_5 
ROOT
ATOM      1  C1  N4B d   1      -0.995   0.023  -2.140  0.00  0.00    -0.075 A 
ATOM      2  C2  N4B d   1      -2.249   0.012  -1.492  0.00  0.00     0.002 A 
ATOM      3  C3  N4B d   1      -3.405   0.011  -2.233  0.00  0.00     0.002 A 
ATOM      4  C4  N4B d   1      -3.332   0.039  -3.618  0.00  0.00    -0.004 A 
ATOM      5  C5  N4B d   1      -2.116   0.023  -4.236  0.00  0.00     0.002 A 
ATOM      6  C6  N4B d   1      -0.946   0.020  -3.504  0.00  0.00     0.002 A 
ENDROOT
BRANCH   1   7
ATOM      7  C1' N4B d   1       0.295   0.111  -1.371  0.00  0.00     0.057 C 
BRANCH   7   8
ATOM      8  C2' N4B d   1       0.023   0.734  -0.005  0.00  0.00     0.009 C 
BRANCH   8   9
ATOM      9  C3' N4B d   1       1.306   1.121   0.709  0.00  0.00     0.004 C 
ATOM     10  C4' N4B d   1       2.393   1.541  -0.235  0.00  0.00     0.003 C 
ENDBRANCH   8   9
ENDBRANCH   7   8
ENDBRANCH   1   7
TORSDOF 3
ENDMDL
