MODEL 1
REMARK minimizedAffinity -4.27636242
REMARK minimizedRMSD -1
REMARK  3 active torsions:
REMARK  status: ('A' for Active; 'I' for Inactive)
REMARK    1  A    between atoms: C3'_2  and  C2'_3 
REMARK    2  A    between atoms: C2'_3  and  C1'_4 
REMARK    3  A    between atoms: C1'_4  and  C1_5 
ROOT
ATOM      1  C1  N4B d   1      -0.062   0.126   0.145  0.00  0.00    -0.075 A 
ATOM      2  C2  N4B d   1       0.876  -0.473   1.015  0.00  0.00     0.002 A 
ATOM      3  C3  N4B d   1       2.150   0.033   1.104  0.00  0.00     0.002 A 
ATOM      4  C4  N4B d   1       2.513   1.119   0.322  0.00  0.00    -0.004 A 
ATOM      5  C5  N4B d   1       1.593   1.707  -0.497  0.00  0.00     0.002 A 
ATOM      6  C6  N4B d   1       0.308   1.212  -0.593  0.00  0.00     0.002 A 
ENDROOT
BRANCH   1   7
ATOM      7  C1' N4B d   1      -1.441  -0.444  -0.050  0.00  0.00     0.057 C 
BRANCH   7   8
ATOM      8  C2' N4B d   1      -2.192   0.402  -1.074  0.00  0.00     0.009 C 
BRANCH   8   9
ATOM      9  C3' N4B d   1      -2.612  -0.413  -2.285  0.00  0.00     0.004 C 
ATOM     10  C4' N4B d   1      -2.602   0.386  -3.554  0.00  0.00     0.003 C 
ENDBRANCH   8   9
ENDBRANCH   7   8
ENDBRANCH   1   7
TORSDOF 3
ENDMDL
