MODEL 1
REMARK minimizedAffinity 7.4306922
REMARK minimizedRMSD -1
REMARK  1 active torsions:
REMARK  status: ('A' for Active; 'I' for Inactive)
REMARK    1  A    between atoms: C3_4  and  O_7 
ROOT
ATOM      1  C   UNL d   1       4.518   4.090  -5.999  0.00  0.00    -0.033 A 
ATOM      2  C1  UNL d   1       3.175   3.709  -5.999  0.00  0.00     0.039 A 
ATOM      3  C2  UNL d   1       2.831   2.356  -5.994  0.00  0.00    -0.080 A 
ATOM      4  C3  UNL d   1       3.839   1.395  -5.987  0.00  0.00     0.150 A 
ATOM      5  C4  UNL d   1       5.179   1.768  -5.983  0.00  0.00    -0.007 A 
ATOM      6  C5  UNL d   1       5.520   3.119  -5.990  0.00  0.00     0.039 A 
ENDROOT
BRANCH   4   7
ATOM      7  O   UNL d   1       3.553   0.062  -5.986  0.00  0.00    -0.526 OA
ATOM      8  H5  UNL d   1       2.588  -0.045  -6.018  0.00  0.00     0.418 HD
ENDBRANCH   4   7
TORSDOF 1
ENDMDL
