MODEL 1
REMARK minimizedAffinity -0.569688797
REMARK minimizedRMSD -1
REMARK  1 active torsions:
REMARK  status: ('A' for Active; 'I' for Inactive)
REMARK    1  A    between atoms: C3_4  and  O_7 
ROOT
ATOM      1  C   UNL d   1       2.772  -3.567   0.110  0.00  0.00    -0.033 A 
ATOM      2  C1  UNL d   1       2.436  -2.645   1.104  0.00  0.00     0.039 A 
ATOM      3  C2  UNL d   1       3.145  -2.622   2.306  0.00  0.00    -0.080 A 
ATOM      4  C3  UNL d   1       4.187  -3.524   2.502  0.00  0.00     0.150 A 
ATOM      5  C4  UNL d   1       4.530  -4.443   1.515  0.00  0.00    -0.007 A 
ATOM      6  C5  UNL d   1       3.820  -4.465   0.315  0.00  0.00     0.039 A 
ENDROOT
BRANCH   4   7
ATOM      7  O   UNL d   1       4.905  -3.543   3.661  0.00  0.00    -0.526 OA
ATOM      8  H5  UNL d   1       4.538  -2.873   4.261  0.00  0.00     0.418 HD
ENDBRANCH   4   7
TORSDOF 1
ENDMDL
