MODEL 1
REMARK minimizedAffinity 4.09382582
REMARK minimizedRMSD -1
REMARK  1 active torsions:
REMARK  status: ('A' for Active; 'I' for Inactive)
REMARK    1  A    between atoms: C3_4  and  O_7 
ROOT
ATOM      1  C   UNL d   1       1.557   3.828  -5.897  0.00  0.00    -0.033 A 
ATOM      2  C1  UNL d   1       2.678   2.997  -5.892  0.00  0.00     0.039 A 
ATOM      3  C2  UNL d   1       3.960   3.550  -5.924  0.00  0.00    -0.080 A 
ATOM      4  C3  UNL d   1       4.106   4.934  -5.960  0.00  0.00     0.150 A 
ATOM      5  C4  UNL d   1       2.993   5.768  -5.961  0.00  0.00    -0.007 A 
ATOM      6  C5  UNL d   1       1.714   5.214  -5.930  0.00  0.00     0.039 A 
ENDROOT
BRANCH   4   7
ATOM      7  O   UNL d   1       5.337   5.520  -5.998  0.00  0.00    -0.526 OA
ATOM      8  H5  UNL d   1       6.010   4.819  -6.021  0.00  0.00     0.418 HD
ENDBRANCH   4   7
TORSDOF 1
ENDMDL
