MODEL 1
REMARK minimizedAffinity 1.06746089
REMARK minimizedRMSD -1
REMARK  1 active torsions:
REMARK  status: ('A' for Active; 'I' for Inactive)
REMARK    1  A    between atoms: C3_4  and  O_7 
ROOT
ATOM      1  C   UNL d   1       1.520   2.310  -5.993  0.00  0.00    -0.033 A 
ATOM      2  C1  UNL d   1       2.854   1.897  -5.983  0.00  0.00     0.039 A 
ATOM      3  C2  UNL d   1       3.880   2.844  -5.984  0.00  0.00    -0.080 A 
ATOM      4  C3  UNL d   1       3.559   4.199  -5.994  0.00  0.00     0.150 A 
ATOM      5  C4  UNL d   1       2.232   4.617  -6.000  0.00  0.00    -0.007 A 
ATOM      6  C5  UNL d   1       1.209   3.670  -6.000  0.00  0.00     0.039 A 
ENDROOT
BRANCH   4   7
ATOM      7  O   UNL d   1       4.526   5.160  -6.000  0.00  0.00    -0.526 OA
ATOM      8  H5  UNL d   1       5.394   4.723  -6.024  0.00  0.00     0.418 HD
ENDBRANCH   4   7
TORSDOF 1
ENDMDL
