MODEL 1
REMARK minimizedAffinity -0.940487921
REMARK minimizedRMSD -1
REMARK  1 active torsions:
REMARK  status: ('A' for Active; 'I' for Inactive)
REMARK    1  A    between atoms: C3_4  and  O_7 
ROOT
ATOM      1  C   UNL d   1       4.543  -5.622   3.967  0.00  0.00    -0.033 A 
ATOM      2  C1  UNL d   1       4.939  -5.718   5.303  0.00  0.00     0.039 A 
ATOM      3  C2  UNL d   1       5.336  -4.575   5.999  0.00  0.00    -0.080 A 
ATOM      4  C3  UNL d   1       5.331  -3.343   5.350  0.00  0.00     0.150 A 
ATOM      5  C4  UNL d   1       4.933  -3.239   4.021  0.00  0.00    -0.007 A 
ATOM      6  C5  UNL d   1       4.538  -4.382   3.327  0.00  0.00     0.039 A 
ENDROOT
BRANCH   4   7
ATOM      7  O   UNL d   1       5.715  -2.201   5.987  0.00  0.00    -0.526 OA
ATOM      8  H5  UNL d   1       5.990  -2.430   6.891  0.00  0.00     0.418 HD
ENDBRANCH   4   7
TORSDOF 1
ENDMDL
