MODEL 1
REMARK minimizedAffinity -3.60914278
REMARK minimizedRMSD -1
REMARK  1 active torsions:
REMARK  status: ('A' for Active; 'I' for Inactive)
REMARK    1  A    between atoms: C3_4  and  O_7 
ROOT
ATOM      1  C   UNL d   1       5.038   3.956  -5.816  0.00  0.00    -0.033 A 
ATOM      2  C1  UNL d   1       3.858   3.210  -5.867  0.00  0.00     0.039 A 
ATOM      3  C2  UNL d   1       2.621   3.851  -5.779  0.00  0.00    -0.080 A 
ATOM      4  C3  UNL d   1       2.577   5.236  -5.642  0.00  0.00     0.150 A 
ATOM      5  C4  UNL d   1       3.748   5.985  -5.595  0.00  0.00    -0.007 A 
ATOM      6  C5  UNL d   1       4.982   5.343  -5.682  0.00  0.00     0.039 A 
ENDROOT
BRANCH   4   7
ATOM      7  O   UNL d   1       1.393   5.905  -5.548  0.00  0.00    -0.526 OA
ATOM      8  H5  UNL d   1       0.670   5.256  -5.567  0.00  0.00     0.418 HD
ENDBRANCH   4   7
TORSDOF 1
ENDMDL
