MODEL 1
REMARK minimizedAffinity -3.9147284
REMARK minimizedRMSD -1
REMARK  1 active torsions:
REMARK  status: ('A' for Active; 'I' for Inactive)
REMARK    1  A    between atoms: C3_4  and  O_7 
ROOT
ATOM      1  C   UNL d   1       2.749  -2.637  -0.364  0.00  0.00    -0.033 A 
ATOM      2  C1  UNL d   1       3.937  -3.367  -0.284  0.00  0.00     0.039 A 
ATOM      3  C2  UNL d   1       4.524  -3.613   0.959  0.00  0.00    -0.080 A 
ATOM      4  C3  UNL d   1       3.915  -3.126   2.111  0.00  0.00     0.150 A 
ATOM      5  C4  UNL d   1       2.730  -2.401   2.039  0.00  0.00    -0.007 A 
ATOM      6  C5  UNL d   1       2.145  -2.156   0.797  0.00  0.00     0.039 A 
ENDROOT
BRANCH   4   7
ATOM      7  O   UNL d   1       4.454  -3.336   3.346  0.00  0.00    -0.526 OA
ATOM      8  H5  UNL d   1       5.286  -3.826   3.239  0.00  0.00     0.418 HD
ENDBRANCH   4   7
TORSDOF 1
ENDMDL
