MODEL 1
REMARK minimizedAffinity -3.7033453
REMARK minimizedRMSD -1
REMARK  1 active torsions:
REMARK  status: ('A' for Active; 'I' for Inactive)
REMARK    1  A    between atoms: C3_4  and  O_7 
ROOT
ATOM      1  C   UNL d   1       5.522   4.514  -5.768  0.00  0.00    -0.033 A 
ATOM      2  C1  UNL d   1       4.989   5.801  -5.680  0.00  0.00     0.039 A 
ATOM      3  C2  UNL d   1       3.608   5.994  -5.755  0.00  0.00    -0.080 A 
ATOM      4  C3  UNL d   1       2.772   4.892  -5.916  0.00  0.00     0.150 A 
ATOM      5  C4  UNL d   1       3.296   3.606  -6.000  0.00  0.00    -0.007 A 
ATOM      6  C5  UNL d   1       4.675   3.416  -5.926  0.00  0.00     0.039 A 
ENDROOT
BRANCH   4   7
ATOM      7  O   UNL d   1       1.418   5.030  -5.999  0.00  0.00    -0.526 OA
ATOM      8  H5  UNL d   1       1.203   5.977  -5.954  0.00  0.00     0.418 HD
ENDBRANCH   4   7
TORSDOF 1
ENDMDL
