MODEL 1
REMARK minimizedAffinity 12.1499987
REMARK minimizedRMSD -1
REMARK  0 active torsions:
REMARK  status: ('A' for Active; 'I' for Inactive)
ROOT
ATOM      1  C   UNL d   1       2.079   3.449   4.185  0.00  0.00     0.023 A 
ATOM      2  C1  UNL d   1       1.918   4.197   5.351  0.00  0.00     0.003 A 
ATOM      3  C2  UNL d   1       2.990   4.927   5.868  0.00  0.00     0.048 A 
ATOM      4  C3  UNL d   1       4.221   4.906   5.212  0.00  0.00     0.023 A 
ATOM      5  C4  UNL d   1       4.387   4.160   4.045  0.00  0.00     0.048 A 
ATOM      6  C5  UNL d   1       3.312   3.430   3.533  0.00  0.00     0.003 A 
ATOM      7  I   UNL d   1       5.818   5.993   5.979  0.00  0.00    -0.146 I 
ENDROOT
TORSDOF 0
ENDMDL
