MODEL 1
REMARK minimizedAffinity 5.05533457
REMARK minimizedRMSD -1
REMARK  0 active torsions:
REMARK  status: ('A' for Active; 'I' for Inactive)
ROOT
ATOM      1  C   UNL d   1       4.278   4.043  -5.904  0.00  0.00     0.023 A 
ATOM      2  C1  UNL d   1       3.044   4.692  -5.975  0.00  0.00     0.003 A 
ATOM      3  C2  UNL d   1       1.863   3.947  -5.999  0.00  0.00     0.048 A 
ATOM      4  C3  UNL d   1       1.922   2.555  -5.950  0.00  0.00     0.023 A 
ATOM      5  C4  UNL d   1       3.154   1.902  -5.877  0.00  0.00     0.048 A 
ATOM      6  C5  UNL d   1       4.332   2.650  -5.855  0.00  0.00     0.003 A 
ATOM      7  I   UNL d   1       0.166   1.445  -5.985  0.00  0.00    -0.146 I 
ENDROOT
TORSDOF 0
ENDMDL
