MODEL 1
REMARK minimizedAffinity -2.20930529
REMARK minimizedRMSD -1
REMARK  0 active torsions:
REMARK  status: ('A' for Active; 'I' for Inactive)
ROOT
ATOM      1  C   UNL d   1       3.282   5.920  -5.806  0.00  0.00     0.023 A 
ATOM      2  C1  UNL d   1       2.666   4.680  -5.968  0.00  0.00     0.003 A 
ATOM      3  C2  UNL d   1       3.436   3.515  -6.000  0.00  0.00     0.048 A 
ATOM      4  C3  UNL d   1       4.821   3.598  -5.867  0.00  0.00     0.023 A 
ATOM      5  C4  UNL d   1       5.442   4.838  -5.703  0.00  0.00     0.048 A 
ATOM      6  C5  UNL d   1       4.669   5.999  -5.673  0.00  0.00     0.003 A 
ATOM      7  I   UNL d   1       5.969   1.866  -5.913  0.00  0.00    -0.146 I 
ENDROOT
TORSDOF 0
ENDMDL
