MODEL 1
REMARK minimizedAffinity -0.134049699
REMARK minimizedRMSD -1
REMARK  0 active torsions:
REMARK  status: ('A' for Active; 'I' for Inactive)
ROOT
ATOM      1  C   UNL d   1       0.980   4.337   3.404  0.00  0.00     0.023 A 
ATOM      2  C1  UNL d   1       0.852   5.510   4.149  0.00  0.00     0.003 A 
ATOM      3  C2  UNL d   1       1.931   5.987   4.894  0.00  0.00     0.048 A 
ATOM      4  C3  UNL d   1       3.137   5.288   4.890  0.00  0.00     0.023 A 
ATOM      5  C4  UNL d   1       3.271   4.114   4.146  0.00  0.00     0.048 A 
ATOM      6  C5  UNL d   1       2.189   3.640   3.403  0.00  0.00     0.003 A 
ATOM      7  I   UNL d   1       4.746   5.996   5.999  0.00  0.00    -0.146 I 
ENDROOT
TORSDOF 0
ENDMDL
