MODEL 1
REMARK minimizedAffinity -1.6819917
REMARK minimizedRMSD -1
REMARK  0 active torsions:
REMARK  status: ('A' for Active; 'I' for Inactive)
ROOT
ATOM      1  C   UNL d   1       1.612   6.000   5.725  0.00  0.00     0.023 A 
ATOM      2  C1  UNL d   1       2.880   5.423   5.791  0.00  0.00     0.003 A 
ATOM      3  C2  UNL d   1       3.267   4.474   4.842  0.00  0.00     0.048 A 
ATOM      4  C3  UNL d   1       2.380   4.107   3.830  0.00  0.00     0.023 A 
ATOM      5  C4  UNL d   1       1.111   4.683   3.760  0.00  0.00     0.048 A 
ATOM      6  C5  UNL d   1       0.728   5.631   4.711  0.00  0.00     0.003 A 
ATOM      7  I   UNL d   1       2.953   2.695   2.417  0.00  0.00    -0.146 I 
ENDROOT
TORSDOF 0
ENDMDL
