MODEL 1
REMARK minimizedAffinity 0.314294755
REMARK minimizedRMSD -1
REMARK  0 active torsions:
REMARK  status: ('A' for Active; 'I' for Inactive)
ROOT
ATOM      1  C   UNL d   1       0.370   6.000   4.913  0.00  0.00     0.023 A 
ATOM      2  C1  UNL d   1       1.762   5.934   4.986  0.00  0.00     0.003 A 
ATOM      3  C2  UNL d   1       2.457   4.980   4.239  0.00  0.00     0.048 A 
ATOM      4  C3  UNL d   1       1.754   4.095   3.422  0.00  0.00     0.023 A 
ATOM      5  C4  UNL d   1       0.362   4.158   3.346  0.00  0.00     0.048 A 
ATOM      6  C5  UNL d   1      -0.329   5.113   4.095  0.00  0.00     0.003 A 
ATOM      7  I   UNL d   1       2.786   2.674   2.311  0.00  0.00    -0.146 I 
ENDROOT
TORSDOF 0
ENDMDL
