MODEL 1
REMARK minimizedAffinity 2.03269672
REMARK minimizedRMSD -1
REMARK  0 active torsions:
REMARK  status: ('A' for Active; 'I' for Inactive)
ROOT
ATOM      1  C   UNL d   1       1.657   6.000   5.554  0.00  0.00     0.023 A 
ATOM      2  C1  UNL d   1       0.678   5.478   4.708  0.00  0.00     0.003 A 
ATOM      3  C2  UNL d   1       1.024   4.539   3.734  0.00  0.00     0.048 A 
ATOM      4  C3  UNL d   1       2.350   4.126   3.612  0.00  0.00     0.023 A 
ATOM      5  C4  UNL d   1       3.333   4.645   4.457  0.00  0.00     0.048 A 
ATOM      6  C5  UNL d   1       2.982   5.584   5.428  0.00  0.00     0.003 A 
ATOM      7  I   UNL d   1       2.867   2.728   2.163  0.00  0.00    -0.146 I 
ENDROOT
TORSDOF 0
ENDMDL
