MODEL 1
REMARK minimizedAffinity -2.20446634
REMARK minimizedRMSD -1
REMARK  0 active torsions:
REMARK  status: ('A' for Active; 'I' for Inactive)
ROOT
ATOM      1  C   UNL d   1       1.039   5.999   5.524  0.00  0.00     0.023 A 
ATOM      2  C1  UNL d   1       0.406   5.762   4.304  0.00  0.00     0.003 A 
ATOM      3  C2  UNL d   1       0.984   4.899   3.371  0.00  0.00     0.048 A 
ATOM      4  C3  UNL d   1       2.196   4.274   3.666  0.00  0.00     0.023 A 
ATOM      5  C4  UNL d   1       2.833   4.507   4.886  0.00  0.00     0.048 A 
ATOM      6  C5  UNL d   1       2.251   5.372   5.815  0.00  0.00     0.003 A 
ATOM      7  I   UNL d   1       3.059   2.989   2.280  0.00  0.00    -0.146 I 
ENDROOT
TORSDOF 0
ENDMDL
