MODEL 1
REMARK minimizedAffinity -1.76134574
REMARK minimizedRMSD -1
REMARK  0 active torsions:
REMARK  status: ('A' for Active; 'I' for Inactive)
ROOT
ATOM      1  C   UNL d   1       2.486   6.000   5.473  0.00  0.00     0.023 A 
ATOM      2  C1  UNL d   1       3.749   5.406   5.465  0.00  0.00     0.003 A 
ATOM      3  C2  UNL d   1       4.123   4.574   4.408  0.00  0.00     0.048 A 
ATOM      4  C3  UNL d   1       3.231   4.341   3.362  0.00  0.00     0.023 A 
ATOM      5  C4  UNL d   1       1.967   4.934   3.365  0.00  0.00     0.048 A 
ATOM      6  C5  UNL d   1       1.597   5.764   4.425  0.00  0.00     0.003 A 
ATOM      7  I   UNL d   1       3.787   3.103   1.787  0.00  0.00    -0.146 I 
ENDROOT
TORSDOF 0
ENDMDL
