MODEL 1
REMARK minimizedAffinity 0.792074919
REMARK minimizedRMSD -1
REMARK  0 active torsions:
REMARK  status: ('A' for Active; 'I' for Inactive)
ROOT
ATOM      1  C   UNL d   1       1.127   5.999   5.595  0.00  0.00     0.023 A 
ATOM      2  C1  UNL d   1       2.481   5.663   5.573  0.00  0.00     0.003 A 
ATOM      3  C2  UNL d   1       3.022   5.010   4.464  0.00  0.00     0.048 A 
ATOM      4  C3  UNL d   1       2.204   4.698   3.378  0.00  0.00     0.023 A 
ATOM      5  C4  UNL d   1       0.849   5.034   3.395  0.00  0.00     0.048 A 
ATOM      6  C5  UNL d   1       0.312   5.685   4.507  0.00  0.00     0.003 A 
ATOM      7  I   UNL d   1       3.007   3.727   1.726  0.00  0.00    -0.146 I 
ENDROOT
TORSDOF 0
ENDMDL
