MODEL 1
REMARK minimizedAffinity 0.0591218881
REMARK minimizedRMSD -1
REMARK  0 active torsions:
REMARK  status: ('A' for Active; 'I' for Inactive)
ROOT
ATOM      1  C   UNL d   1       0.377   4.238   3.742  0.00  0.00     0.023 A 
ATOM      2  C1  UNL d   1       0.370   5.491   4.354  0.00  0.00     0.003 A 
ATOM      3  C2  UNL d   1       1.541   5.998   4.922  0.00  0.00     0.048 A 
ATOM      4  C3  UNL d   1       2.715   5.247   4.872  0.00  0.00     0.023 A 
ATOM      5  C4  UNL d   1       2.726   3.993   4.259  0.00  0.00     0.048 A 
ATOM      6  C5  UNL d   1       1.553   3.490   3.694  0.00  0.00     0.003 A 
ATOM      7  I   UNL d   1       4.459   6.000   5.716  0.00  0.00    -0.146 I 
ENDROOT
TORSDOF 0
ENDMDL
