MODEL 1
REMARK minimizedAffinity -2.25558209
REMARK minimizedRMSD -1
REMARK  0 active torsions:
REMARK  status: ('A' for Active; 'I' for Inactive)
ROOT
ATOM      1  C1  BNZ d   1      -3.109  -2.050  -2.896  0.00  0.00     0.000 A 
ATOM      2  C2  BNZ d   1      -2.518  -2.400  -1.712  0.00  0.00     0.000 A 
ATOM      3  C3  BNZ d   1      -1.459  -1.688  -1.220  0.00  0.00     0.000 A 
ATOM      4  C4  BNZ d   1      -0.968  -0.654  -1.932  0.00  0.00     0.000 A 
ATOM      5  C5  BNZ d   1      -1.547  -0.294  -3.133  0.00  0.00     0.000 A 
ATOM      6  C6  BNZ d   1      -2.637  -0.989  -3.606  0.00  0.00     0.000 A 
ENDROOT
TORSDOF 0
ENDMDL
