MODEL 1
REMARK minimizedAffinity -4.47316647
REMARK minimizedRMSD -1
REMARK  0 active torsions:
REMARK  status: ('A' for Active; 'I' for Inactive)
ROOT
ATOM      1  C1  BNZ d   1       2.109   1.927   1.414  0.00  0.00     0.000 A 
ATOM      2  C2  BNZ d   1       0.782   1.825   1.737  0.00  0.00     0.000 A 
ATOM      3  C3  BNZ d   1       0.012   0.821   1.221  0.00  0.00     0.000 A 
ATOM      4  C4  BNZ d   1       0.558  -0.055   0.353  0.00  0.00     0.000 A 
ATOM      5  C5  BNZ d   1       1.892   0.041   0.011  0.00  0.00     0.000 A 
ATOM      6  C6  BNZ d   1       2.674   1.029   0.562  0.00  0.00     0.000 A 
ENDROOT
TORSDOF 0
ENDMDL
