MODEL 1
REMARK minimizedAffinity -4.183218
REMARK minimizedRMSD -1
REMARK  0 active torsions:
REMARK  status: ('A' for Active; 'I' for Inactive)
ROOT
ATOM      1  C1  BNZ d   1      -0.824   0.407   1.564  0.00  0.00     0.000 A 
ATOM      2  C2  BNZ d   1       0.001   1.437   1.930  0.00  0.00     0.000 A 
ATOM      3  C3  BNZ d   1       1.085   1.770   1.166  0.00  0.00     0.000 A 
ATOM      4  C4  BNZ d   1       1.365   1.049   0.062  0.00  0.00     0.000 A 
ATOM      5  C5  BNZ d   1       0.548   0.002  -0.316  0.00  0.00     0.000 A 
ATOM      6  C6  BNZ d   1      -0.565  -0.306   0.434  0.00  0.00     0.000 A 
ENDROOT
TORSDOF 0
ENDMDL
