MODEL 1
REMARK minimizedAffinity -4.69481659
REMARK minimizedRMSD -1
REMARK  0 active torsions:
REMARK  status: ('A' for Active; 'I' for Inactive)
ROOT
ATOM      1  C1  BNZ d   1       1.254   0.981  -0.212  0.00  0.00     0.000 A 
ATOM      2  C2  BNZ d   1       2.609   0.821  -0.095  0.00  0.00     0.000 A 
ATOM      3  C3  BNZ d   1       3.361   1.714   0.616  0.00  0.00     0.000 A 
ATOM      4  C4  BNZ d   1       2.763   2.786   1.175  0.00  0.00     0.000 A 
ATOM      5  C5  BNZ d   1       1.400   2.967   1.058  0.00  0.00     0.000 A 
ATOM      6  C6  BNZ d   1       0.641   2.045   0.374  0.00  0.00     0.000 A 
ENDROOT
TORSDOF 0
ENDMDL
