MODEL 1
REMARK minimizedAffinity -4.12759209
REMARK minimizedRMSD -1
REMARK  0 active torsions:
REMARK  status: ('A' for Active; 'I' for Inactive)
ROOT
ATOM      1  C1  BNZ d   1       1.330   1.022   0.110  0.00  0.00     0.000 A 
ATOM      2  C2  BNZ d   1       2.632   1.300   0.428  0.00  0.00     0.000 A 
ATOM      3  C3  BNZ d   1       2.937   2.115   1.483  0.00  0.00     0.000 A 
ATOM      4  C4  BNZ d   1       1.940   2.682   2.192  0.00  0.00     0.000 A 
ATOM      5  C5  BNZ d   1       0.621   2.419   1.878  0.00  0.00     0.000 A 
ATOM      6  C6  BNZ d   1       0.319   1.568   0.840  0.00  0.00     0.000 A 
ENDROOT
TORSDOF 0
ENDMDL
