MODEL 1
REMARK minimizedAffinity -4.61115599
REMARK minimizedRMSD -1
REMARK  0 active torsions:
REMARK  status: ('A' for Active; 'I' for Inactive)
ROOT
ATOM      1  C1  BNZ d   1       2.169   0.210  -0.315  0.00  0.00     0.000 A 
ATOM      2  C2  BNZ d   1       0.816   0.342  -0.148  0.00  0.00     0.000 A 
ATOM      3  C3  BNZ d   1       0.301   1.340   0.631  0.00  0.00     0.000 A 
ATOM      4  C4  BNZ d   1       1.140   2.178   1.274  0.00  0.00     0.000 A 
ATOM      5  C5  BNZ d   1       2.506   2.052   1.124  0.00  0.00     0.000 A 
ATOM      6  C6  BNZ d   1       3.020   1.070   0.307  0.00  0.00     0.000 A 
ENDROOT
TORSDOF 0
ENDMDL
