MODEL 1
REMARK minimizedAffinity -3.87728953
REMARK minimizedRMSD -1
REMARK  0 active torsions:
REMARK  status: ('A' for Active; 'I' for Inactive)
ROOT
ATOM      1  C1  BNZ d   1       0.979   0.895   0.142  0.00  0.00     0.000 A 
ATOM      2  C2  BNZ d   1       2.203   1.469  -0.077  0.00  0.00     0.000 A 
ATOM      3  C3  BNZ d   1       2.788   2.254   0.877  0.00  0.00     0.000 A 
ATOM      4  C4  BNZ d   1       2.132   2.498   2.029  0.00  0.00     0.000 A 
ATOM      5  C5  BNZ d   1       0.893   1.934   2.261  0.00  0.00     0.000 A 
ATOM      6  C6  BNZ d   1       0.324   1.112   1.315  0.00  0.00     0.000 A 
ENDROOT
TORSDOF 0
ENDMDL
