MODEL 1
REMARK minimizedAffinity -1.65455127
REMARK minimizedRMSD -1
REMARK  0 active torsions:
REMARK  status: ('A' for Active; 'I' for Inactive)
ROOT
ATOM      1  C1  BNZ d   1       0.171  -1.213  -0.343  0.00  0.00     0.000 A 
ATOM      2  C2  BNZ d   1       0.247  -0.409   0.763  0.00  0.00     0.000 A 
ATOM      3  C3  BNZ d   1      -0.509   0.726   0.855  0.00  0.00     0.000 A 
ATOM      4  C4  BNZ d   1      -1.308   1.077  -0.173  0.00  0.00     0.000 A 
ATOM      5  C5  BNZ d   1      -1.389   0.281  -1.299  0.00  0.00     0.000 A 
ATOM      6  C6  BNZ d   1      -0.656  -0.882  -1.372  0.00  0.00     0.000 A 
ENDROOT
TORSDOF 0
ENDMDL
