MODEL 1
REMARK minimizedAffinity -5.08931923
REMARK minimizedRMSD -1
REMARK  0 active torsions:
REMARK  status: ('A' for Active; 'I' for Inactive)
ROOT
ATOM      1  C1  BNZ d   1       0.562   0.206   0.026  0.00  0.00     0.000 A 
ATOM      2  C2  BNZ d   1       1.796   0.539  -0.466  0.00  0.00     0.000 A 
ATOM      3  C3  BNZ d   1       2.464   1.636   0.002  0.00  0.00     0.000 A 
ATOM      4  C4  BNZ d   1       1.880   2.420   0.932  0.00  0.00     0.000 A 
ATOM      5  C5  BNZ d   1       0.633   2.102   1.432  0.00  0.00     0.000 A 
ATOM      6  C6  BNZ d   1      -0.019   0.975   0.986  0.00  0.00     0.000 A 
ENDROOT
TORSDOF 0
ENDMDL
