MODEL 1
REMARK minimizedAffinity 0.709763288
REMARK minimizedRMSD -1
REMARK  0 active torsions:
REMARK  status: ('A' for Active; 'I' for Inactive)
ROOT
ATOM      1  C1  BNZ d   1       0.377  -0.545   0.484  0.00  0.00     0.000 A 
ATOM      2  C2  BNZ d   1       0.176  -0.244   1.805  0.00  0.00     0.000 A 
ATOM      3  C3  BNZ d   1      -0.905   0.495   2.197  0.00  0.00     0.000 A 
ATOM      4  C4  BNZ d   1      -1.760   0.966   1.266  0.00  0.00     0.000 A 
ATOM      5  C5  BNZ d   1      -1.565   0.679  -0.071  0.00  0.00     0.000 A 
ATOM      6  C6  BNZ d   1      -0.497  -0.098  -0.458  0.00  0.00     0.000 A 
ENDROOT
TORSDOF 0
ENDMDL
