MODEL 1
REMARK minimizedAffinity -4.7023797
REMARK minimizedRMSD -1
REMARK  0 active torsions:
REMARK  status: ('A' for Active; 'I' for Inactive)
ROOT
ATOM      1  C1  BNZ d   1       0.357  -0.027   0.026  0.00  0.00     0.000 A 
ATOM      2  C2  BNZ d   1      -0.125   0.942   0.866  0.00  0.00     0.000 A 
ATOM      3  C3  BNZ d   1       0.717   1.855   1.437  0.00  0.00     0.000 A 
ATOM      4  C4  BNZ d   1       2.042   1.774   1.200  0.00  0.00     0.000 A 
ATOM      5  C5  BNZ d   1       2.544   0.797   0.363  0.00  0.00     0.000 A 
ATOM      6  C6  BNZ d   1       1.689  -0.096  -0.241  0.00  0.00     0.000 A 
ENDROOT
TORSDOF 0
ENDMDL
