MODEL 1
REMARK minimizedAffinity -3.10958695
REMARK minimizedRMSD -1
REMARK  0 active torsions:
REMARK  status: ('A' for Active; 'I' for Inactive)
ROOT
ATOM      1  C1  BNZ d   1      -0.176  -0.352   0.012  0.00  0.00     0.000 A 
ATOM      2  C2  BNZ d   1      -0.796   0.405   0.969  0.00  0.00     0.000 A 
ATOM      3  C3  BNZ d   1      -0.066   1.117   1.880  0.00  0.00     0.000 A 
ATOM      4  C4  BNZ d   1       1.280   1.040   1.857  0.00  0.00     0.000 A 
ATOM      5  C5  BNZ d   1       1.920   0.273   0.903  0.00  0.00     0.000 A 
ATOM      6  C6  BNZ d   1       1.183  -0.412  -0.036  0.00  0.00     0.000 A 
ENDROOT
TORSDOF 0
ENDMDL
