MODEL 1
REMARK minimizedAffinity -4.88631296
REMARK minimizedRMSD -1
REMARK  0 active torsions:
REMARK  status: ('A' for Active; 'I' for Inactive)
ROOT
ATOM      1  C1  BNZ d   1       1.149   0.080  -0.500  0.00  0.00     0.000 A 
ATOM      2  C2  BNZ d   1       2.121   0.884   0.033  0.00  0.00     0.000 A 
ATOM      3  C3  BNZ d   1       1.799   1.891   0.899  0.00  0.00     0.000 A 
ATOM      4  C4  BNZ d   1       0.504   2.118   1.200  0.00  0.00     0.000 A 
ATOM      5  C5  BNZ d   1      -0.488   1.322   0.664  0.00  0.00     0.000 A 
ATOM      6  C6  BNZ d   1      -0.157   0.285  -0.177  0.00  0.00     0.000 A 
ENDROOT
TORSDOF 0
ENDMDL
