MODEL 1
REMARK minimizedAffinity -4.55340004
REMARK minimizedRMSD -1
REMARK  1 active torsions:
REMARK  status: ('A' for Active; 'I' for Inactive)
REMARK    1  A    between atoms: C1_2  and  C2_3 
ROOT
ATOM      1  C2  UNL d   1      -0.775   0.083   1.213  0.00  0.00    -0.073 A 
ATOM      2  C3  UNL d   1      -1.202   0.897   2.269  0.00  0.00    -0.002 A 
ATOM      3  C4  UNL d   1      -0.272   1.479   3.131  0.00  0.00     0.004 A 
ATOM      4  C5  UNL d   1       1.093   1.261   2.942  0.00  0.00    -0.004 A 
ATOM      5  C6  UNL d   1       1.540   0.461   1.885  0.00  0.00    -0.075 A 
ATOM      6  C7  UNL d   1       3.004   0.215   1.670  0.00  0.00     0.076 C 
ATOM      7  C8  UNL d   1       0.599  -0.123   1.026  0.00  0.00     0.001 A 
ENDROOT
BRANCH   1   8
ATOM      8  C1  UNL d   1      -1.775  -0.543   0.276  0.00  0.00     0.053 C 
ATOM      9  C   UNL d   1      -3.038   0.294   0.148  0.00  0.00     0.018 C 
ENDBRANCH   1   8
TORSDOF 1
ENDMDL
