MODEL 1
REMARK minimizedAffinity -1.32621145
REMARK minimizedRMSD -1
REMARK  1 active torsions:
REMARK  status: ('A' for Active; 'I' for Inactive)
REMARK    1  A    between atoms: C1_2  and  C2_3 
ROOT
ATOM      1  C2  UNL d   1      -0.897   0.585   2.109  0.00  0.00    -0.073 A 
ATOM      2  C3  UNL d   1      -1.537   0.112   0.958  0.00  0.00    -0.002 A 
ATOM      3  C4  UNL d   1      -0.873   0.117  -0.270  0.00  0.00     0.004 A 
ATOM      4  C5  UNL d   1       0.437   0.587  -0.357  0.00  0.00    -0.004 A 
ATOM      5  C6  UNL d   1       1.097   1.052   0.784  0.00  0.00    -0.075 A 
ATOM      6  C7  UNL d   1       2.506   1.563   0.706  0.00  0.00     0.076 C 
ATOM      7  C8  UNL d   1       0.423   1.047   2.013  0.00  0.00     0.001 A 
ENDROOT
BRANCH   1   8
ATOM      8  C1  UNL d   1      -1.608   0.576   3.438  0.00  0.00     0.053 C 
ATOM      9  C   UNL d   1      -2.183  -0.792   3.768  0.00  0.00     0.018 C 
ENDBRANCH   1   8
TORSDOF 1
ENDMDL
