MODEL 1
REMARK minimizedAffinity -3.50990248
REMARK minimizedRMSD -1
REMARK  1 active torsions:
REMARK  status: ('A' for Active; 'I' for Inactive)
REMARK    1  A    between atoms: C1_2  and  C2_3 
ROOT
ATOM      1  C2  UNL d   1      -0.532   0.068   0.649  0.00  0.00    -0.073 A 
ATOM      2  C3  UNL d   1      -0.111  -0.928  -0.241  0.00  0.00    -0.002 A 
ATOM      3  C4  UNL d   1       1.250  -1.161  -0.444  0.00  0.00     0.004 A 
ATOM      4  C5  UNL d   1       2.202  -0.409   0.243  0.00  0.00    -0.004 A 
ATOM      5  C6  UNL d   1       1.801   0.582   1.145  0.00  0.00    -0.075 A 
ATOM      6  C7  UNL d   1       2.813   1.401   1.891  0.00  0.00     0.076 C 
ATOM      7  C8  UNL d   1       0.433   0.813   1.342  0.00  0.00     0.001 A 
ENDROOT
BRANCH   1   8
ATOM      8  C1  UNL d   1      -2.000   0.319   0.877  0.00  0.00     0.053 C 
ATOM      9  C   UNL d   1      -2.402   0.075   2.323  0.00  0.00     0.018 C 
ENDBRANCH   1   8
TORSDOF 1
ENDMDL
