MODEL 1
REMARK minimizedAffinity 3.15759945
REMARK minimizedRMSD -1
REMARK  1 active torsions:
REMARK  status: ('A' for Active; 'I' for Inactive)
REMARK    1  A    between atoms: C1_2  and  C2_3 
ROOT
ATOM      1  C2  UNL d   1      -0.584  -0.501   2.808  0.00  0.00    -0.073 A 
ATOM      2  C3  UNL d   1      -1.881  -1.026   2.784  0.00  0.00    -0.002 A 
ATOM      3  C4  UNL d   1      -2.653  -0.945   1.624  0.00  0.00     0.004 A 
ATOM      4  C5  UNL d   1      -2.134  -0.346   0.476  0.00  0.00    -0.004 A 
ATOM      5  C6  UNL d   1      -0.836   0.174   0.477  0.00  0.00    -0.075 A 
ATOM      6  C7  UNL d   1      -0.264   0.824  -0.749  0.00  0.00     0.076 C 
ATOM      7  C8  UNL d   1      -0.068   0.092   1.647  0.00  0.00     0.001 A 
ENDROOT
BRANCH   1   8
ATOM      8  C1  UNL d   1       0.255  -0.591   4.056  0.00  0.00     0.053 C 
ATOM      9  C   UNL d   1       0.093  -1.931   4.757  0.00  0.00     0.018 C 
ENDBRANCH   1   8
TORSDOF 1
ENDMDL
