MODEL 1
REMARK minimizedAffinity 9.40427876
REMARK minimizedRMSD -1
REMARK  0 active torsions:
REMARK  status: ('A' for Active; 'I' for Inactive)
ROOT
ATOM      1  C   UNL d   1      -0.345  -2.836  -2.542  0.00  0.00     0.077 C 
ATOM      2  C1  UNL d   1      -1.435  -2.722  -3.566  0.00  0.00    -0.074 A 
ATOM      3  C2  UNL d   1      -1.841  -1.474  -4.049  0.00  0.00    -0.005 A 
ATOM      4  C3  UNL d   1      -2.850  -1.385  -5.008  0.00  0.00     0.006 A 
ATOM      5  C4  UNL d   1      -3.462  -2.541  -5.493  0.00  0.00    -0.005 A 
ATOM      6  C5  UNL d   1      -3.069  -3.798  -5.023  0.00  0.00    -0.074 A 
ATOM      7  C6  UNL d   1      -3.710  -5.051  -5.542  0.00  0.00     0.077 C 
ATOM      8  C7  UNL d   1      -2.050  -3.880  -4.065  0.00  0.00    -0.001 A 
ENDROOT
TORSDOF 0
ENDMDL
