MODEL 1
REMARK minimizedAffinity -2.354671
REMARK minimizedRMSD -1
REMARK  0 active torsions:
REMARK  status: ('A' for Active; 'I' for Inactive)
ROOT
ATOM      1  C   UNL d   1       6.000  -1.951   4.112  0.00  0.00     0.077 C 
ATOM      2  C1  UNL d   1       5.073  -1.241   3.170  0.00  0.00    -0.074 A 
ATOM      3  C2  UNL d   1       3.886  -1.842   2.740  0.00  0.00    -0.005 A 
ATOM      4  C3  UNL d   1       3.029  -1.165   1.872  0.00  0.00     0.006 A 
ATOM      5  C4  UNL d   1       3.351   0.117   1.426  0.00  0.00    -0.005 A 
ATOM      6  C5  UNL d   1       4.533   0.735   1.846  0.00  0.00    -0.074 A 
ATOM      7  C6  UNL d   1       4.888   2.117   1.385  0.00  0.00     0.077 C 
ATOM      8  C7  UNL d   1       5.385   0.051   2.724  0.00  0.00    -0.001 A 
ENDROOT
TORSDOF 0
ENDMDL
