MODEL 1
REMARK minimizedAffinity 5.40447664
REMARK minimizedRMSD -1
REMARK  0 active torsions:
REMARK  status: ('A' for Active; 'I' for Inactive)
ROOT
ATOM      1  C   UNL d   1       3.910   1.918   2.227  0.00  0.00     0.077 C 
ATOM      2  C1  UNL d   1       3.918   1.835   0.730  0.00  0.00    -0.074 A 
ATOM      3  C2  UNL d   1       2.938   1.107   0.045  0.00  0.00    -0.005 A 
ATOM      4  C3  UNL d   1       2.953   1.046  -1.348  0.00  0.00     0.006 A 
ATOM      5  C4  UNL d   1       3.945   1.711  -2.070  0.00  0.00    -0.005 A 
ATOM      6  C5  UNL d   1       4.931   2.444  -1.403  0.00  0.00    -0.074 A 
ATOM      7  C6  UNL d   1       5.999   3.172  -2.165  0.00  0.00     0.077 C 
ATOM      8  C7  UNL d   1       4.906   2.506  -0.003  0.00  0.00    -0.001 A 
ENDROOT
TORSDOF 0
ENDMDL
