MODEL 1
REMARK minimizedAffinity 10.1698065
REMARK minimizedRMSD -1
REMARK  0 active torsions:
REMARK  status: ('A' for Active; 'I' for Inactive)
ROOT
ATOM      1  C   UNL d   1      -0.164  -1.042  -1.279  0.00  0.00     0.077 C 
ATOM      2  C1  UNL d   1      -1.041  -1.506  -2.404  0.00  0.00    -0.074 A 
ATOM      3  C2  UNL d   1      -1.054  -2.848  -2.799  0.00  0.00    -0.005 A 
ATOM      4  C3  UNL d   1      -1.882  -3.267  -3.840  0.00  0.00     0.006 A 
ATOM      5  C4  UNL d   1      -2.704  -2.350  -4.496  0.00  0.00    -0.005 A 
ATOM      6  C5  UNL d   1      -2.706  -1.005  -4.114  0.00  0.00    -0.074 A 
ATOM      7  C6  UNL d   1      -3.592  -0.008  -4.802  0.00  0.00     0.077 C 
ATOM      8  C7  UNL d   1      -1.877  -0.593  -3.062  0.00  0.00    -0.001 A 
ENDROOT
TORSDOF 0
ENDMDL
