MODEL 1
REMARK minimizedAffinity 4.30738592
REMARK minimizedRMSD -1
REMARK  0 active torsions:
REMARK  status: ('A' for Active; 'I' for Inactive)
ROOT
ATOM      1  C   UNL d   1       1.325   1.826   5.633  0.00  0.00     0.077 C 
ATOM      2  C1  UNL d   1       1.479   2.469   4.286  0.00  0.00    -0.074 A 
ATOM      3  C2  UNL d   1       0.371   2.982   3.604  0.00  0.00    -0.005 A 
ATOM      4  C3  UNL d   1       0.531   3.586   2.357  0.00  0.00     0.006 A 
ATOM      5  C4  UNL d   1       1.798   3.682   1.780  0.00  0.00    -0.005 A 
ATOM      6  C5  UNL d   1       2.918   3.176   2.448  0.00  0.00    -0.074 A 
ATOM      7  C6  UNL d   1       4.288   3.280   1.847  0.00  0.00     0.077 C 
ATOM      8  C7  UNL d   1       2.750   2.577   3.704  0.00  0.00    -0.001 A 
ENDROOT
TORSDOF 0
ENDMDL
