MODEL 1
REMARK minimizedAffinity 6.1672678
REMARK minimizedRMSD -1
REMARK  0 active torsions:
REMARK  status: ('A' for Active; 'I' for Inactive)
ROOT
ATOM      1  C   UNL d   1       6.000  -1.518   5.578  0.00  0.00     0.077 C 
ATOM      2  C1  UNL d   1       4.676  -1.039   5.061  0.00  0.00    -0.074 A 
ATOM      3  C2  UNL d   1       3.717  -0.504   5.927  0.00  0.00    -0.005 A 
ATOM      4  C3  UNL d   1       2.494  -0.054   5.431  0.00  0.00     0.006 A 
ATOM      5  C4  UNL d   1       2.218  -0.133   4.065  0.00  0.00    -0.005 A 
ATOM      6  C5  UNL d   1       3.165  -0.663   3.184  0.00  0.00    -0.074 A 
ATOM      7  C6  UNL d   1       2.888  -0.746   1.712  0.00  0.00     0.077 C 
ATOM      8  C7  UNL d   1       4.394  -1.107   3.689  0.00  0.00    -0.001 A 
ENDROOT
TORSDOF 0
ENDMDL
