MODEL 1
REMARK minimizedAffinity -0.154670924
REMARK minimizedRMSD -1
REMARK  0 active torsions:
REMARK  status: ('A' for Active; 'I' for Inactive)
ROOT
ATOM      1  C   UNL d   1       6.000   3.768  -1.870  0.00  0.00     0.077 C 
ATOM      2  C1  UNL d   1       4.955   2.746  -1.534  0.00  0.00    -0.074 A 
ATOM      3  C2  UNL d   1       4.462   2.624  -0.231  0.00  0.00    -0.005 A 
ATOM      4  C3  UNL d   1       3.483   1.675   0.065  0.00  0.00     0.006 A 
ATOM      5  C4  UNL d   1       2.989   0.839  -0.938  0.00  0.00    -0.005 A 
ATOM      6  C5  UNL d   1       3.470   0.947  -2.247  0.00  0.00    -0.074 A 
ATOM      7  C6  UNL d   1       2.942   0.064  -3.338  0.00  0.00     0.077 C 
ATOM      8  C7  UNL d   1       4.448   1.908  -2.537  0.00  0.00    -0.001 A 
ENDROOT
TORSDOF 0
ENDMDL
