MODEL 1
REMARK minimizedAffinity -2.61150527
REMARK minimizedRMSD -1
REMARK  0 active torsions:
REMARK  status: ('A' for Active; 'I' for Inactive)
ROOT
ATOM      1  C4' PXY d   1      -0.089   2.755   0.984  0.00  0.00     0.077 C 
ATOM      2  C1' PXY d   1      -0.170  -2.888  -0.268  0.00  0.00     0.077 C 
ATOM      3  C1  PXY d   1      -0.162  -1.407   0.058  0.00  0.00    -0.082 A 
ATOM      4  C2  PXY d   1       0.965  -0.722  -0.045  0.00  0.00     0.003 A 
ATOM      5  C3  PXY d   1       0.998   0.611   0.276  0.00  0.00     0.003 A 
ATOM      6  C4  PXY d   1      -0.146   1.260   0.656  0.00  0.00    -0.082 A 
ATOM      7  C5  PXY d   1      -1.302   0.570   0.754  0.00  0.00     0.003 A 
ATOM      8  C6  PXY d   1      -1.305  -0.791   0.463  0.00  0.00     0.003 A 
ENDROOT
TORSDOF 0
ENDMDL
