MODEL 1
REMARK minimizedAffinity -4.22382545
REMARK minimizedRMSD -1
REMARK  0 active torsions:
REMARK  status: ('A' for Active; 'I' for Inactive)
ROOT
ATOM      1  C4' PXY d   1      -1.292  -3.086  -0.783  0.00  0.00     0.077 C 
ATOM      2  C1' PXY d   1      -0.339   2.414   0.720  0.00  0.00     0.077 C 
ATOM      3  C1  PXY d   1      -0.577   0.971   0.321  0.00  0.00    -0.082 A 
ATOM      4  C2  PXY d   1      -1.815   0.531   0.166  0.00  0.00     0.003 A 
ATOM      5  C3  PXY d   1      -2.049  -0.780  -0.164  0.00  0.00     0.003 A 
ATOM      6  C4  PXY d   1      -1.004  -1.635  -0.390  0.00  0.00    -0.082 A 
ATOM      7  C5  PXY d   1       0.262  -1.190  -0.244  0.00  0.00     0.003 A 
ATOM      8  C6  PXY d   1       0.478   0.133   0.132  0.00  0.00     0.003 A 
ENDROOT
TORSDOF 0
ENDMDL
