MODEL 1
REMARK minimizedAffinity 0.371802539
REMARK minimizedRMSD -1
REMARK  0 active torsions:
REMARK  status: ('A' for Active; 'I' for Inactive)
ROOT
ATOM      1  C4' PXY d   1       2.975   1.842   1.122  0.00  0.00     0.077 C 
ATOM      2  C1' PXY d   1      -2.649   0.929   0.146  0.00  0.00     0.077 C 
ATOM      3  C1  PXY d   1      -1.173   1.156   0.404  0.00  0.00    -0.082 A 
ATOM      4  C2  PXY d   1      -0.752   2.349   0.792  0.00  0.00     0.003 A 
ATOM      5  C3  PXY d   1       0.584   2.580   0.999  0.00  0.00     0.003 A 
ATOM      6  C4  PXY d   1       1.492   1.565   0.859  0.00  0.00    -0.082 A 
ATOM      7  C5  PXY d   1       1.069   0.342   0.475  0.00  0.00     0.003 A 
ATOM      8  C6  PXY d   1      -0.286   0.139   0.230  0.00  0.00     0.003 A 
ENDROOT
TORSDOF 0
ENDMDL
