MODEL 1
REMARK minimizedAffinity -3.26008439
REMARK minimizedRMSD -1
REMARK  0 active torsions:
REMARK  status: ('A' for Active; 'I' for Inactive)
ROOT
ATOM      1  C4' PXY d   1      -0.786  -2.122  -0.297  0.00  0.00     0.077 C 
ATOM      2  C1' PXY d   1       0.391   3.486   0.461  0.00  0.00     0.077 C 
ATOM      3  C1  PXY d   1       0.073   2.016   0.271  0.00  0.00    -0.082 A 
ATOM      4  C2  PXY d   1       1.010   1.196  -0.176  0.00  0.00     0.003 A 
ATOM      5  C3  PXY d   1       0.730  -0.130  -0.383  0.00  0.00     0.003 A 
ATOM      6  C4  PXY d   1      -0.507  -0.632  -0.081  0.00  0.00    -0.082 A 
ATOM      7  C5  PXY d   1      -1.466   0.196   0.385  0.00  0.00     0.003 A 
ATOM      8  C6  PXY d   1      -1.173   1.547   0.550  0.00  0.00     0.003 A 
ENDROOT
TORSDOF 0
ENDMDL
