MODEL 1
REMARK minimizedAffinity -3.89005566
REMARK minimizedRMSD -1
REMARK  0 active torsions:
REMARK  status: ('A' for Active; 'I' for Inactive)
ROOT
ATOM      1  C4' PXY d   1       0.130   1.127   0.348  0.00  0.00     0.077 C 
ATOM      2  C1' PXY d   1      -0.362  -4.144  -1.975  0.00  0.00     0.077 C 
ATOM      3  C1  PXY d   1      -0.235  -2.767  -1.354  0.00  0.00    -0.082 A 
ATOM      4  C2  PXY d   1      -0.495  -1.694  -2.083  0.00  0.00     0.003 A 
ATOM      5  C3  PXY d   1      -0.354  -0.440  -1.547  0.00  0.00     0.003 A 
ATOM      6  C4  PXY d   1       0.005  -0.284  -0.235  0.00  0.00    -0.082 A 
ATOM      7  C5  PXY d   1       0.262  -1.374   0.519  0.00  0.00     0.003 A 
ATOM      8  C6  PXY d   1       0.153  -2.637  -0.056  0.00  0.00     0.003 A 
ENDROOT
TORSDOF 0
ENDMDL
