MODEL 1
REMARK minimizedAffinity -2.81996298
REMARK minimizedRMSD -1
REMARK  0 active torsions:
REMARK  status: ('A' for Active; 'I' for Inactive)
ROOT
ATOM      1  C4' PXY d   1      -0.372  -3.207  -1.238  0.00  0.00     0.077 C 
ATOM      2  C1' PXY d   1      -0.700   2.236   0.680  0.00  0.00     0.077 C 
ATOM      3  C1  PXY d   1      -0.604   0.806   0.184  0.00  0.00    -0.082 A 
ATOM      4  C2  PXY d   1      -1.127   0.483  -0.987  0.00  0.00     0.003 A 
ATOM      5  C3  PXY d   1      -1.077  -0.812  -1.436  0.00  0.00     0.003 A 
ATOM      6  C4  PXY d   1      -0.438  -1.775  -0.702  0.00  0.00    -0.082 A 
ATOM      7  C5  PXY d   1       0.109  -1.451   0.489  0.00  0.00     0.003 A 
ATOM      8  C6  PXY d   1       0.011  -0.139   0.945  0.00  0.00     0.003 A 
ENDROOT
TORSDOF 0
ENDMDL
