MODEL 1
REMARK minimizedAffinity -1.10729551
REMARK minimizedRMSD -1
REMARK  0 active torsions:
REMARK  status: ('A' for Active; 'I' for Inactive)
ROOT
ATOM      1  C4' PXY d   1       0.006   3.352   0.451  0.00  0.00     0.077 C 
ATOM      2  C1' PXY d   1      -0.703  -2.381   0.258  0.00  0.00     0.077 C 
ATOM      3  C1  PXY d   1      -0.530  -0.876   0.309  0.00  0.00    -0.082 A 
ATOM      4  C2  PXY d   1       0.597  -0.332  -0.121  0.00  0.00     0.003 A 
ATOM      5  C3  PXY d   1       0.783   1.024  -0.053  0.00  0.00     0.003 A 
ATOM      6  C4  PXY d   1      -0.216   1.838   0.410  0.00  0.00    -0.082 A 
ATOM      7  C5  PXY d   1      -1.373   1.292   0.840  0.00  0.00     0.003 A 
ATOM      8  C6  PXY d   1      -1.526  -0.091   0.801  0.00  0.00     0.003 A 
ENDROOT
TORSDOF 0
ENDMDL
