MODEL 1
REMARK minimizedAffinity -3.71902943
REMARK minimizedRMSD -1
REMARK  0 active torsions:
REMARK  status: ('A' for Active; 'I' for Inactive)
ROOT
ATOM      1  C4' PXY d   1      -2.499   0.807   0.691  0.00  0.00     0.077 C 
ATOM      2  C1' PXY d   1       3.213   1.687   0.585  0.00  0.00     0.077 C 
ATOM      3  C1  PXY d   1       1.717   1.446   0.604  0.00  0.00    -0.082 A 
ATOM      4  C2  PXY d   1       0.901   2.426   0.961  0.00  0.00     0.003 A 
ATOM      5  C3  PXY d   1      -0.453   2.216   1.014  0.00  0.00     0.003 A 
ATOM      6  C4  PXY d   1      -0.982   1.007   0.648  0.00  0.00    -0.082 A 
ATOM      7  C5  PXY d   1      -0.157   0.006   0.273  0.00  0.00     0.003 A 
ATOM      8  C6  PXY d   1       1.217   0.227   0.265  0.00  0.00     0.003 A 
ENDROOT
TORSDOF 0
ENDMDL
