MODEL 1
REMARK minimizedAffinity -3.0555625
REMARK minimizedRMSD -1
REMARK  0 active torsions:
REMARK  status: ('A' for Active; 'I' for Inactive)
ROOT
ATOM      1  C4' PXY d   1      -0.476  -2.863  -0.632  0.00  0.00     0.077 C 
ATOM      2  C1' PXY d   1       0.493   2.563   1.112  0.00  0.00     0.077 C 
ATOM      3  C1  PXY d   1       0.252   1.139   0.652  0.00  0.00    -0.082 A 
ATOM      4  C2  PXY d   1      -0.954   0.779   0.242  0.00  0.00     0.003 A 
ATOM      5  C3  PXY d   1      -1.198  -0.513  -0.148  0.00  0.00     0.003 A 
ATOM      6  C4  PXY d   1      -0.184  -1.433  -0.167  0.00  0.00    -0.082 A 
ATOM      7  C5  PXY d   1       1.051  -1.072   0.240  0.00  0.00     0.003 A 
ATOM      8  C6  PXY d   1       1.268   0.234   0.670  0.00  0.00     0.003 A 
ENDROOT
TORSDOF 0
ENDMDL
