MODEL 1
REMARK minimizedAffinity 1.67545402
REMARK minimizedRMSD -1
REMARK  0 active torsions:
REMARK  status: ('A' for Active; 'I' for Inactive)
ROOT
ATOM      1  C4' PXY d   1       2.882   2.505   1.889  0.00  0.00     0.077 C 
ATOM      2  C1' PXY d   1      -2.153   0.368   0.019  0.00  0.00     0.077 C 
ATOM      3  C1  PXY d   1      -0.828   0.916   0.511  0.00  0.00    -0.082 A 
ATOM      4  C2  PXY d   1      -0.775   2.133   1.029  0.00  0.00     0.003 A 
ATOM      5  C3  PXY d   1       0.420   2.656   1.450  0.00  0.00     0.003 A 
ATOM      6  C4  PXY d   1       1.565   1.907   1.388  0.00  0.00    -0.082 A 
ATOM      7  C5  PXY d   1       1.517   0.661   0.871  0.00  0.00     0.003 A 
ATOM      8  C6  PXY d   1       0.301   0.163   0.412  0.00  0.00     0.003 A 
ENDROOT
TORSDOF 0
ENDMDL
