MODEL 1
REMARK minimizedAffinity -3.66064262
REMARK minimizedRMSD -1
REMARK  0 active torsions:
REMARK  status: ('A' for Active; 'I' for Inactive)
ROOT
ATOM      1  C4' PXY d   1       2.855  -0.005   0.448  0.00  0.00     0.077 C 
ATOM      2  C1' PXY d   1      -2.901   0.506   0.607  0.00  0.00     0.077 C 
ATOM      3  C1  PXY d   1      -1.393   0.360   0.570  0.00  0.00    -0.082 A 
ATOM      4  C2  PXY d   1      -0.629   1.440   0.617  0.00  0.00     0.003 A 
ATOM      5  C3  PXY d   1       0.736   1.328   0.552  0.00  0.00     0.003 A 
ATOM      6  C4  PXY d   1       1.327   0.094   0.492  0.00  0.00    -0.082 A 
ATOM      7  C5  PXY d   1       0.556  -1.013   0.455  0.00  0.00     0.003 A 
ATOM      8  C6  PXY d   1      -0.829  -0.875   0.480  0.00  0.00     0.003 A 
ENDROOT
TORSDOF 0
ENDMDL
