MODEL 1
REMARK minimizedAffinity -0.862079561
REMARK minimizedRMSD -1
REMARK  0 active torsions:
REMARK  status: ('A' for Active; 'I' for Inactive)
ROOT
ATOM      1  C4' PXY d   1      -0.459  -1.955  -0.609  0.00  0.00     0.077 C 
ATOM      2  C1' PXY d   1       1.683   3.147   1.065  0.00  0.00     0.077 C 
ATOM      3  C1  PXY d   1       1.132   1.806   0.620  0.00  0.00    -0.082 A 
ATOM      4  C2  PXY d   1      -0.177   1.621   0.571  0.00  0.00     0.003 A 
ATOM      5  C3  PXY d   1      -0.692   0.405   0.201  0.00  0.00     0.003 A 
ATOM      6  C4  PXY d   1       0.141  -0.615  -0.174  0.00  0.00    -0.082 A 
ATOM      7  C5  PXY d   1       1.478  -0.430  -0.138  0.00  0.00     0.003 A 
ATOM      8  C6  PXY d   1       1.981   0.799   0.280  0.00  0.00     0.003 A 
ENDROOT
TORSDOF 0
ENDMDL
