MODEL 1
REMARK minimizedAffinity -5.24891567
REMARK minimizedRMSD -1
REMARK  0 active torsions:
REMARK  status: ('A' for Active; 'I' for Inactive)
ROOT
ATOM      1  C4' PXY d   1       1.873   3.146   0.819  0.00  0.00     0.077 C 
ATOM      2  C1' PXY d   1      -0.272  -2.065  -0.470  0.00  0.00     0.077 C 
ATOM      3  C1  PXY d   1       0.280  -0.693  -0.137  0.00  0.00    -0.082 A 
ATOM      4  C2  PXY d   1       1.580  -0.540   0.055  0.00  0.00     0.003 A 
ATOM      5  C3  PXY d   1       2.093   0.687   0.388  0.00  0.00     0.003 A 
ATOM      6  C4  PXY d   1       1.273   1.781   0.472  0.00  0.00    -0.082 A 
ATOM      7  C5  PXY d   1      -0.054   1.635   0.267  0.00  0.00     0.003 A 
ATOM      8  C6  PXY d   1      -0.559   0.372  -0.029  0.00  0.00     0.003 A 
ENDROOT
TORSDOF 0
ENDMDL
