MODEL 1
REMARK minimizedAffinity -3.8385458
REMARK minimizedRMSD -1
REMARK  0 active torsions:
REMARK  status: ('A' for Active; 'I' for Inactive)
ROOT
ATOM      1  C4' PXY d   1      -0.594  -2.116  -0.126  0.00  0.00     0.077 C 
ATOM      2  C1' PXY d   1       1.175   3.230   1.177  0.00  0.00     0.077 C 
ATOM      3  C1  PXY d   1       0.724   1.825   0.831  0.00  0.00    -0.082 A 
ATOM      4  C2  PXY d   1      -0.547   1.600   0.538  0.00  0.00     0.003 A 
ATOM      5  C3  PXY d   1      -0.979   0.330   0.254  0.00  0.00     0.003 A 
ATOM      6  C4  PXY d   1      -0.091  -0.712   0.219  0.00  0.00    -0.082 A 
ATOM      7  C5  PXY d   1       1.209  -0.489   0.508  0.00  0.00     0.003 A 
ATOM      8  C6  PXY d   1       1.619   0.801   0.833  0.00  0.00     0.003 A 
ENDROOT
TORSDOF 0
ENDMDL
