MODEL 1
REMARK minimizedAffinity -0.576509535
REMARK minimizedRMSD -1
REMARK  0 active torsions:
REMARK  status: ('A' for Active; 'I' for Inactive)
ROOT
ATOM      1  C4' PXY d   1      -0.449  -2.355  -1.181  0.00  0.00     0.077 C 
ATOM      2  C1' PXY d   1      -0.302   2.912   1.195  0.00  0.00     0.077 C 
ATOM      3  C1  PXY d   1      -0.328   1.532   0.569  0.00  0.00    -0.082 A 
ATOM      4  C2  PXY d   1      -1.460   1.058   0.075  0.00  0.00     0.003 A 
ATOM      5  C3  PXY d   1      -1.509  -0.201  -0.465  0.00  0.00     0.003 A 
ATOM      6  C4  PXY d   1      -0.374  -0.963  -0.549  0.00  0.00    -0.082 A 
ATOM      7  C5  PXY d   1       0.788  -0.483  -0.057  0.00  0.00     0.003 A 
ATOM      8  C6  PXY d   1       0.806   0.781   0.525  0.00  0.00     0.003 A 
ENDROOT
TORSDOF 0
ENDMDL
