MODEL 1
REMARK minimizedAffinity -4.5432229
REMARK minimizedRMSD -1
REMARK  0 active torsions:
REMARK  status: ('A' for Active; 'I' for Inactive)
ROOT
ATOM      1  C4' PXY d   1       0.493  -3.229  -2.039  0.00  0.00     0.077 C 
ATOM      2  C1' PXY d   1      -1.663   1.358   0.740  0.00  0.00     0.077 C 
ATOM      3  C1  PXY d   1      -1.092   0.151   0.022  0.00  0.00    -0.082 A 
ATOM      4  C2  PXY d   1      -0.935   0.185  -1.291  0.00  0.00     0.003 A 
ATOM      5  C3  PXY d   1      -0.449  -0.909  -1.960  0.00  0.00     0.003 A 
ATOM      6  C4  PXY d   1      -0.071  -2.031  -1.272  0.00  0.00    -0.082 A 
ATOM      7  C5  PXY d   1      -0.218  -2.069   0.070  0.00  0.00     0.003 A 
ATOM      8  C6  PXY d   1      -0.751  -0.963   0.725  0.00  0.00     0.003 A 
ENDROOT
TORSDOF 0
ENDMDL
