MODEL 1
REMARK minimizedAffinity -2.3414731
REMARK minimizedRMSD -1
REMARK  0 active torsions:
REMARK  status: ('A' for Active; 'I' for Inactive)
ROOT
ATOM      1  C4' PXY d   1      -0.725   0.622   0.702  0.00  0.00     0.077 C 
ATOM      2  C1' PXY d   1       0.376  -4.631  -1.445  0.00  0.00     0.077 C 
ATOM      3  C1  PXY d   1       0.093  -3.257  -0.871  0.00  0.00    -0.082 A 
ATOM      4  C2  PXY d   1      -0.935  -2.558  -1.323  0.00  0.00     0.003 A 
ATOM      5  C3  PXY d   1      -1.186  -1.300  -0.838  0.00  0.00     0.003 A 
ATOM      6  C4  PXY d   1      -0.408  -0.774   0.158  0.00  0.00    -0.082 A 
ATOM      7  C5  PXY d   1       0.637  -1.485   0.632  0.00  0.00     0.003 A 
ATOM      8  C6  PXY d   1       0.900  -2.743   0.097  0.00  0.00     0.003 A 
ENDROOT
TORSDOF 0
ENDMDL
