MODEL 1
REMARK minimizedAffinity 1.89174938
REMARK minimizedRMSD -1
REMARK  0 active torsions:
REMARK  status: ('A' for Active; 'I' for Inactive)
ROOT
ATOM      1  N1  IND d   1      -2.629   4.485  -4.996  0.00  0.00    -0.196 N 
ATOM      2  C2  IND d   1      -1.888   3.725  -4.133  0.00  0.00     0.054 A 
ATOM      3  C3  IND d   1      -2.580   2.625  -3.761  0.00  0.00    -0.031 A 
ATOM      4  C4  IND d   1      -4.903   1.819  -4.524  0.00  0.00     0.051 A 
ATOM      5  C5  IND d   1      -5.981   2.195  -5.276  0.00  0.00    -0.031 A 
ATOM      6  C6  IND d   1      -5.996   3.377  -5.989  0.00  0.00     0.015 A 
ATOM      7  C7  IND d   1      -4.924   4.224  -5.986  0.00  0.00    -0.016 A 
ATOM      8  C8  IND d   1      -3.831   3.848  -5.218  0.00  0.00    -0.047 A 
ATOM      9  C9  IND d   1      -3.827   2.672  -4.458  0.00  0.00    -0.096 A 
ATOM     10  HN1 IND d   1      -2.386   5.234  -5.341  0.00  0.00     0.298 HD
ENDROOT
TORSDOF 0
ENDMDL
