MODEL 1
REMARK minimizedAffinity 3.83750701
REMARK minimizedRMSD -1
REMARK  0 active torsions:
REMARK  status: ('A' for Active; 'I' for Inactive)
ROOT
ATOM      1  N1  IND d   1       0.973   2.365   3.835  0.00  0.00    -0.196 N 
ATOM      2  C2  IND d   1       1.104   3.719   3.703  0.00  0.00     0.054 A 
ATOM      3  C3  IND d   1       0.898   4.090   2.420  0.00  0.00    -0.031 A 
ATOM      4  C4  IND d   1       0.233   2.653   0.390  0.00  0.00     0.051 A 
ATOM      5  C5  IND d   1       0.032   1.357   0.007  0.00  0.00    -0.031 A 
ATOM      6  C6  IND d   1       0.133   0.309   0.900  0.00  0.00     0.015 A 
ATOM      7  C7  IND d   1       0.429   0.521   2.216  0.00  0.00    -0.016 A 
ATOM      8  C8  IND d   1       0.642   1.836   2.607  0.00  0.00    -0.047 A 
ATOM      9  C9  IND d   1       0.583   2.899   1.696  0.00  0.00    -0.096 A 
ATOM     10  HN1 IND d   1       1.079   1.919   4.562  0.00  0.00     0.298 HD
ENDROOT
TORSDOF 0
ENDMDL
