MODEL 1
REMARK minimizedAffinity -2.55791306
REMARK minimizedRMSD -1
REMARK  0 active torsions:
REMARK  status: ('A' for Active; 'I' for Inactive)
ROOT
ATOM      1  N1  IND d   1      -4.826   3.132  -6.000  0.00  0.00    -0.196 N 
ATOM      2  C2  IND d   1      -5.286   2.232  -5.079  0.00  0.00     0.054 A 
ATOM      3  C3  IND d   1      -4.525   2.271  -3.962  0.00  0.00    -0.031 A 
ATOM      4  C4  IND d   1      -2.540   3.807  -3.389  0.00  0.00     0.051 A 
ATOM      5  C5  IND d   1      -1.730   4.767  -3.928  0.00  0.00    -0.031 A 
ATOM      6  C6  IND d   1      -1.916   5.242  -5.210  0.00  0.00     0.015 A 
ATOM      7  C7  IND d   1      -2.931   4.782  -6.000  0.00  0.00    -0.016 A 
ATOM      8  C8  IND d   1      -3.751   3.802  -5.459  0.00  0.00    -0.047 A 
ATOM      9  C9  IND d   1      -3.541   3.285  -4.174  0.00  0.00    -0.096 A 
ATOM     10  HN1 IND d   1      -5.154   3.258  -6.785  0.00  0.00     0.298 HD
ENDROOT
TORSDOF 0
ENDMDL
