MODEL 1
REMARK minimizedAffinity 1.88476455
REMARK minimizedRMSD -1
REMARK  0 active torsions:
REMARK  status: ('A' for Active; 'I' for Inactive)
ROOT
ATOM      1  N1  IND d   1      -5.350   4.155  -5.998  0.00  0.00    -0.196 N 
ATOM      2  C2  IND d   1      -5.943   3.108  -5.350  0.00  0.00     0.054 A 
ATOM      3  C3  IND d   1      -5.044   2.469  -4.568  0.00  0.00    -0.031 A 
ATOM      4  C4  IND d   1      -2.572   3.032  -4.123  0.00  0.00     0.051 A 
ATOM      5  C5  IND d   1      -1.572   3.877  -4.515  0.00  0.00    -0.031 A 
ATOM      6  C6  IND d   1      -1.785   4.879  -5.439  0.00  0.00     0.015 A 
ATOM      7  C7  IND d   1      -3.015   5.083  -5.998  0.00  0.00    -0.016 A 
ATOM      8  C8  IND d   1      -4.031   4.222  -5.607  0.00  0.00    -0.047 A 
ATOM      9  C9  IND d   1      -3.810   3.176  -4.702  0.00  0.00    -0.096 A 
ATOM     10  HN1 IND d   1      -5.736   4.683  -6.557  0.00  0.00     0.298 HD
ENDROOT
TORSDOF 0
ENDMDL
