MODEL 1
REMARK minimizedAffinity 1.59603143
REMARK minimizedRMSD -1
REMARK  0 active torsions:
REMARK  status: ('A' for Active; 'I' for Inactive)
ROOT
ATOM      1  N1  IND d   1      -3.483   4.718  -5.994  0.00  0.00    -0.196 N 
ATOM      2  C2  IND d   1      -2.370   4.900  -5.222  0.00  0.00     0.054 A 
ATOM      3  C3  IND d   1      -2.293   3.939  -4.273  0.00  0.00    -0.031 A 
ATOM      4  C4  IND d   1      -3.828   1.912  -3.871  0.00  0.00     0.051 A 
ATOM      5  C5  IND d   1      -4.995   1.343  -4.298  0.00  0.00    -0.031 A 
ATOM      6  C6  IND d   1      -5.731   1.879  -5.335  0.00  0.00     0.015 A 
ATOM      7  C7  IND d   1      -5.319   3.002  -5.994  0.00  0.00    -0.016 A 
ATOM      8  C8  IND d   1      -4.139   3.587  -5.559  0.00  0.00    -0.047 A 
ATOM      9  C9  IND d   1      -3.410   3.072  -4.479  0.00  0.00    -0.096 A 
ATOM     10  HN1 IND d   1      -3.732   5.224  -6.643  0.00  0.00     0.298 HD
ENDROOT
TORSDOF 0
ENDMDL
