MODEL 1
REMARK minimizedAffinity -1.17192304
REMARK minimizedRMSD -1
REMARK  0 active torsions:
REMARK  status: ('A' for Active; 'I' for Inactive)
ROOT
ATOM      1  N1  IND d   1      -2.991   5.173  -5.990  0.00  0.00    -0.196 N 
ATOM      2  C2  IND d   1      -1.831   4.874  -5.332  0.00  0.00     0.054 A 
ATOM      3  C3  IND d   1      -2.009   3.801  -4.528  0.00  0.00    -0.031 A 
ATOM      4  C4  IND d   1      -4.091   2.320  -4.215  0.00  0.00     0.051 A 
ATOM      5  C5  IND d   1      -5.405   2.219  -4.576  0.00  0.00    -0.031 A 
ATOM      6  C6  IND d   1      -5.993   3.113  -5.447  0.00  0.00     0.015 A 
ATOM      7  C7  IND d   1      -5.282   4.141  -6.000  0.00  0.00    -0.016 A 
ATOM      8  C8  IND d   1      -3.949   4.251  -5.630  0.00  0.00    -0.047 A 
ATOM      9  C9  IND d   1      -3.358   3.371  -4.714  0.00  0.00    -0.096 A 
ATOM     10  HN1 IND d   1      -3.104   5.827  -6.537  0.00  0.00     0.298 HD
ENDROOT
TORSDOF 0
ENDMDL
