MODEL 1
REMARK minimizedAffinity 8.03206158
REMARK minimizedRMSD -1
REMARK  0 active torsions:
REMARK  status: ('A' for Active; 'I' for Inactive)
ROOT
ATOM      1  N1  IND d   1      -3.828   5.834  -5.996  0.00  0.00    -0.196 N 
ATOM      2  C2  IND d   1      -2.655   5.963  -5.306  0.00  0.00     0.054 A 
ATOM      3  C3  IND d   1      -2.492   4.923  -4.457  0.00  0.00    -0.031 A 
ATOM      4  C4  IND d   1      -3.974   2.847  -4.111  0.00  0.00     0.051 A 
ATOM      5  C5  IND d   1      -5.169   2.301  -4.488  0.00  0.00    -0.031 A 
ATOM      6  C6  IND d   1      -5.993   2.916  -5.409  0.00  0.00     0.015 A 
ATOM      7  C7  IND d   1      -5.646   4.099  -5.997  0.00  0.00    -0.016 A 
ATOM      8  C8  IND d   1      -4.437   4.660  -5.610  0.00  0.00    -0.047 A 
ATOM      9  C9  IND d   1      -3.616   4.062  -4.645  0.00  0.00    -0.096 A 
ATOM     10  HN1 IND d   1      -4.134   6.392  -6.574  0.00  0.00     0.298 HD
ENDROOT
TORSDOF 0
ENDMDL
