MODEL 1
REMARK minimizedAffinity 2.50253797
REMARK minimizedRMSD -1
REMARK  0 active torsions:
REMARK  status: ('A' for Active; 'I' for Inactive)
ROOT
ATOM      1  N1  IND d   1      -2.892   5.644  -5.987  0.00  0.00    -0.196 N 
ATOM      2  C2  IND d   1      -1.663   5.671  -5.389  0.00  0.00     0.054 A 
ATOM      3  C3  IND d   1      -1.505   4.592  -4.590  0.00  0.00    -0.031 A 
ATOM      4  C4  IND d   1      -3.092   2.604  -4.194  0.00  0.00     0.051 A 
ATOM      5  C5  IND d   1      -4.346   2.151  -4.492  0.00  0.00    -0.031 A 
ATOM      6  C6  IND d   1      -5.196   2.852  -5.323  0.00  0.00     0.015 A 
ATOM      7  C7  IND d   1      -4.817   4.032  -5.898  0.00  0.00    -0.016 A 
ATOM      8  C8  IND d   1      -3.547   4.499  -5.592  0.00  0.00    -0.047 A 
ATOM      9  C9  IND d   1      -2.695   3.813  -4.716  0.00  0.00    -0.096 A 
ATOM     10  HN1 IND d   1      -3.203   6.243  -6.520  0.00  0.00     0.298 HD
ENDROOT
TORSDOF 0
ENDMDL
