MODEL 1
REMARK minimizedAffinity 0.373528481
REMARK minimizedRMSD -1
REMARK  0 active torsions:
REMARK  status: ('A' for Active; 'I' for Inactive)
ROOT
ATOM      1  N1  IND d   1      -0.389   0.078   2.128  0.00  0.00    -0.196 N 
ATOM      2  C2  IND d   1       0.529   0.437   1.181  0.00  0.00     0.054 A 
ATOM      3  C3  IND d   1       1.723  -0.140   1.441  0.00  0.00    -0.031 A 
ATOM      4  C4  IND d   1       2.369  -1.793   3.306  0.00  0.00     0.051 A 
ATOM      5  C5  IND d   1       1.878  -2.393   4.432  0.00  0.00    -0.031 A 
ATOM      6  C6  IND d   1       0.579  -2.197   4.854  0.00  0.00     0.015 A 
ATOM      7  C7  IND d   1      -0.285  -1.401   4.157  0.00  0.00    -0.016 A 
ATOM      8  C8  IND d   1       0.213  -0.785   3.017  0.00  0.00    -0.047 A 
ATOM      9  C9  IND d   1       1.543  -0.946   2.607  0.00  0.00    -0.096 A 
ATOM     10  HN1 IND d   1      -1.206   0.345   2.162  0.00  0.00     0.298 HD
ENDROOT
TORSDOF 0
ENDMDL
