MODEL 1
REMARK minimizedAffinity 8.33720589
REMARK minimizedRMSD -1
REMARK  0 active torsions:
REMARK  status: ('A' for Active; 'I' for Inactive)
ROOT
ATOM      1  N1  IND d   1      -4.364   4.146  -4.547  0.00  0.00    -0.196 N 
ATOM      2  C2  IND d   1      -5.254   4.678  -5.438  0.00  0.00     0.054 A 
ATOM      3  C3  IND d   1      -5.999   3.700  -5.999  0.00  0.00    -0.031 A 
ATOM      4  C4  IND d   1      -5.999   1.169  -5.528  0.00  0.00     0.051 A 
ATOM      5  C5  IND d   1      -5.337   0.205  -4.820  0.00  0.00    -0.031 A 
ATOM      6  C6  IND d   1      -4.298   0.512  -3.966  0.00  0.00     0.015 A 
ATOM      7  C7  IND d   1      -3.887   1.802  -3.778  0.00  0.00    -0.016 A 
ATOM      8  C8  IND d   1      -4.553   2.782  -4.500  0.00  0.00    -0.047 A 
ATOM      9  C9  IND d   1      -5.580   2.472  -5.401  0.00  0.00    -0.096 A 
ATOM     10  HN1 IND d   1      -3.785   4.589  -4.092  0.00  0.00     0.298 HD
ENDROOT
TORSDOF 0
ENDMDL
