MODEL 1
REMARK minimizedAffinity 0.285366178
REMARK minimizedRMSD -1
REMARK  0 active torsions:
REMARK  status: ('A' for Active; 'I' for Inactive)
ROOT
ATOM      1  N1  IND d   1      -5.221   2.398  -4.135  0.00  0.00    -0.196 N 
ATOM      2  C2  IND d   1      -6.000   2.735  -5.207  0.00  0.00     0.054 A 
ATOM      3  C3  IND d   1      -5.352   3.617  -6.000  0.00  0.00    -0.031 A 
ATOM      4  C4  IND d   1      -2.968   4.565  -5.785  0.00  0.00     0.051 A 
ATOM      5  C5  IND d   1      -1.885   4.579  -4.952  0.00  0.00    -0.031 A 
ATOM      6  C6  IND d   1      -1.857   3.849  -3.781  0.00  0.00     0.015 A 
ATOM      7  C7  IND d   1      -2.911   3.066  -3.404  0.00  0.00    -0.016 A 
ATOM      8  C8  IND d   1      -4.016   3.055  -4.245  0.00  0.00    -0.047 A 
ATOM      9  C9  IND d   1      -4.066   3.827  -5.413  0.00  0.00    -0.096 A 
ATOM     10  HN1 IND d   1      -5.446   1.864  -3.499  0.00  0.00     0.298 HD
ENDROOT
TORSDOF 0
ENDMDL
