MODEL 1
REMARK minimizedAffinity -0.825070024
REMARK minimizedRMSD -1
REMARK  0 active torsions:
REMARK  status: ('A' for Active; 'I' for Inactive)
ROOT
ATOM      1  N1  IND d   1      -2.659   5.186  -5.995  0.00  0.00    -0.196 N 
ATOM      2  C2  IND d   1      -1.582   4.709  -5.301  0.00  0.00     0.054 A 
ATOM      3  C3  IND d   1      -1.967   3.731  -4.451  0.00  0.00    -0.031 A 
ATOM      4  C4  IND d   1      -4.293   2.683  -4.107  0.00  0.00     0.051 A 
ATOM      5  C5  IND d   1      -5.599   2.812  -4.488  0.00  0.00    -0.031 A 
ATOM      6  C6  IND d   1      -6.000   3.756  -5.411  0.00  0.00     0.015 A 
ATOM      7  C7  IND d   1      -5.103   4.603  -5.999  0.00  0.00    -0.016 A 
ATOM      8  C8  IND d   1      -3.777   4.479  -5.610  0.00  0.00    -0.047 A 
ATOM      9  C9  IND d   1      -3.371   3.552  -4.642  0.00  0.00    -0.096 A 
ATOM     10  HN1 IND d   1      -2.641   5.821  -6.575  0.00  0.00     0.298 HD
ENDROOT
TORSDOF 0
ENDMDL
