MODEL 1
REMARK minimizedAffinity 2.92861176
REMARK minimizedRMSD -1
REMARK  0 active torsions:
REMARK  status: ('A' for Active; 'I' for Inactive)
ROOT
ATOM      1  N1  IND d   1       1.563   2.230   3.449  0.00  0.00    -0.196 N 
ATOM      2  C2  IND d   1       1.623   3.587   3.297  0.00  0.00     0.054 A 
ATOM      3  C3  IND d   1       1.276   3.936   2.038  0.00  0.00    -0.031 A 
ATOM      4  C4  IND d   1       0.475   2.452   0.092  0.00  0.00     0.051 A 
ATOM      5  C5  IND d   1       0.292   1.144  -0.261  0.00  0.00    -0.031 A 
ATOM      6  C6  IND d   1       0.525   0.111   0.624  0.00  0.00     0.015 A 
ATOM      7  C7  IND d   1       0.941   0.349   1.903  0.00  0.00    -0.016 A 
ATOM      8  C8  IND d   1       1.135   1.675   2.263  0.00  0.00    -0.047 A 
ATOM      9  C9  IND d   1       0.941   2.725   1.356  0.00  0.00    -0.096 A 
ATOM     10  HN1 IND d   1       1.759   1.796   4.164  0.00  0.00     0.298 HD
ENDROOT
TORSDOF 0
ENDMDL
