MODEL 1
REMARK minimizedAffinity 1.80109
REMARK minimizedRMSD -1
REMARK  0 active torsions:
REMARK  status: ('A' for Active; 'I' for Inactive)
ROOT
ATOM      1  N1  IND d   1      -0.139   0.962   3.258  0.00  0.00    -0.196 N 
ATOM      2  C2  IND d   1       0.273  -0.326   3.453  0.00  0.00     0.054 A 
ATOM      3  C3  IND d   1       0.791  -0.832   2.312  0.00  0.00    -0.031 A 
ATOM      4  C4  IND d   1       1.156   0.310   0.034  0.00  0.00     0.051 A 
ATOM      5  C5  IND d   1       0.906   1.472  -0.640  0.00  0.00    -0.031 A 
ATOM      6  C6  IND d   1       0.285   2.547  -0.037  0.00  0.00     0.015 A 
ATOM      7  C7  IND d   1      -0.101   2.503   1.273  0.00  0.00    -0.016 A 
ATOM      8  C8  IND d   1       0.145   1.322   1.959  0.00  0.00    -0.047 A 
ATOM      9  C9  IND d   1       0.736   0.213   1.340  0.00  0.00    -0.096 A 
ATOM     10  HN1 IND d   1      -0.513   1.464   3.848  0.00  0.00     0.298 HD
ENDROOT
TORSDOF 0
ENDMDL
