MODEL 1
REMARK minimizedAffinity 3.42153168
REMARK minimizedRMSD -1
REMARK  0 active torsions:
REMARK  status: ('A' for Active; 'I' for Inactive)
ROOT
ATOM      1  N1  IND d   1       0.742   0.033   3.125  0.00  0.00    -0.196 N 
ATOM      2  C2  IND d   1       1.096  -1.198   2.649  0.00  0.00     0.054 A 
ATOM      3  C3  IND d   1       0.966  -1.238   1.304  0.00  0.00    -0.031 A 
ATOM      4  C4  IND d   1       0.285   0.633  -0.329  0.00  0.00     0.051 A 
ATOM      5  C5  IND d   1      -0.166   1.923  -0.361  0.00  0.00    -0.031 A 
ATOM      6  C6  IND d   1      -0.338   2.665   0.790  0.00  0.00     0.015 A 
ATOM      7  C7  IND d   1      -0.053   2.145   2.021  0.00  0.00    -0.016 A 
ATOM      8  C8  IND d   1       0.398   0.834   2.058  0.00  0.00    -0.047 A 
ATOM      9  C9  IND d   1       0.534   0.062   0.897  0.00  0.00    -0.096 A 
ATOM     10  HN1 IND d   1       0.736   0.268   3.952  0.00  0.00     0.298 HD
ENDROOT
TORSDOF 0
ENDMDL
