MODEL 1
REMARK minimizedAffinity 3.84507012
REMARK minimizedRMSD -1
REMARK  0 active torsions:
REMARK  status: ('A' for Active; 'I' for Inactive)
ROOT
ATOM      1  N1  IND d   1      -3.468   5.247  -4.865  0.00  0.00    -0.196 N 
ATOM      2  C2  IND d   1      -2.561   4.975  -3.878  0.00  0.00     0.054 A 
ATOM      3  C3  IND d   1      -2.699   3.699  -3.452  0.00  0.00    -0.031 A 
ATOM      4  C4  IND d   1      -4.277   1.852  -4.303  0.00  0.00     0.051 A 
ATOM      5  C5  IND d   1      -5.312   1.634  -5.168  0.00  0.00    -0.031 A 
ATOM      6  C6  IND d   1      -5.794   2.628  -5.994  0.00  0.00     0.015 A 
ATOM      7  C7  IND d   1      -5.248   3.880  -5.995  0.00  0.00    -0.016 A 
ATOM      8  C8  IND d   1      -4.201   4.108  -5.113  0.00  0.00    -0.047 A 
ATOM      9  C9  IND d   1      -3.736   3.114  -4.242  0.00  0.00    -0.096 A 
ATOM     10  HN1 IND d   1      -3.564   6.003  -5.264  0.00  0.00     0.298 HD
ENDROOT
TORSDOF 0
ENDMDL
