MODEL 1
REMARK minimizedAffinity -1.78605461
REMARK minimizedRMSD -1
REMARK  0 active torsions:
REMARK  status: ('A' for Active; 'I' for Inactive)
ROOT
ATOM      1  N1  IND d   1      -2.868   5.443  -6.000  0.00  0.00    -0.196 N 
ATOM      2  C2  IND d   1      -1.785   5.268  -5.185  0.00  0.00     0.054 A 
ATOM      3  C3  IND d   1      -2.082   4.408  -4.185  0.00  0.00    -0.031 A 
ATOM      4  C4  IND d   1      -4.251   3.090  -3.752  0.00  0.00     0.051 A 
ATOM      5  C5  IND d   1      -5.532   2.946  -4.204  0.00  0.00    -0.031 A 
ATOM      6  C6  IND d   1      -6.000   3.639  -5.302  0.00  0.00     0.015 A 
ATOM      7  C7  IND d   1      -5.196   4.497  -5.999  0.00  0.00    -0.016 A 
ATOM      8  C8  IND d   1      -3.897   4.651  -5.538  0.00  0.00    -0.047 A 
ATOM      9  C9  IND d   1      -3.429   3.983  -4.399  0.00  0.00    -0.096 A 
ATOM     10  HN1 IND d   1      -2.902   5.960  -6.686  0.00  0.00     0.298 HD
ENDROOT
TORSDOF 0
ENDMDL
