MODEL 1
REMARK minimizedAffinity 3.01681042
REMARK minimizedRMSD -1
REMARK  0 active torsions:
REMARK  status: ('A' for Active; 'I' for Inactive)
ROOT
ATOM      1  N1  IND d   1      -5.464   2.339  -5.978  0.00  0.00    -0.196 N 
ATOM      2  C2  IND d   1      -4.997   3.623  -5.998  0.00  0.00     0.054 A 
ATOM      3  C3  IND d   1      -4.809   4.075  -4.737  0.00  0.00    -0.031 A 
ATOM      4  C4  IND d   1      -5.108   2.842  -2.497  0.00  0.00     0.051 A 
ATOM      5  C5  IND d   1      -5.551   1.662  -1.968  0.00  0.00    -0.031 A 
ATOM      6  C6  IND d   1      -5.994   0.626  -2.764  0.00  0.00     0.015 A 
ATOM      7  C7  IND d   1      -6.000   0.727  -4.126  0.00  0.00    -0.016 A 
ATOM      8  C8  IND d   1      -5.557   1.926  -4.667  0.00  0.00    -0.047 A 
ATOM      9  C9  IND d   1      -5.146   2.997  -3.863  0.00  0.00    -0.096 A 
ATOM     10  HN1 IND d   1      -5.666   1.868  -6.669  0.00  0.00     0.298 HD
ENDROOT
TORSDOF 0
ENDMDL
