MODEL 1
REMARK minimizedAffinity -4.35731506
REMARK minimizedRMSD -1
REMARK  0 active torsions:
REMARK  status: ('A' for Active; 'I' for Inactive)
ROOT
ATOM      1  C   UNL d   1       0.116   0.153   0.114  0.00  0.00     0.078 C 
ATOM      2  C1  UNL d   1      -0.730  -1.028   0.485  0.00  0.00    -0.077 A 
ATOM      3  C2  UNL d   1      -0.301  -1.947   1.450  0.00  0.00    -0.001 A 
ATOM      4  C3  UNL d   1      -1.094  -3.048   1.779  0.00  0.00     0.003 A 
ATOM      5  C4  UNL d   1      -2.320  -3.240   1.146  0.00  0.00    -0.005 A 
ATOM      6  C5  UNL d   1      -2.755  -2.332   0.183  0.00  0.00     0.003 A 
ATOM      7  C6  UNL d   1      -1.963  -1.231  -0.147  0.00  0.00    -0.001 A 
ENDROOT
TORSDOF 0
ENDMDL
