MODEL 1
REMARK minimizedAffinity -6.05924416
REMARK minimizedRMSD -1
REMARK  0 active torsions:
REMARK  status: ('A' for Active; 'I' for Inactive)
ROOT
ATOM      1  C   UNL d   1       1.023  -0.369  -0.083  0.00  0.00     0.078 C 
ATOM      2  C1  UNL d   1      -0.412  -0.796  -0.005  0.00  0.00    -0.077 A 
ATOM      3  C2  UNL d   1      -0.880  -1.560   1.071  0.00  0.00    -0.001 A 
ATOM      4  C3  UNL d   1      -2.217  -1.958   1.126  0.00  0.00     0.003 A 
ATOM      5  C4  UNL d   1      -3.096  -1.598   0.107  0.00  0.00    -0.005 A 
ATOM      6  C5  UNL d   1      -2.639  -0.840  -0.969  0.00  0.00     0.003 A 
ATOM      7  C6  UNL d   1      -1.303  -0.441  -1.026  0.00  0.00    -0.001 A 
ENDROOT
TORSDOF 0
ENDMDL
