MODEL 1
REMARK minimizedAffinity -4.48390865
REMARK minimizedRMSD -1
REMARK  0 active torsions:
REMARK  status: ('A' for Active; 'I' for Inactive)
ROOT
ATOM      1  C   UNL d   1      -3.268  -1.650   0.431  0.00  0.00     0.078 C 
ATOM      2  C1  UNL d   1      -2.055  -0.936  -0.087  0.00  0.00    -0.077 A 
ATOM      3  C2  UNL d   1      -1.923  -0.632  -1.447  0.00  0.00    -0.001 A 
ATOM      4  C3  UNL d   1      -0.784   0.024  -1.917  0.00  0.00     0.003 A 
ATOM      5  C4  UNL d   1       0.232   0.381  -1.033  0.00  0.00    -0.005 A 
ATOM      6  C5  UNL d   1       0.111   0.082   0.323  0.00  0.00     0.003 A 
ATOM      7  C6  UNL d   1      -1.027  -0.574   0.794  0.00  0.00    -0.001 A 
ENDROOT
TORSDOF 0
ENDMDL
