MODEL 1
REMARK minimizedAffinity -5.02550983
REMARK minimizedRMSD -1
REMARK  0 active torsions:
REMARK  status: ('A' for Active; 'I' for Inactive)
ROOT
ATOM      1  C   UNL d   1       1.285   0.020   0.424  0.00  0.00     0.078 C 
ATOM      2  C1  UNL d   1      -0.050  -0.620   0.663  0.00  0.00    -0.077 A 
ATOM      3  C2  UNL d   1      -0.204  -1.627   1.623  0.00  0.00    -0.001 A 
ATOM      4  C3  UNL d   1      -1.451  -2.221   1.829  0.00  0.00     0.003 A 
ATOM      5  C4  UNL d   1      -2.552  -1.814   1.078  0.00  0.00    -0.005 A 
ATOM      6  C5  UNL d   1      -2.407  -0.813   0.119  0.00  0.00     0.003 A 
ATOM      7  C6  UNL d   1      -1.161  -0.219  -0.088  0.00  0.00    -0.001 A 
ENDROOT
TORSDOF 0
ENDMDL
