MODEL 1
REMARK minimizedAffinity -5.4127183
REMARK minimizedRMSD -1
REMARK  0 active torsions:
REMARK  status: ('A' for Active; 'I' for Inactive)
ROOT
ATOM      1  C   UNL d   1      -0.742  -2.765   2.405  0.00  0.00     0.078 C 
ATOM      2  C1  UNL d   1      -1.496  -2.059   1.318  0.00  0.00    -0.077 A 
ATOM      3  C2  UNL d   1      -1.037  -0.844   0.794  0.00  0.00    -0.001 A 
ATOM      4  C3  UNL d   1      -1.754  -0.192  -0.211  0.00  0.00     0.003 A 
ATOM      5  C4  UNL d   1      -2.935  -0.748  -0.700  0.00  0.00    -0.005 A 
ATOM      6  C5  UNL d   1      -3.400  -1.955  -0.184  0.00  0.00     0.003 A 
ATOM      7  C6  UNL d   1      -2.685  -2.608   0.821  0.00  0.00    -0.001 A 
ENDROOT
TORSDOF 0
ENDMDL
