MODEL 1
REMARK minimizedAffinity -4.42057705
REMARK minimizedRMSD -1
REMARK  0 active torsions:
REMARK  status: ('A' for Active; 'I' for Inactive)
ROOT
ATOM      1  C   UNL d   1       1.731   1.044  -0.156  0.00  0.00     0.078 C 
ATOM      2  C1  UNL d   1       0.357   0.527  -0.464  0.00  0.00    -0.077 A 
ATOM      3  C2  UNL d   1      -0.256   0.797  -1.694  0.00  0.00    -0.001 A 
ATOM      4  C3  UNL d   1      -1.539   0.318  -1.964  0.00  0.00     0.003 A 
ATOM      5  C4  UNL d   1      -2.221  -0.432  -1.008  0.00  0.00    -0.005 A 
ATOM      6  C5  UNL d   1      -1.620  -0.703   0.220  0.00  0.00     0.003 A 
ATOM      7  C6  UNL d   1      -0.337  -0.225   0.491  0.00  0.00    -0.001 A 
ENDROOT
TORSDOF 0
ENDMDL
