MODEL 1
REMARK minimizedAffinity -5.36775303
REMARK minimizedRMSD -1
REMARK  0 active torsions:
REMARK  status: ('A' for Active; 'I' for Inactive)
ROOT
ATOM      1  C   UNL d   1      -1.504  -2.325   2.152  0.00  0.00     0.078 C 
ATOM      2  C1  UNL d   1      -1.124  -1.520   0.945  0.00  0.00    -0.077 A 
ATOM      3  C2  UNL d   1      -2.075  -1.185  -0.027  0.00  0.00    -0.001 A 
ATOM      4  C3  UNL d   1      -1.704  -0.444  -1.150  0.00  0.00     0.003 A 
ATOM      5  C4  UNL d   1      -0.383  -0.033  -1.313  0.00  0.00    -0.005 A 
ATOM      6  C5  UNL d   1       0.570  -0.363  -0.352  0.00  0.00     0.003 A 
ATOM      7  C6  UNL d   1       0.202  -1.105   0.772  0.00  0.00    -0.001 A 
ENDROOT
TORSDOF 0
ENDMDL
