MODEL 1
REMARK minimizedAffinity -6.10508108
REMARK minimizedRMSD -1
REMARK  0 active torsions:
REMARK  status: ('A' for Active; 'I' for Inactive)
ROOT
ATOM      1  C   UNL d   1       0.851   0.050   0.178  0.00  0.00     0.078 C 
ATOM      2  C1  UNL d   1      -0.490  -0.615   0.267  0.00  0.00    -0.077 A 
ATOM      3  C2  UNL d   1      -0.677  -1.759   1.053  0.00  0.00    -0.001 A 
ATOM      4  C3  UNL d   1      -1.929  -2.373   1.118  0.00  0.00     0.003 A 
ATOM      5  C4  UNL d   1      -3.003  -1.852   0.400  0.00  0.00    -0.005 A 
ATOM      6  C5  UNL d   1      -2.826  -0.715  -0.386  0.00  0.00     0.003 A 
ATOM      7  C6  UNL d   1      -1.575  -0.099  -0.453  0.00  0.00    -0.001 A 
ENDROOT
TORSDOF 0
ENDMDL
