MODEL 1
REMARK minimizedAffinity -3.95505357
REMARK minimizedRMSD -1
REMARK  0 active torsions:
REMARK  status: ('A' for Active; 'I' for Inactive)
ROOT
ATOM      1  C   UNL d   1       1.350   0.331   0.308  0.00  0.00     0.078 C 
ATOM      2  C1  UNL d   1      -0.051  -0.086  -0.025  0.00  0.00    -0.077 A 
ATOM      3  C2  UNL d   1      -0.782  -0.912   0.837  0.00  0.00    -0.001 A 
ATOM      4  C3  UNL d   1      -2.082  -1.300   0.510  0.00  0.00     0.003 A 
ATOM      5  C4  UNL d   1      -2.663  -0.867  -0.681  0.00  0.00    -0.005 A 
ATOM      6  C5  UNL d   1      -1.943  -0.047  -1.546  0.00  0.00     0.003 A 
ATOM      7  C6  UNL d   1      -0.642   0.342  -1.221  0.00  0.00    -0.001 A 
ENDROOT
TORSDOF 0
ENDMDL
