MODEL 1
REMARK minimizedAffinity -6.20696592
REMARK minimizedRMSD -1
REMARK  0 active torsions:
REMARK  status: ('A' for Active; 'I' for Inactive)
ROOT
ATOM      1  C   UNL d   1       0.769   0.244   0.321  0.00  0.00     0.078 C 
ATOM      2  C1  UNL d   1      -0.576  -0.416   0.275  0.00  0.00    -0.077 A 
ATOM      3  C2  UNL d   1      -1.636   0.155  -0.440  0.00  0.00    -0.001 A 
ATOM      4  C3  UNL d   1      -2.886  -0.466  -0.467  0.00  0.00     0.003 A 
ATOM      5  C4  UNL d   1      -3.088  -1.661   0.220  0.00  0.00    -0.005 A 
ATOM      6  C5  UNL d   1      -2.040  -2.236   0.936  0.00  0.00     0.003 A 
ATOM      7  C6  UNL d   1      -0.790  -1.617   0.964  0.00  0.00    -0.001 A 
ENDROOT
TORSDOF 0
ENDMDL
