MODEL 1
REMARK minimizedAffinity -5.60991526
REMARK minimizedRMSD -1
REMARK  0 active torsions:
REMARK  status: ('A' for Active; 'I' for Inactive)
ROOT
ATOM      1  C   UNL d   1       0.401   0.230   0.304  0.00  0.00     0.078 C 
ATOM      2  C1  UNL d   1      -0.839  -0.574   0.561  0.00  0.00    -0.077 A 
ATOM      3  C2  UNL d   1      -0.827  -1.652   1.454  0.00  0.00    -0.001 A 
ATOM      4  C3  UNL d   1      -1.986  -2.398   1.677  0.00  0.00     0.003 A 
ATOM      5  C4  UNL d   1      -3.165  -2.074   1.008  0.00  0.00    -0.005 A 
ATOM      6  C5  UNL d   1      -3.186  -1.005   0.115  0.00  0.00     0.003 A 
ATOM      7  C6  UNL d   1      -2.028  -0.258  -0.108  0.00  0.00    -0.001 A 
ENDROOT
TORSDOF 0
ENDMDL
