MODEL 1
REMARK minimizedAffinity -3.70498204
REMARK minimizedRMSD -1
REMARK  0 active torsions:
REMARK  status: ('A' for Active; 'I' for Inactive)
ROOT
ATOM      1  C   UNL d   1       1.603   0.210   0.200  0.00  0.00     0.078 C 
ATOM      2  C1  UNL d   1       0.145   0.052  -0.112  0.00  0.00    -0.077 A 
ATOM      3  C2  UNL d   1      -0.675  -0.771   0.669  0.00  0.00    -0.001 A 
ATOM      4  C3  UNL d   1      -2.028  -0.916   0.360  0.00  0.00     0.003 A 
ATOM      5  C4  UNL d   1      -2.574  -0.242  -0.730  0.00  0.00    -0.005 A 
ATOM      6  C5  UNL d   1      -1.765   0.578  -1.514  0.00  0.00     0.003 A 
ATOM      7  C6  UNL d   1      -0.411   0.725  -1.208  0.00  0.00    -0.001 A 
ENDROOT
TORSDOF 0
ENDMDL
