MODEL 1
REMARK minimizedAffinity -6.07623529
REMARK minimizedRMSD -1
REMARK  0 active torsions:
REMARK  status: ('A' for Active; 'I' for Inactive)
ROOT
ATOM      1  C   UNL d   1      -0.624   0.727  -1.472  0.00  0.00     0.078 C 
ATOM      2  C1  UNL d   1      -1.326  -0.335  -0.679  0.00  0.00    -0.077 A 
ATOM      3  C2  UNL d   1      -2.574  -0.827  -1.079  0.00  0.00    -0.001 A 
ATOM      4  C3  UNL d   1      -3.220  -1.809  -0.325  0.00  0.00     0.003 A 
ATOM      5  C4  UNL d   1      -2.626  -2.305   0.834  0.00  0.00    -0.005 A 
ATOM      6  C5  UNL d   1      -1.385  -1.819   1.240  0.00  0.00     0.003 A 
ATOM      7  C6  UNL d   1      -0.738  -0.838   0.488  0.00  0.00    -0.001 A 
ENDROOT
TORSDOF 0
ENDMDL
