MODEL 1
REMARK minimizedAffinity -5.54432297
REMARK minimizedRMSD -1
REMARK  0 active torsions:
REMARK  status: ('A' for Active; 'I' for Inactive)
ROOT
ATOM      1  C   UNL d   1       0.816   0.278   0.069  0.00  0.00     0.078 C 
ATOM      2  C1  UNL d   1      -0.566  -0.286  -0.078  0.00  0.00    -0.077 A 
ATOM      3  C2  UNL d   1      -1.259  -0.793   1.027  0.00  0.00    -0.001 A 
ATOM      4  C3  UNL d   1      -2.541  -1.324   0.874  0.00  0.00     0.003 A 
ATOM      5  C4  UNL d   1      -3.140  -1.354  -0.384  0.00  0.00    -0.005 A 
ATOM      6  C5  UNL d   1      -2.457  -0.853  -1.490  0.00  0.00     0.003 A 
ATOM      7  C6  UNL d   1      -1.175  -0.322  -1.339  0.00  0.00    -0.001 A 
ENDROOT
TORSDOF 0
ENDMDL
