MODEL 1
REMARK minimizedAffinity -4.44057131
REMARK minimizedRMSD -1
REMARK  0 active torsions:
REMARK  status: ('A' for Active; 'I' for Inactive)
ROOT
ATOM      1  C   UNL d   1       0.988  -0.008  -0.006  0.00  0.00     0.078 C 
ATOM      2  C1  UNL d   1      -0.440  -0.465   0.004  0.00  0.00    -0.077 A 
ATOM      3  C2  UNL d   1      -1.346  -0.024  -0.969  0.00  0.00    -0.001 A 
ATOM      4  C3  UNL d   1      -2.674  -0.450  -0.942  0.00  0.00     0.003 A 
ATOM      5  C4  UNL d   1      -3.111  -1.318   0.058  0.00  0.00    -0.005 A 
ATOM      6  C5  UNL d   1      -2.218  -1.760   1.032  0.00  0.00     0.003 A 
ATOM      7  C6  UNL d   1      -0.889  -1.335   1.006  0.00  0.00    -0.001 A 
ENDROOT
TORSDOF 0
ENDMDL
