MODEL 1
REMARK minimizedAffinity 8.46589851
REMARK minimizedRMSD -1
REMARK  1 active torsions:
REMARK  status: ('A' for Active; 'I' for Inactive)
REMARK    1  A    between atoms: C1_2  and  C2_3 
ROOT
ATOM      1  C2  UNL d   1       5.198   1.945   1.088  0.00  0.00    -0.077 A 
ATOM      2  C3  UNL d   1       3.957   2.054   0.444  0.00  0.00     0.002 A 
ATOM      3  C4  UNL d   1       3.194   0.914   0.183  0.00  0.00     0.002 A 
ATOM      4  C5  UNL d   1       3.661  -0.342   0.567  0.00  0.00    -0.004 A 
ATOM      5  C6  UNL d   1       4.895  -0.461   1.206  0.00  0.00     0.002 A 
ATOM      6  C7  UNL d   1       5.659   0.678   1.466  0.00  0.00     0.002 A 
ENDROOT
BRANCH   1   7
ATOM      7  C1  UNL d   1       5.999   3.178   1.414  0.00  0.00     0.055 C 
ATOM      8  C   UNL d   1       5.297   4.439   0.931  0.00  0.00     0.019 C 
ENDBRANCH   1   7
TORSDOF 1
ENDMDL
