MODEL 1
REMARK minimizedAffinity 10.0042286
REMARK minimizedRMSD -1
REMARK  1 active torsions:
REMARK  status: ('A' for Active; 'I' for Inactive)
REMARK    1  A    between atoms: C1_2  and  C2_3 
ROOT
ATOM      1  C2  UNL d   1       3.826   1.322   0.994  0.00  0.00    -0.077 A 
ATOM      2  C3  UNL d   1       3.849  -0.080   0.975  0.00  0.00     0.002 A 
ATOM      3  C4  UNL d   1       4.932  -0.776   1.514  0.00  0.00     0.002 A 
ATOM      4  C5  UNL d   1       5.998  -0.080   2.080  0.00  0.00    -0.004 A 
ATOM      5  C6  UNL d   1       5.986   1.314   2.102  0.00  0.00     0.002 A 
ATOM      6  C7  UNL d   1       4.904   2.012   1.563  0.00  0.00     0.002 A 
ENDROOT
BRANCH   1   7
ATOM      7  C1  UNL d   1       2.636   2.073   0.458  0.00  0.00     0.055 C 
ATOM      8  C   UNL d   1       1.387   1.203   0.455  0.00  0.00     0.019 C 
ENDBRANCH   1   7
TORSDOF 1
ENDMDL
