MODEL 1
REMARK minimizedAffinity 16.0944824
REMARK minimizedRMSD -1
REMARK  1 active torsions:
REMARK  status: ('A' for Active; 'I' for Inactive)
REMARK    1  A    between atoms: C1_2  and  C2_3 
ROOT
ATOM      1  C2  UNL d   1      -1.202  -3.024  -1.280  0.00  0.00    -0.077 A 
ATOM      2  C3  UNL d   1      -0.917  -3.945  -2.297  0.00  0.00     0.002 A 
ATOM      3  C4  UNL d   1      -1.585  -3.875  -3.521  0.00  0.00     0.002 A 
ATOM      4  C5  UNL d   1      -2.539  -2.884  -3.740  0.00  0.00    -0.004 A 
ATOM      5  C6  UNL d   1      -2.832  -1.964  -2.734  0.00  0.00     0.002 A 
ATOM      6  C7  UNL d   1      -2.166  -2.033  -1.509  0.00  0.00     0.002 A 
ENDROOT
BRANCH   1   7
ATOM      7  C1  UNL d   1      -0.448  -3.067   0.023  0.00  0.00     0.055 C 
ATOM      8  C   UNL d   1      -1.356  -3.469   1.176  0.00  0.00     0.019 C 
ENDBRANCH   1   7
TORSDOF 1
ENDMDL
