MODEL 1
REMARK minimizedAffinity 5.47926855
REMARK minimizedRMSD -1
REMARK  1 active torsions:
REMARK  status: ('A' for Active; 'I' for Inactive)
REMARK    1  A    between atoms: C1_2  and  C2_3 
ROOT
ATOM      1  C2  UNL d   1       2.070   0.858   1.839  0.00  0.00    -0.077 A 
ATOM      2  C3  UNL d   1       1.807   1.332   0.546  0.00  0.00     0.002 A 
ATOM      3  C4  UNL d   1       2.607   0.937  -0.527  0.00  0.00     0.002 A 
ATOM      4  C5  UNL d   1       3.673   0.064  -0.320  0.00  0.00    -0.004 A 
ATOM      5  C6  UNL d   1       3.944  -0.411   0.963  0.00  0.00     0.002 A 
ATOM      6  C7  UNL d   1       3.146  -0.016   2.037  0.00  0.00     0.002 A 
ENDROOT
BRANCH   1   7
ATOM      7  C1  UNL d   1       1.178   1.244   2.990  0.00  0.00     0.055 C 
ATOM      8  C   UNL d   1       0.819   0.036   3.842  0.00  0.00     0.019 C 
ENDBRANCH   1   7
TORSDOF 1
ENDMDL
