MODEL 1
REMARK minimizedAffinity 3.67111611
REMARK minimizedRMSD -1
REMARK  1 active torsions:
REMARK  status: ('A' for Active; 'I' for Inactive)
REMARK    1  A    between atoms: C1_2  and  C2_3 
ROOT
ATOM      1  C2  UNL d   1       2.063   0.549   1.960  0.00  0.00    -0.077 A 
ATOM      2  C3  UNL d   1       1.720   0.921   0.652  0.00  0.00     0.002 A 
ATOM      3  C4  UNL d   1       2.493   0.495  -0.429  0.00  0.00     0.002 A 
ATOM      4  C5  UNL d   1       3.611  -0.309  -0.215  0.00  0.00    -0.004 A 
ATOM      5  C6  UNL d   1       3.961  -0.683   1.082  0.00  0.00     0.002 A 
ATOM      6  C7  UNL d   1       3.190  -0.257   2.164  0.00  0.00     0.002 A 
ENDROOT
BRANCH   1   7
ATOM      7  C1  UNL d   1       1.202   0.967   3.123  0.00  0.00     0.055 C 
ATOM      8  C   UNL d   1       1.135  -0.124   4.182  0.00  0.00     0.019 C 
ENDBRANCH   1   7
TORSDOF 1
ENDMDL
