MODEL 1
REMARK minimizedAffinity -0.200461715
REMARK minimizedRMSD -1
REMARK  1 active torsions:
REMARK  status: ('A' for Active; 'I' for Inactive)
REMARK    1  A    between atoms: C1_2  and  C2_3 
ROOT
ATOM      1  C2  UNL d   1       2.139   0.395   2.103  0.00  0.00    -0.077 A 
ATOM      2  C3  UNL d   1       1.766   1.733   1.911  0.00  0.00     0.002 A 
ATOM      3  C4  UNL d   1       2.086   2.391   0.722  0.00  0.00     0.002 A 
ATOM      4  C5  UNL d   1       2.777   1.719  -0.284  0.00  0.00    -0.004 A 
ATOM      5  C6  UNL d   1       3.154   0.390  -0.101  0.00  0.00     0.002 A 
ATOM      6  C7  UNL d   1       2.836  -0.270   1.087  0.00  0.00     0.002 A 
ENDROOT
BRANCH   1   7
ATOM      7  C1  UNL d   1       1.751  -0.331   3.365  0.00  0.00     0.055 C 
ATOM      8  C   UNL d   1       0.709   0.448   4.154  0.00  0.00     0.019 C 
ENDBRANCH   1   7
TORSDOF 1
ENDMDL
