MODEL 1
REMARK minimizedAffinity 8.24254227
REMARK minimizedRMSD -1
REMARK  1 active torsions:
REMARK  status: ('A' for Active; 'I' for Inactive)
REMARK    1  A    between atoms: C1_2  and  C2_3 
ROOT
ATOM      1  C2  UNL d   1      -4.766   3.133   5.409  0.00  0.00    -0.077 A 
ATOM      2  C3  UNL d   1      -4.095   2.767   4.233  0.00  0.00     0.002 A 
ATOM      3  C4  UNL d   1      -4.307   1.511   3.661  0.00  0.00     0.002 A 
ATOM      4  C5  UNL d   1      -5.192   0.613   4.255  0.00  0.00    -0.004 A 
ATOM      5  C6  UNL d   1      -5.862   0.967   5.425  0.00  0.00     0.002 A 
ATOM      6  C7  UNL d   1      -5.651   2.222   5.999  0.00  0.00     0.002 A 
ENDROOT
BRANCH   1   7
ATOM      7  C1  UNL d   1      -4.576   4.505   6.000  0.00  0.00     0.055 C 
ATOM      8  C   UNL d   1      -5.722   5.434   5.624  0.00  0.00     0.019 C 
ENDBRANCH   1   7
TORSDOF 1
ENDMDL
