MODEL 1
REMARK minimizedAffinity 14.7208471
REMARK minimizedRMSD -1
REMARK  1 active torsions:
REMARK  status: ('A' for Active; 'I' for Inactive)
REMARK    1  A    between atoms: C1_2  and  C2_3 
ROOT
ATOM      1  C2  UNL d   1      -1.310  -3.670   1.314  0.00  0.00    -0.077 A 
ATOM      2  C3  UNL d   1      -2.588  -3.180   1.009  0.00  0.00     0.002 A 
ATOM      3  C4  UNL d   1      -2.784  -2.364  -0.107  0.00  0.00     0.002 A 
ATOM      4  C5  UNL d   1      -1.707  -2.034  -0.928  0.00  0.00    -0.004 A 
ATOM      5  C6  UNL d   1      -0.433  -2.514  -0.632  0.00  0.00     0.002 A 
ATOM      6  C7  UNL d   1      -0.235  -3.329   0.484  0.00  0.00     0.002 A 
ENDROOT
BRANCH   1   7
ATOM      7  C1  UNL d   1      -1.106  -4.590   2.489  0.00  0.00     0.055 C 
ATOM      8  C   UNL d   1      -1.612  -5.994   2.187  0.00  0.00     0.019 C 
ENDBRANCH   1   7
TORSDOF 1
ENDMDL
