MODEL 1
REMARK minimizedAffinity 2.47464871
REMARK minimizedRMSD -1
REMARK  1 active torsions:
REMARK  status: ('A' for Active; 'I' for Inactive)
REMARK    1  A    between atoms: C1_2  and  C2_3 
ROOT
ATOM      1  C2  UNL d   1       1.134  -0.181   0.919  0.00  0.00    -0.077 A 
ATOM      2  C3  UNL d   1       1.154   1.151   0.483  0.00  0.00     0.002 A 
ATOM      3  C4  UNL d   1       2.286   1.669  -0.151  0.00  0.00     0.002 A 
ATOM      4  C5  UNL d   1       3.402   0.862  -0.357  0.00  0.00    -0.004 A 
ATOM      5  C6  UNL d   1       3.392  -0.464   0.075  0.00  0.00     0.002 A 
ATOM      6  C7  UNL d   1       2.263  -0.983   0.709  0.00  0.00     0.002 A 
ENDROOT
BRANCH   1   7
ATOM      7  C1  UNL d   1      -0.103  -0.756   1.558  0.00  0.00     0.055 C 
ATOM      8  C   UNL d   1      -0.644  -1.932   0.757  0.00  0.00     0.019 C 
ENDBRANCH   1   7
TORSDOF 1
ENDMDL
