MODEL 1
REMARK minimizedAffinity 4.1064024
REMARK minimizedRMSD -1
REMARK  1 active torsions:
REMARK  status: ('A' for Active; 'I' for Inactive)
REMARK    1  A    between atoms: C1_2  and  C2_3 
ROOT
ATOM      1  C2  UNL d   1      -1.952  -3.759   0.375  0.00  0.00    -0.077 A 
ATOM      2  C3  UNL d   1      -2.819  -4.380  -0.536  0.00  0.00     0.002 A 
ATOM      3  C4  UNL d   1      -3.200  -3.724  -1.708  0.00  0.00     0.002 A 
ATOM      4  C5  UNL d   1      -2.715  -2.447  -1.982  0.00  0.00    -0.004 A 
ATOM      5  C6  UNL d   1      -1.855  -1.820  -1.082  0.00  0.00     0.002 A 
ATOM      6  C7  UNL d   1      -1.474  -2.473   0.091  0.00  0.00     0.002 A 
ENDROOT
BRANCH   1   7
ATOM      7  C1  UNL d   1      -1.501  -4.484   1.616  0.00  0.00     0.055 C 
ATOM      8  C   UNL d   1      -1.974  -5.931   1.614  0.00  0.00     0.019 C 
ENDBRANCH   1   7
TORSDOF 1
ENDMDL
