MODEL 1
REMARK minimizedAffinity 9.11514187
REMARK minimizedRMSD -1
REMARK  1 active torsions:
REMARK  status: ('A' for Active; 'I' for Inactive)
REMARK    1  A    between atoms: C1_2  and  C2_3 
ROOT
ATOM      1  C2  UNL d   1      -2.607  -3.682   0.676  0.00  0.00    -0.077 A 
ATOM      2  C3  UNL d   1      -1.494  -3.692   1.528  0.00  0.00     0.002 A 
ATOM      3  C4  UNL d   1      -1.159  -4.847   2.239  0.00  0.00     0.002 A 
ATOM      4  C5  UNL d   1      -1.930  -6.000   2.101  0.00  0.00    -0.004 A 
ATOM      5  C6  UNL d   1      -3.040  -5.999   1.257  0.00  0.00     0.002 A 
ATOM      6  C7  UNL d   1      -3.376  -4.845   0.547  0.00  0.00     0.002 A 
ENDROOT
BRANCH   1   7
ATOM      7  C1  UNL d   1      -2.941  -2.453  -0.129  0.00  0.00     0.055 C 
ATOM      8  C   UNL d   1      -2.093  -2.370  -1.390  0.00  0.00     0.019 C 
ENDBRANCH   1   7
TORSDOF 1
ENDMDL
