MODEL 1
REMARK minimizedAffinity 8.32395077
REMARK minimizedRMSD -1
REMARK  1 active torsions:
REMARK  status: ('A' for Active; 'I' for Inactive)
REMARK    1  A    between atoms: C1_2  and  C2_3 
ROOT
ATOM      1  C2  UNL d   1      -4.510   3.643   3.294  0.00  0.00    -0.077 A 
ATOM      2  C3  UNL d   1      -5.266   4.242   2.277  0.00  0.00     0.002 A 
ATOM      3  C4  UNL d   1      -6.000   5.402   2.532  0.00  0.00     0.002 A 
ATOM      4  C5  UNL d   1      -5.983   5.974   3.803  0.00  0.00    -0.004 A 
ATOM      5  C6  UNL d   1      -5.236   5.384   4.822  0.00  0.00     0.002 A 
ATOM      6  C7  UNL d   1      -4.503   4.224   4.569  0.00  0.00     0.002 A 
ENDROOT
BRANCH   1   7
ATOM      7  C1  UNL d   1      -3.679   2.420   3.008  0.00  0.00     0.055 C 
ATOM      8  C   UNL d   1      -4.462   1.143   3.276  0.00  0.00     0.019 C 
ENDBRANCH   1   7
TORSDOF 1
ENDMDL
