MODEL 1
REMARK minimizedAffinity -4.62070227
REMARK minimizedRMSD -1
REMARK  0 active torsions:
REMARK  status: ('A' for Active; 'I' for Inactive)
ROOT
ATOM      1  C4' PXY d   1       0.335   0.035  -1.951  0.00  0.00     0.077 C 
ATOM      2  C1' PXY d   1      -0.953  -0.045   3.683  0.00  0.00     0.077 C 
ATOM      3  C1  PXY d   1      -0.608  -0.014   2.208  0.00  0.00    -0.082 A 
ATOM      4  C2  PXY d   1      -1.417  -0.591   1.334  0.00  0.00     0.003 A 
ATOM      5  C3  PXY d   1      -1.104  -0.599  -0.001  0.00  0.00     0.003 A 
ATOM      6  C4  PXY d   1       0.022   0.035  -0.452  0.00  0.00    -0.082 A 
ATOM      7  C5  PXY d   1       0.847   0.636   0.431  0.00  0.00     0.003 A 
ATOM      8  C6  PXY d   1       0.532   0.597   1.787  0.00  0.00     0.003 A 
ENDROOT
TORSDOF 0
ENDMDL
