MODEL 1
REMARK minimizedAffinity -5.97599268
REMARK minimizedRMSD -1
REMARK  0 active torsions:
REMARK  status: ('A' for Active; 'I' for Inactive)
ROOT
ATOM      1  C4' PXY d   1      -1.251   0.093   3.864  0.00  0.00     0.077 C 
ATOM      2  C1' PXY d   1      -0.026   0.325  -1.781  0.00  0.00     0.077 C 
ATOM      3  C1  PXY d   1      -0.359   0.270  -0.303  0.00  0.00    -0.082 A 
ATOM      4  C2  PXY d   1       0.619   0.201   0.586  0.00  0.00     0.003 A 
ATOM      5  C3  PXY d   1       0.335   0.118   1.925  0.00  0.00     0.003 A 
ATOM      6  C4  PXY d   1      -0.962   0.160   2.362  0.00  0.00    -0.082 A 
ATOM      7  C5  PXY d   1      -1.965   0.241   1.462  0.00  0.00     0.003 A 
ATOM      8  C6  PXY d   1      -1.657   0.282   0.105  0.00  0.00     0.003 A 
ENDROOT
TORSDOF 0
ENDMDL
