MODEL 1
REMARK minimizedAffinity -4.66097975
REMARK minimizedRMSD -1
REMARK  0 active torsions:
REMARK  status: ('A' for Active; 'I' for Inactive)
ROOT
ATOM      1  C4' PXY d   1      -0.651  -0.333   3.780  0.00  0.00     0.077 C 
ATOM      2  C1' PXY d   1      -0.464   0.833  -1.879  0.00  0.00     0.077 C 
ATOM      3  C1  PXY d   1      -0.526   0.529  -0.395  0.00  0.00    -0.082 A 
ATOM      4  C2  PXY d   1       0.556   0.685   0.350  0.00  0.00     0.003 A 
ATOM      5  C3  PXY d   1       0.526   0.385   1.688  0.00  0.00     0.003 A 
ATOM      6  C4  PXY d   1      -0.637  -0.029   2.279  0.00  0.00    -0.082 A 
ATOM      7  C5  PXY d   1      -1.748  -0.180   1.527  0.00  0.00     0.003 A 
ATOM      8  C6  PXY d   1      -1.686   0.091   0.163  0.00  0.00     0.003 A 
ENDROOT
TORSDOF 0
ENDMDL
