MODEL 1
REMARK minimizedAffinity -3.32208061
REMARK minimizedRMSD -1
REMARK  0 active torsions:
REMARK  status: ('A' for Active; 'I' for Inactive)
ROOT
ATOM      1  C4' PXY d   1      -0.489   0.622  -1.678  0.00  0.00     0.077 C 
ATOM      2  C1' PXY d   1      -1.248  -0.478   3.946  0.00  0.00     0.077 C 
ATOM      3  C1  PXY d   1      -1.038  -0.184   2.474  0.00  0.00    -0.082 A 
ATOM      4  C2  PXY d   1      -2.083  -0.112   1.665  0.00  0.00     0.003 A 
ATOM      5  C3  PXY d   1      -1.908   0.122   0.325  0.00  0.00     0.003 A 
ATOM      6  C4  PXY d   1      -0.655   0.336  -0.183  0.00  0.00    -0.082 A 
ATOM      7  C5  PXY d   1       0.415   0.275   0.637  0.00  0.00     0.003 A 
ATOM      8  C6  PXY d   1       0.220  -0.004   1.987  0.00  0.00     0.003 A 
ENDROOT
TORSDOF 0
ENDMDL
