MODEL 1
REMARK minimizedAffinity -2.92023635
REMARK minimizedRMSD -1
REMARK  0 active torsions:
REMARK  status: ('A' for Active; 'I' for Inactive)
ROOT
ATOM      1  C4' PXY d   1      -0.827   0.033   3.382  0.00  0.00     0.077 C 
ATOM      2  C1' PXY d   1      -0.070   0.354  -2.340  0.00  0.00     0.077 C 
ATOM      3  C1  PXY d   1      -0.257   0.264  -0.838  0.00  0.00    -0.082 A 
ATOM      4  C2  PXY d   1      -1.478   0.269  -0.329  0.00  0.00     0.003 A 
ATOM      5  C3  PXY d   1      -1.665   0.221   1.028  0.00  0.00     0.003 A 
ATOM      6  C4  PXY d   1      -0.591   0.113   1.871  0.00  0.00    -0.082 A 
ATOM      7  C5  PXY d   1       0.658   0.096   1.360  0.00  0.00     0.003 A 
ATOM      8  C6  PXY d   1       0.827   0.187  -0.019  0.00  0.00     0.003 A 
ENDROOT
TORSDOF 0
ENDMDL
