MODEL 1
REMARK minimizedAffinity -5.5902195
REMARK minimizedRMSD -1
REMARK  0 active torsions:
REMARK  status: ('A' for Active; 'I' for Inactive)
ROOT
ATOM      1  C4' PXY d   1       0.736  -0.025  -2.174  0.00  0.00     0.077 C 
ATOM      2  C1' PXY d   1      -0.523  -0.679   3.430  0.00  0.00     0.077 C 
ATOM      3  C1  PXY d   1      -0.205  -0.511   1.957  0.00  0.00    -0.082 A 
ATOM      4  C2  PXY d   1       1.048  -0.604   1.544  0.00  0.00     0.003 A 
ATOM      5  C3  PXY d   1       1.357  -0.423   0.220  0.00  0.00     0.003 A 
ATOM      6  C4  PXY d   1       0.367  -0.197  -0.698  0.00  0.00    -0.082 A 
ATOM      7  C5  PXY d   1      -0.915  -0.112  -0.286  0.00  0.00     0.003 A 
ATOM      8  C6  PXY d   1      -1.204  -0.257   1.068  0.00  0.00     0.003 A 
ENDROOT
TORSDOF 0
ENDMDL
