MODEL 1
REMARK minimizedAffinity -4.56946182
REMARK minimizedRMSD -1
REMARK  0 active torsions:
REMARK  status: ('A' for Active; 'I' for Inactive)
ROOT
ATOM      1  C4' PXY d   1      -0.512  -0.303   3.335  0.00  0.00     0.077 C 
ATOM      2  C1' PXY d   1       0.511   0.249  -2.328  0.00  0.00     0.077 C 
ATOM      3  C1  PXY d   1       0.230   0.107  -0.845  0.00  0.00    -0.082 A 
ATOM      4  C2  PXY d   1       1.209   0.287   0.026  0.00  0.00     0.003 A 
ATOM      5  C3  PXY d   1       0.980   0.131   1.369  0.00  0.00     0.003 A 
ATOM      6  C4  PXY d   1      -0.276  -0.160   1.828  0.00  0.00    -0.082 A 
ATOM      7  C5  PXY d   1      -1.283  -0.335   0.946  0.00  0.00     0.003 A 
ATOM      8  C6  PXY d   1      -1.021  -0.213  -0.415  0.00  0.00     0.003 A 
ENDROOT
TORSDOF 0
ENDMDL
