MODEL 1
REMARK minimizedAffinity -3.36242175
REMARK minimizedRMSD -1
REMARK  0 active torsions:
REMARK  status: ('A' for Active; 'I' for Inactive)
ROOT
ATOM      1  C4' PXY d   1      -0.180   0.241  -1.505  0.00  0.00     0.077 C 
ATOM      2  C1' PXY d   1      -0.724  -0.454   4.208  0.00  0.00     0.077 C 
ATOM      3  C1  PXY d   1      -0.594  -0.276   2.708  0.00  0.00    -0.082 A 
ATOM      4  C2  PXY d   1       0.604  -0.304   2.148  0.00  0.00     0.003 A 
ATOM      5  C3  PXY d   1       0.743  -0.113   0.797  0.00  0.00     0.003 A 
ATOM      6  C4  PXY d   1      -0.360   0.056   0.005  0.00  0.00    -0.082 A 
ATOM      7  C5  PXY d   1      -1.587   0.076   0.567  0.00  0.00     0.003 A 
ATOM      8  C6  PXY d   1      -1.703  -0.079   1.946  0.00  0.00     0.003 A 
ENDROOT
TORSDOF 0
ENDMDL
