MODEL 1
REMARK minimizedAffinity -4.41755247
REMARK minimizedRMSD -1
REMARK  0 active torsions:
REMARK  status: ('A' for Active; 'I' for Inactive)
ROOT
ATOM      1  C4' PXY d   1      -1.817  -0.920   4.118  0.00  0.00     0.077 C 
ATOM      2  C1' PXY d   1       1.148   0.456  -0.650  0.00  0.00     0.077 C 
ATOM      3  C1  PXY d   1       0.381   0.095   0.608  0.00  0.00    -0.082 A 
ATOM      4  C2  PXY d   1      -0.801  -0.492   0.507  0.00  0.00     0.003 A 
ATOM      5  C3  PXY d   1      -1.521  -0.796   1.633  0.00  0.00     0.003 A 
ATOM      6  C4  PXY d   1      -1.004  -0.546   2.876  0.00  0.00    -0.082 A 
ATOM      7  C5  PXY d   1       0.206   0.043   2.987  0.00  0.00     0.003 A 
ATOM      8  C6  PXY d   1       0.904   0.381   1.831  0.00  0.00     0.003 A 
ENDROOT
TORSDOF 0
ENDMDL
