MODEL 1
REMARK minimizedAffinity -2.76539898
REMARK minimizedRMSD -1
REMARK  0 active torsions:
REMARK  status: ('A' for Active; 'I' for Inactive)
ROOT
ATOM      1  C4' PXY d   1      -2.737   0.134   0.350  0.00  0.00     0.077 C 
ATOM      2  C1' PXY d   1       2.722   0.106   2.250  0.00  0.00     0.077 C 
ATOM      3  C1  PXY d   1       1.294   0.121   1.742  0.00  0.00    -0.082 A 
ATOM      4  C2  PXY d   1       0.299  -0.120   2.580  0.00  0.00     0.003 A 
ATOM      5  C3  PXY d   1      -0.996  -0.142   2.131  0.00  0.00     0.003 A 
ATOM      6  C4  PXY d   1      -1.280   0.139   0.821  0.00  0.00    -0.082 A 
ATOM      7  C5  PXY d   1      -0.271   0.396  -0.038  0.00  0.00     0.003 A 
ATOM      8  C6  PXY d   1       1.040   0.373   0.429  0.00  0.00     0.003 A 
ENDROOT
TORSDOF 0
ENDMDL
