MODEL 1
REMARK minimizedAffinity -4.7392478
REMARK minimizedRMSD -1
REMARK  0 active torsions:
REMARK  status: ('A' for Active; 'I' for Inactive)
ROOT
ATOM      1  C4' PXY d   1       1.507   0.585  -2.229  0.00  0.00     0.077 C 
ATOM      2  C1' PXY d   1      -0.655  -0.317   3.056  0.00  0.00     0.077 C 
ATOM      3  C1  PXY d   1      -0.099  -0.084   1.664  0.00  0.00    -0.082 A 
ATOM      4  C2  PXY d   1       1.209  -0.110   1.470  0.00  0.00     0.003 A 
ATOM      5  C3  PXY d   1       1.730   0.130   0.225  0.00  0.00     0.003 A 
ATOM      6  C4  PXY d   1       0.901   0.346  -0.843  0.00  0.00    -0.082 A 
ATOM      7  C5  PXY d   1      -0.436   0.363  -0.655  0.00  0.00     0.003 A 
ATOM      8  C6  PXY d   1      -0.943   0.158   0.625  0.00  0.00     0.003 A 
ENDROOT
TORSDOF 0
ENDMDL
