MODEL 1
REMARK minimizedAffinity -1.86847198
REMARK minimizedRMSD -1
REMARK  0 active torsions:
REMARK  status: ('A' for Active; 'I' for Inactive)
ROOT
ATOM      1  C4' PXY d   1       0.509   0.533  -2.533  0.00  0.00     0.077 C 
ATOM      2  C1' PXY d   1       0.003   0.403   3.224  0.00  0.00     0.077 C 
ATOM      3  C1  PXY d   1       0.124   0.431   1.713  0.00  0.00    -0.082 A 
ATOM      4  C2  PXY d   1       1.319   0.538   1.155  0.00  0.00     0.003 A 
ATOM      5  C3  PXY d   1       1.444   0.597  -0.209  0.00  0.00     0.003 A 
ATOM      6  C4  PXY d   1       0.339   0.492  -1.012  0.00  0.00    -0.082 A 
ATOM      7  C5  PXY d   1      -0.882   0.372  -0.450  0.00  0.00     0.003 A 
ATOM      8  C6  PXY d   1      -0.991   0.355   0.938  0.00  0.00     0.003 A 
ENDROOT
TORSDOF 0
ENDMDL
