MODEL 1
REMARK minimizedAffinity -3.63801003
REMARK minimizedRMSD -1
REMARK  0 active torsions:
REMARK  status: ('A' for Active; 'I' for Inactive)
ROOT
ATOM      1  C4' PXY d   1       0.551   0.652  -1.794  0.00  0.00     0.077 C 
ATOM      2  C1' PXY d   1      -0.879  -0.921   3.581  0.00  0.00     0.077 C 
ATOM      3  C1  PXY d   1      -0.496  -0.500   2.176  0.00  0.00    -0.082 A 
ATOM      4  C2  PXY d   1      -1.342  -0.700   1.179  0.00  0.00     0.003 A 
ATOM      5  C3  PXY d   1      -0.999  -0.355  -0.102  0.00  0.00     0.003 A 
ATOM      6  C4  PXY d   1       0.202   0.251  -0.358  0.00  0.00    -0.082 A 
ATOM      7  C5  PXY d   1       1.067   0.468   0.655  0.00  0.00     0.003 A 
ATOM      8  C6  PXY d   1       0.716   0.073   1.943  0.00  0.00     0.003 A 
ENDROOT
TORSDOF 0
ENDMDL
