MODEL 1
REMARK minimizedAffinity -0.912425101
REMARK minimizedRMSD -1
REMARK  0 active torsions:
REMARK  status: ('A' for Active; 'I' for Inactive)
ROOT
ATOM      1  C4' PXY d   1      -0.401  -0.718   3.453  0.00  0.00     0.077 C 
ATOM      2  C1' PXY d   1       0.775   0.468  -2.082  0.00  0.00     0.077 C 
ATOM      3  C1  PXY d   1       0.479   0.156  -0.628  0.00  0.00    -0.082 A 
ATOM      4  C2  PXY d   1      -0.671  -0.409  -0.301  0.00  0.00     0.003 A 
ATOM      5  C3  PXY d   1      -0.968  -0.669   1.013  0.00  0.00     0.003 A 
ATOM      6  C4  PXY d   1      -0.056  -0.394   1.996  0.00  0.00    -0.082 A 
ATOM      7  C5  PXY d   1       1.124   0.173   1.670  0.00  0.00     0.003 A 
ATOM      8  C6  PXY d   1       1.389   0.466   0.335  0.00  0.00     0.003 A 
ENDROOT
TORSDOF 0
ENDMDL
