MODEL 1
REMARK minimizedAffinity -4.84772015
REMARK minimizedRMSD -1
REMARK  0 active torsions:
REMARK  status: ('A' for Active; 'I' for Inactive)
ROOT
ATOM      1  C4' PXY d   1      -1.260  -1.095   3.729  0.00  0.00     0.077 C 
ATOM      2  C1' PXY d   1       0.377   0.612  -1.545  0.00  0.00     0.077 C 
ATOM      3  C1  PXY d   1      -0.040   0.162  -0.159  0.00  0.00    -0.082 A 
ATOM      4  C2  PXY d   1      -1.262  -0.307   0.037  0.00  0.00     0.003 A 
ATOM      5  C3  PXY d   1      -1.665  -0.688   1.291  0.00  0.00     0.003 A 
ATOM      6  C4  PXY d   1      -0.793  -0.638   2.345  0.00  0.00    -0.082 A 
ATOM      7  C5  PXY d   1       0.459  -0.171   2.151  0.00  0.00     0.003 A 
ATOM      8  C6  PXY d   1       0.836   0.249   0.878  0.00  0.00     0.003 A 
ENDROOT
TORSDOF 0
ENDMDL
