MODEL 1
REMARK minimizedAffinity -2.51411009
REMARK minimizedRMSD -1
REMARK  0 active torsions:
REMARK  status: ('A' for Active; 'I' for Inactive)
ROOT
ATOM      1  C4' PXY d   1       1.189   0.590  -0.709  0.00  0.00     0.077 C 
ATOM      2  C1' PXY d   1      -1.604  -1.155   4.042  0.00  0.00     0.077 C 
ATOM      3  C1  PXY d   1      -0.864  -0.690   2.803  0.00  0.00    -0.082 A 
ATOM      4  C2  PXY d   1      -1.464  -0.740   1.625  0.00  0.00     0.003 A 
ATOM      5  C3  PXY d   1      -0.798  -0.353   0.491  0.00  0.00     0.003 A 
ATOM      6  C4  PXY d   1       0.477   0.140   0.569  0.00  0.00    -0.082 A 
ATOM      7  C5  PXY d   1       1.092   0.204   1.769  0.00  0.00     0.003 A 
ATOM      8  C6  PXY d   1       0.414  -0.232   2.904  0.00  0.00     0.003 A 
ENDROOT
TORSDOF 0
ENDMDL
