MODEL 1
REMARK minimizedAffinity -3.46738887
REMARK minimizedRMSD -1
REMARK  0 active torsions:
REMARK  status: ('A' for Active; 'I' for Inactive)
ROOT
ATOM      1  C4' PXY d   1       1.399   0.733  -1.016  0.00  0.00     0.077 C 
ATOM      2  C1' PXY d   1      -1.661  -0.827   3.633  0.00  0.00     0.077 C 
ATOM      3  C1  PXY d   1      -0.866  -0.425   2.406  0.00  0.00    -0.082 A 
ATOM      4  C2  PXY d   1       0.385  -0.017   2.542  0.00  0.00     0.003 A 
ATOM      5  C3  PXY d   1       1.108   0.381   1.447  0.00  0.00     0.003 A 
ATOM      6  C4  PXY d   1       0.562   0.309   0.193  0.00  0.00    -0.082 A 
ATOM      7  C5  PXY d   1      -0.710  -0.117   0.045  0.00  0.00     0.003 A 
ATOM      8  C6  PXY d   1      -1.441  -0.476   1.174  0.00  0.00     0.003 A 
ENDROOT
TORSDOF 0
ENDMDL
