MODEL 1
REMARK minimizedAffinity -5.09810162
REMARK minimizedRMSD -1
REMARK  0 active torsions:
REMARK  status: ('A' for Active; 'I' for Inactive)
ROOT
ATOM      1  C4' PXY d   1       0.459   0.718  -1.796  0.00  0.00     0.077 C 
ATOM      2  C1' PXY d   1      -1.740  -0.663   3.369  0.00  0.00     0.077 C 
ATOM      3  C1  PXY d   1      -1.154  -0.294   2.020  0.00  0.00    -0.082 A 
ATOM      4  C2  PXY d   1      -1.924  -0.317   0.944  0.00  0.00     0.003 A 
ATOM      5  C3  PXY d   1      -1.402  -0.017  -0.288  0.00  0.00     0.003 A 
ATOM      6  C4  PXY d   1      -0.093   0.362  -0.412  0.00  0.00    -0.082 A 
ATOM      7  C5  PXY d   1       0.696   0.399   0.682  0.00  0.00     0.003 A 
ATOM      8  C6  PXY d   1       0.158   0.051   1.918  0.00  0.00     0.003 A 
ENDROOT
TORSDOF 0
ENDMDL
