MODEL 1
REMARK minimizedAffinity -2.68709898
REMARK minimizedRMSD -1
REMARK  0 active torsions:
REMARK  status: ('A' for Active; 'I' for Inactive)
ROOT
ATOM      1  C4' PXY d   1      -0.020   0.083  -2.239  0.00  0.00     0.077 C 
ATOM      2  C1' PXY d   1      -0.182   0.759   3.500  0.00  0.00     0.077 C 
ATOM      3  C1  PXY d   1      -0.150   0.574   1.996  0.00  0.00    -0.082 A 
ATOM      4  C2  PXY d   1       0.994   0.708   1.344  0.00  0.00     0.003 A 
ATOM      5  C3  PXY d   1       1.034   0.576  -0.020  0.00  0.00     0.003 A 
ATOM      6  C4  PXY d   1      -0.097   0.251  -0.719  0.00  0.00    -0.082 A 
ATOM      7  C5  PXY d   1      -1.266   0.103  -0.060  0.00  0.00     0.003 A 
ATOM      8  C6  PXY d   1      -1.294   0.281   1.320  0.00  0.00     0.003 A 
ENDROOT
TORSDOF 0
ENDMDL
