MODEL 1
REMARK minimizedAffinity 5.94454908
REMARK minimizedRMSD -1
REMARK  1 active torsions:
REMARK  status: ('A' for Active; 'I' for Inactive)
REMARK    1  A    between atoms: C3_4  and  O_7 
ROOT
ATOM      1  C   UNL d   1       3.736  -3.789   0.345  0.00  0.00    -0.033 A 
ATOM      2  C1  UNL d   1       2.661  -3.427   1.160  0.00  0.00     0.039 A 
ATOM      3  C2  UNL d   1       2.767  -3.537   2.548  0.00  0.00    -0.080 A 
ATOM      4  C3  UNL d   1       3.952  -4.007   3.107  0.00  0.00     0.150 A 
ATOM      5  C4  UNL d   1       5.028  -4.365   2.302  0.00  0.00    -0.007 A 
ATOM      6  C5  UNL d   1       4.920  -4.257   0.916  0.00  0.00     0.039 A 
ENDROOT
BRANCH   4   7
ATOM      7  O   UNL d   1       4.101  -4.135   4.456  0.00  0.00    -0.526 OA
ATOM      8  H5  UNL d   1       3.267  -3.878   4.884  0.00  0.00     0.418 HD
ENDBRANCH   4   7
TORSDOF 1
ENDMDL
