MODEL 1
REMARK minimizedAffinity 1.7574327
REMARK minimizedRMSD -1
REMARK  1 active torsions:
REMARK  status: ('A' for Active; 'I' for Inactive)
REMARK    1  A    between atoms: C3_4  and  O_7 
ROOT
ATOM      1  C   UNL d   1      -4.207   2.238  -4.311  0.00  0.00    -0.033 A 
ATOM      2  C1  UNL d   1      -3.986   1.426  -5.425  0.00  0.00     0.039 A 
ATOM      3  C2  UNL d   1      -3.350   0.192  -5.277  0.00  0.00    -0.080 A 
ATOM      4  C3  UNL d   1      -2.941  -0.219  -4.011  0.00  0.00     0.150 A 
ATOM      5  C4  UNL d   1      -3.162   0.583  -2.896  0.00  0.00    -0.007 A 
ATOM      6  C5  UNL d   1      -3.796   1.816  -3.046  0.00  0.00     0.039 A 
ENDROOT
BRANCH   4   7
ATOM      7  O   UNL d   1      -2.313  -1.413  -3.817  0.00  0.00    -0.526 OA
ATOM      8  H5  UNL d   1      -2.203  -1.846  -4.680  0.00  0.00     0.418 HD
ENDBRANCH   4   7
TORSDOF 1
ENDMDL
