MODEL 1
REMARK minimizedAffinity 3.85165381
REMARK minimizedRMSD -1
REMARK  1 active torsions:
REMARK  status: ('A' for Active; 'I' for Inactive)
REMARK    1  A    between atoms: C3_4  and  O_7 
ROOT
ATOM      1  C   UNL d   1       2.639   1.627   0.449  0.00  0.00    -0.033 A 
ATOM      2  C1  UNL d   1       3.818   1.031  -0.004  0.00  0.00     0.039 A 
ATOM      3  C2  UNL d   1       3.873  -0.349  -0.203  0.00  0.00    -0.080 A 
ATOM      4  C3  UNL d   1       2.744  -1.122   0.052  0.00  0.00     0.150 A 
ATOM      5  C4  UNL d   1       1.565  -0.536   0.500  0.00  0.00    -0.007 A 
ATOM      6  C5  UNL d   1       1.512   0.843   0.699  0.00  0.00     0.039 A 
ENDROOT
BRANCH   4   7
ATOM      7  O   UNL d   1       2.751  -2.474  -0.123  0.00  0.00    -0.526 OA
ATOM      8  H5  UNL d   1       3.641  -2.743  -0.407  0.00  0.00     0.418 HD
ENDBRANCH   4   7
TORSDOF 1
ENDMDL
