MODEL 1
REMARK minimizedAffinity -3.2465241
REMARK minimizedRMSD -1
REMARK  1 active torsions:
REMARK  status: ('A' for Active; 'I' for Inactive)
REMARK    1  A    between atoms: C3_4  and  O_7 
ROOT
ATOM      1  C   UNL d   1      -5.053   0.483  -5.232  0.00  0.00    -0.033 A 
ATOM      2  C1  UNL d   1      -5.229  -0.506  -4.263  0.00  0.00     0.039 A 
ATOM      3  C2  UNL d   1      -4.154  -1.310  -3.879  0.00  0.00    -0.080 A 
ATOM      4  C3  UNL d   1      -2.909  -1.113  -4.471  0.00  0.00     0.150 A 
ATOM      5  C4  UNL d   1      -2.725  -0.127  -5.434  0.00  0.00    -0.007 A 
ATOM      6  C5  UNL d   1      -3.800   0.674  -5.817  0.00  0.00     0.039 A 
ENDROOT
BRANCH   4   7
ATOM      7  O   UNL d   1      -1.831  -1.876  -4.132  0.00  0.00    -0.526 OA
ATOM      8  H5  UNL d   1      -2.114  -2.535  -3.476  0.00  0.00     0.418 HD
ENDBRANCH   4   7
TORSDOF 1
ENDMDL
