MODEL 1
REMARK minimizedAffinity -0.00206060498
REMARK minimizedRMSD -1
REMARK  1 active torsions:
REMARK  status: ('A' for Active; 'I' for Inactive)
REMARK    1  A    between atoms: C3_4  and  O_7 
ROOT
ATOM      1  C   UNL d   1       2.397  -1.577   0.114  0.00  0.00    -0.033 A 
ATOM      2  C1  UNL d   1       3.751  -1.242   0.045  0.00  0.00     0.039 A 
ATOM      3  C2  UNL d   1       4.718  -2.142   0.498  0.00  0.00    -0.080 A 
ATOM      4  C3  UNL d   1       4.319  -3.371   1.015  0.00  0.00     0.150 A 
ATOM      5  C4  UNL d   1       2.973  -3.712   1.083  0.00  0.00    -0.007 A 
ATOM      6  C5  UNL d   1       2.008  -2.813   0.632  0.00  0.00     0.039 A 
ENDROOT
BRANCH   4   7
ATOM      7  O   UNL d   1       5.227  -4.279   1.474  0.00  0.00    -0.526 OA
ATOM      8  H5  UNL d   1       6.115  -3.895   1.390  0.00  0.00     0.418 HD
ENDBRANCH   4   7
TORSDOF 1
ENDMDL
