MODEL 1
REMARK minimizedAffinity -0.935981512
REMARK minimizedRMSD -1
REMARK  1 active torsions:
REMARK  status: ('A' for Active; 'I' for Inactive)
REMARK    1  A    between atoms: C3_4  and  O_7 
ROOT
ATOM      1  C   UNL d   1       2.460  -1.362   0.073  0.00  0.00    -0.033 A 
ATOM      2  C1  UNL d   1       3.779  -0.917  -0.041  0.00  0.00     0.039 A 
ATOM      3  C2  UNL d   1       4.829  -1.717   0.414  0.00  0.00    -0.080 A 
ATOM      4  C3  UNL d   1       4.547  -2.958   0.978  0.00  0.00     0.150 A 
ATOM      5  C4  UNL d   1       3.236  -3.409   1.091  0.00  0.00    -0.007 A 
ATOM      6  C5  UNL d   1       2.189  -2.608   0.637  0.00  0.00     0.039 A 
ENDROOT
BRANCH   4   7
ATOM      7  O   UNL d   1       5.538  -3.772   1.441  0.00  0.00    -0.526 OA
ATOM      8  H5  UNL d   1       6.389  -3.318   1.323  0.00  0.00     0.418 HD
ENDBRANCH   4   7
TORSDOF 1
ENDMDL
