MODEL 1
REMARK minimizedAffinity -1.34618676
REMARK minimizedRMSD -1
REMARK  1 active torsions:
REMARK  status: ('A' for Active; 'I' for Inactive)
REMARK    1  A    between atoms: C3_4  and  O_7 
ROOT
ATOM      1  C   UNL d   1       5.734  -3.134   5.945  0.00  0.00    -0.033 A 
ATOM      2  C1  UNL d   1       5.231  -4.409   5.679  0.00  0.00     0.039 A 
ATOM      3  C2  UNL d   1       4.968  -4.798   4.364  0.00  0.00    -0.080 A 
ATOM      4  C3  UNL d   1       5.214  -3.904   3.325  0.00  0.00     0.150 A 
ATOM      5  C4  UNL d   1       5.719  -2.634   3.583  0.00  0.00    -0.007 A 
ATOM      6  C5  UNL d   1       5.979  -2.247   4.897  0.00  0.00     0.039 A 
ENDROOT
BRANCH   4   7
ATOM      7  O   UNL d   1       4.970  -4.236   2.026  0.00  0.00    -0.526 OA
ATOM      8  H5  UNL d   1       4.596  -5.133   2.003  0.00  0.00     0.418 HD
ENDBRANCH   4   7
TORSDOF 1
ENDMDL
