MODEL 1
REMARK minimizedAffinity -0.148903936
REMARK minimizedRMSD -1
REMARK  1 active torsions:
REMARK  status: ('A' for Active; 'I' for Inactive)
REMARK    1  A    between atoms: C3_4  and  O_7 
ROOT
ATOM      1  C   UNL d   1      -3.867   1.285  -4.320  0.00  0.00    -0.033 A 
ATOM      2  C1  UNL d   1      -3.722   0.330  -3.312  0.00  0.00     0.039 A 
ATOM      3  C2  UNL d   1      -3.017  -0.849  -3.562  0.00  0.00    -0.080 A 
ATOM      4  C3  UNL d   1      -2.461  -1.059  -4.820  0.00  0.00     0.150 A 
ATOM      5  C4  UNL d   1      -2.598  -0.109  -5.828  0.00  0.00    -0.007 A 
ATOM      6  C5  UNL d   1      -3.303   1.067  -5.577  0.00  0.00     0.039 A 
ENDROOT
BRANCH   4   7
ATOM      7  O   UNL d   1      -1.767  -2.196  -5.113  0.00  0.00    -0.526 OA
ATOM      8  H5  UNL d   1      -1.779  -2.773  -4.331  0.00  0.00     0.418 HD
ENDBRANCH   4   7
TORSDOF 1
ENDMDL
