MODEL 1
REMARK minimizedAffinity -0.933199465
REMARK minimizedRMSD -1
REMARK  0 active torsions:
REMARK  status: ('A' for Active; 'I' for Inactive)
ROOT
ATOM      1  N1  IND d   1      -0.208  -1.200   1.395  0.00  0.00    -0.196 N 
ATOM      2  C2  IND d   1      -1.193  -0.390   1.887  0.00  0.00     0.054 A 
ATOM      3  C3  IND d   1      -1.234   0.772   1.198  0.00  0.00    -0.031 A 
ATOM      4  C4  IND d   1       0.155   1.516  -0.838  0.00  0.00     0.051 A 
ATOM      5  C5  IND d   1       1.203   1.131  -1.626  0.00  0.00    -0.031 A 
ATOM      6  C6  IND d   1       1.846  -0.077  -1.445  0.00  0.00     0.015 A 
ATOM      7  C7  IND d   1       1.455  -0.953  -0.473  0.00  0.00    -0.016 A 
ATOM      8  C8  IND d   1       0.396  -0.562   0.334  0.00  0.00    -0.047 A 
ATOM      9  C9  IND d   1      -0.233   0.681   0.182  0.00  0.00    -0.096 A 
ATOM     10  HN1 IND d   1      -0.000  -1.978   1.698  0.00  0.00     0.298 HD
ENDROOT
TORSDOF 0
ENDMDL
