MODEL 1
REMARK minimizedAffinity -1.22622919
REMARK minimizedRMSD -1
REMARK  0 active torsions:
REMARK  status: ('A' for Active; 'I' for Inactive)
ROOT
ATOM      1  N1  IND d   1      -0.698  -0.702   1.261  0.00  0.00    -0.196 N 
ATOM      2  C2  IND d   1      -1.310   0.361   1.864  0.00  0.00     0.054 A 
ATOM      3  C3  IND d   1      -0.944   1.517   1.265  0.00  0.00    -0.031 A 
ATOM      4  C4  IND d   1       0.569   1.889  -0.785  0.00  0.00     0.051 A 
ATOM      5  C5  IND d   1       1.386   1.224  -1.655  0.00  0.00    -0.031 A 
ATOM      6  C6  IND d   1       1.552  -0.145  -1.599  0.00  0.00     0.015 A 
ATOM      7  C7  IND d   1       0.894  -0.905  -0.673  0.00  0.00    -0.016 A 
ATOM      8  C8  IND d   1       0.069  -0.232   0.217  0.00  0.00    -0.047 A 
ATOM      9  C9  IND d   1      -0.070   1.162   0.192  0.00  0.00    -0.096 A 
ATOM     10  HN1 IND d   1      -0.778  -1.525   1.494  0.00  0.00     0.298 HD
ENDROOT
TORSDOF 0
ENDMDL
