MODEL 1
REMARK minimizedAffinity -2.57333207
REMARK minimizedRMSD -1
REMARK  0 active torsions:
REMARK  status: ('A' for Active; 'I' for Inactive)
ROOT
ATOM      1  N1  IND d   1      -0.785  -0.636   1.867  0.00  0.00    -0.196 N 
ATOM      2  C2  IND d   1      -1.991  -0.055   2.146  0.00  0.00     0.054 A 
ATOM      3  C3  IND d   1      -2.219   0.981   1.308  0.00  0.00    -0.031 A 
ATOM      4  C4  IND d   1      -0.798   1.836  -0.661  0.00  0.00     0.051 A 
ATOM      5  C5  IND d   1       0.405   1.648  -1.282  0.00  0.00    -0.031 A 
ATOM      6  C6  IND d   1       1.289   0.669  -0.879  0.00  0.00     0.015 A 
ATOM      7  C7  IND d   1       0.997  -0.171   0.158  0.00  0.00    -0.016 A 
ATOM      8  C8  IND d   1      -0.220   0.020   0.796  0.00  0.00    -0.047 A 
ATOM      9  C9  IND d   1      -1.103   1.040   0.418  0.00  0.00    -0.096 A 
ATOM     10  HN1 IND d   1      -0.438  -1.299   2.290  0.00  0.00     0.298 HD
ENDROOT
TORSDOF 0
ENDMDL
