MODEL 1
REMARK minimizedAffinity -4.73751211
REMARK minimizedRMSD -1
REMARK  0 active torsions:
REMARK  status: ('A' for Active; 'I' for Inactive)
ROOT
ATOM      1  N1  IND d   1       0.059  -1.256   0.723  0.00  0.00    -0.196 N 
ATOM      2  C2  IND d   1       0.003  -0.090   1.434  0.00  0.00     0.054 A 
ATOM      3  C3  IND d   1       0.634   0.900   0.764  0.00  0.00    -0.031 A 
ATOM      4  C4  IND d   1       1.740   0.855  -1.561  0.00  0.00     0.051 A 
ATOM      5  C5  IND d   1       2.073   0.006  -2.579  0.00  0.00    -0.031 A 
ATOM      6  C6  IND d   1       1.743  -1.334  -2.549  0.00  0.00     0.015 A 
ATOM      7  C7  IND d   1       1.054  -1.874  -1.500  0.00  0.00    -0.016 A 
ATOM      8  C8  IND d   1       0.720  -1.016  -0.461  0.00  0.00    -0.047 A 
ATOM      9  C9  IND d   1       1.090   0.335  -0.467  0.00  0.00    -0.096 A 
ATOM     10  HN1 IND d   1      -0.264  -2.012   0.974  0.00  0.00     0.298 HD
ENDROOT
TORSDOF 0
ENDMDL
