MODEL 1
REMARK minimizedAffinity -1.15211701
REMARK minimizedRMSD -1
REMARK  0 active torsions:
REMARK  status: ('A' for Active; 'I' for Inactive)
ROOT
ATOM      1  N1  IND d   1      -0.174  -0.661  -0.246  0.00  0.00    -0.196 N 
ATOM      2  C2  IND d   1       0.906   0.083   0.139  0.00  0.00     0.054 A 
ATOM      3  C3  IND d   1       0.576   0.894   1.169  0.00  0.00    -0.031 A 
ATOM      4  C4  IND d   1      -1.651   1.092   2.446  0.00  0.00     0.051 A 
ATOM      5  C5  IND d   1      -2.941   0.641   2.437  0.00  0.00    -0.031 A 
ATOM      6  C6  IND d   1      -3.383  -0.287   1.517  0.00  0.00     0.015 A 
ATOM      7  C7  IND d   1      -2.545  -0.810   0.574  0.00  0.00    -0.016 A 
ATOM      8  C8  IND d   1      -1.236  -0.350   0.575  0.00  0.00    -0.047 A 
ATOM      9  C9  IND d   1      -0.792   0.623   1.480  0.00  0.00    -0.096 A 
ATOM     10  HN1 IND d   1      -0.188  -1.228  -0.892  0.00  0.00     0.298 HD
ENDROOT
TORSDOF 0
ENDMDL
