MODEL 1
REMARK minimizedAffinity -4.06046247
REMARK minimizedRMSD -1
REMARK  0 active torsions:
REMARK  status: ('A' for Active; 'I' for Inactive)
ROOT
ATOM      1  N1  IND d   1       1.420  -2.472  -0.919  0.00  0.00    -0.196 N 
ATOM      2  C2  IND d   1       2.420  -2.652  -1.834  0.00  0.00     0.054 A 
ATOM      3  C3  IND d   1       2.773  -1.469  -2.384  0.00  0.00    -0.031 A 
ATOM      4  C4  IND d   1       1.913   0.900  -1.858  0.00  0.00     0.051 A 
ATOM      5  C5  IND d   1       0.974   1.567  -1.121  0.00  0.00    -0.031 A 
ATOM      6  C6  IND d   1       0.121   0.908  -0.260  0.00  0.00     0.015 A 
ATOM      7  C7  IND d   1       0.182  -0.447  -0.094  0.00  0.00    -0.016 A 
ATOM      8  C8  IND d   1       1.129  -1.128  -0.846  0.00  0.00    -0.047 A 
ATOM      9  C9  IND d   1       1.969  -0.470  -1.754  0.00  0.00    -0.096 A 
ATOM     10  HN1 IND d   1       1.037  -3.095  -0.466  0.00  0.00     0.298 HD
ENDROOT
TORSDOF 0
ENDMDL
