MODEL 1
REMARK minimizedAffinity -3.53619599
REMARK minimizedRMSD -1
REMARK  0 active torsions:
REMARK  status: ('A' for Active; 'I' for Inactive)
ROOT
ATOM      1  N1  IND d   1      -0.149  -0.921   0.343  0.00  0.00    -0.196 N 
ATOM      2  C2  IND d   1      -0.296   0.438   0.374  0.00  0.00     0.054 A 
ATOM      3  C3  IND d   1       0.619   1.029  -0.427  0.00  0.00    -0.031 A 
ATOM      4  C4  IND d   1       2.387  -0.044  -1.959  0.00  0.00     0.051 A 
ATOM      5  C5  IND d   1       2.928  -1.253  -2.299  0.00  0.00    -0.031 A 
ATOM      6  C6  IND d   1       2.459  -2.436  -1.766  0.00  0.00     0.015 A 
ATOM      7  C7  IND d   1       1.420  -2.457  -0.879  0.00  0.00    -0.016 A 
ATOM      8  C8  IND d   1       0.874  -1.231  -0.527  0.00  0.00    -0.047 A 
ATOM      9  C9  IND d   1       1.373  -0.023  -1.031  0.00  0.00    -0.096 A 
ATOM     10  HN1 IND d   1      -0.616  -1.487   0.791  0.00  0.00     0.298 HD
ENDROOT
TORSDOF 0
ENDMDL
