MODEL 1
REMARK minimizedAffinity -3.1590457
REMARK minimizedRMSD -1
REMARK  0 active torsions:
REMARK  status: ('A' for Active; 'I' for Inactive)
ROOT
ATOM      1  N1  IND d   1      -3.385   1.544   1.080  0.00  0.00    -0.196 N 
ATOM      2  C2  IND d   1      -3.623   0.408   1.802  0.00  0.00     0.054 A 
ATOM      3  C3  IND d   1      -2.593  -0.458   1.671  0.00  0.00    -0.031 A 
ATOM      4  C4  IND d   1      -0.370  -0.174   0.404  0.00  0.00     0.051 A 
ATOM      5  C5  IND d   1       0.290   0.679  -0.436  0.00  0.00    -0.031 A 
ATOM      6  C6  IND d   1      -0.250   1.889  -0.819  0.00  0.00     0.015 A 
ATOM      7  C7  IND d   1      -1.472   2.299  -0.365  0.00  0.00    -0.016 A 
ATOM      8  C8  IND d   1      -2.149   1.432   0.482  0.00  0.00    -0.047 A 
ATOM      9  C9  IND d   1      -1.623   0.184   0.840  0.00  0.00    -0.096 A 
ATOM     10  HN1 IND d   1      -3.917   2.216   1.011  0.00  0.00     0.298 HD
ENDROOT
TORSDOF 0
ENDMDL
