MODEL 1
REMARK minimizedAffinity -2.3439517
REMARK minimizedRMSD -1
REMARK  0 active torsions:
REMARK  status: ('A' for Active; 'I' for Inactive)
ROOT
ATOM      1  N1  IND d   1      -1.069   0.739  -0.981  0.00  0.00    -0.196 N 
ATOM      2  C2  IND d   1       0.202   0.498  -0.539  0.00  0.00     0.054 A 
ATOM      3  C3  IND d   1       0.223   0.417   0.810  0.00  0.00    -0.031 A 
ATOM      4  C4  IND d   1      -1.726   0.548   2.487  0.00  0.00     0.051 A 
ATOM      5  C5  IND d   1      -3.068   0.794   2.561  0.00  0.00    -0.031 A 
ATOM      6  C6  IND d   1      -3.829   1.037   1.436  0.00  0.00     0.015 A 
ATOM      7  C7  IND d   1      -3.274   1.031   0.187  0.00  0.00    -0.016 A 
ATOM      8  C8  IND d   1      -1.910   0.788   0.108  0.00  0.00    -0.047 A 
ATOM      9  C9  IND d   1      -1.126   0.584   1.251  0.00  0.00    -0.096 A 
ATOM     10  HN1 IND d   1      -1.303   0.843  -1.802  0.00  0.00     0.298 HD
ENDROOT
TORSDOF 0
ENDMDL
