MODEL 1
REMARK minimizedAffinity -1.301278
REMARK minimizedRMSD -1
REMARK  0 active torsions:
REMARK  status: ('A' for Active; 'I' for Inactive)
ROOT
ATOM      1  N1  IND d   1      -2.619   2.098   0.639  0.00  0.00    -0.196 N 
ATOM      2  C2  IND d   1      -3.412   1.446   1.541  0.00  0.00     0.054 A 
ATOM      3  C3  IND d   1      -2.866   0.255   1.874  0.00  0.00    -0.031 A 
ATOM      4  C4  IND d   1      -0.626  -0.780   1.139  0.00  0.00     0.051 A 
ATOM      5  C5  IND d   1       0.429  -0.575   0.295  0.00  0.00    -0.031 A 
ATOM      6  C6  IND d   1       0.526   0.555  -0.491  0.00  0.00     0.015 A 
ATOM      7  C7  IND d   1      -0.428   1.532  -0.454  0.00  0.00    -0.016 A 
ATOM      8  C8  IND d   1      -1.505   1.324   0.396  0.00  0.00    -0.047 A 
ATOM      9  C9  IND d   1      -1.630   0.160   1.165  0.00  0.00    -0.096 A 
ATOM     10  HN1 IND d   1      -2.787   2.862   0.282  0.00  0.00     0.298 HD
ENDROOT
TORSDOF 0
ENDMDL
