MODEL 1
REMARK minimizedAffinity -3.34899473
REMARK minimizedRMSD -1
REMARK  0 active torsions:
REMARK  status: ('A' for Active; 'I' for Inactive)
ROOT
ATOM      1  N1  IND d   1       0.765  -2.183  -0.330  0.00  0.00    -0.196 N 
ATOM      2  C2  IND d   1       1.663  -2.846  -1.118  0.00  0.00     0.054 A 
ATOM      3  C3  IND d   1       2.425  -1.966  -1.805  0.00  0.00    -0.031 A 
ATOM      4  C4  IND d   1       2.438   0.607  -1.714  0.00  0.00     0.051 A 
ATOM      5  C5  IND d   1       1.773   1.669  -1.168  0.00  0.00    -0.031 A 
ATOM      6  C6  IND d   1       0.719   1.497  -0.295  0.00  0.00     0.015 A 
ATOM      7  C7  IND d   1       0.295   0.252   0.075  0.00  0.00    -0.016 A 
ATOM      8  C8  IND d   1       0.963  -0.828  -0.483  0.00  0.00    -0.047 A 
ATOM      9  C9  IND d   1       2.007  -0.661  -1.402  0.00  0.00    -0.096 A 
ATOM     10  HN1 IND d   1       0.174  -2.550   0.176  0.00  0.00     0.298 HD
ENDROOT
TORSDOF 0
ENDMDL
