MODEL 1
REMARK minimizedAffinity -1.3935504
REMARK minimizedRMSD -1
REMARK  0 active torsions:
REMARK  status: ('A' for Active; 'I' for Inactive)
ROOT
ATOM      1  N1  IND d   1      -0.720   2.068  -0.990  0.00  0.00    -0.196 N 
ATOM      2  C2  IND d   1       0.590   1.684  -1.046  0.00  0.00     0.054 A 
ATOM      3  C3  IND d   1       0.860   0.790  -0.068  0.00  0.00    -0.031 A 
ATOM      4  C4  IND d   1      -0.721  -0.259   1.671  0.00  0.00     0.051 A 
ATOM      5  C5  IND d   1      -2.004  -0.194   2.139  0.00  0.00    -0.031 A 
ATOM      6  C6  IND d   1      -2.944   0.644   1.574  0.00  0.00     0.015 A 
ATOM      7  C7  IND d   1      -2.638   1.442   0.509  0.00  0.00    -0.016 A 
ATOM      8  C8  IND d   1      -1.335   1.384   0.036  0.00  0.00    -0.047 A 
ATOM      9  C9  IND d   1      -0.365   0.567   0.632  0.00  0.00    -0.096 A 
ATOM     10  HN1 IND d   1      -1.098   2.641  -1.509  0.00  0.00     0.298 HD
ENDROOT
TORSDOF 0
ENDMDL
