MODEL 1
REMARK minimizedAffinity -1.83537102
REMARK minimizedRMSD -1
REMARK  0 active torsions:
REMARK  status: ('A' for Active; 'I' for Inactive)
ROOT
ATOM      1  N1  IND d   1      -0.514  -1.009   0.983  0.00  0.00    -0.196 N 
ATOM      2  C2  IND d   1      -1.633  -0.245   1.168  0.00  0.00     0.054 A 
ATOM      3  C3  IND d   1      -1.551   0.893   0.442  0.00  0.00    -0.031 A 
ATOM      4  C4  IND d   1       0.282   1.660  -1.195  0.00  0.00     0.051 A 
ATOM      5  C5  IND d   1       1.517   1.315  -1.668  0.00  0.00    -0.031 A 
ATOM      6  C6  IND d   1       2.150   0.154  -1.274  0.00  0.00     0.015 A 
ATOM      7  C7  IND d   1       1.564  -0.716  -0.399  0.00  0.00    -0.016 A 
ATOM      8  C8  IND d   1       0.312  -0.366   0.088  0.00  0.00    -0.047 A 
ATOM      9  C9  IND d   1      -0.317   0.832  -0.275  0.00  0.00    -0.096 A 
ATOM     10  HN1 IND d   1      -0.354  -1.763   1.363  0.00  0.00     0.298 HD
ENDROOT
TORSDOF 0
ENDMDL
