MODEL 1
REMARK minimizedAffinity 0.123520501
REMARK minimizedRMSD -1
REMARK  0 active torsions:
REMARK  status: ('A' for Active; 'I' for Inactive)
ROOT
ATOM      1  N1  IND d   1       0.972  -0.570  -0.190  0.00  0.00    -0.196 N 
ATOM      2  C2  IND d   1       0.984   0.570  -0.944  0.00  0.00     0.054 A 
ATOM      3  C3  IND d   1      -0.106   1.323  -0.676  0.00  0.00    -0.031 A 
ATOM      4  C4  IND d   1      -1.986   0.927   1.038  0.00  0.00     0.051 A 
ATOM      5  C5  IND d   1      -2.450   0.005   1.934  0.00  0.00    -0.031 A 
ATOM      6  C6  IND d   1      -1.782  -1.178   2.175  0.00  0.00     0.015 A 
ATOM      7  C7  IND d   1      -0.614  -1.480   1.534  0.00  0.00    -0.016 A 
ATOM      8  C8  IND d   1      -0.143  -0.550   0.618  0.00  0.00    -0.047 A 
ATOM      9  C9  IND d   1      -0.839   0.633   0.338  0.00  0.00    -0.096 A 
ATOM     10  HN1 IND d   1       1.562  -1.195  -0.216  0.00  0.00     0.298 HD
ENDROOT
TORSDOF 0
ENDMDL
