MODEL 1
REMARK minimizedAffinity -3.9717381
REMARK minimizedRMSD -1
REMARK  0 active torsions:
REMARK  status: ('A' for Active; 'I' for Inactive)
ROOT
ATOM      1  N1  IND d   1      -1.870   0.580   0.346  0.00  0.00    -0.196 N 
ATOM      2  C2  IND d   1      -1.421   0.080   1.537  0.00  0.00     0.054 A 
ATOM      3  C3  IND d   1      -0.096  -0.179   1.469  0.00  0.00    -0.031 A 
ATOM      4  C4  IND d   1       1.555   0.237  -0.462  0.00  0.00     0.051 A 
ATOM      5  C5  IND d   1       1.608   0.645  -1.765  0.00  0.00    -0.031 A 
ATOM      6  C6  IND d   1       0.482   1.063  -2.444  0.00  0.00     0.015 A 
ATOM      7  C7  IND d   1      -0.743   1.100  -1.839  0.00  0.00    -0.016 A 
ATOM      8  C8  IND d   1      -0.801   0.679  -0.517  0.00  0.00    -0.047 A 
ATOM      9  C9  IND d   1       0.331   0.213   0.164  0.00  0.00    -0.096 A 
ATOM     10  HN1 IND d   1      -2.682   0.796   0.167  0.00  0.00     0.298 HD
ENDROOT
TORSDOF 0
ENDMDL
