MODEL 1
REMARK minimizedAffinity -1.92339468
REMARK minimizedRMSD -1
REMARK  0 active torsions:
REMARK  status: ('A' for Active; 'I' for Inactive)
ROOT
ATOM      1  N1  IND d   1       0.696  -2.086  -0.147  0.00  0.00    -0.196 N 
ATOM      2  C2  IND d   1       0.021  -1.839   1.016  0.00  0.00     0.054 A 
ATOM      3  C3  IND d   1      -0.060  -0.508   1.239  0.00  0.00    -0.031 A 
ATOM      4  C4  IND d   1       0.754   1.448  -0.224  0.00  0.00     0.051 A 
ATOM      5  C5  IND d   1       1.460   1.721  -1.362  0.00  0.00    -0.031 A 
ATOM      6  C6  IND d   1       1.955   0.718  -2.171  0.00  0.00     0.015 A 
ATOM      7  C7  IND d   1       1.752  -0.600  -1.876  0.00  0.00    -0.016 A 
ATOM      8  C8  IND d   1       1.042  -0.881  -0.718  0.00  0.00    -0.047 A 
ATOM      9  C9  IND d   1       0.573   0.131   0.130  0.00  0.00    -0.096 A 
ATOM     10  HN1 IND d   1       0.875  -2.864  -0.467  0.00  0.00     0.298 HD
ENDROOT
TORSDOF 0
ENDMDL
