MODEL 1
REMARK minimizedAffinity -0.651963532
REMARK minimizedRMSD -1
REMARK  0 active torsions:
REMARK  status: ('A' for Active; 'I' for Inactive)
ROOT
ATOM      1  N1  IND d   1       0.523  -0.076   0.401  0.00  0.00    -0.196 N 
ATOM      2  C2  IND d   1       0.728   0.902  -0.532  0.00  0.00     0.054 A 
ATOM      3  C3  IND d   1      -0.329   1.744  -0.570  0.00  0.00    -0.031 A 
ATOM      4  C4  IND d   1      -2.456   1.766   0.880  0.00  0.00     0.051 A 
ATOM      5  C5  IND d   1      -3.110   1.051   1.844  0.00  0.00    -0.031 A 
ATOM      6  C6  IND d   1      -2.574  -0.098   2.389  0.00  0.00     0.015 A 
ATOM      7  C7  IND d   1      -1.354  -0.571   1.996  0.00  0.00    -0.016 A 
ATOM      8  C8  IND d   1      -0.690   0.149   1.013  0.00  0.00    -0.047 A 
ATOM      9  C9  IND d   1      -1.247   1.292   0.426  0.00  0.00    -0.096 A 
ATOM     10  HN1 IND d   1       1.062  -0.723   0.575  0.00  0.00     0.298 HD
ENDROOT
TORSDOF 0
ENDMDL
