MODEL 1
REMARK minimizedAffinity -3.07765079
REMARK minimizedRMSD -1
REMARK  0 active torsions:
REMARK  status: ('A' for Active; 'I' for Inactive)
ROOT
ATOM      1  N1  IND d   1      -1.933  -0.150   2.035  0.00  0.00    -0.196 N 
ATOM      2  C2  IND d   1      -3.181   0.347   1.784  0.00  0.00     0.054 A 
ATOM      3  C3  IND d   1      -3.140   1.219   0.751  0.00  0.00    -0.031 A 
ATOM      4  C4  IND d   1      -1.153   1.899  -0.738  0.00  0.00     0.051 A 
ATOM      5  C5  IND d   1       0.197   1.736  -0.873  0.00  0.00    -0.031 A 
ATOM      6  C6  IND d   1       0.921   0.918  -0.030  0.00  0.00     0.015 A 
ATOM      7  C7  IND d   1       0.316   0.219   0.977  0.00  0.00    -0.016 A 
ATOM      8  C8  IND d   1      -1.054   0.388   1.121  0.00  0.00    -0.047 A 
ATOM      9  C9  IND d   1      -1.787   1.250   0.295  0.00  0.00    -0.096 A 
ATOM     10  HN1 IND d   1      -1.731  -0.706   2.660  0.00  0.00     0.298 HD
ENDROOT
TORSDOF 0
ENDMDL
