MODEL 1
REMARK minimizedAffinity -1.28609884
REMARK minimizedRMSD -1
REMARK  0 active torsions:
REMARK  status: ('A' for Active; 'I' for Inactive)
ROOT
ATOM      1  N1  IND d   1       3.977   2.302  -1.103  0.00  0.00    -0.196 N 
ATOM      2  C2  IND d   1       4.857   1.633  -1.906  0.00  0.00     0.054 A 
ATOM      3  C3  IND d   1       4.555   0.316  -1.940  0.00  0.00    -0.031 A 
ATOM      4  C4  IND d   1       2.600  -0.943  -0.834  0.00  0.00     0.051 A 
ATOM      5  C5  IND d   1       1.554  -0.765   0.027  0.00  0.00    -0.031 A 
ATOM      6  C6  IND d   1       1.254   0.470   0.564  0.00  0.00     0.015 A 
ATOM      7  C7  IND d   1       1.985   1.581   0.250  0.00  0.00    -0.016 A 
ATOM      8  C8  IND d   1       3.053   1.402  -0.619  0.00  0.00    -0.047 A 
ATOM      9  C9  IND d   1       3.389   0.143  -1.133  0.00  0.00    -0.096 A 
ATOM     10  HN1 IND d   1       3.997   3.144  -0.928  0.00  0.00     0.298 HD
ENDROOT
TORSDOF 0
ENDMDL
