MODEL 1
REMARK minimizedAffinity 4.71519041
REMARK minimizedRMSD -1
REMARK  0 active torsions:
REMARK  status: ('A' for Active; 'I' for Inactive)
ROOT
ATOM      1  N1  IND d   1       4.171   1.184  -2.873  0.00  0.00    -0.196 N 
ATOM      2  C2  IND d   1       4.404   2.090  -1.876  0.00  0.00     0.054 A 
ATOM      3  C3  IND d   1       3.745   1.733  -0.751  0.00  0.00    -0.031 A 
ATOM      4  C4  IND d   1       2.309  -0.354  -0.290  0.00  0.00     0.051 A 
ATOM      5  C5  IND d   1       1.777  -1.453  -0.905  0.00  0.00    -0.031 A 
ATOM      6  C6  IND d   1       2.024  -1.736  -2.233  0.00  0.00     0.015 A 
ATOM      7  C7  IND d   1       2.823  -0.934  -2.996  0.00  0.00    -0.016 A 
ATOM      8  C8  IND d   1       3.360   0.187  -2.377  0.00  0.00    -0.047 A 
ATOM      9  C9  IND d   1       3.079   0.503  -1.042  0.00  0.00    -0.096 A 
ATOM     10  HN1 IND d   1       4.480   1.229  -3.674  0.00  0.00     0.298 HD
ENDROOT
TORSDOF 0
ENDMDL
