MODEL 1
REMARK minimizedAffinity 6.55955935
REMARK minimizedRMSD -1
REMARK  0 active torsions:
REMARK  status: ('A' for Active; 'I' for Inactive)
ROOT
ATOM      1  N1  IND d   1       3.104   1.093  -2.136  0.00  0.00    -0.196 N 
ATOM      2  C2  IND d   1       3.701   1.914  -1.220  0.00  0.00     0.054 A 
ATOM      3  C3  IND d   1       3.246   1.643   0.023  0.00  0.00    -0.031 A 
ATOM      4  C4  IND d   1       1.597  -0.175   0.800  0.00  0.00     0.051 A 
ATOM      5  C5  IND d   1       0.760  -1.146   0.324  0.00  0.00    -0.031 A 
ATOM      6  C6  IND d   1       0.662  -1.427  -1.023  0.00  0.00     0.015 A 
ATOM      7  C7  IND d   1       1.409  -0.753  -1.948  0.00  0.00    -0.016 A 
ATOM      8  C8  IND d   1       2.254   0.238  -1.469  0.00  0.00    -0.047 A 
ATOM      9  C9  IND d   1       2.326   0.557  -0.106  0.00  0.00    -0.096 A 
ATOM     10  HN1 IND d   1       3.236   1.108  -2.985  0.00  0.00     0.298 HD
ENDROOT
TORSDOF 0
ENDMDL
