MODEL 1
REMARK minimizedAffinity 1.21543324
REMARK minimizedRMSD -1
REMARK  0 active torsions:
REMARK  status: ('A' for Active; 'I' for Inactive)
ROOT
ATOM      1  N1  IND d   1       3.932   0.776  -2.660  0.00  0.00    -0.196 N 
ATOM      2  C2  IND d   1       4.037   1.834  -1.801  0.00  0.00     0.054 A 
ATOM      3  C3  IND d   1       3.318   1.603  -0.680  0.00  0.00    -0.031 A 
ATOM      4  C4  IND d   1       1.975  -0.486   0.001  0.00  0.00     0.051 A 
ATOM      5  C5  IND d   1       1.555  -1.697  -0.472  0.00  0.00    -0.031 A 
ATOM      6  C6  IND d   1       1.915  -2.157  -1.722  0.00  0.00     0.015 A 
ATOM      7  C7  IND d   1       2.722  -1.424  -2.545  0.00  0.00    -0.016 A 
ATOM      8  C8  IND d   1       3.145  -0.190  -2.072  0.00  0.00    -0.047 A 
ATOM      9  C9  IND d   1       2.747   0.301  -0.821  0.00  0.00    -0.096 A 
ATOM     10  HN1 IND d   1       4.296   0.722  -3.437  0.00  0.00     0.298 HD
ENDROOT
TORSDOF 0
ENDMDL
