MODEL 1
REMARK minimizedAffinity 0.292042106
REMARK minimizedRMSD -1
REMARK  0 active torsions:
REMARK  status: ('A' for Active; 'I' for Inactive)
ROOT
ATOM      1  N1  IND d   1       4.670   2.856  -0.523  0.00  0.00    -0.196 N 
ATOM      2  C2  IND d   1       5.888   2.239  -0.477  0.00  0.00     0.054 A 
ATOM      3  C3  IND d   1       5.734   0.904  -0.332  0.00  0.00    -0.031 A 
ATOM      4  C4  IND d   1       3.573  -0.494  -0.250  0.00  0.00     0.051 A 
ATOM      5  C5  IND d   1       2.213  -0.372  -0.218  0.00  0.00    -0.031 A 
ATOM      6  C6  IND d   1       1.588   0.857  -0.291  0.00  0.00     0.015 A 
ATOM      7  C7  IND d   1       2.305   2.014  -0.410  0.00  0.00    -0.016 A 
ATOM      8  C8  IND d   1       3.687   1.895  -0.435  0.00  0.00    -0.047 A 
ATOM      9  C9  IND d   1       4.328   0.654  -0.319  0.00  0.00    -0.096 A 
ATOM     10  HN1 IND d   1       4.539   3.703  -0.595  0.00  0.00     0.298 HD
ENDROOT
TORSDOF 0
ENDMDL
