MODEL 1
REMARK minimizedAffinity 5.78580379
REMARK minimizedRMSD -1
REMARK  0 active torsions:
REMARK  status: ('A' for Active; 'I' for Inactive)
ROOT
ATOM      1  N1  IND d   1       2.176   1.676  -0.739  0.00  0.00    -0.196 N 
ATOM      2  C2  IND d   1       2.833   0.739  -1.486  0.00  0.00     0.054 A 
ATOM      3  C3  IND d   1       3.263  -0.273  -0.699  0.00  0.00    -0.031 A 
ATOM      4  C4  IND d   1       2.911  -0.645   1.824  0.00  0.00     0.051 A 
ATOM      5  C5  IND d   1       2.403  -0.043   2.941  0.00  0.00    -0.031 A 
ATOM      6  C6  IND d   1       1.778   1.186   2.887  0.00  0.00     0.015 A 
ATOM      7  C7  IND d   1       1.627   1.857   1.707  0.00  0.00    -0.016 A 
ATOM      8  C8  IND d   1       2.148   1.252   0.571  0.00  0.00    -0.047 A 
ATOM      9  C9  IND d   1       2.821   0.025   0.627  0.00  0.00    -0.096 A 
ATOM     10  HN1 IND d   1       1.836   2.408  -1.038  0.00  0.00     0.298 HD
ENDROOT
TORSDOF 0
ENDMDL
