MODEL 1
REMARK minimizedAffinity 6.58051825
REMARK minimizedRMSD -1
REMARK  0 active torsions:
REMARK  status: ('A' for Active; 'I' for Inactive)
ROOT
ATOM      1  N1  IND d   1       3.792   2.173  -0.413  0.00  0.00    -0.196 N 
ATOM      2  C2  IND d   1       5.062   2.398  -0.866  0.00  0.00     0.054 A 
ATOM      3  C3  IND d   1       5.509   1.329  -1.563  0.00  0.00    -0.031 A 
ATOM      4  C4  IND d   1       4.288  -0.854  -2.169  0.00  0.00     0.051 A 
ATOM      5  C5  IND d   1       3.123  -1.534  -1.949  0.00  0.00    -0.031 A 
ATOM      6  C6  IND d   1       2.100  -1.001  -1.192  0.00  0.00     0.015 A 
ATOM      7  C7  IND d   1       2.199   0.242  -0.634  0.00  0.00    -0.016 A 
ATOM      8  C8  IND d   1       3.384   0.932  -0.850  0.00  0.00    -0.047 A 
ATOM      9  C9  IND d   1       4.442   0.379  -1.582  0.00  0.00    -0.096 A 
ATOM     10  HN1 IND d   1       3.327   2.716   0.065  0.00  0.00     0.298 HD
ENDROOT
TORSDOF 0
ENDMDL
