MODEL 1
REMARK minimizedAffinity 13.2071714
REMARK minimizedRMSD -1
REMARK  0 active torsions:
REMARK  status: ('A' for Active; 'I' for Inactive)
ROOT
ATOM      1  N1  IND d   1       2.633   1.890  -1.828  0.00  0.00    -0.196 N 
ATOM      2  C2  IND d   1       1.960   1.421  -0.734  0.00  0.00     0.054 A 
ATOM      3  C3  IND d   1       2.692   1.612   0.386  0.00  0.00    -0.031 A 
ATOM      4  C4  IND d   1       4.976   2.766   0.671  0.00  0.00     0.051 A 
ATOM      5  C5  IND d   1       5.998   3.323  -0.045  0.00  0.00    -0.031 A 
ATOM      6  C6  IND d   1       5.948   3.436  -1.420  0.00  0.00     0.015 A 
ATOM      7  C7  IND d   1       4.865   3.004  -2.131  0.00  0.00    -0.016 A 
ATOM      8  C8  IND d   1       3.829   2.431  -1.408  0.00  0.00    -0.047 A 
ATOM      9  C9  IND d   1       3.891   2.276  -0.017  0.00  0.00    -0.096 A 
ATOM     10  HN1 IND d   1       2.357   1.853  -2.641  0.00  0.00     0.298 HD
ENDROOT
TORSDOF 0
ENDMDL
