MODEL 1
REMARK minimizedAffinity -0.599518895
REMARK minimizedRMSD -1
REMARK  0 active torsions:
REMARK  status: ('A' for Active; 'I' for Inactive)
ROOT
ATOM      1  N1  IND d   1       3.394   2.218  -0.709  0.00  0.00    -0.196 N 
ATOM      2  C2  IND d   1       4.577   2.135  -1.389  0.00  0.00     0.054 A 
ATOM      3  C3  IND d   1       4.778   0.873  -1.833  0.00  0.00    -0.031 A 
ATOM      4  C4  IND d   1       3.248  -1.188  -1.645  0.00  0.00     0.051 A 
ATOM      5  C5  IND d   1       2.078  -1.614  -1.080  0.00  0.00    -0.031 A 
ATOM      6  C6  IND d   1       1.270  -0.766  -0.351  0.00  0.00     0.015 A 
ATOM      7  C7  IND d   1       1.597   0.547  -0.168  0.00  0.00    -0.016 A 
ATOM      8  C8  IND d   1       2.787   0.981  -0.733  0.00  0.00    -0.047 A 
ATOM      9  C9  IND d   1       3.633   0.115  -1.439  0.00  0.00    -0.096 A 
ATOM     10  HN1 IND d   1       3.082   2.924  -0.330  0.00  0.00     0.298 HD
ENDROOT
TORSDOF 0
ENDMDL
