MODEL 1
REMARK minimizedAffinity -3.43697453
REMARK minimizedRMSD -1
REMARK  0 active torsions:
REMARK  status: ('A' for Active; 'I' for Inactive)
ROOT
ATOM      1  C   UNL d   1       3.593  -1.167   3.697  0.00  0.00     0.077 C 
ATOM      2  C1  UNL d   1       2.582  -1.509   2.643  0.00  0.00    -0.074 A 
ATOM      3  C2  UNL d   1       2.425  -2.825   2.197  0.00  0.00    -0.005 A 
ATOM      4  C3  UNL d   1       1.474  -3.130   1.223  0.00  0.00     0.006 A 
ATOM      5  C4  UNL d   1       0.671  -2.123   0.686  0.00  0.00    -0.005 A 
ATOM      6  C5  UNL d   1       0.813  -0.801   1.120  0.00  0.00    -0.074 A 
ATOM      7  C6  UNL d   1      -0.048   0.292   0.561  0.00  0.00     0.077 C 
ATOM      8  C7  UNL d   1       1.766  -0.504   2.104  0.00  0.00    -0.001 A 
ENDROOT
TORSDOF 0
ENDMDL
