MODEL 1
REMARK minimizedAffinity -1.60465455
REMARK minimizedRMSD -1
REMARK  0 active torsions:
REMARK  status: ('A' for Active; 'I' for Inactive)
ROOT
ATOM      1  C   UNL d   1      -0.000   0.243  -0.096  0.00  0.00     0.077 C 
ATOM      2  C1  UNL d   1       0.833  -0.555   0.862  0.00  0.00    -0.074 A 
ATOM      3  C2  UNL d   1       2.044  -1.127   0.457  0.00  0.00    -0.005 A 
ATOM      4  C3  UNL d   1       2.813  -1.859   1.362  0.00  0.00     0.006 A 
ATOM      5  C4  UNL d   1       2.380  -2.026   2.678  0.00  0.00    -0.005 A 
ATOM      6  C5  UNL d   1       1.173  -1.461   3.101  0.00  0.00    -0.074 A 
ATOM      7  C6  UNL d   1       0.698  -1.623   4.514  0.00  0.00     0.077 C 
ATOM      8  C7  UNL d   1       0.409  -0.721   2.188  0.00  0.00    -0.001 A 
ENDROOT
TORSDOF 0
ENDMDL
