MODEL 1
REMARK minimizedAffinity -2.61556768
REMARK minimizedRMSD -1
REMARK  0 active torsions:
REMARK  status: ('A' for Active; 'I' for Inactive)
ROOT
ATOM      1  C   UNL d   1      -3.046   1.094  -3.418  0.00  0.00     0.077 C 
ATOM      2  C1  UNL d   1      -1.860   2.010  -3.478  0.00  0.00    -0.074 A 
ATOM      3  C2  UNL d   1      -1.579   2.746  -4.634  0.00  0.00    -0.005 A 
ATOM      4  C3  UNL d   1      -0.477   3.601  -4.672  0.00  0.00     0.006 A 
ATOM      5  C4  UNL d   1       0.353   3.729  -3.557  0.00  0.00    -0.005 A 
ATOM      6  C5  UNL d   1       0.087   3.001  -2.393  0.00  0.00    -0.074 A 
ATOM      7  C6  UNL d   1       0.963   3.134  -1.183  0.00  0.00     0.077 C 
ATOM      8  C7  UNL d   1      -1.026   2.149  -2.360  0.00  0.00    -0.001 A 
ENDROOT
TORSDOF 0
ENDMDL
