MODEL 1
REMARK minimizedAffinity -1.31340861
REMARK minimizedRMSD -1
REMARK  0 active torsions:
REMARK  status: ('A' for Active; 'I' for Inactive)
ROOT
ATOM      1  C   UNL d   1      -0.091  -1.801   0.057  0.00  0.00     0.077 C 
ATOM      2  C1  UNL d   1      -0.961  -2.941  -0.380  0.00  0.00    -0.074 A 
ATOM      3  C2  UNL d   1      -1.897  -3.507   0.492  0.00  0.00    -0.005 A 
ATOM      4  C3  UNL d   1      -2.706  -4.561   0.067  0.00  0.00     0.006 A 
ATOM      5  C4  UNL d   1      -2.588  -5.059  -1.231  0.00  0.00    -0.005 A 
ATOM      6  C5  UNL d   1      -1.659  -4.505  -2.117  0.00  0.00    -0.074 A 
ATOM      7  C6  UNL d   1      -1.526  -5.022  -3.519  0.00  0.00     0.077 C 
ATOM      8  C7  UNL d   1      -0.854  -3.442  -1.686  0.00  0.00    -0.001 A 
ENDROOT
TORSDOF 0
ENDMDL
