MODEL 1
REMARK minimizedAffinity 2.8149991
REMARK minimizedRMSD -1
REMARK  0 active torsions:
REMARK  status: ('A' for Active; 'I' for Inactive)
ROOT
ATOM      1  C   UNL d   1       1.540  -4.947  -4.738  0.00  0.00     0.077 C 
ATOM      2  C1  UNL d   1       0.067  -5.223  -4.800  0.00  0.00    -0.074 A 
ATOM      3  C2  UNL d   1      -0.520  -5.739  -5.960  0.00  0.00    -0.005 A 
ATOM      4  C3  UNL d   1      -1.889  -5.999  -6.000  0.00  0.00     0.006 A 
ATOM      5  C4  UNL d   1      -2.685  -5.748  -4.882  0.00  0.00    -0.005 A 
ATOM      6  C5  UNL d   1      -2.116  -5.233  -3.712  0.00  0.00    -0.074 A 
ATOM      7  C6  UNL d   1      -2.956  -4.966  -2.498  0.00  0.00     0.077 C 
ATOM      8  C7  UNL d   1      -0.738  -4.981  -3.678  0.00  0.00    -0.001 A 
ENDROOT
TORSDOF 0
ENDMDL
