MODEL 1
REMARK minimizedAffinity 5.1358943
REMARK minimizedRMSD -1
REMARK  0 active torsions:
REMARK  status: ('A' for Active; 'I' for Inactive)
ROOT
ATOM      1  C   UNL d   1      -1.214   1.925  -3.393  0.00  0.00     0.077 C 
ATOM      2  C1  UNL d   1      -2.539   1.328  -3.020  0.00  0.00    -0.074 A 
ATOM      3  C2  UNL d   1      -3.707   1.690  -3.700  0.00  0.00    -0.005 A 
ATOM      4  C3  UNL d   1      -4.930   1.120  -3.349  0.00  0.00     0.006 A 
ATOM      5  C4  UNL d   1      -4.999   0.184  -2.316  0.00  0.00    -0.005 A 
ATOM      6  C5  UNL d   1      -3.842  -0.191  -1.626  0.00  0.00    -0.074 A 
ATOM      7  C6  UNL d   1      -3.896  -1.202  -0.520  0.00  0.00     0.077 C 
ATOM      8  C7  UNL d   1      -2.615   0.381  -1.989  0.00  0.00    -0.001 A 
ENDROOT
TORSDOF 0
ENDMDL
