MODEL 1
REMARK minimizedAffinity 7.90599155
REMARK minimizedRMSD -1
REMARK  0 active torsions:
REMARK  status: ('A' for Active; 'I' for Inactive)
ROOT
ATOM      1  C   UNL d   1      -3.270  -3.790  -3.754  0.00  0.00     0.077 C 
ATOM      2  C1  UNL d   1      -2.071  -4.460  -4.359  0.00  0.00    -0.074 A 
ATOM      3  C2  UNL d   1      -2.207  -5.339  -5.438  0.00  0.00    -0.005 A 
ATOM      4  C3  UNL d   1      -1.083  -5.947  -5.996  0.00  0.00     0.006 A 
ATOM      5  C4  UNL d   1       0.187  -5.683  -5.481  0.00  0.00    -0.005 A 
ATOM      6  C5  UNL d   1       0.342  -4.807  -4.402  0.00  0.00    -0.074 A 
ATOM      7  C6  UNL d   1       1.701  -4.505  -3.843  0.00  0.00     0.077 C 
ATOM      8  C7  UNL d   1      -0.792  -4.194  -3.852  0.00  0.00    -0.001 A 
ENDROOT
TORSDOF 0
ENDMDL
