MODEL 1
REMARK minimizedAffinity 7.09680414
REMARK minimizedRMSD -1
REMARK  0 active torsions:
REMARK  status: ('A' for Active; 'I' for Inactive)
ROOT
ATOM      1  C   UNL d   1      -2.582  -3.153   0.861  0.00  0.00     0.077 C 
ATOM      2  C1  UNL d   1      -1.331  -2.395   0.527  0.00  0.00    -0.074 A 
ATOM      3  C2  UNL d   1      -0.224  -3.045  -0.029  0.00  0.00    -0.005 A 
ATOM      4  C3  UNL d   1       0.929  -2.326  -0.343  0.00  0.00     0.006 A 
ATOM      5  C4  UNL d   1       0.986  -0.952  -0.105  0.00  0.00    -0.005 A 
ATOM      6  C5  UNL d   1      -0.111  -0.285   0.449  0.00  0.00    -0.074 A 
ATOM      7  C6  UNL d   1      -0.069   1.193   0.702  0.00  0.00     0.077 C 
ATOM      8  C7  UNL d   1      -1.269  -1.014   0.755  0.00  0.00    -0.001 A 
ENDROOT
TORSDOF 0
ENDMDL
