MODEL 1
REMARK minimizedAffinity 4.16983128
REMARK minimizedRMSD -1
REMARK  0 active torsions:
REMARK  status: ('A' for Active; 'I' for Inactive)
ROOT
ATOM      1  C   UNL d   1      -0.562  -3.046   0.827  0.00  0.00     0.077 C 
ATOM      2  C1  UNL d   1       0.432  -1.940   0.629  0.00  0.00    -0.074 A 
ATOM      3  C2  UNL d   1       0.114  -0.817  -0.143  0.00  0.00    -0.005 A 
ATOM      4  C3  UNL d   1       1.045   0.208  -0.311  0.00  0.00     0.006 A 
ATOM      5  C4  UNL d   1       2.301   0.121   0.290  0.00  0.00    -0.005 A 
ATOM      6  C5  UNL d   1       2.637  -0.993   1.066  0.00  0.00    -0.074 A 
ATOM      7  C6  UNL d   1       3.979  -1.097   1.726  0.00  0.00     0.077 C 
ATOM      8  C7  UNL d   1       1.694  -2.016   1.235  0.00  0.00    -0.001 A 
ENDROOT
TORSDOF 0
ENDMDL
