MODEL 1
REMARK minimizedAffinity 4.30004358
REMARK minimizedRMSD -1
REMARK  0 active torsions:
REMARK  status: ('A' for Active; 'I' for Inactive)
ROOT
ATOM      1  C   UNL d   1       1.685  -5.155  -6.000  0.00  0.00     0.077 C 
ATOM      2  C1  UNL d   1       0.331  -5.227  -5.357  0.00  0.00    -0.074 A 
ATOM      3  C2  UNL d   1      -0.737  -5.861  -6.000  0.00  0.00    -0.005 A 
ATOM      4  C3  UNL d   1      -1.987  -5.928  -5.385  0.00  0.00     0.006 A 
ATOM      5  C4  UNL d   1      -2.182  -5.363  -4.124  0.00  0.00    -0.005 A 
ATOM      6  C5  UNL d   1      -1.125  -4.726  -3.466  0.00  0.00    -0.074 A 
ATOM      7  C6  UNL d   1      -1.314  -4.122  -2.106  0.00  0.00     0.077 C 
ATOM      8  C7  UNL d   1       0.130  -4.669  -4.087  0.00  0.00    -0.001 A 
ENDROOT
TORSDOF 0
ENDMDL
