MODEL 1
REMARK minimizedAffinity -0.678669333
REMARK minimizedRMSD -1
REMARK  0 active torsions:
REMARK  status: ('A' for Active; 'I' for Inactive)
ROOT
ATOM      1  C   UNL d   1       4.596  -1.103   1.521  0.00  0.00     0.077 C 
ATOM      2  C1  UNL d   1       3.179  -1.410   1.138  0.00  0.00    -0.074 A 
ATOM      3  C2  UNL d   1       2.671  -2.709   1.243  0.00  0.00    -0.005 A 
ATOM      4  C3  UNL d   1       1.348  -2.978   0.892  0.00  0.00     0.006 A 
ATOM      5  C4  UNL d   1       0.521  -1.952   0.433  0.00  0.00    -0.005 A 
ATOM      6  C5  UNL d   1       1.011  -0.647   0.323  0.00  0.00    -0.074 A 
ATOM      7  C6  UNL d   1       0.132   0.469  -0.159  0.00  0.00     0.077 C 
ATOM      8  C7  UNL d   1       2.339  -0.384   0.684  0.00  0.00    -0.001 A 
ENDROOT
TORSDOF 0
ENDMDL
