MODEL 1
REMARK minimizedAffinity 2.95222211
REMARK minimizedRMSD -1
REMARK  0 active torsions:
REMARK  status: ('A' for Active; 'I' for Inactive)
ROOT
ATOM      1  C   UNL d   1      -0.066   0.267  -2.401  0.00  0.00     0.077 C 
ATOM      2  C1  UNL d   1       0.062  -0.379  -1.053  0.00  0.00    -0.074 A 
ATOM      3  C2  UNL d   1       0.704   0.279   0.001  0.00  0.00    -0.005 A 
ATOM      4  C3  UNL d   1       0.807  -0.330   1.252  0.00  0.00     0.006 A 
ATOM      5  C4  UNL d   1       0.271  -1.602   1.460  0.00  0.00    -0.005 A 
ATOM      6  C5  UNL d   1      -0.375  -2.275   0.418  0.00  0.00    -0.074 A 
ATOM      7  C6  UNL d   1      -0.966  -3.637   0.628  0.00  0.00     0.077 C 
ATOM      8  C7  UNL d   1      -0.481  -1.653  -0.834  0.00  0.00    -0.001 A 
ENDROOT
TORSDOF 0
ENDMDL
