MODEL 1
REMARK minimizedAffinity 3.35838842
REMARK minimizedRMSD -1
REMARK  0 active torsions:
REMARK  status: ('A' for Active; 'I' for Inactive)
ROOT
ATOM      1  C   UNL d   1      -4.494   0.378   0.748  0.00  0.00     0.077 C 
ATOM      2  C1  UNL d   1      -4.695   0.509  -0.732  0.00  0.00    -0.074 A 
ATOM      3  C2  UNL d   1      -5.821  -0.039  -1.356  0.00  0.00    -0.005 A 
ATOM      4  C3  UNL d   1      -6.000   0.099  -2.732  0.00  0.00     0.006 A 
ATOM      5  C4  UNL d   1      -5.056   0.785  -3.498  0.00  0.00    -0.005 A 
ATOM      6  C5  UNL d   1      -3.925   1.340  -2.892  0.00  0.00    -0.074 A 
ATOM      7  C6  UNL d   1      -2.906   2.089  -3.699  0.00  0.00     0.077 C 
ATOM      8  C7  UNL d   1      -3.756   1.203  -1.507  0.00  0.00    -0.001 A 
ENDROOT
TORSDOF 0
ENDMDL
