MODEL 1
REMARK minimizedAffinity 17.3819103
REMARK minimizedRMSD -1
REMARK  1 active torsions:
REMARK  status: ('A' for Active; 'I' for Inactive)
REMARK    1  A    between atoms: C1_2  and  C2_3 
ROOT
ATOM      1  C2  UNL d   1      -4.191   2.726  -4.357  0.00  0.00    -0.077 A 
ATOM      2  C3  UNL d   1      -4.527   1.441  -3.907  0.00  0.00     0.002 A 
ATOM      3  C4  UNL d   1      -3.808   0.329  -4.347  0.00  0.00     0.002 A 
ATOM      4  C5  UNL d   1      -2.747   0.490  -5.236  0.00  0.00    -0.004 A 
ATOM      5  C6  UNL d   1      -2.407   1.763  -5.691  0.00  0.00     0.002 A 
ATOM      6  C7  UNL d   1      -3.125   2.876  -5.253  0.00  0.00     0.002 A 
ENDROOT
BRANCH   1   7
ATOM      7  C1  UNL d   1      -4.934   3.933  -3.845  0.00  0.00     0.055 C 
ATOM      8  C   UNL d   1      -5.754   3.594  -2.609  0.00  0.00     0.019 C 
ENDBRANCH   1   7
TORSDOF 1
ENDMDL
