MODEL 1
REMARK minimizedAffinity 9.63296127
REMARK minimizedRMSD -1
REMARK  1 active torsions:
REMARK  status: ('A' for Active; 'I' for Inactive)
REMARK    1  A    between atoms: C1_2  and  C2_3 
ROOT
ATOM      1  C2  UNL d   1       0.290   4.159   2.099  0.00  0.00    -0.077 A 
ATOM      2  C3  UNL d   1      -0.763   3.787   1.252  0.00  0.00     0.002 A 
ATOM      3  C4  UNL d   1      -0.988   2.441   0.955  0.00  0.00     0.002 A 
ATOM      4  C5  UNL d   1      -0.168   1.458   1.503  0.00  0.00    -0.004 A 
ATOM      5  C6  UNL d   1       0.883   1.818   2.346  0.00  0.00     0.002 A 
ATOM      6  C7  UNL d   1       1.111   3.163   2.643  0.00  0.00     0.002 A 
ENDROOT
BRANCH   1   7
ATOM      7  C1  UNL d   1       0.504   5.606   2.460  0.00  0.00     0.055 C 
ATOM      8  C   UNL d   1       1.792   5.795   3.249  0.00  0.00     0.019 C 
ENDBRANCH   1   7
TORSDOF 1
ENDMDL
