MODEL 1
REMARK minimizedAffinity 7.52375174
REMARK minimizedRMSD -1
REMARK  1 active torsions:
REMARK  status: ('A' for Active; 'I' for Inactive)
REMARK    1  A    between atoms: C1_2  and  C2_3 
ROOT
ATOM      1  C2  UNL d   1       3.838  -0.523  -1.528  0.00  0.00    -0.077 A 
ATOM      2  C3  UNL d   1       4.650   0.316  -2.304  0.00  0.00     0.002 A 
ATOM      3  C4  UNL d   1       5.368   1.354  -1.707  0.00  0.00     0.002 A 
ATOM      4  C5  UNL d   1       5.285   1.559  -0.331  0.00  0.00    -0.004 A 
ATOM      5  C6  UNL d   1       4.478   0.731   0.449  0.00  0.00     0.002 A 
ATOM      6  C7  UNL d   1       3.759  -0.306  -0.146  0.00  0.00     0.002 A 
ENDROOT
BRANCH   1   7
ATOM      7  C1  UNL d   1       3.101  -1.673  -2.163  0.00  0.00     0.055 C 
ATOM      8  C   UNL d   1       3.756  -2.096  -3.470  0.00  0.00     0.019 C 
ENDBRANCH   1   7
TORSDOF 1
ENDMDL
