MODEL 1
REMARK minimizedAffinity 7.75299025
REMARK minimizedRMSD -1
REMARK  1 active torsions:
REMARK  status: ('A' for Active; 'I' for Inactive)
REMARK    1  A    between atoms: C1_2  and  C2_3 
ROOT
ATOM      1  C2  UNL d   1       3.837  -1.276  -0.746  0.00  0.00    -0.077 A 
ATOM      2  C3  UNL d   1       5.223  -1.377  -0.567  0.00  0.00     0.002 A 
ATOM      3  C4  UNL d   1       5.997  -0.230  -0.379  0.00  0.00     0.002 A 
ATOM      4  C5  UNL d   1       5.392   1.025  -0.365  0.00  0.00    -0.004 A 
ATOM      5  C6  UNL d   1       4.014   1.136  -0.544  0.00  0.00     0.002 A 
ATOM      6  C7  UNL d   1       3.239  -0.009  -0.733  0.00  0.00     0.002 A 
ENDROOT
BRANCH   1   7
ATOM      7  C1  UNL d   1       2.994  -2.516  -0.900  0.00  0.00     0.055 C 
ATOM      8  C   UNL d   1       2.987  -3.005  -2.341  0.00  0.00     0.019 C 
ENDBRANCH   1   7
TORSDOF 1
ENDMDL
