MODEL 1
REMARK minimizedAffinity -0.34943223
REMARK minimizedRMSD -1
REMARK  1 active torsions:
REMARK  status: ('A' for Active; 'I' for Inactive)
REMARK    1  A    between atoms: C1_2  and  C2_3 
ROOT
ATOM      1  C2  UNL d   1       4.806  -1.077  -1.914  0.00  0.00    -0.077 A 
ATOM      2  C3  UNL d   1       4.992  -1.866  -3.058  0.00  0.00     0.002 A 
ATOM      3  C4  UNL d   1       4.219  -3.011  -3.260  0.00  0.00     0.002 A 
ATOM      4  C5  UNL d   1       3.253  -3.375  -2.325  0.00  0.00    -0.004 A 
ATOM      5  C6  UNL d   1       3.062  -2.598  -1.183  0.00  0.00     0.002 A 
ATOM      6  C7  UNL d   1       3.834  -1.454  -0.979  0.00  0.00     0.002 A 
ENDROOT
BRANCH   1   7
ATOM      7  C1  UNL d   1       5.605   0.185  -1.719  0.00  0.00     0.055 C 
ATOM      8  C   UNL d   1       4.729   1.321  -1.211  0.00  0.00     0.019 C 
ENDBRANCH   1   7
TORSDOF 1
ENDMDL
