MODEL 1
REMARK minimizedAffinity 9.39376259
REMARK minimizedRMSD -1
REMARK  0 active torsions:
REMARK  status: ('A' for Active; 'I' for Inactive)
ROOT
ATOM      1  C   UNL d   1       1.145  -6.000   5.808  0.00  0.00     0.023 A 
ATOM      2  C1  UNL d   1       0.349  -4.870   6.000  0.00  0.00     0.003 A 
ATOM      3  C2  UNL d   1       0.633  -3.689   5.311  0.00  0.00     0.048 A 
ATOM      4  C3  UNL d   1       1.714  -3.645   4.431  0.00  0.00     0.023 A 
ATOM      5  C4  UNL d   1       2.512  -4.773   4.235  0.00  0.00     0.048 A 
ATOM      6  C5  UNL d   1       2.225  -5.951   4.926  0.00  0.00     0.003 A 
ATOM      7  I   UNL d   1       2.139  -1.888   3.405  0.00  0.00    -0.146 I 
ENDROOT
TORSDOF 0
ENDMDL
