MODEL 1
REMARK minimizedAffinity 8.73948479
REMARK minimizedRMSD -1
REMARK  0 active torsions:
REMARK  status: ('A' for Active; 'I' for Inactive)
ROOT
ATOM      1  C   UNL d   1       2.808  -2.659   4.010  0.00  0.00     0.023 A 
ATOM      2  C1  UNL d   1       1.922  -1.786   4.642  0.00  0.00     0.003 A 
ATOM      3  C2  UNL d   1       1.699  -0.513   4.114  0.00  0.00     0.048 A 
ATOM      4  C3  UNL d   1       2.363  -0.119   2.953  0.00  0.00     0.023 A 
ATOM      5  C4  UNL d   1       3.250  -0.989   2.317  0.00  0.00     0.048 A 
ATOM      6  C5  UNL d   1       3.471  -2.261   2.848  0.00  0.00     0.003 A 
ATOM      7  I   UNL d   1       2.032   1.776   2.165  0.00  0.00    -0.146 I 
ENDROOT
TORSDOF 0
ENDMDL
