MODEL 1
REMARK minimizedAffinity 8.27557468
REMARK minimizedRMSD -1
REMARK  0 active torsions:
REMARK  status: ('A' for Active; 'I' for Inactive)
ROOT
ATOM      1  C   UNL d   1       1.387  -1.482   3.594  0.00  0.00     0.023 A 
ATOM      2  C1  UNL d   1       1.878  -2.447   4.473  0.00  0.00     0.003 A 
ATOM      3  C2  UNL d   1       3.202  -2.879   4.369  0.00  0.00     0.048 A 
ATOM      4  C3  UNL d   1       4.029  -2.341   3.383  0.00  0.00     0.023 A 
ATOM      5  C4  UNL d   1       3.542  -1.375   2.502  0.00  0.00     0.048 A 
ATOM      6  C5  UNL d   1       2.217  -0.946   2.610  0.00  0.00     0.003 A 
ATOM      7  I   UNL d   1       5.999  -2.983   3.225  0.00  0.00    -0.146 I 
ENDROOT
TORSDOF 0
ENDMDL
