MODEL 1
REMARK minimizedAffinity -0.653978944
REMARK minimizedRMSD -1
REMARK  0 active torsions:
REMARK  status: ('A' for Active; 'I' for Inactive)
ROOT
ATOM      1  C   UNL d   1       5.636   2.451  -5.998  0.00  0.00     0.023 A 
ATOM      2  C1  UNL d   1       5.999   1.105  -5.966  0.00  0.00     0.003 A 
ATOM      3  C2  UNL d   1       5.212   0.184  -5.272  0.00  0.00     0.048 A 
ATOM      4  C3  UNL d   1       4.062   0.616  -4.613  0.00  0.00     0.023 A 
ATOM      5  C4  UNL d   1       3.694   1.962  -4.643  0.00  0.00     0.048 A 
ATOM      6  C5  UNL d   1       4.484   2.879  -5.337  0.00  0.00     0.003 A 
ATOM      7  I   UNL d   1       2.888  -0.753  -3.579  0.00  0.00    -0.146 I 
ENDROOT
TORSDOF 0
ENDMDL
