MODEL 1
REMARK minimizedAffinity 8.63189888
REMARK minimizedRMSD -1
REMARK  0 active torsions:
REMARK  status: ('A' for Active; 'I' for Inactive)
ROOT
ATOM      1  C   UNL d   1      -5.793  -4.415  -5.168  0.00  0.00     0.023 A 
ATOM      2  C1  UNL d   1      -4.891  -3.750  -5.999  0.00  0.00     0.003 A 
ATOM      3  C2  UNL d   1      -4.195  -2.635  -5.526  0.00  0.00     0.048 A 
ATOM      4  C3  UNL d   1      -4.405  -2.192  -4.220  0.00  0.00     0.023 A 
ATOM      5  C4  UNL d   1      -5.306  -2.856  -3.385  0.00  0.00     0.048 A 
ATOM      6  C5  UNL d   1      -6.000  -3.969  -3.863  0.00  0.00     0.003 A 
ATOM      7  I   UNL d   1      -3.371  -0.534  -3.513  0.00  0.00    -0.146 I 
ENDROOT
TORSDOF 0
ENDMDL
