MODEL 1
REMARK minimizedAffinity 6.47441339
REMARK minimizedRMSD -1
REMARK  0 active torsions:
REMARK  status: ('A' for Active; 'I' for Inactive)
ROOT
ATOM      1  C   UNL d   1       1.627  -0.014   2.247  0.00  0.00     0.023 A 
ATOM      2  C1  UNL d   1       2.618   0.292   1.313  0.00  0.00     0.003 A 
ATOM      3  C2  UNL d   1       3.873  -0.312   1.402  0.00  0.00     0.048 A 
ATOM      4  C3  UNL d   1       4.131  -1.223   2.426  0.00  0.00     0.023 A 
ATOM      5  C4  UNL d   1       3.143  -1.533   3.361  0.00  0.00     0.048 A 
ATOM      6  C5  UNL d   1       1.890  -0.925   3.269  0.00  0.00     0.003 A 
ATOM      7  I   UNL d   1       5.999  -2.125   2.559  0.00  0.00    -0.146 I 
ENDROOT
TORSDOF 0
ENDMDL
