MODEL 1
REMARK minimizedAffinity 2.56825566
REMARK minimizedRMSD -1
REMARK  0 active torsions:
REMARK  status: ('A' for Active; 'I' for Inactive)
ROOT
ATOM      1  C   UNL d   1       2.384  -5.991  -1.992  0.00  0.00     0.023 A 
ATOM      2  C1  UNL d   1       3.773  -5.992  -1.868  0.00  0.00     0.003 A 
ATOM      3  C2  UNL d   1       4.578  -5.994  -3.009  0.00  0.00     0.048 A 
ATOM      4  C3  UNL d   1       3.986  -5.995  -4.272  0.00  0.00     0.023 A 
ATOM      5  C4  UNL d   1       2.596  -5.994  -4.402  0.00  0.00     0.048 A 
ATOM      6  C5  UNL d   1       1.796  -5.993  -3.258  0.00  0.00     0.003 A 
ATOM      7  I   UNL d   1       5.181  -5.998  -5.973  0.00  0.00    -0.146 I 
ENDROOT
TORSDOF 0
ENDMDL
