MODEL 1
REMARK minimizedAffinity 10.5082006
REMARK minimizedRMSD -1
REMARK  0 active torsions:
REMARK  status: ('A' for Active; 'I' for Inactive)
ROOT
ATOM      1  C   UNL d   1      -1.072  -1.716  -1.135  0.00  0.00     0.023 A 
ATOM      2  C1  UNL d   1      -1.423  -0.822  -0.124  0.00  0.00     0.003 A 
ATOM      3  C2  UNL d   1      -0.486  -0.457   0.845  0.00  0.00     0.048 A 
ATOM      4  C3  UNL d   1       0.802  -0.990   0.796  0.00  0.00     0.023 A 
ATOM      5  C4  UNL d   1       1.159  -1.884  -0.215  0.00  0.00     0.048 A 
ATOM      6  C5  UNL d   1       0.218  -2.247  -1.180  0.00  0.00     0.003 A 
ATOM      7  I   UNL d   1       2.199  -0.448   2.236  0.00  0.00    -0.146 I 
ENDROOT
TORSDOF 0
ENDMDL
