MODEL 1
REMARK minimizedAffinity -5.09058285
REMARK minimizedRMSD -1
REMARK  1 active torsions:
REMARK  status: ('A' for Active; 'I' for Inactive)
REMARK    1  A    between atoms: C1_2  and  C2_3 
ROOT
ATOM      1  C2  UNL d   1      -0.132  -0.038  -0.521  0.00  0.00    -0.073 A 
ATOM      2  C3  UNL d   1      -1.447   0.433  -0.602  0.00  0.00    -0.002 A 
ATOM      3  C4  UNL d   1      -2.257   0.460   0.534  0.00  0.00     0.004 A 
ATOM      4  C5  UNL d   1      -1.759   0.024   1.762  0.00  0.00    -0.004 A 
ATOM      5  C6  UNL d   1      -0.443  -0.439   1.865  0.00  0.00    -0.075 A 
ATOM      6  C7  UNL d   1       0.107  -0.914   3.178  0.00  0.00     0.076 C 
ATOM      7  C8  UNL d   1       0.363  -0.466   0.719  0.00  0.00     0.001 A 
ENDROOT
BRANCH   1   8
ATOM      8  C1  UNL d   1       0.749  -0.063  -1.744  0.00  0.00     0.053 C 
ATOM      9  C   UNL d   1       0.861  -1.459  -2.337  0.00  0.00     0.018 C 
ENDBRANCH   1   8
TORSDOF 1
ENDMDL
