MODEL 1
REMARK minimizedAffinity -4.32313395
REMARK minimizedRMSD -1
REMARK  1 active torsions:
REMARK  status: ('A' for Active; 'I' for Inactive)
REMARK    1  A    between atoms: C1_2  and  C2_3 
ROOT
ATOM      1  C2  UNL d   1       0.387   0.494  -0.464  0.00  0.00    -0.073 A 
ATOM      2  C3  UNL d   1       1.502   1.208  -0.012  0.00  0.00    -0.002 A 
ATOM      3  C4  UNL d   1       1.929   1.084   1.311  0.00  0.00     0.004 A 
ATOM      4  C5  UNL d   1       1.251   0.241   2.191  0.00  0.00    -0.004 A 
ATOM      5  C6  UNL d   1       0.142  -0.490   1.755  0.00  0.00    -0.075 A 
ATOM      6  C7  UNL d   1      -0.599  -1.400   2.690  0.00  0.00     0.076 C 
ATOM      7  C8  UNL d   1      -0.283  -0.358   0.426  0.00  0.00     0.001 A 
ENDROOT
BRANCH   1   8
ATOM      8  C1  UNL d   1      -0.074   0.620  -1.893  0.00  0.00     0.053 C 
ATOM      9  C   UNL d   1       0.501  -0.476  -2.777  0.00  0.00     0.018 C 
ENDBRANCH   1   8
TORSDOF 1
ENDMDL
