MODEL 1
REMARK minimizedAffinity -3.59105778
REMARK minimizedRMSD -1
REMARK  1 active torsions:
REMARK  status: ('A' for Active; 'I' for Inactive)
REMARK    1  A    between atoms: C1_2  and  C2_3 
ROOT
ATOM      1  C2  UNL d   1       0.404   0.041   0.484  0.00  0.00    -0.073 A 
ATOM      2  C3  UNL d   1       1.350   1.013   0.833  0.00  0.00    -0.002 A 
ATOM      3  C4  UNL d   1       1.598   1.306   2.174  0.00  0.00     0.004 A 
ATOM      4  C5  UNL d   1       0.910   0.627   3.180  0.00  0.00    -0.004 A 
ATOM      5  C6  UNL d   1      -0.030  -0.355   2.852  0.00  0.00    -0.075 A 
ATOM      6  C7  UNL d   1      -0.780  -1.093   3.922  0.00  0.00     0.076 C 
ATOM      7  C8  UNL d   1      -0.276  -0.642   1.503  0.00  0.00     0.001 A 
ENDROOT
BRANCH   1   8
ATOM      8  C1  UNL d   1       0.137  -0.283  -0.963  0.00  0.00     0.053 C 
ATOM      9  C   UNL d   1       0.028   0.970  -1.817  0.00  0.00     0.018 C 
ENDBRANCH   1   8
TORSDOF 1
ENDMDL
