MODEL 1
REMARK minimizedAffinity -6.22907829
REMARK minimizedRMSD -1
REMARK  1 active torsions:
REMARK  status: ('A' for Active; 'I' for Inactive)
REMARK    1  A    between atoms: C1_2  and  C2_3 
ROOT
ATOM      1  C2  UNL d   1       0.456   0.002   0.341  0.00  0.00    -0.073 A 
ATOM      2  C3  UNL d   1       1.787   0.231   0.707  0.00  0.00    -0.002 A 
ATOM      3  C4  UNL d   1       2.193   0.062   2.031  0.00  0.00     0.004 A 
ATOM      4  C5  UNL d   1       1.277  -0.345   3.000  0.00  0.00    -0.004 A 
ATOM      5  C6  UNL d   1      -0.055  -0.591   2.652  0.00  0.00    -0.075 A 
ATOM      6  C7  UNL d   1      -1.055  -1.027   3.683  0.00  0.00     0.076 C 
ATOM      7  C8  UNL d   1      -0.457  -0.416   1.321  0.00  0.00     0.001 A 
ENDROOT
BRANCH   1   8
ATOM      8  C1  UNL d   1       0.014   0.177  -1.089  0.00  0.00     0.053 C 
ATOM      9  C   UNL d   1       0.746  -0.765  -2.031  0.00  0.00     0.018 C 
ENDBRANCH   1   8
TORSDOF 1
ENDMDL
