MODEL 1
REMARK minimizedAffinity -4.42423725
REMARK minimizedRMSD -1
REMARK  1 active torsions:
REMARK  status: ('A' for Active; 'I' for Inactive)
REMARK    1  A    between atoms: C1_2  and  C2_3 
ROOT
ATOM      1  C2  UNL d   1      -0.247   0.288   0.560  0.00  0.00    -0.073 A 
ATOM      2  C3  UNL d   1      -0.813  -0.041   1.797  0.00  0.00    -0.002 A 
ATOM      3  C4  UNL d   1      -0.034  -0.026   2.955  0.00  0.00     0.004 A 
ATOM      4  C5  UNL d   1       1.315   0.324   2.889  0.00  0.00    -0.004 A 
ATOM      5  C6  UNL d   1       1.896   0.667   1.664  0.00  0.00    -0.075 A 
ATOM      6  C7  UNL d   1       3.346   1.043   1.575  0.00  0.00     0.076 C 
ATOM      7  C8  UNL d   1       1.108   0.647   0.505  0.00  0.00     0.001 A 
ENDROOT
BRANCH   1   8
ATOM      8  C1  UNL d   1      -1.085   0.279  -0.692  0.00  0.00     0.053 C 
ATOM      9  C   UNL d   1      -2.533   0.651  -0.411  0.00  0.00     0.018 C 
ENDBRANCH   1   8
TORSDOF 1
ENDMDL
