MODEL 1
REMARK minimizedAffinity -5.31699514
REMARK minimizedRMSD -1
REMARK  1 active torsions:
REMARK  status: ('A' for Active; 'I' for Inactive)
REMARK    1  A    between atoms: C1_2  and  C2_3 
ROOT
ATOM      1  C2  UNL d   1      -0.000  -0.054  -0.190  0.00  0.00    -0.073 A 
ATOM      2  C3  UNL d   1      -1.088  -0.713   0.395  0.00  0.00    -0.002 A 
ATOM      3  C4  UNL d   1      -1.155  -0.870   1.780  0.00  0.00     0.004 A 
ATOM      4  C5  UNL d   1      -0.142  -0.364   2.594  0.00  0.00    -0.004 A 
ATOM      5  C6  UNL d   1       0.948   0.307   2.029  0.00  0.00    -0.075 A 
ATOM      6  C7  UNL d   1       2.047   0.854   2.891  0.00  0.00     0.076 C 
ATOM      7  C8  UNL d   1       1.010   0.458   0.638  0.00  0.00     0.001 A 
ENDROOT
BRANCH   1   8
ATOM      8  C1  UNL d   1       0.074   0.123  -1.684  0.00  0.00     0.053 C 
ATOM      9  C   UNL d   1       0.536  -1.144  -2.386  0.00  0.00     0.018 C 
ENDBRANCH   1   8
TORSDOF 1
ENDMDL
