MODEL 1
REMARK minimizedAffinity 19.7178974
REMARK minimizedRMSD -1
REMARK  0 active torsions:
REMARK  status: ('A' for Active; 'I' for Inactive)
ROOT
ATOM      1  C   UNL d   1       1.740   2.676   1.609  0.00  0.00     0.124 A 
ATOM      2  C1  UNL d   1       2.730   3.648   1.555  0.00  0.00     0.062 A 
ATOM      3  C2  UNL d   1       3.634   3.786   2.604  0.00  0.00     0.162 A 
ATOM      4  C3  UNL d   1       3.553   2.950   3.717  0.00  0.00    -0.034 A 
ATOM      5  C4  UNL d   1       2.554   1.975   3.765  0.00  0.00     0.162 A 
ATOM      6  C5  UNL d   1       1.653   1.841   2.714  0.00  0.00     0.062 A 
ATOM      7  F   UNL d   1       0.698   0.902   2.769  0.00  0.00    -0.097 F 
ATOM      8  F1  UNL d   1       2.448   1.154   4.821  0.00  0.00    -0.096 F 
ATOM      9  I   UNL d   1       4.903   3.153   5.288  0.00  0.00    -0.060 I 
ATOM     10  F2  UNL d   1       4.580   4.734   2.524  0.00  0.00    -0.096 F 
ATOM     11  F3  UNL d   1       2.815   4.456   0.489  0.00  0.00    -0.097 F 
ATOM     12  F4  UNL d   1       0.871   2.546   0.599  0.00  0.00    -0.092 F 
ENDROOT
TORSDOF 0
ENDMDL
