MODEL 1
REMARK minimizedAffinity 23.9429703
REMARK minimizedRMSD -1
REMARK  0 active torsions:
REMARK  status: ('A' for Active; 'I' for Inactive)
ROOT
ATOM      1  C   UNL d   1       0.166  -3.051  -1.139  0.00  0.00     0.124 A 
ATOM      2  C1  UNL d   1       1.516  -2.921  -1.432  0.00  0.00     0.062 A 
ATOM      3  C2  UNL d   1       2.113  -3.762  -2.367  0.00  0.00     0.162 A 
ATOM      4  C3  UNL d   1       1.360  -4.740  -3.016  0.00  0.00    -0.034 A 
ATOM      5  C4  UNL d   1       0.003  -4.865  -2.714  0.00  0.00     0.162 A 
ATOM      6  C5  UNL d   1      -0.589  -4.022  -1.780  0.00  0.00     0.062 A 
ATOM      7  F   UNL d   1      -1.894  -4.149  -1.497  0.00  0.00    -0.097 F 
ATOM      8  F1  UNL d   1      -0.751  -5.795  -3.320  0.00  0.00    -0.096 F 
ATOM      9  I   UNL d   1       2.249  -6.000  -4.414  0.00  0.00    -0.060 I 
ATOM     10  F2  UNL d   1       3.420  -3.614  -2.631  0.00  0.00    -0.096 F 
ATOM     11  F3  UNL d   1       2.248  -1.983  -0.814  0.00  0.00    -0.097 F 
ATOM     12  F4  UNL d   1      -0.406  -2.241  -0.238  0.00  0.00    -0.092 F 
ENDROOT
TORSDOF 0
ENDMDL
