MODEL 1
REMARK minimizedAffinity 17.1554508
REMARK minimizedRMSD -1
REMARK  0 active torsions:
REMARK  status: ('A' for Active; 'I' for Inactive)
ROOT
ATOM      1  C   UNL d   1      -3.694  -0.466   1.533  0.00  0.00     0.124 A 
ATOM      2  C1  UNL d   1      -2.662  -1.337   1.853  0.00  0.00     0.062 A 
ATOM      3  C2  UNL d   1      -1.380  -0.848   2.090  0.00  0.00     0.162 A 
ATOM      4  C3  UNL d   1      -1.124   0.521   2.009  0.00  0.00    -0.034 A 
ATOM      5  C4  UNL d   1      -2.167   1.391   1.685  0.00  0.00     0.162 A 
ATOM      6  C5  UNL d   1      -3.446   0.897   1.450  0.00  0.00     0.062 A 
ATOM      7  F   UNL d   1      -4.441   1.740   1.141  0.00  0.00    -0.097 F 
ATOM      8  F1  UNL d   1      -1.955   2.713   1.599  0.00  0.00    -0.096 F 
ATOM      9  I   UNL d   1       0.791   1.257   2.362  0.00  0.00    -0.060 I 
ATOM     10  F2  UNL d   1      -0.402  -1.713   2.397  0.00  0.00    -0.096 F 
ATOM     11  F3  UNL d   1      -2.899  -2.654   1.934  0.00  0.00    -0.097 F 
ATOM     12  F4  UNL d   1      -4.925  -0.940   1.305  0.00  0.00    -0.092 F 
ENDROOT
TORSDOF 0
ENDMDL
