MODEL 1
REMARK minimizedAffinity 15.702858
REMARK minimizedRMSD -1
REMARK  0 active torsions:
REMARK  status: ('A' for Active; 'I' for Inactive)
ROOT
ATOM      1  C   UNL d   1       2.488   4.322  -4.239  0.00  0.00     0.124 A 
ATOM      2  C1  UNL d   1       2.211   3.186  -3.492  0.00  0.00     0.062 A 
ATOM      3  C2  UNL d   1       3.212   2.251  -3.242  0.00  0.00     0.162 A 
ATOM      4  C3  UNL d   1       4.500   2.450  -3.740  0.00  0.00    -0.034 A 
ATOM      5  C4  UNL d   1       4.771   3.595  -4.490  0.00  0.00     0.162 A 
ATOM      6  C5  UNL d   1       3.767   4.526  -4.737  0.00  0.00     0.062 A 
ATOM      7  F   UNL d   1       4.036   5.624  -5.459  0.00  0.00    -0.097 F 
ATOM      8  F1  UNL d   1       5.998   3.818  -4.983  0.00  0.00    -0.096 F 
ATOM      9  I   UNL d   1       6.000   1.055  -3.369  0.00  0.00    -0.060 I 
ATOM     10  F2  UNL d   1       2.917   1.162  -2.518  0.00  0.00    -0.096 F 
ATOM     11  F3  UNL d   1       0.976   2.986  -3.010  0.00  0.00    -0.097 F 
ATOM     12  F4  UNL d   1       1.523   5.219  -4.478  0.00  0.00    -0.092 F 
ENDROOT
TORSDOF 0
ENDMDL
