MODEL 1
REMARK minimizedAffinity 23.8983955
REMARK minimizedRMSD -1
REMARK  0 active torsions:
REMARK  status: ('A' for Active; 'I' for Inactive)
ROOT
ATOM      1  C   UNL d   1       0.683  -2.785  -0.176  0.00  0.00     0.124 A 
ATOM      2  C1  UNL d   1      -0.358  -3.353  -0.898  0.00  0.00     0.062 A 
ATOM      3  C2  UNL d   1      -0.089  -4.271  -1.909  0.00  0.00     0.162 A 
ATOM      4  C3  UNL d   1       1.227  -4.627  -2.204  0.00  0.00    -0.034 A 
ATOM      5  C4  UNL d   1       2.268  -4.051  -1.475  0.00  0.00     0.162 A 
ATOM      6  C5  UNL d   1       1.994  -3.134  -0.465  0.00  0.00     0.062 A 
ATOM      7  F   UNL d   1       3.001  -2.586   0.232  0.00  0.00    -0.097 F 
ATOM      8  F1  UNL d   1       3.545  -4.371  -1.732  0.00  0.00    -0.096 F 
ATOM      9  I   UNL d   1       1.633  -5.998  -3.716  0.00  0.00    -0.060 I 
ATOM     10  F2  UNL d   1      -1.114  -4.804  -2.590  0.00  0.00    -0.096 F 
ATOM     11  F3  UNL d   1      -1.626  -3.017  -0.621  0.00  0.00    -0.097 F 
ATOM     12  F4  UNL d   1       0.421  -1.902   0.796  0.00  0.00    -0.092 F 
ENDROOT
TORSDOF 0
ENDMDL
