MODEL 1
REMARK minimizedAffinity 21.7931042
REMARK minimizedRMSD -1
REMARK  0 active torsions:
REMARK  status: ('A' for Active; 'I' for Inactive)
ROOT
ATOM      1  C   UNL d   1       4.890   3.959   4.619  0.00  0.00     0.124 A 
ATOM      2  C1  UNL d   1       4.907   2.659   4.132  0.00  0.00     0.062 A 
ATOM      3  C2  UNL d   1       3.792   2.141   3.480  0.00  0.00     0.162 A 
ATOM      4  C3  UNL d   1       2.650   2.924   3.308  0.00  0.00    -0.034 A 
ATOM      5  C4  UNL d   1       2.641   4.230   3.801  0.00  0.00     0.162 A 
ATOM      6  C5  UNL d   1       3.758   4.743   4.452  0.00  0.00     0.062 A 
ATOM      7  F   UNL d   1       3.740   5.999   4.921  0.00  0.00    -0.097 F 
ATOM      8  F1  UNL d   1       1.560   5.010   3.653  0.00  0.00    -0.096 F 
ATOM      9  I   UNL d   1       0.981   2.154   2.333  0.00  0.00    -0.060 I 
ATOM     10  F2  UNL d   1       3.836   0.882   3.020  0.00  0.00    -0.096 F 
ATOM     11  F3  UNL d   1       6.000   1.899   4.293  0.00  0.00    -0.097 F 
ATOM     12  F4  UNL d   1       5.964   4.454   5.247  0.00  0.00    -0.092 F 
ENDROOT
TORSDOF 0
ENDMDL
