MODEL 1
REMARK minimizedAffinity 11.5985985
REMARK minimizedRMSD -1
REMARK  0 active torsions:
REMARK  status: ('A' for Active; 'I' for Inactive)
ROOT
ATOM      1  C   UNL d   1      -4.273  -1.931   3.905  0.00  0.00     0.124 A 
ATOM      2  C1  UNL d   1      -4.426  -0.920   2.966  0.00  0.00     0.062 A 
ATOM      3  C2  UNL d   1      -3.364  -0.567   2.138  0.00  0.00     0.162 A 
ATOM      4  C3  UNL d   1      -2.139  -1.225   2.245  0.00  0.00    -0.034 A 
ATOM      5  C4  UNL d   1      -1.992  -2.240   3.192  0.00  0.00     0.162 A 
ATOM      6  C5  UNL d   1      -3.056  -2.590   4.017  0.00  0.00     0.062 A 
ATOM      7  F   UNL d   1      -2.907  -3.566   4.924  0.00  0.00    -0.097 F 
ATOM      8  F1  UNL d   1      -0.828  -2.894   3.322  0.00  0.00    -0.096 F 
ATOM      9  I   UNL d   1      -0.548  -0.700   1.009  0.00  0.00    -0.060 I 
ATOM     10  F2  UNL d   1      -3.540   0.414   1.240  0.00  0.00    -0.096 F 
ATOM     11  F3  UNL d   1      -5.599  -0.281   2.856  0.00  0.00    -0.097 F 
ATOM     12  F4  UNL d   1      -5.296  -2.268   4.700  0.00  0.00    -0.092 F 
ENDROOT
TORSDOF 0
ENDMDL
