MODEL 1
REMARK minimizedAffinity 18.3604431
REMARK minimizedRMSD -1
REMARK  0 active torsions:
REMARK  status: ('A' for Active; 'I' for Inactive)
ROOT
ATOM      1  C   UNL d   1      -4.037   5.262  -3.723  0.00  0.00     0.124 A 
ATOM      2  C1  UNL d   1      -3.279   5.233  -2.560  0.00  0.00     0.062 A 
ATOM      3  C2  UNL d   1      -2.039   4.602  -2.549  0.00  0.00     0.162 A 
ATOM      4  C3  UNL d   1      -1.548   3.994  -3.705  0.00  0.00    -0.034 A 
ATOM      5  C4  UNL d   1      -2.317   4.026  -4.869  0.00  0.00     0.162 A 
ATOM      6  C5  UNL d   1      -3.556   4.658  -4.876  0.00  0.00     0.062 A 
ATOM      7  F   UNL d   1      -4.287   4.685  -6.000  0.00  0.00    -0.097 F 
ATOM      8  F1  UNL d   1      -1.875   3.451  -5.998  0.00  0.00    -0.096 F 
ATOM      9  I   UNL d   1       0.306   3.048  -3.692  0.00  0.00    -0.060 I 
ATOM     10  F2  UNL d   1      -1.328   4.590  -1.412  0.00  0.00    -0.096 F 
ATOM     11  F3  UNL d   1      -3.743   5.815  -1.445  0.00  0.00    -0.097 F 
ATOM     12  F4  UNL d   1      -5.231   5.869  -3.731  0.00  0.00    -0.092 F 
ENDROOT
TORSDOF 0
ENDMDL
