MODEL 1
REMARK minimizedAffinity 6.07133865
REMARK minimizedRMSD -1
REMARK  0 active torsions:
REMARK  status: ('A' for Active; 'I' for Inactive)
ROOT
ATOM      1  C   UNL d   1       0.763   1.341   1.188  0.00  0.00     0.124 A 
ATOM      2  C1  UNL d   1       0.368   0.079   0.765  0.00  0.00     0.062 A 
ATOM      3  C2  UNL d   1      -0.783  -0.506   1.286  0.00  0.00     0.162 A 
ATOM      4  C3  UNL d   1      -1.548   0.172   2.235  0.00  0.00    -0.034 A 
ATOM      5  C4  UNL d   1      -1.144   1.440   2.656  0.00  0.00     0.162 A 
ATOM      6  C5  UNL d   1       0.007   2.020   2.132  0.00  0.00     0.062 A 
ATOM      7  F   UNL d   1       0.386   3.239   2.542  0.00  0.00    -0.097 F 
ATOM      8  F1  UNL d   1      -1.857   2.119   3.567  0.00  0.00    -0.096 F 
ATOM      9  I   UNL d   1      -3.269  -0.699   3.017  0.00  0.00    -0.060 I 
ATOM     10  F2  UNL d   1      -1.140  -1.726   0.860  0.00  0.00    -0.096 F 
ATOM     11  F3  UNL d   1       1.098  -0.580  -0.147  0.00  0.00    -0.097 F 
ATOM     12  F4  UNL d   1       1.871   1.900   0.685  0.00  0.00    -0.092 F 
ENDROOT
TORSDOF 0
ENDMDL
