MODEL 1
REMARK minimizedAffinity 10.8631134
REMARK minimizedRMSD -1
REMARK  0 active torsions:
REMARK  status: ('A' for Active; 'I' for Inactive)
ROOT
ATOM      1  C   UNL d   1      -3.618  -1.081   3.334  0.00  0.00     0.124 A 
ATOM      2  C1  UNL d   1      -2.307  -1.521   3.213  0.00  0.00     0.062 A 
ATOM      3  C2  UNL d   1      -1.376  -0.762   2.509  0.00  0.00     0.162 A 
ATOM      4  C3  UNL d   1      -1.753   0.445   1.922  0.00  0.00    -0.034 A 
ATOM      5  C4  UNL d   1      -3.073   0.881   2.046  0.00  0.00     0.162 A 
ATOM      6  C5  UNL d   1      -4.000   0.119   2.751  0.00  0.00     0.062 A 
ATOM      7  F   UNL d   1      -5.266   0.546   2.866  0.00  0.00    -0.097 F 
ATOM      8  F1  UNL d   1      -3.469   2.037   1.494  0.00  0.00    -0.096 F 
ATOM      9  I   UNL d   1      -0.364   1.583   0.869  0.00  0.00    -0.060 I 
ATOM     10  F2  UNL d   1      -0.117  -1.212   2.409  0.00  0.00    -0.096 F 
ATOM     11  F3  UNL d   1      -1.936  -2.681   3.775  0.00  0.00    -0.097 F 
ATOM     12  F4  UNL d   1      -4.512  -1.813   4.010  0.00  0.00    -0.092 F 
ENDROOT
TORSDOF 0
ENDMDL
