MODEL 1
REMARK minimizedAffinity 16.2899857
REMARK minimizedRMSD -1
REMARK  0 active torsions:
REMARK  status: ('A' for Active; 'I' for Inactive)
ROOT
ATOM      1  C   UNL d   1       2.906  -2.298  -0.443  0.00  0.00     0.124 A 
ATOM      2  C1  UNL d   1       2.056  -1.568  -1.262  0.00  0.00     0.062 A 
ATOM      3  C2  UNL d   1       1.497  -2.156  -2.393  0.00  0.00     0.162 A 
ATOM      4  C3  UNL d   1       1.786  -3.483  -2.711  0.00  0.00    -0.034 A 
ATOM      5  C4  UNL d   1       2.643  -4.210  -1.884  0.00  0.00     0.162 A 
ATOM      6  C5  UNL d   1       3.199  -3.618  -0.755  0.00  0.00     0.062 A 
ATOM      7  F   UNL d   1       4.020  -4.325   0.035  0.00  0.00    -0.097 F 
ATOM      8  F1  UNL d   1       2.942  -5.488  -2.161  0.00  0.00    -0.096 F 
ATOM      9  I   UNL d   1       0.952  -4.366  -4.401  0.00  0.00    -0.060 I 
ATOM     10  F2  UNL d   1       0.678  -1.427  -3.166  0.00  0.00    -0.096 F 
ATOM     11  F3  UNL d   1       1.772  -0.292  -0.964  0.00  0.00    -0.097 F 
ATOM     12  F4  UNL d   1       3.443  -1.729   0.644  0.00  0.00    -0.092 F 
ENDROOT
TORSDOF 0
ENDMDL
