MODEL 1
REMARK minimizedAffinity 10.0353527
REMARK minimizedRMSD -1
REMARK  0 active torsions:
REMARK  status: ('A' for Active; 'I' for Inactive)
ROOT
ATOM      1  C   UNL d   1       1.534   3.780  -3.575  0.00  0.00     0.124 A 
ATOM      2  C1  UNL d   1       1.855   2.759  -4.458  0.00  0.00     0.062 A 
ATOM      3  C2  UNL d   1       3.061   2.788  -5.152  0.00  0.00     0.162 A 
ATOM      4  C3  UNL d   1       3.956   3.841  -4.964  0.00  0.00    -0.034 A 
ATOM      5  C4  UNL d   1       3.626   4.864  -4.074  0.00  0.00     0.162 A 
ATOM      6  C5  UNL d   1       2.419   4.831  -3.383  0.00  0.00     0.062 A 
ATOM      7  F   UNL d   1       2.110   5.819  -2.530  0.00  0.00    -0.097 F 
ATOM      8  F1  UNL d   1       4.464   5.892  -3.869  0.00  0.00    -0.096 F 
ATOM      9  I   UNL d   1       5.761   3.887  -5.999  0.00  0.00    -0.060 I 
ATOM     10  F2  UNL d   1       3.345   1.788  -6.000  0.00  0.00    -0.096 F 
ATOM     11  F3  UNL d   1       1.000   1.743  -4.646  0.00  0.00    -0.097 F 
ATOM     12  F4  UNL d   1       0.372   3.751  -2.909  0.00  0.00    -0.092 F 
ENDROOT
TORSDOF 0
ENDMDL
