MODEL 1
REMARK minimizedAffinity 27.1015434
REMARK minimizedRMSD -1
REMARK  0 active torsions:
REMARK  status: ('A' for Active; 'I' for Inactive)
ROOT
ATOM      1  C   UNL d   1      -1.846  -4.389  -2.060  0.00  0.00     0.124 A 
ATOM      2  C1  UNL d   1      -0.766  -3.560  -2.332  0.00  0.00     0.062 A 
ATOM      3  C2  UNL d   1      -0.397  -2.571  -1.424  0.00  0.00     0.162 A 
ATOM      4  C3  UNL d   1      -1.108  -2.406  -0.236  0.00  0.00    -0.034 A 
ATOM      5  C4  UNL d   1      -2.194  -3.242   0.030  0.00  0.00     0.162 A 
ATOM      6  C5  UNL d   1      -2.558  -4.229  -0.880  0.00  0.00     0.062 A 
ATOM      7  F   UNL d   1      -3.602  -5.029  -0.616  0.00  0.00    -0.097 F 
ATOM      8  F1  UNL d   1      -2.900  -3.111   1.163  0.00  0.00    -0.096 F 
ATOM      9  I   UNL d   1      -0.560  -0.928   1.123  0.00  0.00    -0.060 I 
ATOM     10  F2  UNL d   1       0.651  -1.785  -1.713  0.00  0.00    -0.096 F 
ATOM     11  F3  UNL d   1      -0.076  -3.712  -3.471  0.00  0.00    -0.097 F 
ATOM     12  F4  UNL d   1      -2.199  -5.339  -2.935  0.00  0.00    -0.092 F 
ENDROOT
TORSDOF 0
ENDMDL
