MODEL 1
REMARK minimizedAffinity 20.0435143
REMARK minimizedRMSD -1
REMARK  0 active torsions:
REMARK  status: ('A' for Active; 'I' for Inactive)
ROOT
ATOM      1  C   UNL d   1       4.738   2.920  -5.621  0.00  0.00     0.124 A 
ATOM      2  C1  UNL d   1       4.294   4.235  -5.622  0.00  0.00     0.062 A 
ATOM      3  C2  UNL d   1       2.993   4.536  -5.232  0.00  0.00     0.162 A 
ATOM      4  C3  UNL d   1       2.124   3.518  -4.836  0.00  0.00    -0.034 A 
ATOM      5  C4  UNL d   1       2.577   2.198  -4.839  0.00  0.00     0.162 A 
ATOM      6  C5  UNL d   1       3.879   1.903  -5.230  0.00  0.00     0.062 A 
ATOM      7  F   UNL d   1       4.305   0.631  -5.229  0.00  0.00    -0.097 F 
ATOM      8  F1  UNL d   1       1.768   1.195  -4.465  0.00  0.00    -0.096 F 
ATOM      9  I   UNL d   1       0.177   3.963  -4.252  0.00  0.00    -0.060 I 
ATOM     10  F2  UNL d   1       2.591   5.815  -5.242  0.00  0.00    -0.096 F 
ATOM     11  F3  UNL d   1       5.122   5.220  -6.000  0.00  0.00    -0.097 F 
ATOM     12  F4  UNL d   1       5.991   2.634  -5.998  0.00  0.00    -0.092 F 
ENDROOT
TORSDOF 0
ENDMDL
