MODEL 1
REMARK minimizedAffinity 10.4485607
REMARK minimizedRMSD -1
REMARK  0 active torsions:
REMARK  status: ('A' for Active; 'I' for Inactive)
ROOT
ATOM      1  C   UNL d   1      -2.990   1.146   0.873  0.00  0.00     0.124 A 
ATOM      2  C1  UNL d   1      -4.293   1.180   1.351  0.00  0.00     0.062 A 
ATOM      3  C2  UNL d   1      -4.735   0.210   2.246  0.00  0.00     0.162 A 
ATOM      4  C3  UNL d   1      -3.874  -0.802   2.670  0.00  0.00    -0.034 A 
ATOM      5  C4  UNL d   1      -2.566  -0.830   2.184  0.00  0.00     0.162 A 
ATOM      6  C5  UNL d   1      -2.128   0.141   1.290  0.00  0.00     0.062 A 
ATOM      7  F   UNL d   1      -0.869   0.107   0.829  0.00  0.00    -0.097 F 
ATOM      8  F1  UNL d   1      -1.712  -1.789   2.570  0.00  0.00    -0.096 F 
ATOM      9  I   UNL d   1      -4.532  -2.254   4.007  0.00  0.00    -0.060 I 
ATOM     10  F2  UNL d   1      -5.999   0.267   2.691  0.00  0.00    -0.096 F 
ATOM     11  F3  UNL d   1      -5.128   2.149   0.949  0.00  0.00    -0.097 F 
ATOM     12  F4  UNL d   1      -2.567   2.080   0.011  0.00  0.00    -0.092 F 
ENDROOT
TORSDOF 0
ENDMDL
