MODEL 1
REMARK minimizedAffinity 13.302453
REMARK minimizedRMSD -1
REMARK  0 active torsions:
REMARK  status: ('A' for Active; 'I' for Inactive)
ROOT
ATOM      1  C   UNL d   1       0.437   3.155   2.332  0.00  0.00     0.124 A 
ATOM      2  C1  UNL d   1      -0.058   3.510   1.084  0.00  0.00     0.062 A 
ATOM      3  C2  UNL d   1      -1.305   3.051   0.670  0.00  0.00     0.162 A 
ATOM      4  C3  UNL d   1      -2.067   2.233   1.504  0.00  0.00    -0.034 A 
ATOM      5  C4  UNL d   1      -1.562   1.880   2.757  0.00  0.00     0.162 A 
ATOM      6  C5  UNL d   1      -0.316   2.341   3.167  0.00  0.00     0.062 A 
ATOM      7  F   UNL d   1       0.161   1.998   4.372  0.00  0.00    -0.097 F 
ATOM      8  F1  UNL d   1      -2.269   1.095   3.584  0.00  0.00    -0.096 F 
ATOM      9  I   UNL d   1      -3.932   1.545   0.888  0.00  0.00    -0.060 I 
ATOM     10  F2  UNL d   1      -1.758   3.409  -0.541  0.00  0.00    -0.096 F 
ATOM     11  F3  UNL d   1       0.667   4.295   0.275  0.00  0.00    -0.097 F 
ATOM     12  F4  UNL d   1       1.637   3.598   2.728  0.00  0.00    -0.092 F 
ENDROOT
TORSDOF 0
ENDMDL
