MODEL 1
REMARK minimizedAffinity 15.2281933
REMARK minimizedRMSD -1
REMARK  0 active torsions:
REMARK  status: ('A' for Active; 'I' for Inactive)
ROOT
ATOM      1  C   UNL d   1      -3.454  -2.020   3.160  0.00  0.00     0.124 A 
ATOM      2  C1  UNL d   1      -2.188  -2.423   2.757  0.00  0.00     0.062 A 
ATOM      3  C2  UNL d   1      -1.238  -1.477   2.383  0.00  0.00     0.162 A 
ATOM      4  C3  UNL d   1      -1.549  -0.118   2.411  0.00  0.00    -0.034 A 
ATOM      5  C4  UNL d   1      -2.824   0.280   2.817  0.00  0.00     0.162 A 
ATOM      6  C5  UNL d   1      -3.770  -0.669   3.189  0.00  0.00     0.062 A 
ATOM      7  F   UNL d   1      -4.992  -0.278   3.578  0.00  0.00    -0.097 F 
ATOM      8  F1  UNL d   1      -3.157   1.579   2.856  0.00  0.00    -0.096 F 
ATOM      9  I   UNL d   1      -0.131   1.299   1.853  0.00  0.00    -0.060 I 
ATOM     10  F2  UNL d   1      -0.023  -1.896   1.998  0.00  0.00    -0.096 F 
ATOM     11  F3  UNL d   1      -1.880  -3.728   2.726  0.00  0.00    -0.097 F 
ATOM     12  F4  UNL d   1      -4.366  -2.932   3.518  0.00  0.00    -0.092 F 
ENDROOT
TORSDOF 0
ENDMDL
