MODEL 1
REMARK minimizedAffinity 8.80411434
REMARK minimizedRMSD -1
REMARK  0 active torsions:
REMARK  status: ('A' for Active; 'I' for Inactive)
ROOT
ATOM      1  N1  IND d   1      -0.573  -3.348   3.632  0.00  0.00    -0.196 N 
ATOM      2  C2  IND d   1      -0.190  -4.140   4.679  0.00  0.00     0.054 A 
ATOM      3  C3  IND d   1       0.722  -3.500   5.444  0.00  0.00    -0.031 A 
ATOM      4  C4  IND d   1       1.654  -1.110   5.223  0.00  0.00     0.051 A 
ATOM      5  C5  IND d   1       1.630  -0.016   4.404  0.00  0.00    -0.031 A 
ATOM      6  C6  IND d   1       0.853   0.025   3.265  0.00  0.00     0.015 A 
ATOM      7  C7  IND d   1       0.058  -1.027   2.906  0.00  0.00    -0.016 A 
ATOM      8  C8  IND d   1       0.085  -2.142   3.731  0.00  0.00    -0.047 A 
ATOM      9  C9  IND d   1       0.904  -2.206   4.866  0.00  0.00    -0.096 A 
ATOM     10  HN1 IND d   1      -1.131  -3.567   3.016  0.00  0.00     0.298 HD
ENDROOT
TORSDOF 0
ENDMDL
