MODEL 1
REMARK minimizedAffinity 14.1452827
REMARK minimizedRMSD -1
REMARK  0 active torsions:
REMARK  status: ('A' for Active; 'I' for Inactive)
ROOT
ATOM      1  N1  IND d   1      -4.458  -6.000  -5.999  0.00  0.00    -0.196 N 
ATOM      2  C2  IND d   1      -5.666  -5.417  -5.735  0.00  0.00     0.054 A 
ATOM      3  C3  IND d   1      -5.606  -4.714  -4.581  0.00  0.00    -0.031 A 
ATOM      4  C4  IND d   1      -3.602  -4.300  -3.020  0.00  0.00     0.051 A 
ATOM      5  C5  IND d   1      -2.297  -4.656  -2.825  0.00  0.00    -0.031 A 
ATOM      6  C6  IND d   1      -1.631  -5.492  -3.697  0.00  0.00     0.015 A 
ATOM      7  C7  IND d   1      -2.245  -5.998  -4.808  0.00  0.00    -0.016 A 
ATOM      8  C8  IND d   1      -3.573  -5.644  -5.005  0.00  0.00    -0.047 A 
ATOM      9  C9  IND d   1      -4.266  -4.830  -4.101  0.00  0.00    -0.096 A 
ATOM     10  HN1 IND d   1      -4.281  -6.504  -6.673  0.00  0.00     0.298 HD
ENDROOT
TORSDOF 0
ENDMDL
