MODEL 1
REMARK minimizedAffinity 14.7821856
REMARK minimizedRMSD -1
REMARK  0 active torsions:
REMARK  status: ('A' for Active; 'I' for Inactive)
ROOT
ATOM      1  N1  IND d   1       0.403   5.772   2.240  0.00  0.00    -0.196 N 
ATOM      2  C2  IND d   1       1.540   5.935   2.980  0.00  0.00     0.054 A 
ATOM      3  C3  IND d   1       2.090   4.734   3.268  0.00  0.00    -0.031 A 
ATOM      4  C4  IND d   1       1.349   2.379   2.541  0.00  0.00     0.051 A 
ATOM      5  C5  IND d   1       0.347   1.719   1.887  0.00  0.00    -0.031 A 
ATOM      6  C6  IND d   1      -0.708   2.390   1.302  0.00  0.00     0.015 A 
ATOM      7  C7  IND d   1      -0.794   3.753   1.341  0.00  0.00    -0.016 A 
ATOM      8  C8  IND d   1       0.218   4.426   2.011  0.00  0.00    -0.047 A 
ATOM      9  C9  IND d   1       1.269   3.748   2.642  0.00  0.00    -0.096 A 
ATOM     10  HN1 IND d   1      -0.111   6.404   1.963  0.00  0.00     0.298 HD
ENDROOT
TORSDOF 0
ENDMDL
