MODEL 1
REMARK minimizedAffinity 11.2280922
REMARK minimizedRMSD -1
REMARK  0 active torsions:
REMARK  status: ('A' for Active; 'I' for Inactive)
ROOT
ATOM      1  N1  IND d   1       2.771  -1.344  -0.597  0.00  0.00    -0.196 N 
ATOM      2  C2  IND d   1       3.260  -2.314   0.233  0.00  0.00     0.054 A 
ATOM      3  C3  IND d   1       4.540  -2.041   0.572  0.00  0.00    -0.031 A 
ATOM      4  C4  IND d   1       5.996  -0.008  -0.039  0.00  0.00     0.051 A 
ATOM      5  C5  IND d   1       5.999   1.124  -0.805  0.00  0.00    -0.031 A 
ATOM      6  C6  IND d   1       4.903   1.500  -1.554  0.00  0.00     0.015 A 
ATOM      7  C7  IND d   1       3.754   0.760  -1.556  0.00  0.00    -0.016 A 
ATOM      8  C8  IND d   1       3.750  -0.393  -0.785  0.00  0.00    -0.047 A 
ATOM      9  C9  IND d   1       4.874  -0.802  -0.056  0.00  0.00    -0.096 A 
ATOM     10  HN1 IND d   1       1.985  -1.331  -0.945  0.00  0.00     0.298 HD
ENDROOT
TORSDOF 0
ENDMDL
