MODEL 1
REMARK minimizedAffinity 13.0410719
REMARK minimizedRMSD -1
REMARK  0 active torsions:
REMARK  status: ('A' for Active; 'I' for Inactive)
ROOT
ATOM      1  N1  IND d   1       2.672  -0.005  -1.242  0.00  0.00    -0.196 N 
ATOM      2  C2  IND d   1       3.735  -0.428  -0.494  0.00  0.00     0.054 A 
ATOM      3  C3  IND d   1       3.480  -0.260   0.823  0.00  0.00    -0.031 A 
ATOM      4  C4  IND d   1       1.345   0.597   1.979  0.00  0.00     0.051 A 
ATOM      5  C5  IND d   1       0.118   1.136   1.712  0.00  0.00    -0.031 A 
ATOM      6  C6  IND d   1      -0.331   1.324   0.421  0.00  0.00     0.015 A 
ATOM      7  C7  IND d   1       0.430   0.967  -0.657  0.00  0.00    -0.016 A 
ATOM      8  C8  IND d   1       1.679   0.425  -0.390  0.00  0.00    -0.047 A 
ATOM      9  C9  IND d   1       2.157   0.272   0.918  0.00  0.00    -0.096 A 
ATOM     10  HN1 IND d   1       2.630  -0.008  -2.101  0.00  0.00     0.298 HD
ENDROOT
TORSDOF 0
ENDMDL
