MODEL 1
REMARK minimizedAffinity 13.3792887
REMARK minimizedRMSD -1
REMARK  0 active torsions:
REMARK  status: ('A' for Active; 'I' for Inactive)
ROOT
ATOM      1  N1  IND d   1       2.378  -0.836  -1.054  0.00  0.00    -0.196 N 
ATOM      2  C2  IND d   1       2.736  -2.151  -1.165  0.00  0.00     0.054 A 
ATOM      3  C3  IND d   1       4.069  -2.292  -0.988  0.00  0.00    -0.031 A 
ATOM      4  C4  IND d   1       5.838  -0.516  -0.404  0.00  0.00     0.051 A 
ATOM      5  C5  IND d   1       5.998   0.831  -0.236  0.00  0.00    -0.031 A 
ATOM      6  C6  IND d   1       4.937   1.708  -0.331  0.00  0.00     0.015 A 
ATOM      7  C7  IND d   1       3.670   1.268  -0.588  0.00  0.00    -0.016 A 
ATOM      8  C8  IND d   1       3.505  -0.098  -0.766  0.00  0.00    -0.047 A 
ATOM      9  C9  IND d   1       4.585  -0.989  -0.713  0.00  0.00    -0.096 A 
ATOM     10  HN1 IND d   1       1.583  -0.523  -1.148  0.00  0.00     0.298 HD
ENDROOT
TORSDOF 0
ENDMDL
