MODEL 1
REMARK minimizedAffinity 2.45183516
REMARK minimizedRMSD -1
REMARK  0 active torsions:
REMARK  status: ('A' for Active; 'I' for Inactive)
ROOT
ATOM      1  N1  IND d   1      -1.774  -4.660  -3.779  0.00  0.00    -0.196 N 
ATOM      2  C2  IND d   1      -2.206  -4.014  -4.903  0.00  0.00     0.054 A 
ATOM      3  C3  IND d   1      -2.044  -2.679  -4.770  0.00  0.00    -0.031 A 
ATOM      4  C4  IND d   1      -0.994  -1.344  -2.835  0.00  0.00     0.051 A 
ATOM      5  C5  IND d   1      -0.488  -1.492  -1.575  0.00  0.00    -0.031 A 
ATOM      6  C6  IND d   1      -0.380  -2.729  -0.973  0.00  0.00     0.015 A 
ATOM      7  C7  IND d   1      -0.765  -3.870  -1.617  0.00  0.00    -0.016 A 
ATOM      8  C8  IND d   1      -1.286  -3.723  -2.895  0.00  0.00    -0.047 A 
ATOM      9  C9  IND d   1      -1.438  -2.466  -3.494  0.00  0.00    -0.096 A 
ATOM     10  HN1 IND d   1      -1.802  -5.509  -3.646  0.00  0.00     0.298 HD
ENDROOT
TORSDOF 0
ENDMDL
