MODEL 1
REMARK minimizedAffinity 17.6399155
REMARK minimizedRMSD -1
REMARK  0 active torsions:
REMARK  status: ('A' for Active; 'I' for Inactive)
ROOT
ATOM      1  N1  IND d   1       3.420  -1.834  -3.735  0.00  0.00    -0.196 N 
ATOM      2  C2  IND d   1       2.653  -2.921  -3.419  0.00  0.00     0.054 A 
ATOM      3  C3  IND d   1       2.287  -2.876  -2.118  0.00  0.00    -0.031 A 
ATOM      4  C4  IND d   1       2.748  -1.062  -0.351  0.00  0.00     0.051 A 
ATOM      5  C5  IND d   1       3.435   0.103  -0.157  0.00  0.00    -0.031 A 
ATOM      6  C6  IND d   1       4.166   0.695  -1.167  0.00  0.00     0.015 A 
ATOM      7  C7  IND d   1       4.226   0.148  -2.417  0.00  0.00    -0.016 A 
ATOM      8  C8  IND d   1       3.535  -1.039  -2.616  0.00  0.00    -0.047 A 
ATOM      9  C9  IND d   1       2.827  -1.667  -1.583  0.00  0.00    -0.096 A 
ATOM     10  HN1 IND d   1       3.771  -1.674  -4.503  0.00  0.00     0.298 HD
ENDROOT
TORSDOF 0
ENDMDL
