MODEL 1
REMARK minimizedAffinity 5.23730135
REMARK minimizedRMSD -1
REMARK  3 active torsions:
REMARK  status: ('A' for Active; 'I' for Inactive)
REMARK    1  A    between atoms: C3'_2  and  C2'_3 
REMARK    2  A    between atoms: C2'_3  and  C1'_4 
REMARK    3  A    between atoms: C1'_4  and  C1_5 
ROOT
ATOM      1  C1  N4B d   1       0.949   0.265  -2.395  0.00  0.00    -0.075 A 
ATOM      2  C2  N4B d   1       1.490   1.438  -1.826  0.00  0.00     0.002 A 
ATOM      3  C3  N4B d   1       1.638   1.536  -0.464  0.00  0.00     0.002 A 
ATOM      4  C4  N4B d   1       1.235   0.485   0.347  0.00  0.00    -0.004 A 
ATOM      5  C5  N4B d   1       0.737  -0.655  -0.212  0.00  0.00     0.002 A 
ATOM      6  C6  N4B d   1       0.587  -0.769  -1.580  0.00  0.00     0.002 A 
ENDROOT
BRANCH   1   7
ATOM      7  C1' N4B d   1       0.689   0.145  -3.872  0.00  0.00     0.057 C 
BRANCH   7   8
ATOM      8  C2' N4B d   1      -0.801   0.341  -4.135  0.00  0.00     0.009 C 
BRANCH   8   9
ATOM      9  C3' N4B d   1      -1.054   1.138  -5.403  0.00  0.00     0.004 C 
ATOM     10  C4' N4B d   1      -2.514   1.348  -5.676  0.00  0.00     0.003 C 
ENDBRANCH   8   9
ENDBRANCH   7   8
ENDBRANCH   1   7
TORSDOF 3
ENDMDL
