MODEL 1
REMARK minimizedAffinity 0.679623425
REMARK minimizedRMSD -1
REMARK  3 active torsions:
REMARK  status: ('A' for Active; 'I' for Inactive)
REMARK    1  A    between atoms: C3'_2  and  C2'_3 
REMARK    2  A    between atoms: C2'_3  and  C1'_4 
REMARK    3  A    between atoms: C1'_4  and  C1_5 
ROOT
ATOM      1  C1  N4B d   1      -2.058   1.887  -5.852  0.00  0.00    -0.075 A 
ATOM      2  C2  N4B d   1      -1.874   3.286  -5.925  0.00  0.00     0.002 A 
ATOM      3  C3  N4B d   1      -2.963   4.119  -5.985  0.00  0.00     0.002 A 
ATOM      4  C4  N4B d   1      -4.240   3.579  -5.994  0.00  0.00    -0.004 A 
ATOM      5  C5  N4B d   1      -4.410   2.229  -5.897  0.00  0.00     0.002 A 
ATOM      6  C6  N4B d   1      -3.324   1.379  -5.832  0.00  0.00     0.002 A 
ENDROOT
BRANCH   1   7
ATOM      7  C1' N4B d   1      -0.896   0.931  -5.871  0.00  0.00     0.057 C 
BRANCH   7   8
ATOM      8  C2' N4B d   1      -0.778   0.260  -4.506  0.00  0.00     0.009 C 
BRANCH   8   9
ATOM      9  C3' N4B d   1       0.474  -0.594  -4.399  0.00  0.00     0.004 C 
ATOM     10  C4' N4B d   1       0.170  -2.056  -4.268  0.00  0.00     0.003 C 
ENDBRANCH   8   9
ENDBRANCH   7   8
ENDBRANCH   1   7
TORSDOF 3
ENDMDL
