MODEL 1
REMARK minimizedAffinity -0.968022883
REMARK minimizedRMSD -1
REMARK  3 active torsions:
REMARK  status: ('A' for Active; 'I' for Inactive)
REMARK    1  A    between atoms: C3'_2  and  C2'_3 
REMARK    2  A    between atoms: C2'_3  and  C1'_4 
REMARK    3  A    between atoms: C1'_4  and  C1_5 
ROOT
ATOM      1  C1  N4B d   1      -3.440  -4.212  -5.933  0.00  0.00    -0.075 A 
ATOM      2  C2  N4B d   1      -3.640  -2.814  -5.899  0.00  0.00     0.002 A 
ATOM      3  C3  N4B d   1      -4.915  -2.302  -5.919  0.00  0.00     0.002 A 
ATOM      4  C4  N4B d   1      -5.999  -3.164  -5.992  0.00  0.00    -0.004 A 
ATOM      5  C5  N4B d   1      -5.798  -4.513  -5.999  0.00  0.00     0.002 A 
ATOM      6  C6  N4B d   1      -4.523  -5.042  -5.975  0.00  0.00     0.002 A 
ENDROOT
BRANCH   1   7
ATOM      7  C1' N4B d   1      -2.064  -4.815  -5.999  0.00  0.00     0.057 C 
BRANCH   7   8
ATOM      8  C2' N4B d   1      -1.843  -5.694  -4.772  0.00  0.00     0.009 C 
BRANCH   8   9
ATOM      9  C3' N4B d   1      -1.779  -4.878  -3.493  0.00  0.00     0.004 C 
ATOM     10  C4' N4B d   1      -1.795  -5.730  -2.259  0.00  0.00     0.003 C 
ENDBRANCH   8   9
ENDBRANCH   7   8
ENDBRANCH   1   7
TORSDOF 3
ENDMDL
