MODEL 1
REMARK minimizedAffinity -0.00402253913
REMARK minimizedRMSD -1
REMARK  3 active torsions:
REMARK  status: ('A' for Active; 'I' for Inactive)
REMARK    1  A    between atoms: C3'_2  and  C2'_3 
REMARK    2  A    between atoms: C2'_3  and  C1'_4 
REMARK    3  A    between atoms: C1'_4  and  C1_5 
ROOT
ATOM      1  C1  N4B d   1      -4.338  -0.257  -5.957  0.00  0.00    -0.075 A 
ATOM      2  C2  N4B d   1      -4.824   1.068  -5.975  0.00  0.00     0.002 A 
ATOM      3  C3  N4B d   1      -3.943   2.122  -5.995  0.00  0.00     0.002 A 
ATOM      4  C4  N4B d   1      -2.578   1.876  -5.979  0.00  0.00    -0.004 A 
ATOM      5  C5  N4B d   1      -2.117   0.592  -5.987  0.00  0.00     0.002 A 
ATOM      6  C6  N4B d   1      -2.991  -0.477  -5.971  0.00  0.00     0.002 A 
ENDROOT
BRANCH   1   7
ATOM      7  C1' N4B d   1      -5.261  -1.440  -5.848  0.00  0.00     0.057 C 
BRANCH   7   8
ATOM      8  C2' N4B d   1      -4.539  -2.574  -5.125  0.00  0.00     0.009 C 
BRANCH   8   9
ATOM      9  C3' N4B d   1      -4.495  -3.842  -5.959  0.00  0.00     0.004 C 
ATOM     10  C4' N4B d   1      -3.147  -4.499  -5.947  0.00  0.00     0.003 C 
ENDBRANCH   8   9
ENDBRANCH   7   8
ENDBRANCH   1   7
TORSDOF 3
ENDMDL
