MODEL 1
REMARK minimizedAffinity 5.43145132
REMARK minimizedRMSD -1
REMARK  3 active torsions:
REMARK  status: ('A' for Active; 'I' for Inactive)
REMARK    1  A    between atoms: C3'_2  and  C2'_3 
REMARK    2  A    between atoms: C2'_3  and  C1'_4 
REMARK    3  A    between atoms: C1'_4  and  C1_5 
ROOT
ATOM      1  C1  N4B d   1      -3.866   0.461  -5.966  0.00  0.00    -0.075 A 
ATOM      2  C2  N4B d   1      -4.487   1.728  -5.908  0.00  0.00     0.002 A 
ATOM      3  C3  N4B d   1      -3.722   2.867  -5.875  0.00  0.00     0.002 A 
ATOM      4  C4  N4B d   1      -2.339   2.764  -5.881  0.00  0.00    -0.004 A 
ATOM      5  C5  N4B d   1      -1.746   1.538  -5.962  0.00  0.00     0.002 A 
ATOM      6  C6  N4B d   1      -2.504   0.385  -6.000  0.00  0.00     0.002 A 
ENDROOT
BRANCH   1   7
ATOM      7  C1' N4B d   1      -4.660  -0.816  -5.916  0.00  0.00     0.057 C 
BRANCH   7   8
ATOM      8  C2' N4B d   1      -3.703  -2.003  -5.973  0.00  0.00     0.009 C 
BRANCH   8   9
ATOM      9  C3' N4B d   1      -4.441  -3.330  -5.940  0.00  0.00     0.004 C 
ATOM     10  C4' N4B d   1      -3.517  -4.510  -5.983  0.00  0.00     0.003 C 
ENDBRANCH   8   9
ENDBRANCH   7   8
ENDBRANCH   1   7
TORSDOF 3
ENDMDL
