MODEL 1
REMARK minimizedAffinity 5.11500454
REMARK minimizedRMSD -1
REMARK  3 active torsions:
REMARK  status: ('A' for Active; 'I' for Inactive)
REMARK    1  A    between atoms: C3'_2  and  C2'_3 
REMARK    2  A    between atoms: C2'_3  and  C1'_4 
REMARK    3  A    between atoms: C1'_4  and  C1_5 
ROOT
ATOM      1  C1  N4B d   1       0.020   0.841  -0.666  0.00  0.00    -0.075 A 
ATOM      2  C2  N4B d   1      -0.304   0.252  -1.908  0.00  0.00     0.002 A 
ATOM      3  C3  N4B d   1       0.537  -0.679  -2.466  0.00  0.00     0.002 A 
ATOM      4  C4  N4B d   1       1.712  -1.021  -1.813  0.00  0.00    -0.004 A 
ATOM      5  C5  N4B d   1       2.005  -0.467  -0.601  0.00  0.00     0.002 A 
ATOM      6  C6  N4B d   1       1.167   0.468  -0.027  0.00  0.00     0.002 A 
ENDROOT
BRANCH   1   7
ATOM      7  C1' N4B d   1      -0.825   1.927  -0.057  0.00  0.00     0.057 C 
BRANCH   7   8
ATOM      8  C2' N4B d   1      -1.064   1.609   1.416  0.00  0.00     0.009 C 
BRANCH   8   9
ATOM      9  C3' N4B d   1      -2.463   1.999   1.862  0.00  0.00     0.004 C 
ATOM     10  C4' N4B d   1      -2.461   2.876   3.078  0.00  0.00     0.003 C 
ENDBRANCH   8   9
ENDBRANCH   7   8
ENDBRANCH   1   7
TORSDOF 3
ENDMDL
