MODEL 1
REMARK minimizedAffinity 3.1635139
REMARK minimizedRMSD -1
REMARK  3 active torsions:
REMARK  status: ('A' for Active; 'I' for Inactive)
REMARK    1  A    between atoms: C3'_2  and  C2'_3 
REMARK    2  A    between atoms: C2'_3  and  C1'_4 
REMARK    3  A    between atoms: C1'_4  and  C1_5 
ROOT
ATOM      1  C1  N4B d   1      -0.507   0.079  -2.698  0.00  0.00    -0.075 A 
ATOM      2  C2  N4B d   1      -0.795   0.890  -1.578  0.00  0.00     0.002 A 
ATOM      3  C3  N4B d   1       0.082   0.940  -0.522  0.00  0.00     0.002 A 
ATOM      4  C4  N4B d   1       1.239   0.176  -0.555  0.00  0.00    -0.004 A 
ATOM      5  C5  N4B d   1       1.522  -0.586  -1.651  0.00  0.00     0.002 A 
ATOM      6  C6  N4B d   1       0.652  -0.642  -2.721  0.00  0.00     0.002 A 
ENDROOT
BRANCH   1   7
ATOM      7  C1' N4B d   1      -1.476  -0.074  -3.838  0.00  0.00     0.057 C 
BRANCH   7   8
ATOM      8  C2' N4B d   1      -2.163   1.264  -4.094  0.00  0.00     0.009 C 
BRANCH   8   9
ATOM      9  C3' N4B d   1      -2.916   1.273  -5.413  0.00  0.00     0.004 C 
ATOM     10  C4' N4B d   1      -3.625   2.569  -5.669  0.00  0.00     0.003 C 
ENDBRANCH   8   9
ENDBRANCH   7   8
ENDBRANCH   1   7
TORSDOF 3
ENDMDL
