MODEL 1
REMARK minimizedAffinity 7.02640724
REMARK minimizedRMSD -1
REMARK  3 active torsions:
REMARK  status: ('A' for Active; 'I' for Inactive)
REMARK    1  A    between atoms: C3'_2  and  C2'_3 
REMARK    2  A    between atoms: C2'_3  and  C1'_4 
REMARK    3  A    between atoms: C1'_4  and  C1_5 
ROOT
ATOM      1  C1  N4B d   1       0.188   0.065  -0.475  0.00  0.00    -0.075 A 
ATOM      2  C2  N4B d   1      -0.626  -0.230  -1.591  0.00  0.00     0.002 A 
ATOM      3  C3  N4B d   1      -0.072  -0.794  -2.714  0.00  0.00     0.002 A 
ATOM      4  C4  N4B d   1       1.289  -1.054  -2.752  0.00  0.00    -0.004 A 
ATOM      5  C5  N4B d   1       2.064  -0.790  -1.660  0.00  0.00     0.002 A 
ATOM      6  C6  N4B d   1       1.521  -0.227  -0.523  0.00  0.00     0.002 A 
ENDROOT
BRANCH   1   7
ATOM      7  C1' N4B d   1      -0.356   0.760   0.742  0.00  0.00     0.057 C 
BRANCH   7   8
ATOM      8  C2' N4B d   1       0.552   0.468   1.934  0.00  0.00     0.009 C 
BRANCH   8   9
ATOM      9  C3' N4B d   1       0.205   1.329   3.136  0.00  0.00     0.004 C 
ATOM     10  C4' N4B d   1       1.311   2.268   3.517  0.00  0.00     0.003 C 
ENDBRANCH   8   9
ENDBRANCH   7   8
ENDBRANCH   1   7
TORSDOF 3
ENDMDL
