MODEL 1
REMARK minimizedAffinity 2.50238609
REMARK minimizedRMSD -1
REMARK  3 active torsions:
REMARK  status: ('A' for Active; 'I' for Inactive)
REMARK    1  A    between atoms: C3'_2  and  C2'_3 
REMARK    2  A    between atoms: C2'_3  and  C1'_4 
REMARK    3  A    between atoms: C1'_4  and  C1_5 
ROOT
ATOM      1  C1  N4B d   1       2.368  -0.481  -1.106  0.00  0.00    -0.075 A 
ATOM      2  C2  N4B d   1       1.382   0.163  -0.326  0.00  0.00     0.002 A 
ATOM      3  C3  N4B d   1       0.071   0.156  -0.735  0.00  0.00     0.002 A 
ATOM      4  C4  N4B d   1      -0.274  -0.469  -1.924  0.00  0.00    -0.004 A 
ATOM      5  C5  N4B d   1       0.681  -1.110  -2.659  0.00  0.00     0.002 A 
ATOM      6  C6  N4B d   1       2.002  -1.115  -2.258  0.00  0.00     0.002 A 
ENDROOT
BRANCH   1   7
ATOM      7  C1' N4B d   1       3.827  -0.426  -0.744  0.00  0.00     0.057 C 
BRANCH   7   8
ATOM      8  C2' N4B d   1       4.172   0.981  -0.267  0.00  0.00     0.009 C 
BRANCH   8   9
ATOM      9  C3' N4B d   1       5.555   1.413  -0.724  0.00  0.00     0.004 C 
ATOM     10  C4' N4B d   1       5.726   2.903  -0.732  0.00  0.00     0.003 C 
ENDBRANCH   8   9
ENDBRANCH   7   8
ENDBRANCH   1   7
TORSDOF 3
ENDMDL
