MODEL 1
REMARK minimizedAffinity 0.679177284
REMARK minimizedRMSD -1
REMARK  3 active torsions:
REMARK  status: ('A' for Active; 'I' for Inactive)
REMARK    1  A    between atoms: C3'_2  and  C2'_3 
REMARK    2  A    between atoms: C2'_3  and  C1'_4 
REMARK    3  A    between atoms: C1'_4  and  C1_5 
ROOT
ATOM      1  C1  N4B d   1      -2.594  -3.095  -4.482  0.00  0.00    -0.075 A 
ATOM      2  C2  N4B d   1      -3.416  -1.947  -4.455  0.00  0.00     0.002 A 
ATOM      3  C3  N4B d   1      -4.567  -1.908  -5.204  0.00  0.00     0.002 A 
ATOM      4  C4  N4B d   1      -4.904  -2.994  -5.998  0.00  0.00    -0.004 A 
ATOM      5  C5  N4B d   1      -4.118  -4.109  -5.999  0.00  0.00     0.002 A 
ATOM      6  C6  N4B d   1      -2.961  -4.163  -5.249  0.00  0.00     0.002 A 
ENDROOT
BRANCH   1   7
ATOM      7  C1' N4B d   1      -1.282  -3.150  -3.748  0.00  0.00     0.057 C 
BRANCH   7   8
ATOM      8  C2' N4B d   1      -1.123  -1.884  -2.911  0.00  0.00     0.009 C 
BRANCH   8   9
ATOM      9  C3' N4B d   1       0.173  -1.156  -3.222  0.00  0.00     0.004 C 
ATOM     10  C4' N4B d   1       0.715  -0.405  -2.042  0.00  0.00     0.003 C 
ENDBRANCH   8   9
ENDBRANCH   7   8
ENDBRANCH   1   7
TORSDOF 3
ENDMDL
