MODEL 1
REMARK minimizedAffinity -1.12943184
REMARK minimizedRMSD -1
REMARK  0 active torsions:
REMARK  status: ('A' for Active; 'I' for Inactive)
ROOT
ATOM      1  C   UNL d   1       0.341  -1.084  -1.354  0.00  0.00     0.172 C 
ATOM      2  N   UNL d   1      -0.869  -1.240  -2.126  0.00  0.00    -0.070 N 
ATOM      3  C1  UNL d   1      -1.096  -0.713  -3.369  0.00  0.00    -0.004 A 
ATOM      4  C2  UNL d   1      -2.363  -1.088  -3.762  0.00  0.00    -0.047 A 
ATOM      5  C3  UNL d   1      -2.917  -1.867  -2.718  0.00  0.00    -0.047 A 
ATOM      6  C4  UNL d   1      -1.971  -1.945  -1.718  0.00  0.00    -0.004 A 
ENDROOT
TORSDOF 0
ENDMDL
