MODEL 1
REMARK minimizedAffinity -0.903893054
REMARK minimizedRMSD -1
REMARK  0 active torsions:
REMARK  status: ('A' for Active; 'I' for Inactive)
ROOT
ATOM      1  C   UNL d   1      -1.586  -2.141  -1.060  0.00  0.00     0.172 C 
ATOM      2  N   UNL d   1      -0.695  -1.217  -0.399  0.00  0.00    -0.070 N 
ATOM      3  C1  UNL d   1       0.633  -1.045  -0.684  0.00  0.00    -0.004 A 
ATOM      4  C2  UNL d   1       1.125  -0.076   0.164  0.00  0.00    -0.047 A 
ATOM      5  C3  UNL d   1       0.056   0.348   0.988  0.00  0.00    -0.047 A 
ATOM      6  C4  UNL d   1      -1.059  -0.374   0.618  0.00  0.00    -0.004 A 
ENDROOT
TORSDOF 0
ENDMDL
