MODEL 1
REMARK minimizedAffinity -2.17651105
REMARK minimizedRMSD -1
REMARK  0 active torsions:
REMARK  status: ('A' for Active; 'I' for Inactive)
ROOT
ATOM      1  C   UNL d   1       0.318   0.886   0.564  0.00  0.00     0.172 C 
ATOM      2  N   UNL d   1       1.430   1.301   1.387  0.00  0.00    -0.070 N 
ATOM      3  C1  UNL d   1       1.341   2.051   2.530  0.00  0.00    -0.004 A 
ATOM      4  C2  UNL d   1       2.617   2.231   3.017  0.00  0.00    -0.047 A 
ATOM      5  C3  UNL d   1       3.504   1.568   2.136  0.00  0.00    -0.047 A 
ATOM      6  C4  UNL d   1       2.743   1.001   1.136  0.00  0.00    -0.004 A 
ENDROOT
TORSDOF 0
ENDMDL
