MODEL 1
REMARK minimizedAffinity 1.17971671
REMARK minimizedRMSD -1
REMARK  0 active torsions:
REMARK  status: ('A' for Active; 'I' for Inactive)
ROOT
ATOM      1  C   UNL d   1       1.787  -0.054  -0.756  0.00  0.00     0.172 C 
ATOM      2  N   UNL d   1       1.015   0.468   0.347  0.00  0.00    -0.070 N 
ATOM      3  C1  UNL d   1       1.336   1.569   1.095  0.00  0.00    -0.004 A 
ATOM      4  C2  UNL d   1       0.351   1.736   2.045  0.00  0.00    -0.047 A 
ATOM      5  C3  UNL d   1      -0.593   0.698   1.862  0.00  0.00    -0.047 A 
ATOM      6  C4  UNL d   1      -0.158  -0.072   0.804  0.00  0.00    -0.004 A 
ENDROOT
TORSDOF 0
ENDMDL
