MODEL 1
REMARK minimizedAffinity -0.0409670696
REMARK minimizedRMSD -1
REMARK  0 active torsions:
REMARK  status: ('A' for Active; 'I' for Inactive)
ROOT
ATOM      1  C   UNL d   1      -3.242  -5.630   0.346  0.00  0.00     0.172 C 
ATOM      2  N   UNL d   1      -2.247  -4.733   0.885  0.00  0.00    -0.070 N 
ATOM      3  C1  UNL d   1      -2.183  -3.384   0.660  0.00  0.00    -0.004 A 
ATOM      4  C2  UNL d   1      -1.094  -2.893   1.348  0.00  0.00    -0.047 A 
ATOM      5  C3  UNL d   1      -0.482  -3.986   2.008  0.00  0.00    -0.047 A 
ATOM      6  C4  UNL d   1      -1.216  -5.113   1.704  0.00  0.00    -0.004 A 
ENDROOT
TORSDOF 0
ENDMDL
