MODEL 1
REMARK minimizedAffinity -1.0409869
REMARK minimizedRMSD -1
REMARK  0 active torsions:
REMARK  status: ('A' for Active; 'I' for Inactive)
ROOT
ATOM      1  C   UNL d   1      -0.863  -1.272  -3.204  0.00  0.00     0.172 C 
ATOM      2  N   UNL d   1       0.068  -0.358  -2.584  0.00  0.00    -0.070 N 
ATOM      3  C1  UNL d   1       0.945  -0.672  -1.580  0.00  0.00    -0.004 A 
ATOM      4  C2  UNL d   1       1.654   0.468  -1.268  0.00  0.00    -0.047 A 
ATOM      5  C3  UNL d   1       1.185   1.503  -2.112  0.00  0.00    -0.047 A 
ATOM      6  C4  UNL d   1       0.204   0.964  -2.916  0.00  0.00    -0.004 A 
ENDROOT
TORSDOF 0
ENDMDL
