MODEL 1
REMARK minimizedAffinity 0.085048072
REMARK minimizedRMSD -1
REMARK  0 active torsions:
REMARK  status: ('A' for Active; 'I' for Inactive)
ROOT
ATOM      1  C   UNL d   1      -0.827   3.594   0.075  0.00  0.00     0.172 C 
ATOM      2  N   UNL d   1      -0.381   2.703   1.121  0.00  0.00    -0.070 N 
ATOM      3  C1  UNL d   1       0.913   2.312   1.339  0.00  0.00    -0.004 A 
ATOM      4  C2  UNL d   1       0.921   1.465   2.426  0.00  0.00    -0.047 A 
ATOM      5  C3  UNL d   1      -0.414   1.342   2.877  0.00  0.00    -0.047 A 
ATOM      6  C4  UNL d   1      -1.200   2.119   2.051  0.00  0.00    -0.004 A 
ENDROOT
TORSDOF 0
ENDMDL
