MODEL 1
REMARK minimizedAffinity 3.36912251
REMARK minimizedRMSD -1
REMARK  0 active torsions:
REMARK  status: ('A' for Active; 'I' for Inactive)
ROOT
ATOM      1  C   UNL d   1       0.774   1.876   2.360  0.00  0.00     0.172 C 
ATOM      2  N   UNL d   1      -0.247   1.083   1.716  0.00  0.00    -0.070 N 
ATOM      3  C1  UNL d   1      -0.068  -0.164   1.178  0.00  0.00    -0.004 A 
ATOM      4  C2  UNL d   1      -1.277  -0.578   0.662  0.00  0.00    -0.047 A 
ATOM      5  C3  UNL d   1      -2.215   0.455   0.898  0.00  0.00    -0.047 A 
ATOM      6  C4  UNL d   1      -1.550   1.471   1.552  0.00  0.00    -0.004 A 
ENDROOT
TORSDOF 0
ENDMDL
