MODEL 1
REMARK minimizedAffinity 1.08646095
REMARK minimizedRMSD -1
REMARK  0 active torsions:
REMARK  status: ('A' for Active; 'I' for Inactive)
ROOT
ATOM      1  C   UNL d   1       3.900  -0.974  -1.375  0.00  0.00     0.172 C 
ATOM      2  N   UNL d   1       2.575  -0.456  -1.621  0.00  0.00    -0.070 N 
ATOM      3  C1  UNL d   1       1.630  -0.192  -0.665  0.00  0.00    -0.004 A 
ATOM      4  C2  UNL d   1       0.507   0.288  -1.303  0.00  0.00    -0.047 A 
ATOM      5  C3  UNL d   1       0.785   0.313  -2.690  0.00  0.00    -0.047 A 
ATOM      6  C4  UNL d   1       2.072  -0.153  -2.859  0.00  0.00    -0.004 A 
ENDROOT
TORSDOF 0
ENDMDL
