MODEL 1
REMARK minimizedAffinity 6.98915815
REMARK minimizedRMSD -1
REMARK  0 active torsions:
REMARK  status: ('A' for Active; 'I' for Inactive)
ROOT
ATOM      1  C   UNL d   1      -2.587   1.595   2.028  0.00  0.00     0.172 C 
ATOM      2  N   UNL d   1      -1.154   1.689   2.178  0.00  0.00    -0.070 N 
ATOM      3  C1  UNL d   1      -0.433   2.852   2.242  0.00  0.00    -0.004 A 
ATOM      4  C2  UNL d   1       0.896   2.516   2.386  0.00  0.00    -0.047 A 
ATOM      5  C3  UNL d   1       0.977   1.103   2.407  0.00  0.00    -0.047 A 
ATOM      6  C4  UNL d   1      -0.307   0.617   2.277  0.00  0.00    -0.004 A 
ENDROOT
TORSDOF 0
ENDMDL
