MODEL 1
REMARK minimizedAffinity 0.414656371
REMARK minimizedRMSD -1
REMARK  0 active torsions:
REMARK  status: ('A' for Active; 'I' for Inactive)
ROOT
ATOM      1  C   UNL d   1      -1.169  -3.740   1.066  0.00  0.00     0.172 C 
ATOM      2  N   UNL d   1      -2.099  -3.935  -0.022  0.00  0.00    -0.070 N 
ATOM      3  C1  UNL d   1      -2.301  -5.109  -0.698  0.00  0.00    -0.004 A 
ATOM      4  C2  UNL d   1      -3.264  -4.883  -1.657  0.00  0.00    -0.047 A 
ATOM      5  C3  UNL d   1      -3.653  -3.526  -1.555  0.00  0.00    -0.047 A 
ATOM      6  C4  UNL d   1      -2.916  -2.963  -0.535  0.00  0.00    -0.004 A 
ENDROOT
TORSDOF 0
ENDMDL
