MODEL 1
REMARK minimizedAffinity 1.92327571
REMARK minimizedRMSD -1
REMARK  0 active torsions:
REMARK  status: ('A' for Active; 'I' for Inactive)
ROOT
ATOM      1  C   UNL d   1      -2.915   1.500   2.712  0.00  0.00     0.172 C 
ATOM      2  N   UNL d   1      -1.509   1.344   2.422  0.00  0.00    -0.070 N 
ATOM      3  C1  UNL d   1      -0.870   0.156   2.184  0.00  0.00    -0.004 A 
ATOM      4  C2  UNL d   1       0.460   0.432   1.950  0.00  0.00    -0.047 A 
ATOM      5  C3  UNL d   1       0.626   1.834   2.052  0.00  0.00    -0.047 A 
ATOM      6  C4  UNL d   1      -0.608   2.373   2.346  0.00  0.00    -0.004 A 
ENDROOT
TORSDOF 0
ENDMDL
