MODEL 1
REMARK minimizedAffinity -2.71080112
REMARK minimizedRMSD -1
REMARK  0 active torsions:
REMARK  status: ('A' for Active; 'I' for Inactive)
ROOT
ATOM      1  C   UNL d   1      -2.191   1.122   2.069  0.00  0.00     0.172 C 
ATOM      2  N   UNL d   1      -0.901   1.677   1.732  0.00  0.00    -0.070 N 
ATOM      3  C1  UNL d   1      -0.622   3.008   1.574  0.00  0.00    -0.004 A 
ATOM      4  C2  UNL d   1       0.714   3.125   1.257  0.00  0.00    -0.047 A 
ATOM      5  C3  UNL d   1       1.257   1.818   1.223  0.00  0.00    -0.047 A 
ATOM      6  C4  UNL d   1       0.235   0.941   1.520  0.00  0.00    -0.004 A 
ENDROOT
TORSDOF 0
ENDMDL
