MODEL 1
REMARK minimizedAffinity 2.30196548
REMARK minimizedRMSD -1
REMARK  0 active torsions:
REMARK  status: ('A' for Active; 'I' for Inactive)
ROOT
ATOM      1  C   UNL d   1       1.992   1.025   0.750  0.00  0.00     0.172 C 
ATOM      2  N   UNL d   1       0.736   1.237   1.431  0.00  0.00    -0.070 N 
ATOM      3  C1  UNL d   1      -0.094   0.254   1.900  0.00  0.00    -0.004 A 
ATOM      4  C2  UNL d   1      -1.183   0.864   2.484  0.00  0.00    -0.047 A 
ATOM      5  C3  UNL d   1      -1.001   2.262   2.362  0.00  0.00    -0.047 A 
ATOM      6  C4  UNL d   1       0.195   2.465   1.706  0.00  0.00    -0.004 A 
ENDROOT
TORSDOF 0
ENDMDL
