MODEL 1
REMARK minimizedAffinity 8.00345802
REMARK minimizedRMSD -1
REMARK  0 active torsions:
REMARK  status: ('A' for Active; 'I' for Inactive)
ROOT
ATOM      1  C   UNL d   1      -2.424   0.321   2.597  0.00  0.00     0.172 C 
ATOM      2  N   UNL d   1      -1.195   1.078   2.557  0.00  0.00    -0.070 N 
ATOM      3  C1  UNL d   1      -0.893   2.062   1.654  0.00  0.00    -0.004 A 
ATOM      4  C2  UNL d   1       0.367   2.536   1.951  0.00  0.00    -0.047 A 
ATOM      5  C3  UNL d   1       0.838   1.811   3.071  0.00  0.00    -0.047 A 
ATOM      6  C4  UNL d   1      -0.148   0.915   3.425  0.00  0.00    -0.004 A 
ENDROOT
TORSDOF 0
ENDMDL
