MODEL 1
REMARK minimizedAffinity 6.09294558
REMARK minimizedRMSD -1
REMARK  0 active torsions:
REMARK  status: ('A' for Active; 'I' for Inactive)
ROOT
ATOM      1  C   UNL d   1       0.975   1.522   1.918  0.00  0.00     0.172 C 
ATOM      2  N   UNL d   1       1.804   0.878   0.926  0.00  0.00    -0.070 N 
ATOM      3  C1  UNL d   1       1.462  -0.232   0.200  0.00  0.00    -0.004 A 
ATOM      4  C2  UNL d   1       2.518  -0.532  -0.634  0.00  0.00    -0.047 A 
ATOM      5  C3  UNL d   1       3.529   0.431  -0.401  0.00  0.00    -0.047 A 
ATOM      6  C4  UNL d   1       3.060   1.291   0.570  0.00  0.00    -0.004 A 
ENDROOT
TORSDOF 0
ENDMDL
