MODEL 1
REMARK minimizedAffinity -0.941001654
REMARK minimizedRMSD -1
REMARK  0 active torsions:
REMARK  status: ('A' for Active; 'I' for Inactive)
ROOT
ATOM      1  C   UNL d   1       1.125   3.405   1.509  0.00  0.00     0.172 C 
ATOM      2  N   UNL d   1       0.673   2.112   1.053  0.00  0.00    -0.070 N 
ATOM      3  C1  UNL d   1      -0.500   1.503   1.413  0.00  0.00    -0.004 A 
ATOM      4  C2  UNL d   1      -0.560   0.288   0.765  0.00  0.00    -0.047 A 
ATOM      5  C3  UNL d   1       0.617   0.162  -0.010  0.00  0.00    -0.047 A 
ATOM      6  C4  UNL d   1       1.363   1.305   0.187  0.00  0.00    -0.004 A 
ENDROOT
TORSDOF 0
ENDMDL
