MODEL 1
REMARK minimizedAffinity 5.93263102
REMARK minimizedRMSD -1
REMARK  0 active torsions:
REMARK  status: ('A' for Active; 'I' for Inactive)
ROOT
ATOM      1  C   UNL d   1       0.160   2.353   1.924  0.00  0.00     0.172 C 
ATOM      2  N   UNL d   1       1.067   1.543   1.145  0.00  0.00    -0.070 N 
ATOM      3  C1  UNL d   1       2.424   1.710   1.072  0.00  0.00    -0.004 A 
ATOM      4  C2  UNL d   1       2.924   0.741   0.230  0.00  0.00    -0.047 A 
ATOM      5  C3  UNL d   1       1.829  -0.036  -0.219  0.00  0.00    -0.047 A 
ATOM      6  C4  UNL d   1       0.692   0.483   0.363  0.00  0.00    -0.004 A 
ENDROOT
TORSDOF 0
ENDMDL
