MODEL 1
REMARK minimizedAffinity -1.75157559
REMARK minimizedRMSD -1
REMARK  0 active torsions:
REMARK  status: ('A' for Active; 'I' for Inactive)
ROOT
ATOM      1  C   UNL d   1       1.766   0.217   0.192  0.00  0.00     0.172 C 
ATOM      2  N   UNL d   1       0.705   0.733   1.023  0.00  0.00    -0.070 N 
ATOM      3  C1  UNL d   1       0.830   1.738   1.945  0.00  0.00    -0.004 A 
ATOM      4  C2  UNL d   1      -0.405   1.934   2.526  0.00  0.00    -0.047 A 
ATOM      5  C3  UNL d   1      -1.303   1.015   1.933  0.00  0.00    -0.047 A 
ATOM      6  C4  UNL d   1      -0.590   0.284   1.006  0.00  0.00    -0.004 A 
ENDROOT
TORSDOF 0
ENDMDL
