MODEL 1
REMARK minimizedAffinity 8.25136757
REMARK minimizedRMSD -1
REMARK  1 active torsions:
REMARK  status: ('A' for Active; 'I' for Inactive)
REMARK    1  A    between atoms: C3_4  and  O_7 
ROOT
ATOM      1  C   UNL d   1       1.355  -1.627  -2.546  0.00  0.00    -0.033 A 
ATOM      2  C1  UNL d   1       1.878  -1.022  -1.402  0.00  0.00     0.039 A 
ATOM      3  C2  UNL d   1       2.689  -1.754  -0.532  0.00  0.00    -0.080 A 
ATOM      4  C3  UNL d   1       2.970  -3.088  -0.819  0.00  0.00     0.150 A 
ATOM      5  C4  UNL d   1       2.455  -3.695  -1.959  0.00  0.00    -0.007 A 
ATOM      6  C5  UNL d   1       1.644  -2.963  -2.826  0.00  0.00     0.039 A 
ENDROOT
BRANCH   4   7
ATOM      7  O   UNL d   1       3.752  -3.844   0.003  0.00  0.00    -0.526 OA
ATOM      8  H5  UNL d   1       4.013  -3.300   0.765  0.00  0.00     0.418 HD
ENDBRANCH   4   7
TORSDOF 1
ENDMDL
