MODEL 1
REMARK minimizedAffinity 12.6188793
REMARK minimizedRMSD -1
REMARK  1 active torsions:
REMARK  status: ('A' for Active; 'I' for Inactive)
REMARK    1  A    between atoms: C3_4  and  O_7 
ROOT
ATOM      1  C   UNL d   1      -3.459  -0.674   1.957  0.00  0.00    -0.033 A 
ATOM      2  C1  UNL d   1      -3.797  -1.194   3.208  0.00  0.00     0.039 A 
ATOM      3  C2  UNL d   1      -3.702  -0.394   4.348  0.00  0.00    -0.080 A 
ATOM      4  C3  UNL d   1      -3.270   0.924   4.223  0.00  0.00     0.150 A 
ATOM      5  C4  UNL d   1      -2.936   1.450   2.980  0.00  0.00    -0.007 A 
ATOM      6  C5  UNL d   1      -3.030   0.649   1.843  0.00  0.00     0.039 A 
ENDROOT
BRANCH   4   7
ATOM      7  O   UNL d   1      -3.157   1.742   5.308  0.00  0.00    -0.526 OA
ATOM      8  H5  UNL d   1      -3.394   1.234   6.102  0.00  0.00     0.418 HD
ENDBRANCH   4   7
TORSDOF 1
ENDMDL
