MODEL 1
REMARK minimizedAffinity -3.61085725
REMARK minimizedRMSD -1
REMARK  1 active torsions:
REMARK  status: ('A' for Active; 'I' for Inactive)
REMARK    1  A    between atoms: C3_4  and  O_7 
ROOT
ATOM      1  C   UNL d   1      -5.418  -4.127   4.123  0.00  0.00    -0.033 A 
ATOM      2  C1  UNL d   1      -5.796  -3.121   3.233  0.00  0.00     0.039 A 
ATOM      3  C2  UNL d   1      -5.998  -3.420   1.884  0.00  0.00    -0.080 A 
ATOM      4  C3  UNL d   1      -5.819  -4.727   1.439  0.00  0.00     0.150 A 
ATOM      5  C4  UNL d   1      -5.445  -5.735   2.322  0.00  0.00    -0.007 A 
ATOM      6  C5  UNL d   1      -5.244  -5.435   3.668  0.00  0.00     0.039 A 
ENDROOT
BRANCH   4   7
ATOM      7  O   UNL d   1      -5.999  -5.066   0.131  0.00  0.00    -0.526 OA
ATOM      8  H5  UNL d   1      -6.227  -4.263  -0.366  0.00  0.00     0.418 HD
ENDBRANCH   4   7
TORSDOF 1
ENDMDL
