MODEL 1
REMARK minimizedAffinity 8.94554138
REMARK minimizedRMSD -1
REMARK  1 active torsions:
REMARK  status: ('A' for Active; 'I' for Inactive)
REMARK    1  A    between atoms: C3_4  and  O_7 
ROOT
ATOM      1  C   UNL d   1       1.550  -1.033  -1.849  0.00  0.00    -0.033 A 
ATOM      2  C1  UNL d   1       1.232  -2.364  -2.124  0.00  0.00     0.039 A 
ATOM      3  C2  UNL d   1       1.995  -3.395  -1.573  0.00  0.00    -0.080 A 
ATOM      4  C3  UNL d   1       3.072  -3.081  -0.747  0.00  0.00     0.150 A 
ATOM      5  C4  UNL d   1       3.391  -1.757  -0.465  0.00  0.00    -0.007 A 
ATOM      6  C5  UNL d   1       2.629  -0.730  -1.018  0.00  0.00     0.039 A 
ENDROOT
BRANCH   4   7
ATOM      7  O   UNL d   1       3.849  -4.053  -0.189  0.00  0.00    -0.526 OA
ATOM      8  H5  UNL d   1       3.527  -4.917  -0.495  0.00  0.00     0.418 HD
ENDBRANCH   4   7
TORSDOF 1
ENDMDL
