MODEL 1
REMARK minimizedAffinity 6.49830246
REMARK minimizedRMSD -1
REMARK  1 active torsions:
REMARK  status: ('A' for Active; 'I' for Inactive)
REMARK    1  A    between atoms: C3_4  and  O_7 
ROOT
ATOM      1  C   UNL d   1       1.930  -0.735  -2.630  0.00  0.00    -0.033 A 
ATOM      2  C1  UNL d   1       2.166  -0.480  -1.278  0.00  0.00     0.039 A 
ATOM      3  C2  UNL d   1       2.611  -1.504  -0.439  0.00  0.00    -0.080 A 
ATOM      4  C3  UNL d   1       2.816  -2.777  -0.965  0.00  0.00     0.150 A 
ATOM      5  C4  UNL d   1       2.587  -3.037  -2.312  0.00  0.00    -0.007 A 
ATOM      6  C5  UNL d   1       2.142  -2.014  -3.147  0.00  0.00     0.039 A 
ENDROOT
BRANCH   4   7
ATOM      7  O   UNL d   1       3.245  -3.809  -0.185  0.00  0.00    -0.526 OA
ATOM      8  H5  UNL d   1       3.334  -3.489   0.728  0.00  0.00     0.418 HD
ENDBRANCH   4   7
TORSDOF 1
ENDMDL
