MODEL 1
REMARK minimizedAffinity 8.61177635
REMARK minimizedRMSD -1
REMARK  1 active torsions:
REMARK  status: ('A' for Active; 'I' for Inactive)
REMARK    1  A    between atoms: C3_4  and  O_7 
ROOT
ATOM      1  C   UNL d   1       1.501  -0.502  -2.222  0.00  0.00    -0.033 A 
ATOM      2  C1  UNL d   1       2.184  -0.033  -1.098  0.00  0.00     0.039 A 
ATOM      3  C2  UNL d   1       2.909  -0.919  -0.299  0.00  0.00    -0.080 A 
ATOM      4  C3  UNL d   1       2.944  -2.270  -0.634  0.00  0.00     0.150 A 
ATOM      5  C4  UNL d   1       2.269  -2.744  -1.754  0.00  0.00    -0.007 A 
ATOM      6  C5  UNL d   1       1.545  -1.857  -2.550  0.00  0.00     0.039 A 
ENDROOT
BRANCH   4   7
ATOM      7  O   UNL d   1       3.634  -3.173   0.118  0.00  0.00    -0.526 OA
ATOM      8  H5  UNL d   1       4.027  -2.707   0.875  0.00  0.00     0.418 HD
ENDBRANCH   4   7
TORSDOF 1
ENDMDL
