MODEL 1
REMARK minimizedAffinity 6.39259052
REMARK minimizedRMSD -1
REMARK  1 active torsions:
REMARK  status: ('A' for Active; 'I' for Inactive)
REMARK    1  A    between atoms: C3_4  and  O_7 
ROOT
ATOM      1  C   UNL d   1      -2.899   0.474   2.467  0.00  0.00    -0.033 A 
ATOM      2  C1  UNL d   1      -1.789  -0.357   2.305  0.00  0.00     0.039 A 
ATOM      3  C2  UNL d   1      -0.647  -0.160   3.085  0.00  0.00    -0.080 A 
ATOM      4  C3  UNL d   1      -0.630   0.870   4.022  0.00  0.00     0.150 A 
ATOM      5  C4  UNL d   1      -1.734   1.699   4.191  0.00  0.00    -0.007 A 
ATOM      6  C5  UNL d   1      -2.872   1.501   3.410  0.00  0.00     0.039 A 
ENDROOT
BRANCH   4   7
ATOM      7  O   UNL d   1       0.463   1.105   4.802  0.00  0.00    -0.526 OA
ATOM      8  H5  UNL d   1       1.159   0.473   4.556  0.00  0.00     0.418 HD
ENDBRANCH   4   7
TORSDOF 1
ENDMDL
