MODEL 1
REMARK minimizedAffinity 2.92861199
REMARK minimizedRMSD -1
REMARK  1 active torsions:
REMARK  status: ('A' for Active; 'I' for Inactive)
REMARK    1  A    between atoms: C3_4  and  O_7 
ROOT
ATOM      1  C   UNL d   1       2.329  -4.104  -2.858  0.00  0.00    -0.033 A 
ATOM      2  C1  UNL d   1       2.537  -3.535  -4.116  0.00  0.00     0.039 A 
ATOM      3  C2  UNL d   1       3.767  -3.687  -4.760  0.00  0.00    -0.080 A 
ATOM      4  C3  UNL d   1       4.779  -4.411  -4.136  0.00  0.00     0.150 A 
ATOM      5  C4  UNL d   1       4.578  -4.984  -2.884  0.00  0.00    -0.007 A 
ATOM      6  C5  UNL d   1       3.350  -4.830  -2.243  0.00  0.00     0.039 A 
ENDROOT
BRANCH   4   7
ATOM      7  O   UNL d   1       5.998  -4.583  -4.722  0.00  0.00    -0.526 OA
ATOM      8  H5  UNL d   1       6.001  -4.108  -5.570  0.00  0.00     0.418 HD
ENDBRANCH   4   7
TORSDOF 1
ENDMDL
