MODEL 1
REMARK minimizedAffinity 4.79034853
REMARK minimizedRMSD -1
REMARK  1 active torsions:
REMARK  status: ('A' for Active; 'I' for Inactive)
REMARK    1  A    between atoms: C3_4  and  O_7 
ROOT
ATOM      1  C   UNL d   1       1.429   3.862  -0.958  0.00  0.00    -0.033 A 
ATOM      2  C1  UNL d   1       1.090   4.573   0.194  0.00  0.00     0.039 A 
ATOM      3  C2  UNL d   1       1.351   4.031   1.454  0.00  0.00    -0.080 A 
ATOM      4  C3  UNL d   1       1.952   2.779   1.548  0.00  0.00     0.150 A 
ATOM      5  C4  UNL d   1       2.296   2.066   0.404  0.00  0.00    -0.007 A 
ATOM      6  C5  UNL d   1       2.033   2.608  -0.853  0.00  0.00     0.039 A 
ENDROOT
BRANCH   4   7
ATOM      7  O   UNL d   1       2.222   2.207   2.755  0.00  0.00    -0.526 OA
ATOM      8  H5  UNL d   1       1.904   2.801   3.455  0.00  0.00     0.418 HD
ENDBRANCH   4   7
TORSDOF 1
ENDMDL
