MODEL 1
REMARK minimizedAffinity -1.84111762
REMARK minimizedRMSD -1
REMARK  1 active torsions:
REMARK  status: ('A' for Active; 'I' for Inactive)
REMARK    1  A    between atoms: C3_4  and  O_7 
ROOT
ATOM      1  C   UNL d   1       3.801  -4.259  -3.568  0.00  0.00    -0.033 A 
ATOM      2  C1  UNL d   1       4.711  -4.737  -2.623  0.00  0.00     0.039 A 
ATOM      3  C2  UNL d   1       4.576  -4.382  -1.279  0.00  0.00    -0.080 A 
ATOM      4  C3  UNL d   1       3.528  -3.551  -0.894  0.00  0.00     0.150 A 
ATOM      5  C4  UNL d   1       2.615  -3.074  -1.829  0.00  0.00    -0.007 A 
ATOM      6  C5  UNL d   1       2.752  -3.429  -3.171  0.00  0.00     0.039 A 
ENDROOT
BRANCH   4   7
ATOM      7  O   UNL d   1       3.358  -3.173   0.405  0.00  0.00    -0.526 OA
ATOM      8  H5  UNL d   1       4.079  -3.554   0.933  0.00  0.00     0.418 HD
ENDBRANCH   4   7
TORSDOF 1
ENDMDL
