MODEL 1
REMARK minimizedAffinity -0.560780168
REMARK minimizedRMSD -1
REMARK  1 active torsions:
REMARK  status: ('A' for Active; 'I' for Inactive)
REMARK    1  A    between atoms: C3_4  and  O_7 
ROOT
ATOM      1  C   UNL d   1       2.799  -4.084  -3.536  0.00  0.00    -0.033 A 
ATOM      2  C1  UNL d   1       4.061  -4.643  -3.326  0.00  0.00     0.039 A 
ATOM      3  C2  UNL d   1       4.528  -4.846  -2.026  0.00  0.00    -0.080 A 
ATOM      4  C3  UNL d   1       3.724  -4.488  -0.947  0.00  0.00     0.150 A 
ATOM      5  C4  UNL d   1       2.464  -3.935  -1.150  0.00  0.00    -0.007 A 
ATOM      6  C5  UNL d   1       2.000  -3.731  -2.448  0.00  0.00     0.039 A 
ENDROOT
BRANCH   4   7
ATOM      7  O   UNL d   1       4.139  -4.663   0.340  0.00  0.00    -0.526 OA
ATOM      8  H5  UNL d   1       5.040  -5.028   0.326  0.00  0.00     0.418 HD
ENDBRANCH   4   7
TORSDOF 1
ENDMDL
