MODEL 1
REMARK minimizedAffinity 8.00021648
REMARK minimizedRMSD -1
REMARK  1 active torsions:
REMARK  status: ('A' for Active; 'I' for Inactive)
REMARK    1  A    between atoms: C3_4  and  O_7 
ROOT
ATOM      1  C   UNL d   1       1.129   1.270   5.667  0.00  0.00    -0.033 A 
ATOM      2  C1  UNL d   1       1.508   1.168   4.327  0.00  0.00     0.039 A 
ATOM      3  C2  UNL d   1       0.559   1.338   3.317  0.00  0.00    -0.080 A 
ATOM      4  C3  UNL d   1      -0.763   1.610   3.659  0.00  0.00     0.150 A 
ATOM      5  C4  UNL d   1      -1.146   1.717   4.992  0.00  0.00    -0.007 A 
ATOM      6  C5  UNL d   1      -0.197   1.546   6.000  0.00  0.00     0.039 A 
ENDROOT
BRANCH   4   7
ATOM      7  O   UNL d   1      -1.725   1.780   2.709  0.00  0.00    -0.526 OA
ATOM      8  H5  UNL d   1      -1.320   1.649   1.835  0.00  0.00     0.418 HD
ENDBRANCH   4   7
TORSDOF 1
ENDMDL
