MODEL 1
REMARK minimizedAffinity 15.604167
REMARK minimizedRMSD -1
REMARK  1 active torsions:
REMARK  status: ('A' for Active; 'I' for Inactive)
REMARK    1  A    between atoms: C3_4  and  O_7 
ROOT
ATOM      1  C   UNL d   1      -0.237   2.283   5.991  0.00  0.00    -0.033 A 
ATOM      2  C1  UNL d   1      -0.823   2.656   4.780  0.00  0.00     0.039 A 
ATOM      3  C2  UNL d   1      -0.206   2.322   3.572  0.00  0.00    -0.080 A 
ATOM      4  C3  UNL d   1       0.993   1.615   3.590  0.00  0.00     0.150 A 
ATOM      5  C4  UNL d   1       1.580   1.237   4.793  0.00  0.00    -0.007 A 
ATOM      6  C5  UNL d   1       0.963   1.572   5.998  0.00  0.00     0.039 A 
ENDROOT
BRANCH   4   7
ATOM      7  O   UNL d   1       1.634   1.270   2.437  0.00  0.00    -0.526 OA
ATOM      8  H5  UNL d   1       1.127   1.622   1.686  0.00  0.00     0.418 HD
ENDBRANCH   4   7
TORSDOF 1
ENDMDL
