MODEL 1
REMARK minimizedAffinity 4.2924943
REMARK minimizedRMSD -1
REMARK  1 active torsions:
REMARK  status: ('A' for Active; 'I' for Inactive)
REMARK    1  A    between atoms: C3_4  and  O_7 
ROOT
ATOM      1  C   UNL d   1       2.636  -2.147  -1.292  0.00  0.00    -0.033 A 
ATOM      2  C1  UNL d   1       2.387  -0.853  -0.832  0.00  0.00     0.039 A 
ATOM      3  C2  UNL d   1       1.924   0.126  -1.714  0.00  0.00    -0.080 A 
ATOM      4  C3  UNL d   1       1.715  -0.202  -3.050  0.00  0.00     0.150 A 
ATOM      5  C4  UNL d   1       1.958  -1.491  -3.514  0.00  0.00    -0.007 A 
ATOM      6  C5  UNL d   1       2.420  -2.467  -2.632  0.00  0.00     0.039 A 
ENDROOT
BRANCH   4   7
ATOM      7  O   UNL d   1       1.269   0.720  -3.949  0.00  0.00    -0.526 OA
ATOM      8  H5  UNL d   1       1.172   1.573  -3.493  0.00  0.00     0.418 HD
ENDBRANCH   4   7
TORSDOF 1
ENDMDL
