MODEL 1
REMARK minimizedAffinity 8.84006691
REMARK minimizedRMSD -1
REMARK  1 active torsions:
REMARK  status: ('A' for Active; 'I' for Inactive)
REMARK    1  A    between atoms: C3_4  and  O_7 
ROOT
ATOM      1  C   UNL d   1       1.784  -4.887  -3.370  0.00  0.00    -0.033 A 
ATOM      2  C1  UNL d   1       2.212  -3.847  -2.543  0.00  0.00     0.039 A 
ATOM      3  C2  UNL d   1       3.488  -3.882  -1.977  0.00  0.00    -0.080 A 
ATOM      4  C3  UNL d   1       4.325  -4.961  -2.247  0.00  0.00     0.150 A 
ATOM      5  C4  UNL d   1       3.907  -5.999  -3.073  0.00  0.00    -0.007 A 
ATOM      6  C5  UNL d   1       2.632  -5.963  -3.636  0.00  0.00     0.039 A 
ENDROOT
BRANCH   4   7
ATOM      7  O   UNL d   1       5.577  -5.042  -1.714  0.00  0.00    -0.526 OA
ATOM      8  H5  UNL d   1       5.718  -4.270  -1.141  0.00  0.00     0.418 HD
ENDBRANCH   4   7
TORSDOF 1
ENDMDL
