MODEL 1
REMARK minimizedAffinity -3.91307235
REMARK minimizedRMSD -1
REMARK  1 active torsions:
REMARK  status: ('A' for Active; 'I' for Inactive)
REMARK    1  A    between atoms: C3_4  and  O_7 
ROOT
ATOM      1  C   UNL d   1       4.197  -3.762  -6.000  0.00  0.00    -0.033 A 
ATOM      2  C1  UNL d   1       3.149  -3.505  -5.114  0.00  0.00     0.039 A 
ATOM      3  C2  UNL d   1       3.133  -4.109  -3.855  0.00  0.00    -0.080 A 
ATOM      4  C3  UNL d   1       4.169  -4.966  -3.495  0.00  0.00     0.150 A 
ATOM      5  C4  UNL d   1       5.218  -5.224  -4.371  0.00  0.00    -0.007 A 
ATOM      6  C5  UNL d   1       5.232  -4.621  -5.628  0.00  0.00     0.039 A 
ENDROOT
BRANCH   4   7
ATOM      7  O   UNL d   1       4.194  -5.582  -2.279  0.00  0.00    -0.526 OA
ATOM      8  H5  UNL d   1       3.392  -5.333  -1.791  0.00  0.00     0.418 HD
ENDBRANCH   4   7
TORSDOF 1
ENDMDL
