MODEL 1
REMARK minimizedAffinity 9.52883148
REMARK minimizedRMSD -1
REMARK  1 active torsions:
REMARK  status: ('A' for Active; 'I' for Inactive)
REMARK    1  A    between atoms: C3_4  and  O_7 
ROOT
ATOM      1  C   UNL d   1      -5.494  -1.984   2.990  0.00  0.00    -0.033 A 
ATOM      2  C1  UNL d   1      -4.176  -2.205   2.587  0.00  0.00     0.039 A 
ATOM      3  C2  UNL d   1      -3.358  -3.073   3.312  0.00  0.00    -0.080 A 
ATOM      4  C3  UNL d   1      -3.870  -3.714   4.437  0.00  0.00     0.150 A 
ATOM      5  C4  UNL d   1      -5.184  -3.502   4.842  0.00  0.00    -0.007 A 
ATOM      6  C5  UNL d   1      -5.999  -2.634   4.117  0.00  0.00     0.039 A 
ENDROOT
BRANCH   4   7
ATOM      7  O   UNL d   1      -3.108  -4.567   5.179  0.00  0.00    -0.526 OA
ATOM      8  H5  UNL d   1      -2.215  -4.594   4.798  0.00  0.00     0.418 HD
ENDBRANCH   4   7
TORSDOF 1
ENDMDL
