MODEL 1
REMARK minimizedAffinity 9.4365921
REMARK minimizedRMSD -1
REMARK  2 active torsions:
REMARK  status: ('A' for Active; 'I' for Inactive)
REMARK    1  A    between atoms: C2'_3  and  C1'_4 
REMARK    2  A    between atoms: C1'_4  and  C1_5 
ROOT
ATOM      1  C1  I4B d   1       1.813  -2.177   3.326  0.00  0.00    -0.075 A 
ATOM      2  C2  I4B d   1       2.486  -3.303   3.731  0.00  0.00     0.003 A 
ATOM      3  C3  I4B d   1       2.429  -3.720   5.082  0.00  0.00     0.002 A 
ATOM      4  C4  I4B d   1       1.733  -2.960   6.000  0.00  0.00    -0.004 A 
ATOM      5  C5  I4B d   1       1.032  -1.832   5.583  0.00  0.00     0.002 A 
ATOM      6  C6  I4B d   1       1.061  -1.445   4.236  0.00  0.00     0.003 A 
ENDROOT
BRANCH   1   7
ATOM      7  C1' I4B d   1       1.922  -1.746   1.898  0.00  0.00     0.060 C 
BRANCH   7   8
ATOM      8  C2' I4B d   1       2.676  -2.821   1.142  0.00  0.00    -0.013 C 
ATOM      9  C4' I4B d   1       1.736  -3.852   0.577  0.00  0.00     0.013 C 
ATOM     10  C3' I4B d   1       3.466  -2.155   0.055  0.00  0.00     0.013 C 
ENDBRANCH   7   8
ENDBRANCH   1   7
TORSDOF 2
ENDMDL
