MODEL 1
REMARK minimizedAffinity 4.77341366
REMARK minimizedRMSD -1
REMARK  2 active torsions:
REMARK  status: ('A' for Active; 'I' for Inactive)
REMARK    1  A    between atoms: C2'_3  and  C1'_4 
REMARK    2  A    between atoms: C1'_4  and  C1_5 
ROOT
ATOM      1  C1  I4B d   1      -5.896   3.884  -4.304  0.00  0.00    -0.075 A 
ATOM      2  C2  I4B d   1      -5.981   3.062  -3.208  0.00  0.00     0.003 A 
ATOM      3  C3  I4B d   1      -5.865   3.601  -1.903  0.00  0.00     0.002 A 
ATOM      4  C4  I4B d   1      -5.615   4.949  -1.744  0.00  0.00    -0.004 A 
ATOM      5  C5  I4B d   1      -5.552   5.783  -2.856  0.00  0.00     0.002 A 
ATOM      6  C6  I4B d   1      -5.706   5.250  -4.144  0.00  0.00     0.003 A 
ENDROOT
BRANCH   1   7
ATOM      7  C1' I4B d   1      -5.991   3.277  -5.668  0.00  0.00     0.060 C 
BRANCH   7   8
ATOM      8  C2' I4B d   1      -4.709   2.512  -5.929  0.00  0.00    -0.013 C 
ATOM      9  C4' I4B d   1      -3.525   3.440  -5.996  0.00  0.00     0.013 C 
ATOM     10  C3' I4B d   1      -4.543   1.500  -4.834  0.00  0.00     0.013 C 
ENDBRANCH   7   8
ENDBRANCH   1   7
TORSDOF 2
ENDMDL
