MODEL 1
REMARK minimizedAffinity 7.0894022
REMARK minimizedRMSD -1
REMARK  2 active torsions:
REMARK  status: ('A' for Active; 'I' for Inactive)
REMARK    1  A    between atoms: C2'_3  and  C1'_4 
REMARK    2  A    between atoms: C1'_4  and  C1_5 
ROOT
ATOM      1  C1  I4B d   1       2.267  -2.438   3.158  0.00  0.00    -0.075 A 
ATOM      2  C2  I4B d   1       2.174  -2.756   4.490  0.00  0.00     0.003 A 
ATOM      3  C3  I4B d   1       1.609  -1.835   5.405  0.00  0.00     0.002 A 
ATOM      4  C4  I4B d   1       1.198  -0.596   4.956  0.00  0.00    -0.004 A 
ATOM      5  C5  I4B d   1       1.272  -0.285   3.601  0.00  0.00     0.002 A 
ATOM      6  C6  I4B d   1       1.799  -1.216   2.694  0.00  0.00     0.003 A 
ENDROOT
BRANCH   1   7
ATOM      7  C1' I4B d   1       2.900  -3.421   2.225  0.00  0.00     0.060 C 
BRANCH   7   8
ATOM      8  C2' I4B d   1       1.833  -4.405   1.789  0.00  0.00    -0.013 C 
ATOM      9  C4' I4B d   1       1.871  -4.626   0.300  0.00  0.00     0.013 C 
ATOM     10  C3' I4B d   1       2.054  -5.688   2.533  0.00  0.00     0.013 C 
ENDBRANCH   7   8
ENDBRANCH   1   7
TORSDOF 2
ENDMDL
