MODEL 1
REMARK minimizedAffinity 9.7667799
REMARK minimizedRMSD -1
REMARK  2 active torsions:
REMARK  status: ('A' for Active; 'I' for Inactive)
REMARK    1  A    between atoms: C2'_3  and  C1'_4 
REMARK    2  A    between atoms: C1'_4  and  C1_5 
ROOT
ATOM      1  C1  I4B d   1      -0.997  -1.027   0.517  0.00  0.00    -0.075 A 
ATOM      2  C2  I4B d   1      -2.260  -0.584   0.213  0.00  0.00     0.003 A 
ATOM      3  C3  I4B d   1      -3.236  -1.489  -0.268  0.00  0.00     0.002 A 
ATOM      4  C4  I4B d   1      -2.894  -2.810  -0.477  0.00  0.00    -0.004 A 
ATOM      5  C5  I4B d   1      -1.620  -3.262  -0.146  0.00  0.00     0.002 A 
ATOM      6  C6  I4B d   1      -0.669  -2.367   0.366  0.00  0.00     0.003 A 
ENDROOT
BRANCH   1   7
ATOM      7  C1' I4B d   1       0.019  -0.037   0.992  0.00  0.00     0.060 C 
BRANCH   7   8
ATOM      8  C2' I4B d   1       0.846  -0.700   2.075  0.00  0.00    -0.013 C 
ATOM      9  C4' I4B d   1       2.118  -1.277   1.511  0.00  0.00     0.013 C 
ATOM     10  C3' I4B d   1       1.137   0.326   3.129  0.00  0.00     0.013 C 
ENDBRANCH   7   8
ENDBRANCH   1   7
TORSDOF 2
ENDMDL
