MODEL 1
REMARK minimizedAffinity 17.7483292
REMARK minimizedRMSD -1
REMARK  2 active torsions:
REMARK  status: ('A' for Active; 'I' for Inactive)
REMARK    1  A    between atoms: C2'_3  and  C1'_4 
REMARK    2  A    between atoms: C1'_4  and  C1_5 
ROOT
ATOM      1  C1  I4B d   1       0.476  -0.490   1.184  0.00  0.00    -0.075 A 
ATOM      2  C2  I4B d   1       0.448   0.825   0.793  0.00  0.00     0.003 A 
ATOM      3  C3  I4B d   1      -0.746   1.393   0.288  0.00  0.00     0.002 A 
ATOM      4  C4  I4B d   1      -1.868   0.602   0.145  0.00  0.00    -0.004 A 
ATOM      5  C5  I4B d   1      -1.844  -0.725   0.563  0.00  0.00     0.002 A 
ATOM      6  C6  I4B d   1      -0.669  -1.272   1.098  0.00  0.00     0.003 A 
ENDROOT
BRANCH   1   7
ATOM      7  C1' I4B d   1       1.763  -1.067   1.682  0.00  0.00     0.060 C 
BRANCH   7   8
ATOM      8  C2' I4B d   1       2.188  -2.160   0.722  0.00  0.00    -0.013 C 
ATOM      9  C4' I4B d   1       3.557  -1.887   0.157  0.00  0.00     0.013 C 
ATOM     10  C3' I4B d   1       2.156  -3.464   1.462  0.00  0.00     0.013 C 
ENDBRANCH   7   8
ENDBRANCH   1   7
TORSDOF 2
ENDMDL
