MODEL 1
REMARK minimizedAffinity 11.3091125
REMARK minimizedRMSD -1
REMARK  1 active torsions:
REMARK  status: ('A' for Active; 'I' for Inactive)
REMARK    1  A    between atoms: C1_2  and  C2_3 
ROOT
ATOM      1  C2  UNL d   1       1.781  -3.215   1.009  0.00  0.00    -0.073 A 
ATOM      2  C3  UNL d   1       2.731  -2.520   0.253  0.00  0.00    -0.002 A 
ATOM      3  C4  UNL d   1       2.769  -2.663  -1.135  0.00  0.00     0.004 A 
ATOM      4  C5  UNL d   1       1.855  -3.494  -1.781  0.00  0.00    -0.004 A 
ATOM      5  C6  UNL d   1       0.890  -4.188  -1.044  0.00  0.00    -0.075 A 
ATOM      6  C7  UNL d   1      -0.100  -5.089  -1.723  0.00  0.00     0.076 C 
ATOM      7  C8  UNL d   1       0.859  -4.042   0.350  0.00  0.00     0.001 A 
ENDROOT
BRANCH   1   8
ATOM      8  C1  UNL d   1       1.731  -3.060   2.507  0.00  0.00     0.053 C 
ATOM      9  C   UNL d   1       0.309  -2.885   3.015  0.00  0.00     0.018 C 
ENDBRANCH   1   8
TORSDOF 1
ENDMDL
