MODEL 1
REMARK minimizedAffinity 10.5694122
REMARK minimizedRMSD -1
REMARK  1 active torsions:
REMARK  status: ('A' for Active; 'I' for Inactive)
REMARK    1  A    between atoms: C1_2  and  C2_3 
ROOT
ATOM      1  C2  UNL d   1       3.050  -1.022  -1.423  0.00  0.00    -0.073 A 
ATOM      2  C3  UNL d   1       2.277  -0.372  -0.454  0.00  0.00    -0.002 A 
ATOM      3  C4  UNL d   1       2.712   0.831   0.103  0.00  0.00     0.004 A 
ATOM      4  C5  UNL d   1       3.918   1.399  -0.306  0.00  0.00    -0.004 A 
ATOM      5  C6  UNL d   1       4.698   0.771  -1.282  0.00  0.00    -0.075 A 
ATOM      6  C7  UNL d   1       6.000   1.367  -1.731  0.00  0.00     0.076 C 
ATOM      7  C8  UNL d   1       4.256  -0.439  -1.835  0.00  0.00     0.001 A 
ENDROOT
BRANCH   1   8
ATOM      8  C1  UNL d   1       2.581  -2.318  -2.032  0.00  0.00     0.053 C 
ATOM      9  C   UNL d   1       2.209  -3.344  -0.974  0.00  0.00     0.018 C 
ENDBRANCH   1   8
TORSDOF 1
ENDMDL
