MODEL 1
REMARK minimizedAffinity 8.31907558
REMARK minimizedRMSD -1
REMARK  1 active torsions:
REMARK  status: ('A' for Active; 'I' for Inactive)
REMARK    1  A    between atoms: C1_2  and  C2_3 
ROOT
ATOM      1  C2  UNL d   1       4.058   4.637   4.954  0.00  0.00    -0.073 A 
ATOM      2  C3  UNL d   1       4.812   4.084   5.995  0.00  0.00    -0.002 A 
ATOM      3  C4  UNL d   1       5.498   2.883   5.808  0.00  0.00     0.004 A 
ATOM      4  C5  UNL d   1       5.444   2.228   4.578  0.00  0.00    -0.004 A 
ATOM      5  C6  UNL d   1       4.705   2.771   3.522  0.00  0.00    -0.075 A 
ATOM      6  C7  UNL d   1       4.634   2.078   2.193  0.00  0.00     0.076 C 
ATOM      7  C8  UNL d   1       4.016   3.976   3.718  0.00  0.00     0.001 A 
ENDROOT
BRANCH   1   8
ATOM      8  C1  UNL d   1       3.320   5.937   5.150  0.00  0.00     0.053 C 
ATOM      9  C   UNL d   1       2.014   5.973   4.373  0.00  0.00     0.018 C 
ENDBRANCH   1   8
TORSDOF 1
ENDMDL
