MODEL 1
REMARK minimizedAffinity 18.8743782
REMARK minimizedRMSD -1
REMARK  0 active torsions:
REMARK  status: ('A' for Active; 'I' for Inactive)
ROOT
ATOM      1  C   UNL d   1      -3.370   1.883   2.994  0.00  0.00    -0.002 A 
ATOM      2  C1  UNL d   1      -2.826   1.486   4.208  0.00  0.00     0.010 A 
ATOM      3  C2  UNL d   1      -3.267   0.319   4.835  0.00  0.00     0.041 A 
ATOM      4  C3  UNL d   1      -4.272  -0.450   4.215  0.00  0.00    -0.075 A 
ATOM      5  S   UNL d   1      -4.967  -1.917   4.798  0.00  0.00     0.015 SA
ATOM      6  C4  UNL d   1      -6.000  -2.051   3.450  0.00  0.00     0.022 A 
ATOM      7  C5  UNL d   1      -5.832  -1.011   2.566  0.00  0.00     0.026 A 
ATOM      8  C6  UNL d   1      -4.833  -0.071   2.993  0.00  0.00    -0.082 A 
ATOM      9  C7  UNL d   1      -4.366   1.117   2.382  0.00  0.00     0.045 A 
ENDROOT
TORSDOF 0
ENDMDL
