MODEL 1
REMARK minimizedAffinity 17.599678
REMARK minimizedRMSD -1
REMARK  0 active torsions:
REMARK  status: ('A' for Active; 'I' for Inactive)
ROOT
ATOM      1  C   UNL d   1       1.277   1.144   4.352  0.00  0.00    -0.002 A 
ATOM      2  C1  UNL d   1       1.000   1.684   5.600  0.00  0.00     0.010 A 
ATOM      3  C2  UNL d   1      -0.298   2.081   5.930  0.00  0.00     0.041 A 
ATOM      4  C3  UNL d   1      -1.322   1.923   4.976  0.00  0.00    -0.075 A 
ATOM      5  S   UNL d   1      -2.986   2.337   5.159  0.00  0.00     0.015 SA
ATOM      6  C4  UNL d   1      -3.368   1.807   3.585  0.00  0.00     0.022 A 
ATOM      7  C5  UNL d   1      -2.265   1.322   2.922  0.00  0.00     0.026 A 
ATOM      8  C6  UNL d   1      -1.068   1.381   3.713  0.00  0.00    -0.082 A 
ATOM      9  C7  UNL d   1       0.258   0.989   3.408  0.00  0.00     0.045 A 
ENDROOT
TORSDOF 0
ENDMDL
