MODEL 1
REMARK minimizedAffinity 28.0610695
REMARK minimizedRMSD -1
REMARK  0 active torsions:
REMARK  status: ('A' for Active; 'I' for Inactive)
ROOT
ATOM      1  C   UNL d   1       0.569  -1.377  -1.078  0.00  0.00    -0.002 A 
ATOM      2  C1  UNL d   1       0.769  -0.835  -2.340  0.00  0.00     0.010 A 
ATOM      3  C2  UNL d   1       1.790   0.092  -2.561  0.00  0.00     0.041 A 
ATOM      4  C3  UNL d   1       2.615   0.467  -1.482  0.00  0.00    -0.075 A 
ATOM      5  S   UNL d   1       3.928   1.583  -1.518  0.00  0.00     0.015 SA
ATOM      6  C4  UNL d   1       4.255   1.366   0.141  0.00  0.00     0.022 A 
ATOM      7  C5  UNL d   1       3.393   0.467   0.723  0.00  0.00     0.026 A 
ATOM      8  C6  UNL d   1       2.434  -0.067  -0.203  0.00  0.00    -0.082 A 
ATOM      9  C7  UNL d   1       1.390  -1.003  -0.011  0.00  0.00     0.045 A 
ENDROOT
TORSDOF 0
ENDMDL
