MODEL 1
REMARK minimizedAffinity 29.5642815
REMARK minimizedRMSD -1
REMARK  0 active torsions:
REMARK  status: ('A' for Active; 'I' for Inactive)
ROOT
ATOM      1  C   UNL d   1      -1.502  -5.251  -3.556  0.00  0.00    -0.002 A 
ATOM      2  C1  UNL d   1      -1.870  -4.066  -2.935  0.00  0.00     0.010 A 
ATOM      3  C2  UNL d   1      -1.122  -3.560  -1.870  0.00  0.00     0.041 A 
ATOM      4  C3  UNL d   1       0.014  -4.270  -1.437  0.00  0.00    -0.075 A 
ATOM      5  S   UNL d   1       1.082  -3.840  -0.154  0.00  0.00     0.015 SA
ATOM      6  C4  UNL d   1       2.053  -5.219  -0.400  0.00  0.00     0.022 A 
ATOM      7  C5  UNL d   1       1.589  -5.999  -1.432  0.00  0.00     0.026 A 
ATOM      8  C6  UNL d   1       0.406  -5.465  -2.047  0.00  0.00    -0.082 A 
ATOM      9  C7  UNL d   1      -0.373  -5.953  -3.124  0.00  0.00     0.045 A 
ENDROOT
TORSDOF 0
ENDMDL
