MODEL 1
REMARK minimizedAffinity 13.6188993
REMARK minimizedRMSD -1
REMARK  0 active torsions:
REMARK  status: ('A' for Active; 'I' for Inactive)
ROOT
ATOM      1  C   UNL d   1       4.079   0.860  -0.701  0.00  0.00    -0.002 A 
ATOM      2  C1  UNL d   1       4.610  -0.119   0.127  0.00  0.00     0.010 A 
ATOM      3  C2  UNL d   1       3.935  -1.325   0.325  0.00  0.00     0.041 A 
ATOM      4  C3  UNL d   1       2.706  -1.533  -0.331  0.00  0.00    -0.075 A 
ATOM      5  S   UNL d   1       1.703  -2.932  -0.239  0.00  0.00     0.015 SA
ATOM      6  C4  UNL d   1       0.546  -2.264  -1.298  0.00  0.00     0.022 A 
ATOM      7  C5  UNL d   1       0.901  -1.005  -1.721  0.00  0.00     0.026 A 
ATOM      8  C6  UNL d   1       2.152  -0.563  -1.171  0.00  0.00    -0.082 A 
ATOM      9  C7  UNL d   1       2.860   0.649  -1.350  0.00  0.00     0.045 A 
ENDROOT
TORSDOF 0
ENDMDL
