MODEL 1
REMARK minimizedAffinity 16.8154469
REMARK minimizedRMSD -1
REMARK  0 active torsions:
REMARK  status: ('A' for Active; 'I' for Inactive)
ROOT
ATOM      1  C   UNL d   1       3.505   0.737  -0.298  0.00  0.00    -0.002 A 
ATOM      2  C1  UNL d   1       2.452  -0.005  -0.815  0.00  0.00     0.010 A 
ATOM      3  C2  UNL d   1       1.240  -0.091  -0.128  0.00  0.00     0.041 A 
ATOM      4  C3  UNL d   1       1.101   0.589   1.098  0.00  0.00    -0.075 A 
ATOM      5  S   UNL d   1      -0.292   0.628   2.113  0.00  0.00     0.015 SA
ATOM      6  C4  UNL d   1       0.478   1.631   3.257  0.00  0.00     0.022 A 
ATOM      7  C5  UNL d   1       1.766   1.938   2.889  0.00  0.00     0.026 A 
ATOM      8  C6  UNL d   1       2.146   1.344   1.638  0.00  0.00    -0.082 A 
ATOM      9  C7  UNL d   1       3.364   1.410   0.918  0.00  0.00     0.045 A 
ENDROOT
TORSDOF 0
ENDMDL
