MODEL 1
REMARK minimizedAffinity 16.4308243
REMARK minimizedRMSD -1
REMARK  0 active torsions:
REMARK  status: ('A' for Active; 'I' for Inactive)
ROOT
ATOM      1  C   UNL d   1       0.652  -3.796  -1.642  0.00  0.00    -0.002 A 
ATOM      2  C1  UNL d   1       1.542  -3.929  -0.585  0.00  0.00     0.010 A 
ATOM      3  C2  UNL d   1       2.208  -2.814  -0.073  0.00  0.00     0.041 A 
ATOM      4  C3  UNL d   1       1.961  -1.550  -0.644  0.00  0.00    -0.075 A 
ATOM      5  S   UNL d   1       2.661  -0.045  -0.179  0.00  0.00     0.015 SA
ATOM      6  C4  UNL d   1       1.795   0.811  -1.371  0.00  0.00     0.022 A 
ATOM      7  C5  UNL d   1       0.986  -0.016  -2.115  0.00  0.00     0.026 A 
ATOM      8  C6  UNL d   1       1.069  -1.391  -1.707  0.00  0.00    -0.082 A 
ATOM      9  C7  UNL d   1       0.410  -2.540  -2.206  0.00  0.00     0.045 A 
ENDROOT
TORSDOF 0
ENDMDL
