MODEL 1
REMARK minimizedAffinity 26.2500954
REMARK minimizedRMSD -1
REMARK  0 active torsions:
REMARK  status: ('A' for Active; 'I' for Inactive)
ROOT
ATOM      1  C   UNL d   1      -1.422  -5.347  -3.552  0.00  0.00    -0.002 A 
ATOM      2  C1  UNL d   1      -1.854  -4.209  -2.886  0.00  0.00     0.010 A 
ATOM      3  C2  UNL d   1      -1.132  -3.702  -1.804  0.00  0.00     0.041 A 
ATOM      4  C3  UNL d   1       0.045  -4.363  -1.400  0.00  0.00    -0.075 A 
ATOM      5  S   UNL d   1       1.091  -3.923  -0.103  0.00  0.00     0.015 SA
ATOM      6  C4  UNL d   1       2.137  -5.234  -0.403  0.00  0.00     0.022 A 
ATOM      7  C5  UNL d   1       1.713  -6.000  -1.464  0.00  0.00     0.026 A 
ATOM      8  C6  UNL d   1       0.501  -5.510  -2.056  0.00  0.00    -0.082 A 
ATOM      9  C7  UNL d   1      -0.254  -6.000  -3.149  0.00  0.00     0.045 A 
ENDROOT
TORSDOF 0
ENDMDL
