MODEL 1
REMARK minimizedAffinity 20.2075043
REMARK minimizedRMSD -1
REMARK  0 active torsions:
REMARK  status: ('A' for Active; 'I' for Inactive)
ROOT
ATOM      1  C   UNL d   1       0.449   1.067   1.475  0.00  0.00    -0.002 A 
ATOM      2  C1  UNL d   1       0.885   0.793   2.764  0.00  0.00     0.010 A 
ATOM      3  C2  UNL d   1      -0.014   0.794   3.833  0.00  0.00     0.041 A 
ATOM      4  C3  UNL d   1      -1.371   1.076   3.582  0.00  0.00    -0.075 A 
ATOM      5  S   UNL d   1      -2.651   1.132   4.735  0.00  0.00     0.015 SA
ATOM      6  C4  UNL d   1      -3.807   1.520   3.544  0.00  0.00     0.022 A 
ATOM      7  C5  UNL d   1      -3.247   1.609   2.292  0.00  0.00     0.026 A 
ATOM      8  C6  UNL d   1      -1.834   1.354   2.293  0.00  0.00    -0.082 A 
ATOM      9  C7  UNL d   1      -0.898   1.346   1.230  0.00  0.00     0.045 A 
ENDROOT
TORSDOF 0
ENDMDL
