MODEL 1
REMARK minimizedAffinity 9.07596111
REMARK minimizedRMSD -1
REMARK  1 active torsions:
REMARK  status: ('A' for Active; 'I' for Inactive)
REMARK    1  A    between atoms: C1_2  and  C2_3 
ROOT
ATOM      1  C2  UNL d   1      -4.923  -1.511   2.970  0.00  0.00    -0.081 A 
ATOM      2  C3  UNL d   1      -3.972  -1.370   3.988  0.00  0.00     0.006 A 
ATOM      3  C4  UNL d   1      -3.017  -0.352   3.929  0.00  0.00     0.002 A 
ATOM      4  C5  UNL d   1      -3.002   0.546   2.856  0.00  0.00    -0.080 A 
ATOM      5  C6  UNL d   1      -2.002   1.661   2.795  0.00  0.00     0.076 C 
ATOM      6  C7  UNL d   1      -3.942   0.394   1.830  0.00  0.00     0.002 A 
ATOM      7  C8  UNL d   1      -4.896  -0.624   1.889  0.00  0.00     0.006 A 
ENDROOT
BRANCH   1   8
ATOM      8  C1  UNL d   1      -5.995  -2.567   3.063  0.00  0.00     0.054 C 
ATOM      9  C   UNL d   1      -5.983  -3.476   1.843  0.00  0.00     0.018 C 
ENDBRANCH   1   8
TORSDOF 1
ENDMDL
