MODEL 1
REMARK minimizedAffinity 11.695775
REMARK minimizedRMSD -1
REMARK  1 active torsions:
REMARK  status: ('A' for Active; 'I' for Inactive)
REMARK    1  A    between atoms: C1_2  and  C2_3 
ROOT
ATOM      1  C2  UNL d   1      -2.914  -4.508  -4.139  0.00  0.00    -0.081 A 
ATOM      2  C3  UNL d   1      -3.028  -3.158  -3.785  0.00  0.00     0.006 A 
ATOM      3  C4  UNL d   1      -3.988  -2.346  -4.394  0.00  0.00     0.002 A 
ATOM      4  C5  UNL d   1      -4.854  -2.871  -5.359  0.00  0.00    -0.080 A 
ATOM      5  C6  UNL d   1      -5.909  -2.017  -5.998  0.00  0.00     0.076 C 
ATOM      6  C7  UNL d   1      -4.728  -4.215  -5.725  0.00  0.00     0.002 A 
ATOM      7  C8  UNL d   1      -3.768  -5.028  -5.117  0.00  0.00     0.006 A 
ENDROOT
BRANCH   1   8
ATOM      8  C1  UNL d   1      -1.923  -5.402  -3.438  0.00  0.00     0.054 C 
ATOM      9  C   UNL d   1      -2.395  -5.759  -2.036  0.00  0.00     0.018 C 
ENDBRANCH   1   8
TORSDOF 1
ENDMDL
