MODEL 1
REMARK minimizedAffinity 18.1096745
REMARK minimizedRMSD -1
REMARK  1 active torsions:
REMARK  status: ('A' for Active; 'I' for Inactive)
REMARK    1  A    between atoms: C1_2  and  C2_3 
ROOT
ATOM      1  C2  UNL d   1       2.524  -0.172  -2.743  0.00  0.00    -0.081 A 
ATOM      2  C3  UNL d   1       2.456  -0.928  -1.567  0.00  0.00     0.006 A 
ATOM      3  C4  UNL d   1       3.049  -0.464  -0.391  0.00  0.00     0.002 A 
ATOM      4  C5  UNL d   1       3.713   0.768  -0.369  0.00  0.00    -0.080 A 
ATOM      5  C6  UNL d   1       4.328   1.292   0.894  0.00  0.00     0.076 C 
ATOM      6  C7  UNL d   1       3.796   1.515  -1.549  0.00  0.00     0.002 A 
ATOM      7  C8  UNL d   1       3.203   1.051  -2.725  0.00  0.00     0.006 A 
ENDROOT
BRANCH   1   8
ATOM      8  C1  UNL d   1       1.829  -0.640  -3.996  0.00  0.00     0.054 C 
ATOM      9  C   UNL d   1       2.365   0.078  -5.227  0.00  0.00     0.018 C 
ENDBRANCH   1   8
TORSDOF 1
ENDMDL
