MODEL 1
REMARK minimizedAffinity 6.3592701
REMARK minimizedRMSD -1
REMARK  1 active torsions:
REMARK  status: ('A' for Active; 'I' for Inactive)
REMARK    1  A    between atoms: C1_2  and  C2_3 
ROOT
ATOM      1  C2  UNL d   1       2.014  -0.138  -1.269  0.00  0.00    -0.081 A 
ATOM      2  C3  UNL d   1       1.525   0.324  -0.041  0.00  0.00     0.006 A 
ATOM      3  C4  UNL d   1       1.562   1.685   0.270  0.00  0.00     0.002 A 
ATOM      4  C5  UNL d   1       2.081   2.608  -0.645  0.00  0.00    -0.080 A 
ATOM      5  C6  UNL d   1       2.099   4.076  -0.336  0.00  0.00     0.076 C 
ATOM      6  C7  UNL d   1       2.586   2.145  -1.864  0.00  0.00     0.002 A 
ATOM      7  C8  UNL d   1       2.550   0.784  -2.175  0.00  0.00     0.006 A 
ENDROOT
BRANCH   1   8
ATOM      8  C1  UNL d   1       1.916  -1.597  -1.633  0.00  0.00     0.054 C 
ATOM      9  C   UNL d   1       1.618  -2.454  -0.411  0.00  0.00     0.018 C 
ENDBRANCH   1   8
TORSDOF 1
ENDMDL
