MODEL 1
REMARK minimizedAffinity 12.3235674
REMARK minimizedRMSD -1
REMARK  1 active torsions:
REMARK  status: ('A' for Active; 'I' for Inactive)
REMARK    1  A    between atoms: C1_2  and  C2_3 
ROOT
ATOM      1  C2  UNL d   1      -2.928   4.700  -5.461  0.00  0.00    -0.081 A 
ATOM      2  C3  UNL d   1      -2.553   3.463  -6.000  0.00  0.00     0.006 A 
ATOM      3  C4  UNL d   1      -1.478   2.753  -5.460  0.00  0.00     0.002 A 
ATOM      4  C5  UNL d   1      -0.766   3.263  -4.369  0.00  0.00    -0.080 A 
ATOM      5  C6  UNL d   1       0.370   2.496  -3.761  0.00  0.00     0.076 C 
ATOM      6  C7  UNL d   1      -1.131   4.507  -3.841  0.00  0.00     0.002 A 
ATOM      7  C8  UNL d   1      -2.205   5.218  -4.381  0.00  0.00     0.006 A 
ENDROOT
BRANCH   1   8
ATOM      8  C1  UNL d   1      -4.128   5.438  -5.999  0.00  0.00     0.054 C 
ATOM      9  C   UNL d   1      -5.367   4.554  -6.000  0.00  0.00     0.018 C 
ENDBRANCH   1   8
TORSDOF 1
ENDMDL
