MODEL 1
REMARK minimizedAffinity 17.9730301
REMARK minimizedRMSD -1
REMARK  1 active torsions:
REMARK  status: ('A' for Active; 'I' for Inactive)
REMARK    1  A    between atoms: C1_2  and  C2_3 
ROOT
ATOM      1  C2  UNL d   1      -0.261  -1.856  -3.622  0.00  0.00    -0.081 A 
ATOM      2  C3  UNL d   1       0.653  -1.023  -2.964  0.00  0.00     0.006 A 
ATOM      3  C4  UNL d   1       1.811  -0.590  -3.614  0.00  0.00     0.002 A 
ATOM      4  C5  UNL d   1       2.072  -0.976  -4.933  0.00  0.00    -0.080 A 
ATOM      5  C6  UNL d   1       3.297  -0.494  -5.652  0.00  0.00     0.076 C 
ATOM      6  C7  UNL d   1       1.168  -1.822  -5.584  0.00  0.00     0.002 A 
ATOM      7  C8  UNL d   1       0.010  -2.256  -4.935  0.00  0.00     0.006 A 
ENDROOT
BRANCH   1   8
ATOM      8  C1  UNL d   1      -1.542  -2.271  -2.946  0.00  0.00     0.054 C 
ATOM      9  C   UNL d   1      -1.496  -3.733  -2.523  0.00  0.00     0.018 C 
ENDBRANCH   1   8
TORSDOF 1
ENDMDL
