MODEL 1
REMARK minimizedAffinity 15.0193129
REMARK minimizedRMSD -1
REMARK  1 active torsions:
REMARK  status: ('A' for Active; 'I' for Inactive)
REMARK    1  A    between atoms: C1_2  and  C2_3 
ROOT
ATOM      1  C2  UNL d   1      -1.282   0.315   2.919  0.00  0.00    -0.081 A 
ATOM      2  C3  UNL d   1      -2.454   1.041   2.674  0.00  0.00     0.006 A 
ATOM      3  C4  UNL d   1      -3.696   0.401   2.670  0.00  0.00     0.002 A 
ATOM      4  C5  UNL d   1      -3.787  -0.972   2.919  0.00  0.00    -0.080 A 
ATOM      5  C6  UNL d   1      -5.117  -1.666   2.948  0.00  0.00     0.076 C 
ATOM      6  C7  UNL d   1      -2.615  -1.701   3.147  0.00  0.00     0.002 A 
ATOM      7  C8  UNL d   1      -1.373  -1.062   3.150  0.00  0.00     0.006 A 
ENDROOT
BRANCH   1   8
ATOM      8  C1  UNL d   1       0.052   1.014   2.987  0.00  0.00     0.054 C 
ATOM      9  C   UNL d   1       0.777   0.696   4.287  0.00  0.00     0.018 C 
ENDBRANCH   1   8
TORSDOF 1
ENDMDL
