MODEL 1
REMARK minimizedAffinity 21.1549873
REMARK minimizedRMSD -1
REMARK  1 active torsions:
REMARK  status: ('A' for Active; 'I' for Inactive)
REMARK    1  A    between atoms: C1_2  and  C2_3 
ROOT
ATOM      1  C2  UNL d   1      -2.456  -3.738  -3.549  0.00  0.00    -0.081 A 
ATOM      2  C3  UNL d   1      -1.169  -3.376  -3.964  0.00  0.00     0.006 A 
ATOM      3  C4  UNL d   1      -0.055  -4.098  -3.530  0.00  0.00     0.002 A 
ATOM      4  C5  UNL d   1      -0.210  -5.198  -2.680  0.00  0.00    -0.080 A 
ATOM      5  C6  UNL d   1       0.975  -6.000  -2.230  0.00  0.00     0.076 C 
ATOM      6  C7  UNL d   1      -1.494  -5.549  -2.250  0.00  0.00     0.002 A 
ATOM      7  C8  UNL d   1      -2.608  -4.827  -2.684  0.00  0.00     0.006 A 
ENDROOT
BRANCH   1   8
ATOM      8  C1  UNL d   1      -3.665  -3.001  -4.067  0.00  0.00     0.054 C 
ATOM      9  C   UNL d   1      -4.503  -3.885  -4.979  0.00  0.00     0.018 C 
ENDBRANCH   1   8
TORSDOF 1
ENDMDL
