MODEL 1
REMARK minimizedAffinity 23.2452545
REMARK minimizedRMSD -1
REMARK  1 active torsions:
REMARK  status: ('A' for Active; 'I' for Inactive)
REMARK    1  A    between atoms: C1_2  and  C2_3 
ROOT
ATOM      1  C2  UNL d   1       1.978  -0.084  -2.331  0.00  0.00    -0.081 A 
ATOM      2  C3  UNL d   1       2.535   1.200  -2.377  0.00  0.00     0.006 A 
ATOM      3  C4  UNL d   1       3.247   1.702  -1.284  0.00  0.00     0.002 A 
ATOM      4  C5  UNL d   1       3.419   0.927  -0.133  0.00  0.00    -0.080 A 
ATOM      5  C6  UNL d   1       4.207   1.442   1.035  0.00  0.00     0.076 C 
ATOM      6  C7  UNL d   1       2.848  -0.349  -0.080  0.00  0.00     0.002 A 
ATOM      7  C8  UNL d   1       2.136  -0.852  -1.172  0.00  0.00     0.006 A 
ENDROOT
BRANCH   1   8
ATOM      8  C1  UNL d   1       1.265  -0.653  -3.531  0.00  0.00     0.054 C 
ATOM      9  C   UNL d   1       2.072  -0.444  -4.805  0.00  0.00     0.018 C 
ENDBRANCH   1   8
TORSDOF 1
ENDMDL
