MODEL 1
REMARK minimizedAffinity 15.3661995
REMARK minimizedRMSD -1
REMARK  1 active torsions:
REMARK  status: ('A' for Active; 'I' for Inactive)
REMARK    1  A    between atoms: C1_2  and  C2_3 
ROOT
ATOM      1  C2  UNL d   1      -2.329   1.589   5.290  0.00  0.00    -0.081 A 
ATOM      2  C3  UNL d   1      -3.334   2.264   5.993  0.00  0.00     0.006 A 
ATOM      3  C4  UNL d   1      -4.517   2.639   5.351  0.00  0.00     0.002 A 
ATOM      4  C5  UNL d   1      -4.718   2.338   4.000  0.00  0.00    -0.080 A 
ATOM      5  C6  UNL d   1      -5.996   2.708   3.307  0.00  0.00     0.076 C 
ATOM      6  C7  UNL d   1      -3.706   1.679   3.293  0.00  0.00     0.002 A 
ATOM      7  C8  UNL d   1      -2.523   1.305   3.934  0.00  0.00     0.006 A 
ENDROOT
BRANCH   1   8
ATOM      8  C1  UNL d   1      -1.079   1.126   5.995  0.00  0.00     0.054 C 
ATOM      9  C   UNL d   1      -0.012   2.211   5.998  0.00  0.00     0.018 C 
ENDBRANCH   1   8
TORSDOF 1
ENDMDL
