MODEL 1
REMARK minimizedAffinity 19.6934853
REMARK minimizedRMSD -1
REMARK  1 active torsions:
REMARK  status: ('A' for Active; 'I' for Inactive)
REMARK    1  A    between atoms: C1_2  and  C2_3 
ROOT
ATOM      1  C2  UNL d   1       0.823  -0.331  -3.027  0.00  0.00    -0.081 A 
ATOM      2  C3  UNL d   1      -0.555  -0.580  -2.999  0.00  0.00     0.006 A 
ATOM      3  C4  UNL d   1      -1.463   0.423  -3.349  0.00  0.00     0.002 A 
ATOM      4  C5  UNL d   1      -1.008   1.687  -3.739  0.00  0.00    -0.080 A 
ATOM      5  C6  UNL d   1      -1.971   2.763  -4.146  0.00  0.00     0.076 C 
ATOM      6  C7  UNL d   1       0.367   1.941  -3.750  0.00  0.00     0.002 A 
ATOM      7  C8  UNL d   1       1.275   0.939  -3.400  0.00  0.00     0.006 A 
ENDROOT
BRANCH   1   8
ATOM      8  C1  UNL d   1       1.806  -1.430  -2.713  0.00  0.00     0.054 C 
ATOM      9  C   UNL d   1       2.306  -2.104  -3.982  0.00  0.00     0.018 C 
ENDBRANCH   1   8
TORSDOF 1
ENDMDL
