MODEL 1
REMARK minimizedAffinity 12.5510931
REMARK minimizedRMSD -1
REMARK  1 active torsions:
REMARK  status: ('A' for Active; 'I' for Inactive)
REMARK    1  A    between atoms: C1_2  and  C2_3 
ROOT
ATOM      1  C2  UNL d   1       0.137   1.167   3.186  0.00  0.00    -0.081 A 
ATOM      2  C3  UNL d   1      -1.053   1.864   3.430  0.00  0.00     0.006 A 
ATOM      3  C4  UNL d   1      -2.276   1.352   2.993  0.00  0.00     0.002 A 
ATOM      4  C5  UNL d   1      -2.333   0.131   2.311  0.00  0.00    -0.080 A 
ATOM      5  C6  UNL d   1      -3.643  -0.444   1.863  0.00  0.00     0.076 C 
ATOM      6  C7  UNL d   1      -1.143  -0.557   2.052  0.00  0.00     0.002 A 
ATOM      7  C8  UNL d   1       0.081  -0.045   2.488  0.00  0.00     0.006 A 
ENDROOT
BRANCH   1   8
ATOM      8  C1  UNL d   1       1.451   1.684   3.712  0.00  0.00     0.054 C 
ATOM      9  C   UNL d   1       1.533   1.546   5.226  0.00  0.00     0.018 C 
ENDBRANCH   1   8
TORSDOF 1
ENDMDL
