MODEL 1
REMARK minimizedAffinity 1.68289602
REMARK minimizedRMSD -1
REMARK  1 active torsions:
REMARK  status: ('A' for Active; 'I' for Inactive)
REMARK    1  A    between atoms: C1_2  and  C2_3 
ROOT
ATOM      1  C2  UNL d   1      -3.799  -4.426  -5.092  0.00  0.00    -0.081 A 
ATOM      2  C3  UNL d   1      -2.593  -3.753  -5.318  0.00  0.00     0.006 A 
ATOM      3  C4  UNL d   1      -1.478  -4.007  -4.515  0.00  0.00     0.002 A 
ATOM      4  C5  UNL d   1      -1.550  -4.942  -3.477  0.00  0.00    -0.080 A 
ATOM      5  C6  UNL d   1      -0.353  -5.246  -2.626  0.00  0.00     0.076 C 
ATOM      6  C7  UNL d   1      -2.760  -5.602  -3.240  0.00  0.00     0.002 A 
ATOM      7  C8  UNL d   1      -3.875  -5.349  -4.042  0.00  0.00     0.006 A 
ENDROOT
BRANCH   1   8
ATOM      8  C1  UNL d   1      -4.983  -4.203  -5.997  0.00  0.00     0.054 C 
ATOM      9  C   UNL d   1      -5.913  -5.408  -6.000  0.00  0.00     0.018 C 
ENDBRANCH   1   8
TORSDOF 1
ENDMDL
