MODEL 1
REMARK minimizedAffinity 12.5853443
REMARK minimizedRMSD -1
REMARK  1 active torsions:
REMARK  status: ('A' for Active; 'I' for Inactive)
REMARK    1  A    between atoms: C1_2  and  C2_3 
ROOT
ATOM      1  C2  UNL d   1       1.107   3.738  -1.436  0.00  0.00    -0.081 A 
ATOM      2  C3  UNL d   1       0.182   3.384  -2.427  0.00  0.00     0.006 A 
ATOM      3  C4  UNL d   1       0.209   2.109  -2.997  0.00  0.00     0.002 A 
ATOM      4  C5  UNL d   1       1.154   1.165  -2.582  0.00  0.00    -0.080 A 
ATOM      5  C6  UNL d   1       1.173  -0.217  -3.164  0.00  0.00     0.076 C 
ATOM      6  C7  UNL d   1       2.088   1.524  -1.605  0.00  0.00     0.002 A 
ATOM      7  C8  UNL d   1       2.063   2.799  -1.035  0.00  0.00     0.006 A 
ENDROOT
BRANCH   1   8
ATOM      8  C1  UNL d   1       1.040   5.090  -0.774  0.00  0.00     0.054 C 
ATOM      9  C   UNL d   1       2.162   5.998  -1.256  0.00  0.00     0.018 C 
ENDBRANCH   1   8
TORSDOF 1
ENDMDL
