MODEL 1
REMARK minimizedAffinity 6.98355675
REMARK minimizedRMSD -1
REMARK  1 active torsions:
REMARK  status: ('A' for Active; 'I' for Inactive)
REMARK    1  A    between atoms: C1_2  and  C2_3 
ROOT
ATOM      1  C2  UNL d   1       0.807   3.603  -1.542  0.00  0.00    -0.081 A 
ATOM      2  C3  UNL d   1       0.953   4.156  -0.264  0.00  0.00     0.006 A 
ATOM      3  C4  UNL d   1       1.468   3.391   0.785  0.00  0.00     0.002 A 
ATOM      4  C5  UNL d   1       1.854   2.063   0.572  0.00  0.00    -0.080 A 
ATOM      5  C6  UNL d   1       2.437   1.240   1.682  0.00  0.00     0.076 C 
ATOM      6  C7  UNL d   1       1.692   1.505  -0.701  0.00  0.00     0.002 A 
ATOM      7  C8  UNL d   1       1.176   2.269  -1.749  0.00  0.00     0.006 A 
ENDROOT
BRANCH   1   8
ATOM      8  C1  UNL d   1       0.313   4.445  -2.690  0.00  0.00     0.054 C 
ATOM      9  C   UNL d   1      -1.096   4.043  -3.105  0.00  0.00     0.018 C 
ENDBRANCH   1   8
TORSDOF 1
ENDMDL
