MODEL 1
REMARK minimizedAffinity 4.2534132
REMARK minimizedRMSD -1
REMARK  0 active torsions:
REMARK  status: ('A' for Active; 'I' for Inactive)
ROOT
ATOM      1  C   UNL d   1       4.185  -4.936  -3.068  0.00  0.00    -0.002 A 
ATOM      2  C1  UNL d   1       3.776  -4.125  -4.116  0.00  0.00     0.010 A 
ATOM      3  C2  UNL d   1       3.033  -2.969  -3.871  0.00  0.00     0.041 A 
ATOM      4  C3  UNL d   1       2.706  -2.637  -2.542  0.00  0.00    -0.075 A 
ATOM      5  S   UNL d   1       1.805  -1.270  -2.002  0.00  0.00     0.015 SA
ATOM      6  C4  UNL d   1       1.943  -1.730  -0.367  0.00  0.00     0.022 A 
ATOM      7  C5  UNL d   1       2.656  -2.896  -0.218  0.00  0.00     0.026 A 
ATOM      8  C6  UNL d   1       3.107  -3.438  -1.469  0.00  0.00    -0.082 A 
ATOM      9  C7  UNL d   1       3.859  -4.605  -1.750  0.00  0.00     0.045 A 
ENDROOT
TORSDOF 0
ENDMDL
