MODEL 1
REMARK minimizedAffinity 5.05462503
REMARK minimizedRMSD -1
REMARK  0 active torsions:
REMARK  status: ('A' for Active; 'I' for Inactive)
ROOT
ATOM      1  C   UNL d   1       1.859  -0.643  -1.485  0.00  0.00    -0.002 A 
ATOM      2  C1  UNL d   1       2.494  -1.155  -0.362  0.00  0.00     0.010 A 
ATOM      3  C2  UNL d   1       2.983  -2.463  -0.357  0.00  0.00     0.041 A 
ATOM      4  C3  UNL d   1       2.824  -3.254  -1.512  0.00  0.00    -0.075 A 
ATOM      5  S   UNL d   1       3.344  -4.883  -1.735  0.00  0.00     0.015 SA
ATOM      6  C4  UNL d   1       2.737  -4.937  -3.327  0.00  0.00     0.022 A 
ATOM      7  C5  UNL d   1       2.149  -3.750  -3.695  0.00  0.00     0.026 A 
ATOM      8  C6  UNL d   1       2.190  -2.761  -2.655  0.00  0.00    -0.082 A 
ATOM      9  C7  UNL d   1       1.704  -1.431  -2.629  0.00  0.00     0.045 A 
ENDROOT
TORSDOF 0
ENDMDL
