MODEL 1
REMARK minimizedAffinity 4.26512384
REMARK minimizedRMSD -1
REMARK  0 active torsions:
REMARK  status: ('A' for Active; 'I' for Inactive)
ROOT
ATOM      1  C   UNL d   1       2.094  -4.301  -3.484  0.00  0.00    -0.002 A 
ATOM      2  C1  UNL d   1       3.009  -5.328  -3.670  0.00  0.00     0.010 A 
ATOM      3  C2  UNL d   1       4.008  -5.569  -2.725  0.00  0.00     0.041 A 
ATOM      4  C3  UNL d   1       4.071  -4.755  -1.577  0.00  0.00    -0.075 A 
ATOM      5  S   UNL d   1       5.208  -4.866  -0.285  0.00  0.00     0.015 SA
ATOM      6  C4  UNL d   1       4.506  -3.553   0.544  0.00  0.00     0.022 A 
ATOM      7  C5  UNL d   1       3.430  -3.031  -0.133  0.00  0.00     0.026 A 
ATOM      8  C6  UNL d   1       3.161  -3.715  -1.367  0.00  0.00    -0.082 A 
ATOM      9  C7  UNL d   1       2.161  -3.495  -2.344  0.00  0.00     0.045 A 
ENDROOT
TORSDOF 0
ENDMDL
