MODEL 1
REMARK minimizedAffinity 10.1433554
REMARK minimizedRMSD -1
REMARK  0 active torsions:
REMARK  status: ('A' for Active; 'I' for Inactive)
ROOT
ATOM      1  C   UNL d   1       3.488  -4.626  -4.515  0.00  0.00    -0.002 A 
ATOM      2  C1  UNL d   1       2.347  -4.019  -4.010  0.00  0.00     0.010 A 
ATOM      3  C2  UNL d   1       2.192  -3.832  -2.635  0.00  0.00     0.041 A 
ATOM      4  C3  UNL d   1       3.213  -4.268  -1.768  0.00  0.00    -0.075 A 
ATOM      5  S   UNL d   1       3.242  -4.143  -0.049  0.00  0.00     0.015 SA
ATOM      6  C4  UNL d   1       4.769  -4.891   0.055  0.00  0.00     0.022 A 
ATOM      7  C5  UNL d   1       5.260  -5.235  -1.182  0.00  0.00     0.026 A 
ATOM      8  C6  UNL d   1       4.372  -4.881  -2.254  0.00  0.00    -0.082 A 
ATOM      9  C7  UNL d   1       4.499  -5.057  -3.652  0.00  0.00     0.045 A 
ENDROOT
TORSDOF 0
ENDMDL
