MODEL 1
REMARK minimizedAffinity 7.94479895
REMARK minimizedRMSD -1
REMARK  0 active torsions:
REMARK  status: ('A' for Active; 'I' for Inactive)
ROOT
ATOM      1  C   UNL d   1      -5.421  -1.394   2.571  0.00  0.00    -0.002 A 
ATOM      2  C1  UNL d   1      -4.398  -1.277   3.502  0.00  0.00     0.010 A 
ATOM      3  C2  UNL d   1      -3.935  -2.399   4.193  0.00  0.00     0.041 A 
ATOM      4  C3  UNL d   1      -4.522  -3.652   3.928  0.00  0.00    -0.075 A 
ATOM      5  S   UNL d   1      -4.117  -5.163   4.653  0.00  0.00     0.015 SA
ATOM      6  C4  UNL d   1      -5.291  -5.999   3.743  0.00  0.00     0.022 A 
ATOM      7  C5  UNL d   1      -5.984  -5.161   2.902  0.00  0.00     0.026 A 
ATOM      8  C6  UNL d   1      -5.552  -3.795   2.994  0.00  0.00    -0.082 A 
ATOM      9  C7  UNL d   1      -6.000  -2.639   2.311  0.00  0.00     0.045 A 
ENDROOT
TORSDOF 0
ENDMDL
