MODEL 1
REMARK minimizedAffinity 13.2731123
REMARK minimizedRMSD -1
REMARK  0 active torsions:
REMARK  status: ('A' for Active; 'I' for Inactive)
ROOT
ATOM      1  C   UNL d   1       2.154  -4.762  -3.849  0.00  0.00    -0.002 A 
ATOM      2  C1  UNL d   1       3.419  -4.372  -4.264  0.00  0.00     0.010 A 
ATOM      3  C2  UNL d   1       4.435  -4.149  -3.331  0.00  0.00     0.041 A 
ATOM      4  C3  UNL d   1       4.154  -4.328  -1.962  0.00  0.00    -0.075 A 
ATOM      5  S   UNL d   1       5.242  -4.113  -0.642  0.00  0.00     0.015 SA
ATOM      6  C4  UNL d   1       4.052  -4.535   0.503  0.00  0.00     0.022 A 
ATOM      7  C5  UNL d   1       2.849  -4.835  -0.090  0.00  0.00     0.026 A 
ATOM      8  C6  UNL d   1       2.888  -4.721  -1.521  0.00  0.00    -0.082 A 
ATOM      9  C7  UNL d   1       1.879  -4.938  -2.490  0.00  0.00     0.045 A 
ENDROOT
TORSDOF 0
ENDMDL
