MODEL 1
REMARK minimizedAffinity 8.51407719
REMARK minimizedRMSD -1
REMARK  0 active torsions:
REMARK  status: ('A' for Active; 'I' for Inactive)
ROOT
ATOM      1  C   UNL d   1       4.469  -5.585  -1.065  0.00  0.00    -0.002 A 
ATOM      2  C1  UNL d   1       3.941  -4.878   0.006  0.00  0.00     0.010 A 
ATOM      3  C2  UNL d   1       3.050  -3.824  -0.209  0.00  0.00     0.041 A 
ATOM      4  C3  UNL d   1       2.695  -3.490  -1.530  0.00  0.00    -0.075 A 
ATOM      5  S   UNL d   1       1.622  -2.238  -2.034  0.00  0.00     0.015 SA
ATOM      6  C4  UNL d   1       1.839  -2.612  -3.682  0.00  0.00     0.022 A 
ATOM      7  C5  UNL d   1       2.706  -3.664  -3.862  0.00  0.00     0.026 A 
ATOM      8  C6  UNL d   1       3.214  -4.188  -2.625  0.00  0.00    -0.082 A 
ATOM      9  C7  UNL d   1       4.114  -5.251  -2.375  0.00  0.00     0.045 A 
ENDROOT
TORSDOF 0
ENDMDL
