MODEL 1
REMARK minimizedAffinity 1.30593371
REMARK minimizedRMSD -1
REMARK  0 active torsions:
REMARK  status: ('A' for Active; 'I' for Inactive)
ROOT
ATOM      1  C   UNL d   1       2.817  -3.478  -4.230  0.00  0.00    -0.002 A 
ATOM      2  C1  UNL d   1       1.812  -2.769  -3.587  0.00  0.00     0.010 A 
ATOM      3  C2  UNL d   1       1.747  -2.734  -2.193  0.00  0.00     0.041 A 
ATOM      4  C3  UNL d   1       2.721  -3.429  -1.448  0.00  0.00    -0.075 A 
ATOM      5  S   UNL d   1       2.842  -3.526   0.269  0.00  0.00     0.015 SA
ATOM      6  C4  UNL d   1       4.231  -4.510   0.190  0.00  0.00     0.022 A 
ATOM      7  C5  UNL d   1       4.607  -4.768  -1.107  0.00  0.00     0.026 A 
ATOM      8  C6  UNL d   1       3.743  -4.148  -2.073  0.00  0.00    -0.082 A 
ATOM      9  C7  UNL d   1       3.781  -4.165  -3.488  0.00  0.00     0.045 A 
ENDROOT
TORSDOF 0
ENDMDL
