MODEL 1
REMARK minimizedAffinity 5.90900135
REMARK minimizedRMSD -1
REMARK  0 active torsions:
REMARK  status: ('A' for Active; 'I' for Inactive)
ROOT
ATOM      1  C   UNL d   1       1.828  -3.914  -3.273  0.00  0.00    -0.002 A 
ATOM      2  C1  UNL d   1       1.966  -5.294  -3.320  0.00  0.00     0.010 A 
ATOM      3  C2  UNL d   1       2.779  -5.959  -2.400  0.00  0.00     0.041 A 
ATOM      4  C3  UNL d   1       3.455  -5.206  -1.419  0.00  0.00    -0.075 A 
ATOM      5  S   UNL d   1       4.502  -5.805  -0.188  0.00  0.00     0.015 SA
ATOM      6  C4  UNL d   1       4.790  -4.243   0.431  0.00  0.00     0.022 A 
ATOM      7  C5  UNL d   1       4.111  -3.277  -0.273  0.00  0.00     0.026 A 
ATOM      8  C6  UNL d   1       3.330  -3.816  -1.350  0.00  0.00    -0.082 A 
ATOM      9  C7  UNL d   1       2.500  -3.171  -2.299  0.00  0.00     0.045 A 
ENDROOT
TORSDOF 0
ENDMDL
