MODEL 1
REMARK minimizedAffinity 21.0000706
REMARK minimizedRMSD -1
REMARK  0 active torsions:
REMARK  status: ('A' for Active; 'I' for Inactive)
ROOT
ATOM      1  C   UNL d   1      -1.310  -5.248  -2.091  0.00  0.00    -0.002 A 
ATOM      2  C1  UNL d   1      -0.298  -4.723  -2.882  0.00  0.00     0.010 A 
ATOM      3  C2  UNL d   1      -0.592  -4.127  -4.110  0.00  0.00     0.041 A 
ATOM      4  C3  UNL d   1      -1.934  -4.067  -4.534  0.00  0.00    -0.075 A 
ATOM      5  S   UNL d   1      -2.532  -3.384  -6.000  0.00  0.00     0.015 SA
ATOM      6  C4  UNL d   1      -4.145  -3.773  -5.611  0.00  0.00     0.022 A 
ATOM      7  C5  UNL d   1      -4.244  -4.409  -4.396  0.00  0.00     0.026 A 
ATOM      8  C6  UNL d   1      -2.971  -4.588  -3.755  0.00  0.00    -0.082 A 
ATOM      9  C7  UNL d   1      -2.640  -5.186  -2.515  0.00  0.00     0.045 A 
ENDROOT
TORSDOF 0
ENDMDL
