MODEL 1
REMARK minimizedAffinity 26.899313
REMARK minimizedRMSD -1
REMARK  0 active torsions:
REMARK  status: ('A' for Active; 'I' for Inactive)
ROOT
ATOM      1  C   UNL d   1       0.457   1.587   2.288  0.00  0.00    -0.002 A 
ATOM      2  C1  UNL d   1       0.848   1.639   3.618  0.00  0.00     0.010 A 
ATOM      3  C2  UNL d   1      -0.088   1.474   4.641  0.00  0.00     0.041 A 
ATOM      4  C3  UNL d   1      -1.437   1.251   4.301  0.00  0.00    -0.075 A 
ATOM      5  S   UNL d   1      -2.758   1.020   5.385  0.00  0.00     0.015 SA
ATOM      6  C4  UNL d   1      -3.872   0.847   4.107  0.00  0.00     0.022 A 
ATOM      7  C5  UNL d   1      -3.269   0.960   2.877  0.00  0.00     0.026 A 
ATOM      8  C6  UNL d   1      -1.855   1.194   2.968  0.00  0.00    -0.082 A 
ATOM      9  C7  UNL d   1      -0.882   1.367   1.954  0.00  0.00     0.045 A 
ENDROOT
TORSDOF 0
ENDMDL
