MODEL 1
REMARK minimizedAffinity 6.81163502
REMARK minimizedRMSD -1
REMARK  0 active torsions:
REMARK  status: ('A' for Active; 'I' for Inactive)
ROOT
ATOM      1  C   UNL d   1      -0.640   2.564   4.500  0.00  0.00     0.023 A 
ATOM      2  C1  UNL d   1       0.327   1.985   3.678  0.00  0.00     0.003 A 
ATOM      3  C2  UNL d   1      -0.059   1.200   2.590  0.00  0.00     0.048 A 
ATOM      4  C3  UNL d   1      -1.414   0.999   2.328  0.00  0.00     0.023 A 
ATOM      5  C4  UNL d   1      -2.385   1.577   3.147  0.00  0.00     0.048 A 
ATOM      6  C5  UNL d   1      -1.994   2.360   4.235  0.00  0.00     0.003 A 
ATOM      7  I   UNL d   1      -1.990  -0.169   0.709  0.00  0.00    -0.146 I 
ENDROOT
TORSDOF 0
ENDMDL
