MODEL 1
REMARK minimizedAffinity 4.33197784
REMARK minimizedRMSD -1
REMARK  0 active torsions:
REMARK  status: ('A' for Active; 'I' for Inactive)
ROOT
ATOM      1  C   UNL d   1      -0.566   0.913   1.208  0.00  0.00     0.023 A 
ATOM      2  C1  UNL d   1      -1.829   1.486   1.067  0.00  0.00     0.003 A 
ATOM      3  C2  UNL d   1      -2.761   1.390   2.102  0.00  0.00     0.048 A 
ATOM      4  C3  UNL d   1      -2.422   0.720   3.277  0.00  0.00     0.023 A 
ATOM      5  C4  UNL d   1      -1.159   0.145   3.424  0.00  0.00     0.048 A 
ATOM      6  C5  UNL d   1      -0.231   0.243   2.385  0.00  0.00     0.003 A 
ATOM      7  I   UNL d   1      -3.807   0.576   4.820  0.00  0.00    -0.146 I 
ENDROOT
TORSDOF 0
ENDMDL
