MODEL 1
REMARK minimizedAffinity 14.3110399
REMARK minimizedRMSD -1
REMARK  0 active torsions:
REMARK  status: ('A' for Active; 'I' for Inactive)
ROOT
ATOM      1  C   UNL d   1      -1.314   4.651  -4.318  0.00  0.00     0.023 A 
ATOM      2  C1  UNL d   1      -0.370   3.915  -3.603  0.00  0.00     0.003 A 
ATOM      3  C2  UNL d   1       0.936   3.798  -4.084  0.00  0.00     0.048 A 
ATOM      4  C3  UNL d   1       1.290   4.419  -5.281  0.00  0.00     0.023 A 
ATOM      5  C4  UNL d   1       0.348   5.158  -6.000  0.00  0.00     0.048 A 
ATOM      6  C5  UNL d   1      -0.956   5.272  -5.515  0.00  0.00     0.003 A 
ATOM      7  I   UNL d   1       3.233   4.246  -6.000  0.00  0.00    -0.146 I 
ENDROOT
TORSDOF 0
ENDMDL
