MODEL 1
REMARK minimizedAffinity 5.51021194
REMARK minimizedRMSD -1
REMARK  0 active torsions:
REMARK  status: ('A' for Active; 'I' for Inactive)
ROOT
ATOM      1  C   UNL d   1      -3.237   1.129   1.888  0.00  0.00     0.023 A 
ATOM      2  C1  UNL d   1      -2.442   0.705   0.823  0.00  0.00     0.003 A 
ATOM      3  C2  UNL d   1      -1.056   0.860   0.879  0.00  0.00     0.048 A 
ATOM      4  C3  UNL d   1      -0.470   1.439   2.004  0.00  0.00     0.023 A 
ATOM      5  C4  UNL d   1      -1.261   1.864   3.073  0.00  0.00     0.048 A 
ATOM      6  C5  UNL d   1      -2.647   1.708   3.012  0.00  0.00     0.003 A 
ATOM      7  I   UNL d   1       1.594   1.670   2.091  0.00  0.00    -0.146 I 
ENDROOT
TORSDOF 0
ENDMDL
