MODEL 1
REMARK minimizedAffinity 5.5333209
REMARK minimizedRMSD -1
REMARK  0 active torsions:
REMARK  status: ('A' for Active; 'I' for Inactive)
ROOT
ATOM      1  C   UNL d   1       0.959   1.159   2.490  0.00  0.00     0.023 A 
ATOM      2  C1  UNL d   1       0.178   2.255   2.856  0.00  0.00     0.003 A 
ATOM      3  C2  UNL d   1      -1.202   2.111   3.009  0.00  0.00     0.048 A 
ATOM      4  C3  UNL d   1      -1.795   0.867   2.795  0.00  0.00     0.023 A 
ATOM      5  C4  UNL d   1      -1.018  -0.233   2.430  0.00  0.00     0.048 A 
ATOM      6  C5  UNL d   1       0.362  -0.084   2.277  0.00  0.00     0.003 A 
ATOM      7  I   UNL d   1      -3.850   0.650   3.022  0.00  0.00    -0.146 I 
ENDROOT
TORSDOF 0
ENDMDL
