MODEL 1
REMARK minimizedAffinity 6.38785458
REMARK minimizedRMSD -1
REMARK  0 active torsions:
REMARK  status: ('A' for Active; 'I' for Inactive)
ROOT
ATOM      1  C   UNL d   1       3.294  -1.993  -3.940  0.00  0.00     0.023 A 
ATOM      2  C1  UNL d   1       2.861  -1.765  -5.246  0.00  0.00     0.003 A 
ATOM      3  C2  UNL d   1       2.696  -0.458  -5.710  0.00  0.00     0.048 A 
ATOM      4  C3  UNL d   1       2.966   0.616  -4.862  0.00  0.00     0.023 A 
ATOM      5  C4  UNL d   1       3.399   0.392  -3.554  0.00  0.00     0.048 A 
ATOM      6  C5  UNL d   1       3.562  -0.917  -3.095  0.00  0.00     0.003 A 
ATOM      7  I   UNL d   1       2.720   2.562  -5.549  0.00  0.00    -0.146 I 
ENDROOT
TORSDOF 0
ENDMDL
