MODEL 1
REMARK minimizedAffinity 4.54200315
REMARK minimizedRMSD -1
REMARK  0 active torsions:
REMARK  status: ('A' for Active; 'I' for Inactive)
ROOT
ATOM      1  C   UNL d   1       3.072  -1.367  -3.487  0.00  0.00     0.023 A 
ATOM      2  C1  UNL d   1       2.179  -1.334  -4.558  0.00  0.00     0.003 A 
ATOM      3  C2  UNL d   1       1.865  -0.119  -5.170  0.00  0.00     0.048 A 
ATOM      4  C3  UNL d   1       2.449   1.060  -4.706  0.00  0.00     0.023 A 
ATOM      5  C4  UNL d   1       3.344   1.032  -3.636  0.00  0.00     0.048 A 
ATOM      6  C5  UNL d   1       3.653  -0.186  -3.026  0.00  0.00     0.003 A 
ATOM      7  I   UNL d   1       1.983   2.870  -5.616  0.00  0.00    -0.146 I 
ENDROOT
TORSDOF 0
ENDMDL
