MODEL 1
REMARK minimizedAffinity 4.06431055
REMARK minimizedRMSD -1
REMARK  0 active torsions:
REMARK  status: ('A' for Active; 'I' for Inactive)
ROOT
ATOM      1  C   UNL d   1      -4.287  -1.495   5.980  0.00  0.00     0.023 A 
ATOM      2  C1  UNL d   1      -5.621  -1.087   5.990  0.00  0.00     0.003 A 
ATOM      3  C2  UNL d   1      -5.937   0.273   5.996  0.00  0.00     0.048 A 
ATOM      4  C3  UNL d   1      -4.914   1.220   5.991  0.00  0.00     0.023 A 
ATOM      5  C4  UNL d   1      -3.577   0.817   5.979  0.00  0.00     0.048 A 
ATOM      6  C5  UNL d   1      -3.267  -0.544   5.974  0.00  0.00     0.003 A 
ATOM      7  I   UNL d   1      -5.381   3.245   6.000  0.00  0.00    -0.146 I 
ENDROOT
TORSDOF 0
ENDMDL
