MODEL 1
REMARK minimizedAffinity 2.39081812
REMARK minimizedRMSD -1
REMARK  0 active torsions:
REMARK  status: ('A' for Active; 'I' for Inactive)
ROOT
ATOM      1  C   UNL d   1       2.875  -0.020   2.062  0.00  0.00     0.023 A 
ATOM      2  C1  UNL d   1       2.495   1.234   1.584  0.00  0.00     0.003 A 
ATOM      3  C2  UNL d   1       1.143   1.575   1.511  0.00  0.00     0.048 A 
ATOM      4  C3  UNL d   1       0.176   0.657   1.920  0.00  0.00     0.023 A 
ATOM      5  C4  UNL d   1       0.552  -0.599   2.400  0.00  0.00     0.048 A 
ATOM      6  C5  UNL d   1       1.905  -0.935   2.470  0.00  0.00     0.003 A 
ATOM      7  I   UNL d   1      -1.838   1.161   1.813  0.00  0.00    -0.146 I 
ENDROOT
TORSDOF 0
ENDMDL
