MODEL 1
REMARK minimizedAffinity 6.46861792
REMARK minimizedRMSD -1
REMARK  0 active torsions:
REMARK  status: ('A' for Active; 'I' for Inactive)
ROOT
ATOM      1  C   UNL d   1       0.596   1.479   3.542  0.00  0.00     0.023 A 
ATOM      2  C1  UNL d   1      -0.611   2.171   3.448  0.00  0.00     0.003 A 
ATOM      3  C2  UNL d   1      -1.515   1.866   2.429  0.00  0.00     0.048 A 
ATOM      4  C3  UNL d   1      -1.206   0.866   1.507  0.00  0.00     0.023 A 
ATOM      5  C4  UNL d   1       0.000   0.170   1.598  0.00  0.00     0.048 A 
ATOM      6  C5  UNL d   1       0.902   0.480   2.618  0.00  0.00     0.003 A 
ATOM      7  I   UNL d   1      -2.550   0.409  -0.011  0.00  0.00    -0.146 I 
ENDROOT
TORSDOF 0
ENDMDL
