MODEL 1
REMARK minimizedAffinity 6.28811121
REMARK minimizedRMSD -1
REMARK  0 active torsions:
REMARK  status: ('A' for Active; 'I' for Inactive)
ROOT
ATOM      1  C   UNL d   1      -1.581   1.246   0.874  0.00  0.00     0.023 A 
ATOM      2  C1  UNL d   1      -2.487   2.010   1.611  0.00  0.00     0.003 A 
ATOM      3  C2  UNL d   1      -3.753   1.500   1.907  0.00  0.00     0.048 A 
ATOM      4  C3  UNL d   1      -4.106   0.226   1.465  0.00  0.00     0.023 A 
ATOM      5  C4  UNL d   1      -3.203  -0.542   0.728  0.00  0.00     0.048 A 
ATOM      6  C5  UNL d   1      -1.939  -0.028   0.434  0.00  0.00     0.003 A 
ATOM      7  I   UNL d   1      -5.990  -0.534   1.905  0.00  0.00    -0.146 I 
ENDROOT
TORSDOF 0
ENDMDL
