MODEL 1
REMARK minimizedAffinity 3.03632855
REMARK minimizedRMSD -1
REMARK  0 active torsions:
REMARK  status: ('A' for Active; 'I' for Inactive)
ROOT
ATOM      1  C   UNL d   1       1.772  -0.136   1.828  0.00  0.00     0.023 A 
ATOM      2  C1  UNL d   1       0.794  -1.128   1.913  0.00  0.00     0.003 A 
ATOM      3  C2  UNL d   1      -0.549  -0.776   2.053  0.00  0.00     0.048 A 
ATOM      4  C3  UNL d   1      -0.910   0.570   2.106  0.00  0.00     0.023 A 
ATOM      5  C4  UNL d   1       0.064   1.566   2.020  0.00  0.00     0.048 A 
ATOM      6  C5  UNL d   1       1.407   1.210   1.881  0.00  0.00     0.003 A 
ATOM      7  I   UNL d   1      -2.909   1.097   2.315  0.00  0.00    -0.146 I 
ENDROOT
TORSDOF 0
ENDMDL
