MODEL 1
REMARK minimizedAffinity 11.7778692
REMARK minimizedRMSD -1
REMARK  0 active torsions:
REMARK  status: ('A' for Active; 'I' for Inactive)
ROOT
ATOM      1  C   UNL d   1       2.992  -1.870  -4.814  0.00  0.00     0.023 A 
ATOM      2  C1  UNL d   1       4.295  -2.337  -4.641  0.00  0.00     0.003 A 
ATOM      3  C2  UNL d   1       5.159  -1.687  -3.757  0.00  0.00     0.048 A 
ATOM      4  C3  UNL d   1       4.714  -0.571  -3.050  0.00  0.00     0.023 A 
ATOM      5  C4  UNL d   1       3.411  -0.100  -3.220  0.00  0.00     0.048 A 
ATOM      6  C5  UNL d   1       2.551  -0.753  -4.105  0.00  0.00     0.003 A 
ATOM      7  I   UNL d   1       5.999   0.399  -1.735  0.00  0.00    -0.146 I 
ENDROOT
TORSDOF 0
ENDMDL
