MODEL 1
REMARK minimizedAffinity 4.8379941
REMARK minimizedRMSD -1
REMARK  0 active torsions:
REMARK  status: ('A' for Active; 'I' for Inactive)
ROOT
ATOM      1  C   UNL d   1      -0.239   0.772   0.772  0.00  0.00     0.023 A 
ATOM      2  C1  UNL d   1       0.027   1.423   1.977  0.00  0.00     0.003 A 
ATOM      3  C2  UNL d   1      -1.023   1.792   2.819  0.00  0.00     0.048 A 
ATOM      4  C3  UNL d   1      -2.338   1.507   2.452  0.00  0.00     0.023 A 
ATOM      5  C4  UNL d   1      -2.609   0.855   1.247  0.00  0.00     0.048 A 
ATOM      6  C5  UNL d   1      -1.556   0.489   0.408  0.00  0.00     0.003 A 
ATOM      7  I   UNL d   1      -3.903   2.055   3.704  0.00  0.00    -0.146 I 
ENDROOT
TORSDOF 0
ENDMDL
