MODEL 1
REMARK minimizedAffinity 6.92505217
REMARK minimizedRMSD -1
REMARK  0 active torsions:
REMARK  status: ('A' for Active; 'I' for Inactive)
ROOT
ATOM      1  C   UNL d   1      -5.984  -1.105   3.939  0.00  0.00     0.023 A 
ATOM      2  C1  UNL d   1      -5.998   0.043   3.147  0.00  0.00     0.003 A 
ATOM      3  C2  UNL d   1      -5.864   1.301   3.737  0.00  0.00     0.048 A 
ATOM      4  C3  UNL d   1      -5.716   1.405   5.119  0.00  0.00     0.023 A 
ATOM      5  C4  UNL d   1      -5.700   0.259   5.916  0.00  0.00     0.048 A 
ATOM      6  C5  UNL d   1      -5.835  -0.997   5.322  0.00  0.00     0.003 A 
ATOM      7  I   UNL d   1      -5.516   3.277   6.000  0.00  0.00    -0.146 I 
ENDROOT
TORSDOF 0
ENDMDL
