MODEL 1
REMARK minimizedAffinity 3.80022311
REMARK minimizedRMSD -1
REMARK  0 active torsions:
REMARK  status: ('A' for Active; 'I' for Inactive)
ROOT
ATOM      1  C   UNL d   1      -2.924   1.473   1.887  0.00  0.00     0.023 A 
ATOM      2  C1  UNL d   1      -1.910   1.777   2.796  0.00  0.00     0.003 A 
ATOM      3  C2  UNL d   1      -0.592   1.406   2.524  0.00  0.00     0.048 A 
ATOM      4  C3  UNL d   1      -0.294   0.731   1.340  0.00  0.00     0.023 A 
ATOM      5  C4  UNL d   1      -1.305   0.426   0.427  0.00  0.00     0.048 A 
ATOM      6  C5  UNL d   1      -2.622   0.798   0.704  0.00  0.00     0.003 A 
ATOM      7  I   UNL d   1       1.667   0.178   0.932  0.00  0.00    -0.146 I 
ENDROOT
TORSDOF 0
ENDMDL
