MODEL 1
REMARK minimizedAffinity 8.52814198
REMARK minimizedRMSD -1
REMARK  0 active torsions:
REMARK  status: ('A' for Active; 'I' for Inactive)
ROOT
ATOM      1  C   UNL d   1      -2.564   1.316   2.146  0.00  0.00     0.023 A 
ATOM      2  C1  UNL d   1      -2.272   0.683   0.938  0.00  0.00     0.003 A 
ATOM      3  C2  UNL d   1      -0.962   0.290   0.652  0.00  0.00     0.048 A 
ATOM      4  C3  UNL d   1       0.050   0.532   1.581  0.00  0.00     0.023 A 
ATOM      5  C4  UNL d   1      -0.238   1.164   2.792  0.00  0.00     0.048 A 
ATOM      6  C5  UNL d   1      -1.548   1.556   3.072  0.00  0.00     0.003 A 
ATOM      7  I   UNL d   1       1.999  -0.053   1.159  0.00  0.00    -0.146 I 
ENDROOT
TORSDOF 0
ENDMDL
