MODEL 1
REMARK minimizedAffinity 2.48528147
REMARK minimizedRMSD -1
REMARK  0 active torsions:
REMARK  status: ('A' for Active; 'I' for Inactive)
ROOT
ATOM      1  O1  BZF d   1      -1.454   1.046  -4.816  0.00  0.00    -0.204 OA
ATOM      2  C2  BZF d   1      -0.744   0.990  -6.000  0.00  0.00     0.174 A 
ATOM      3  C3  BZF d   1       0.104  -0.059  -6.000  0.00  0.00    -0.012 A 
ATOM      4  C3A BZF d   1      -0.154  -0.751  -4.775  0.00  0.00    -0.107 A 
ATOM      5  C4  BZF d   1       0.362  -1.882  -4.209  0.00  0.00     0.055 A 
ATOM      6  C5  BZF d   1      -0.055  -2.249  -2.969  0.00  0.00    -0.016 A 
ATOM      7  C6  BZF d   1      -0.979  -1.507  -2.264  0.00  0.00     0.022 A 
ATOM      8  C7  BZF d   1      -1.523  -0.380  -2.786  0.00  0.00     0.029 A 
ATOM      9  C7A BZF d   1      -1.129  -0.025  -4.053  0.00  0.00     0.058 A 
ENDROOT
TORSDOF 0
ENDMDL
