MODEL 1
REMARK minimizedAffinity 4.22695255
REMARK minimizedRMSD -1
REMARK  0 active torsions:
REMARK  status: ('A' for Active; 'I' for Inactive)
ROOT
ATOM      1  O1  BZF d   1       1.446  -1.648  -5.001  0.00  0.00    -0.204 OA
ATOM      2  C2  BZF d   1       1.077  -2.665  -4.141  0.00  0.00     0.174 A 
ATOM      3  C3  BZF d   1      -0.205  -2.517  -3.748  0.00  0.00    -0.012 A 
ATOM      4  C3A BZF d   1      -0.694  -1.387  -4.477  0.00  0.00    -0.107 A 
ATOM      5  C4  BZF d   1      -1.904  -0.756  -4.529  0.00  0.00     0.055 A 
ATOM      6  C5  BZF d   1      -2.032   0.365  -5.286  0.00  0.00    -0.016 A 
ATOM      7  C6  BZF d   1      -0.971   0.885  -5.999  0.00  0.00     0.022 A 
ATOM      8  C7  BZF d   1       0.247   0.290  -5.983  0.00  0.00     0.029 A 
ATOM      9  C7A BZF d   1       0.370  -0.861  -5.244  0.00  0.00     0.058 A 
ENDROOT
TORSDOF 0
ENDMDL
