MODEL 1
REMARK minimizedAffinity 2.60628819
REMARK minimizedRMSD -1
REMARK  0 active torsions:
REMARK  status: ('A' for Active; 'I' for Inactive)
ROOT
ATOM      1  O1  BZF d   1      -4.202   0.448   0.440  0.00  0.00    -0.204 OA
ATOM      2  C2  BZF d   1      -4.503   1.432   1.362  0.00  0.00     0.174 A 
ATOM      3  C3  BZF d   1      -3.608   1.434   2.370  0.00  0.00    -0.012 A 
ATOM      4  C3A BZF d   1      -2.636   0.446   2.012  0.00  0.00    -0.107 A 
ATOM      5  C4  BZF d   1      -1.492  -0.004   2.606  0.00  0.00     0.055 A 
ATOM      6  C5  BZF d   1      -0.810  -1.030   2.034  0.00  0.00    -0.016 A 
ATOM      7  C6  BZF d   1      -1.245  -1.632   0.871  0.00  0.00     0.022 A 
ATOM      8  C7  BZF d   1      -2.372  -1.217   0.243  0.00  0.00     0.029 A 
ATOM      9  C7A BZF d   1      -3.046  -0.159   0.801  0.00  0.00     0.058 A 
ENDROOT
TORSDOF 0
ENDMDL
