MODEL 1
REMARK minimizedAffinity 5.17495584
REMARK minimizedRMSD -1
REMARK  0 active torsions:
REMARK  status: ('A' for Active; 'I' for Inactive)
ROOT
ATOM      1  O1  BZF d   1      -1.273   0.437  -4.726  0.00  0.00    -0.204 OA
ATOM      2  C2  BZF d   1      -0.808   0.173  -6.000  0.00  0.00     0.174 A 
ATOM      3  C3  BZF d   1      -0.003  -0.910  -6.000  0.00  0.00    -0.012 A 
ATOM      4  C3A BZF d   1      -0.036  -1.404  -4.658  0.00  0.00    -0.107 A 
ATOM      5  C4  BZF d   1       0.550  -2.468  -4.034  0.00  0.00     0.055 A 
ATOM      6  C5  BZF d   1       0.372  -2.629  -2.696  0.00  0.00    -0.016 A 
ATOM      7  C6  BZF d   1      -0.380  -1.744  -1.952  0.00  0.00     0.022 A 
ATOM      8  C7  BZF d   1      -0.985  -0.677  -2.527  0.00  0.00     0.029 A 
ATOM      9  C7A BZF d   1      -0.835  -0.529  -3.884  0.00  0.00     0.058 A 
ENDROOT
TORSDOF 0
ENDMDL
