MODEL 1
REMARK minimizedAffinity -1.36101317
REMARK minimizedRMSD -1
REMARK  0 active torsions:
REMARK  status: ('A' for Active; 'I' for Inactive)
ROOT
ATOM      1  O1  BZF d   1      -0.661   0.567  -4.480  0.00  0.00    -0.204 OA
ATOM      2  C2  BZF d   1      -0.537   0.271  -5.824  0.00  0.00     0.174 A 
ATOM      3  C3  BZF d   1      -0.042  -0.972  -5.997  0.00  0.00    -0.012 A 
ATOM      4  C3A BZF d   1       0.068  -1.519  -4.679  0.00  0.00    -0.107 A 
ATOM      5  C4  BZF d   1       0.483  -2.727  -4.197  0.00  0.00     0.055 A 
ATOM      6  C5  BZF d   1       0.539  -2.917  -2.852  0.00  0.00    -0.016 A 
ATOM      7  C6  BZF d   1       0.193  -1.921  -1.963  0.00  0.00     0.022 A 
ATOM      8  C7  BZF d   1      -0.229  -0.708  -2.395  0.00  0.00     0.029 A 
ATOM      9  C7A BZF d   1      -0.318  -0.524  -3.753  0.00  0.00     0.058 A 
ENDROOT
TORSDOF 0
ENDMDL
