MODEL 1
REMARK minimizedAffinity 1.24817383
REMARK minimizedRMSD -1
REMARK  0 active torsions:
REMARK  status: ('A' for Active; 'I' for Inactive)
ROOT
ATOM      1  O1  BZF d   1       0.219  -0.557  -5.989  0.00  0.00    -0.204 OA
ATOM      2  C2  BZF d   1      -0.320   0.711  -5.894  0.00  0.00     0.174 A 
ATOM      3  C3  BZF d   1      -0.834   0.921  -4.665  0.00  0.00    -0.012 A 
ATOM      4  C3A BZF d   1      -0.521  -0.259  -3.919  0.00  0.00    -0.107 A 
ATOM      5  C4  BZF d   1      -0.754  -0.644  -2.630  0.00  0.00     0.055 A 
ATOM      6  C5  BZF d   1      -0.382  -1.890  -2.235  0.00  0.00    -0.016 A 
ATOM      7  C6  BZF d   1       0.219  -2.778  -3.104  0.00  0.00     0.022 A 
ATOM      8  C7  BZF d   1       0.475  -2.439  -4.391  0.00  0.00     0.029 A 
ATOM      9  C7A BZF d   1       0.131  -1.168  -4.783  0.00  0.00     0.058 A 
ENDROOT
TORSDOF 0
ENDMDL
