MODEL 1
REMARK minimizedAffinity -3.60399294
REMARK minimizedRMSD -1
REMARK  1 active torsions:
REMARK  status: ('A' for Active; 'I' for Inactive)
REMARK    1  A    between atoms: C3_4  and  O_7 
ROOT
ATOM      1  C   UNL d   1      -0.232  -0.250   0.254  0.00  0.00    -0.033 A 
ATOM      2  C1  UNL d   1      -0.045   0.431   1.459  0.00  0.00     0.039 A 
ATOM      3  C2  UNL d   1      -1.051   1.259   1.959  0.00  0.00    -0.080 A 
ATOM      4  C3  UNL d   1      -2.239   1.398   1.246  0.00  0.00     0.150 A 
ATOM      5  C4  UNL d   1      -2.434   0.720   0.047  0.00  0.00    -0.007 A 
ATOM      6  C5  UNL d   1      -1.427  -0.106  -0.451  0.00  0.00     0.039 A 
ENDROOT
BRANCH   4   7
ATOM      7  O   UNL d   1      -3.248   2.199   1.691  0.00  0.00    -0.526 OA
ATOM      8  H5  UNL d   1      -2.961   2.626   2.516  0.00  0.00     0.418 HD
ENDBRANCH   4   7
TORSDOF 1
ENDMDL
