MODEL 1
REMARK minimizedAffinity -4.33997154
REMARK minimizedRMSD -1
REMARK  1 active torsions:
REMARK  status: ('A' for Active; 'I' for Inactive)
REMARK    1  A    between atoms: C3_4  and  O_7 
ROOT
ATOM      1  C   UNL d   1       0.431  -0.337   0.145  0.00  0.00    -0.033 A 
ATOM      2  C1  UNL d   1      -0.206   0.515  -0.759  0.00  0.00     0.039 A 
ATOM      3  C2  UNL d   1      -1.186   1.404  -0.311  0.00  0.00    -0.080 A 
ATOM      4  C3  UNL d   1      -1.517   1.431   1.041  0.00  0.00     0.150 A 
ATOM      5  C4  UNL d   1      -0.883   0.588   1.947  0.00  0.00    -0.007 A 
ATOM      6  C5  UNL d   1       0.094  -0.300   1.498  0.00  0.00     0.039 A 
ENDROOT
BRANCH   4   7
ATOM      7  O   UNL d   1      -2.470   2.278   1.524  0.00  0.00    -0.526 OA
ATOM      8  H5  UNL d   1      -2.842   2.780   0.779  0.00  0.00     0.418 HD
ENDBRANCH   4   7
TORSDOF 1
ENDMDL
