MODEL 1
REMARK minimizedAffinity -4.98503447
REMARK minimizedRMSD -1
REMARK  1 active torsions:
REMARK  status: ('A' for Active; 'I' for Inactive)
REMARK    1  A    between atoms: C3_4  and  O_7 
ROOT
ATOM      1  C   UNL d   1      -1.671   1.886   1.637  0.00  0.00    -0.033 A 
ATOM      2  C1  UNL d   1      -1.250   2.556   0.487  0.00  0.00     0.039 A 
ATOM      3  C2  UNL d   1      -0.202   2.041  -0.278  0.00  0.00    -0.080 A 
ATOM      4  C3  UNL d   1       0.415   0.857   0.116  0.00  0.00     0.150 A 
ATOM      5  C4  UNL d   1      -0.003   0.182   1.259  0.00  0.00    -0.007 A 
ATOM      6  C5  UNL d   1      -1.049   0.699   2.023  0.00  0.00     0.039 A 
ENDROOT
BRANCH   4   7
ATOM      7  O   UNL d   1       1.445   0.318  -0.596  0.00  0.00    -0.526 OA
ATOM      8  H5  UNL d   1       1.644   0.906  -1.343  0.00  0.00     0.418 HD
ENDBRANCH   4   7
TORSDOF 1
ENDMDL
