MODEL 1
REMARK minimizedAffinity -5.40764666
REMARK minimizedRMSD -1
REMARK  1 active torsions:
REMARK  status: ('A' for Active; 'I' for Inactive)
REMARK    1  A    between atoms: C3_4  and  O_7 
ROOT
ATOM      1  C   UNL d   1      -1.914   1.082   1.600  0.00  0.00    -0.033 A 
ATOM      2  C1  UNL d   1      -1.055   0.377   0.755  0.00  0.00     0.039 A 
ATOM      3  C2  UNL d   1      -0.225   1.065  -0.131  0.00  0.00    -0.080 A 
ATOM      4  C3  UNL d   1      -0.262   2.456  -0.162  0.00  0.00     0.150 A 
ATOM      5  C4  UNL d   1      -1.113   3.165   0.679  0.00  0.00    -0.007 A 
ATOM      6  C5  UNL d   1      -1.942   2.476   1.563  0.00  0.00     0.039 A 
ENDROOT
BRANCH   4   7
ATOM      7  O   UNL d   1       0.526   3.171  -1.014  0.00  0.00    -0.526 OA
ATOM      8  H5  UNL d   1       1.040   2.548  -1.554  0.00  0.00     0.418 HD
ENDBRANCH   4   7
TORSDOF 1
ENDMDL
