MODEL 1
REMARK minimizedAffinity -1.23612738
REMARK minimizedRMSD -1
REMARK  1 active torsions:
REMARK  status: ('A' for Active; 'I' for Inactive)
REMARK    1  A    between atoms: C3_4  and  O_7 
ROOT
ATOM      1  C   UNL d   1       0.349  -0.635  -0.295  0.00  0.00    -0.033 A 
ATOM      2  C1  UNL d   1      -1.044  -0.725  -0.332  0.00  0.00     0.039 A 
ATOM      3  C2  UNL d   1      -1.776  -0.754   0.857  0.00  0.00    -0.080 A 
ATOM      4  C3  UNL d   1      -1.104  -0.693   2.074  0.00  0.00     0.150 A 
ATOM      5  C4  UNL d   1       0.284  -0.600   2.119  0.00  0.00    -0.007 A 
ATOM      6  C5  UNL d   1       1.012  -0.571   0.931  0.00  0.00     0.039 A 
ENDROOT
BRANCH   4   7
ATOM      7  O   UNL d   1      -1.774  -0.723   3.261  0.00  0.00    -0.526 OA
ATOM      8  H5  UNL d   1      -2.724  -0.818   3.075  0.00  0.00     0.418 HD
ENDBRANCH   4   7
TORSDOF 1
ENDMDL
