MODEL 1
REMARK minimizedAffinity -4.42738438
REMARK minimizedRMSD -1
REMARK  1 active torsions:
REMARK  status: ('A' for Active; 'I' for Inactive)
REMARK    1  A    between atoms: C3_4  and  O_7 
ROOT
ATOM      1  C   UNL d   1       0.516   0.090  -0.334  0.00  0.00    -0.033 A 
ATOM      2  C1  UNL d   1       0.178  -0.702   0.765  0.00  0.00     0.039 A 
ATOM      3  C2  UNL d   1      -0.649  -0.192   1.767  0.00  0.00    -0.080 A 
ATOM      4  C3  UNL d   1      -1.131   1.110   1.659  0.00  0.00     0.150 A 
ATOM      5  C4  UNL d   1      -0.801   1.903   0.565  0.00  0.00    -0.007 A 
ATOM      6  C5  UNL d   1       0.026   1.392  -0.435  0.00  0.00     0.039 A 
ENDROOT
BRANCH   4   7
ATOM      7  O   UNL d   1      -1.937   1.653   2.614  0.00  0.00    -0.526 OA
ATOM      8  H5  UNL d   1      -2.057   1.000   3.324  0.00  0.00     0.418 HD
ENDBRANCH   4   7
TORSDOF 1
ENDMDL
