MODEL 1
REMARK minimizedAffinity -5.45969534
REMARK minimizedRMSD -1
REMARK  1 active torsions:
REMARK  status: ('A' for Active; 'I' for Inactive)
REMARK    1  A    between atoms: C3_4  and  O_7 
ROOT
ATOM      1  C   UNL d   1      -1.913   2.979   1.339  0.00  0.00    -0.033 A 
ATOM      2  C1  UNL d   1      -0.943   3.283   0.382  0.00  0.00     0.039 A 
ATOM      3  C2  UNL d   1      -0.254   2.257  -0.267  0.00  0.00    -0.080 A 
ATOM      4  C3  UNL d   1      -0.545   0.933   0.048  0.00  0.00     0.150 A 
ATOM      5  C4  UNL d   1      -1.513   0.622   0.998  0.00  0.00    -0.007 A 
ATOM      6  C5  UNL d   1      -2.199   1.648   1.646  0.00  0.00     0.039 A 
ENDROOT
BRANCH   4   7
ATOM      7  O   UNL d   1       0.104  -0.103  -0.556  0.00  0.00    -0.526 OA
ATOM      8  H5  UNL d   1       0.765   0.263  -1.168  0.00  0.00     0.418 HD
ENDBRANCH   4   7
TORSDOF 1
ENDMDL
