MODEL 1
REMARK minimizedAffinity -5.30950117
REMARK minimizedRMSD -1
REMARK  1 active torsions:
REMARK  status: ('A' for Active; 'I' for Inactive)
REMARK    1  A    between atoms: C3_4  and  O_7 
ROOT
ATOM      1  C   UNL d   1      -1.834   1.254   1.390  0.00  0.00    -0.033 A 
ATOM      2  C1  UNL d   1      -1.001   0.614   0.470  0.00  0.00     0.039 A 
ATOM      3  C2  UNL d   1      -0.297   1.362  -0.476  0.00  0.00    -0.080 A 
ATOM      4  C3  UNL d   1      -0.435   2.747  -0.492  0.00  0.00     0.150 A 
ATOM      5  C4  UNL d   1      -1.260   3.392   0.424  0.00  0.00    -0.007 A 
ATOM      6  C5  UNL d   1      -1.962   2.643   1.368  0.00  0.00     0.039 A 
ENDROOT
BRANCH   4   7
ATOM      7  O   UNL d   1       0.228   3.519  -1.399  0.00  0.00    -0.526 OA
ATOM      8  H5  UNL d   1       0.737   2.935  -1.986  0.00  0.00     0.418 HD
ENDBRANCH   4   7
TORSDOF 1
ENDMDL
