MODEL 1
REMARK minimizedAffinity -5.18419552
REMARK minimizedRMSD -1
REMARK  1 active torsions:
REMARK  status: ('A' for Active; 'I' for Inactive)
REMARK    1  A    between atoms: C3_4  and  O_7 
ROOT
ATOM      1  C   UNL d   1       0.483  -0.107   0.061  0.00  0.00    -0.033 A 
ATOM      2  C1  UNL d   1      -0.153   0.791  -0.799  0.00  0.00     0.039 A 
ATOM      3  C2  UNL d   1      -1.244   1.537  -0.349  0.00  0.00    -0.080 A 
ATOM      4  C3  UNL d   1      -1.688   1.376   0.961  0.00  0.00     0.150 A 
ATOM      5  C4  UNL d   1      -1.057   0.486   1.823  0.00  0.00    -0.007 A 
ATOM      6  C5  UNL d   1       0.032  -0.259   1.372  0.00  0.00     0.039 A 
ENDROOT
BRANCH   4   7
ATOM      7  O   UNL d   1      -2.752   2.079   1.443  0.00  0.00    -0.526 OA
ATOM      8  H5  UNL d   1      -3.105   2.633   0.728  0.00  0.00     0.418 HD
ENDBRANCH   4   7
TORSDOF 1
ENDMDL
