MODEL 1
REMARK minimizedAffinity -5.28661156
REMARK minimizedRMSD -1
REMARK  1 active torsions:
REMARK  status: ('A' for Active; 'I' for Inactive)
REMARK    1  A    between atoms: C3_4  and  O_7 
ROOT
ATOM      1  C   UNL d   1       0.219   2.007  -1.343  0.00  0.00    -0.033 A 
ATOM      2  C1  UNL d   1      -0.319   0.805  -0.878  0.00  0.00     0.039 A 
ATOM      3  C2  UNL d   1      -1.219   0.807   0.189  0.00  0.00    -0.080 A 
ATOM      4  C3  UNL d   1      -1.573   2.016   0.782  0.00  0.00     0.150 A 
ATOM      5  C4  UNL d   1      -1.045   3.217   0.321  0.00  0.00    -0.007 A 
ATOM      6  C5  UNL d   1      -0.146   3.213  -0.744  0.00  0.00     0.039 A 
ENDROOT
BRANCH   4   7
ATOM      7  O   UNL d   1      -2.444   2.068   1.829  0.00  0.00    -0.526 OA
ATOM      8  H5  UNL d   1      -2.705   1.160   2.058  0.00  0.00     0.418 HD
ENDBRANCH   4   7
TORSDOF 1
ENDMDL
