MODEL 1
REMARK minimizedAffinity -4.08297682
REMARK minimizedRMSD -1
REMARK  1 active torsions:
REMARK  status: ('A' for Active; 'I' for Inactive)
REMARK    1  A    between atoms: C3_4  and  O_7 
ROOT
ATOM      1  C   UNL d   1      -2.074   1.615   1.874  0.00  0.00    -0.033 A 
ATOM      2  C1  UNL d   1      -1.698   0.324   2.250  0.00  0.00     0.039 A 
ATOM      3  C2  UNL d   1      -0.750  -0.375   1.500  0.00  0.00    -0.080 A 
ATOM      4  C3  UNL d   1      -0.186   0.227   0.379  0.00  0.00     0.150 A 
ATOM      5  C4  UNL d   1      -0.553   1.515   0.001  0.00  0.00    -0.007 A 
ATOM      6  C5  UNL d   1      -1.500   2.211   0.750  0.00  0.00     0.039 A 
ENDROOT
BRANCH   4   7
ATOM      7  O   UNL d   1       0.739  -0.418  -0.387  0.00  0.00    -0.526 OA
ATOM      8  H5  UNL d   1       0.874  -1.309  -0.022  0.00  0.00     0.418 HD
ENDBRANCH   4   7
TORSDOF 1
ENDMDL
