MODEL 1
REMARK minimizedAffinity -3.08158493
REMARK minimizedRMSD -1
REMARK  1 active torsions:
REMARK  status: ('A' for Active; 'I' for Inactive)
REMARK    1  A    between atoms: C3_4  and  O_7 
ROOT
ATOM      1  C   UNL d   1       1.048  -3.020  -2.287  0.00  0.00    -0.033 A 
ATOM      2  C1  UNL d   1       2.062  -2.520  -1.468  0.00  0.00     0.039 A 
ATOM      3  C2  UNL d   1       1.824  -1.405  -0.661  0.00  0.00    -0.080 A 
ATOM      4  C3  UNL d   1       0.570  -0.802  -0.682  0.00  0.00     0.150 A 
ATOM      5  C4  UNL d   1      -0.446  -1.297  -1.493  0.00  0.00    -0.007 A 
ATOM      6  C5  UNL d   1      -0.206  -2.409  -2.299  0.00  0.00     0.039 A 
ENDROOT
BRANCH   4   7
ATOM      7  O   UNL d   1       0.292   0.290   0.085  0.00  0.00    -0.526 OA
ATOM      8  H5  UNL d   1       1.096   0.538   0.571  0.00  0.00     0.418 HD
ENDBRANCH   4   7
TORSDOF 1
ENDMDL
