MODEL 1
REMARK minimizedAffinity -5.0428195
REMARK minimizedRMSD -1
REMARK  1 active torsions:
REMARK  status: ('A' for Active; 'I' for Inactive)
REMARK    1  A    between atoms: C3_4  and  O_7 
ROOT
ATOM      1  C   UNL d   1      -2.207   2.739   1.560  0.00  0.00    -0.033 A 
ATOM      2  C1  UNL d   1      -2.221   1.405   1.971  0.00  0.00     0.039 A 
ATOM      3  C2  UNL d   1      -1.340   0.486   1.397  0.00  0.00    -0.080 A 
ATOM      4  C3  UNL d   1      -0.452   0.914   0.414  0.00  0.00     0.150 A 
ATOM      5  C4  UNL d   1      -0.430   2.243   0.002  0.00  0.00    -0.007 A 
ATOM      6  C5  UNL d   1      -1.311   3.158   0.577  0.00  0.00     0.039 A 
ENDROOT
BRANCH   4   7
ATOM      7  O   UNL d   1       0.423   0.053  -0.179  0.00  0.00    -0.526 OA
ATOM      8  H5  UNL d   1       0.275  -0.836   0.185  0.00  0.00     0.418 HD
ENDBRANCH   4   7
TORSDOF 1
ENDMDL
