MODEL 1
REMARK minimizedAffinity -3.0787425
REMARK minimizedRMSD -1
REMARK  1 active torsions:
REMARK  status: ('A' for Active; 'I' for Inactive)
REMARK    1  A    between atoms: C3_4  and  O_7 
ROOT
ATOM      1  C   UNL d   1      -0.047  -0.165   0.418  0.00  0.00    -0.033 A 
ATOM      2  C1  UNL d   1      -0.983   0.272  -0.522  0.00  0.00     0.039 A 
ATOM      3  C2  UNL d   1      -1.947   1.216  -0.162  0.00  0.00    -0.080 A 
ATOM      4  C3  UNL d   1      -1.964   1.715   1.137  0.00  0.00     0.150 A 
ATOM      5  C4  UNL d   1      -1.032   1.287   2.077  0.00  0.00    -0.007 A 
ATOM      6  C5  UNL d   1      -0.071   0.344   1.717  0.00  0.00     0.039 A 
ENDROOT
BRANCH   4   7
ATOM      7  O   UNL d   1      -2.889   2.634   1.536  0.00  0.00    -0.526 OA
ATOM      8  H5  UNL d   1      -3.484   2.814   0.790  0.00  0.00     0.418 HD
ENDBRANCH   4   7
TORSDOF 1
ENDMDL
