MODEL 1
REMARK minimizedAffinity 9.29081917
REMARK minimizedRMSD -1
REMARK  1 active torsions:
REMARK  status: ('A' for Active; 'I' for Inactive)
REMARK    1  A    between atoms: C1_2  and  C2_3 
ROOT
ATOM      1  C2  UNL d   1      -4.024   0.503   2.031  0.00  0.00    -0.076 A 
ATOM      2  C3  UNL d   1      -3.057  -0.473   1.738  0.00  0.00     0.004 A 
ATOM      3  C4  UNL d   1      -1.697  -0.167   1.764  0.00  0.00    -0.003 A 
ATOM      4  C5  UNL d   1      -1.283   1.121   2.085  0.00  0.00     0.000 A 
ATOM      5  C6  UNL d   1      -2.228   2.098   2.395  0.00  0.00     0.000 A 
ATOM      6  C7  UNL d   1      -3.602   1.802   2.389  0.00  0.00    -0.073 A 
ATOM      7  C8  UNL d   1      -4.578   2.895   2.727  0.00  0.00     0.078 C 
ENDROOT
BRANCH   1   8
ATOM      8  C1  UNL d   1      -5.485   0.120   1.960  0.00  0.00     0.053 C 
ATOM      9  C   UNL d   1      -5.706  -1.200   1.237  0.00  0.00     0.018 C 
ENDBRANCH   1   8
TORSDOF 1
ENDMDL
