MODEL 1
REMARK minimizedAffinity 10.3610649
REMARK minimizedRMSD -1
REMARK  1 active torsions:
REMARK  status: ('A' for Active; 'I' for Inactive)
REMARK    1  A    between atoms: C1_2  and  C2_3 
ROOT
ATOM      1  C2  UNL d   1       3.585   4.408  -4.270  0.00  0.00    -0.076 A 
ATOM      2  C3  UNL d   1       3.388   4.814  -5.602  0.00  0.00     0.004 A 
ATOM      3  C4  UNL d   1       2.196   5.418  -5.999  0.00  0.00    -0.003 A 
ATOM      4  C5  UNL d   1       1.182   5.627  -5.071  0.00  0.00     0.000 A 
ATOM      5  C6  UNL d   1       1.366   5.246  -3.742  0.00  0.00     0.000 A 
ATOM      6  C7  UNL d   1       2.568   4.651  -3.322  0.00  0.00    -0.073 A 
ATOM      7  C8  UNL d   1       2.711   4.255  -1.878  0.00  0.00     0.078 C 
ENDROOT
BRANCH   1   8
ATOM      8  C1  UNL d   1       4.887   3.734  -3.904  0.00  0.00     0.053 C 
ATOM      9  C   UNL d   1       5.999   4.036  -4.896  0.00  0.00     0.018 C 
ENDBRANCH   1   8
TORSDOF 1
ENDMDL
