MODEL 1
REMARK minimizedAffinity 5.22234011
REMARK minimizedRMSD -1
REMARK  1 active torsions:
REMARK  status: ('A' for Active; 'I' for Inactive)
REMARK    1  A    between atoms: C1_2  and  C2_3 
ROOT
ATOM      1  C2  UNL d   1      -3.533   0.169   1.795  0.00  0.00    -0.076 A 
ATOM      2  C3  UNL d   1      -2.582  -0.844   1.579  0.00  0.00     0.004 A 
ATOM      3  C4  UNL d   1      -1.220  -0.594   1.737  0.00  0.00    -0.003 A 
ATOM      4  C5  UNL d   1      -0.787   0.672   2.114  0.00  0.00     0.000 A 
ATOM      5  C6  UNL d   1      -1.717   1.684   2.350  0.00  0.00     0.000 A 
ATOM      6  C7  UNL d   1      -3.095   1.444   2.211  0.00  0.00    -0.073 A 
ATOM      7  C8  UNL d   1      -4.054   2.574   2.472  0.00  0.00     0.078 C 
ENDROOT
BRANCH   1   8
ATOM      8  C1  UNL d   1      -4.995  -0.153   1.582  0.00  0.00     0.053 C 
ATOM      9  C   UNL d   1      -5.213  -1.579   1.099  0.00  0.00     0.018 C 
ENDBRANCH   1   8
TORSDOF 1
ENDMDL
