MODEL 1
REMARK minimizedAffinity 14.9669981
REMARK minimizedRMSD -1
REMARK  1 active torsions:
REMARK  status: ('A' for Active; 'I' for Inactive)
REMARK    1  A    between atoms: C1_2  and  C2_3 
ROOT
ATOM      1  C2  UNL d   1       2.116  -0.380  -4.625  0.00  0.00    -0.076 A 
ATOM      2  C3  UNL d   1       3.014  -0.546  -5.694  0.00  0.00     0.004 A 
ATOM      3  C4  UNL d   1       3.956   0.435  -5.998  0.00  0.00    -0.003 A 
ATOM      4  C5  UNL d   1       4.017   1.598  -5.238  0.00  0.00     0.000 A 
ATOM      5  C6  UNL d   1       3.146   1.771  -4.163  0.00  0.00     0.000 A 
ATOM      6  C7  UNL d   1       2.201   0.785  -3.832  0.00  0.00    -0.073 A 
ATOM      7  C8  UNL d   1       1.282   1.027  -2.666  0.00  0.00     0.078 C 
ENDROOT
BRANCH   1   8
ATOM      8  C1  UNL d   1       1.098  -1.466  -4.359  0.00  0.00     0.053 C 
ATOM      9  C   UNL d   1       0.341  -1.874  -5.613  0.00  0.00     0.018 C 
ENDBRANCH   1   8
TORSDOF 1
ENDMDL
