MODEL 1
REMARK minimizedAffinity 6.22690868
REMARK minimizedRMSD -1
REMARK  1 active torsions:
REMARK  status: ('A' for Active; 'I' for Inactive)
REMARK    1  A    between atoms: C1_2  and  C2_3 
ROOT
ATOM      1  C2  UNL d   1      -5.595  -2.697  -4.077  0.00  0.00    -0.076 A 
ATOM      2  C3  UNL d   1      -5.971  -3.749  -3.223  0.00  0.00     0.004 A 
ATOM      3  C4  UNL d   1      -5.999  -3.575  -1.840  0.00  0.00    -0.003 A 
ATOM      4  C5  UNL d   1      -5.652  -2.347  -1.289  0.00  0.00     0.000 A 
ATOM      5  C6  UNL d   1      -5.293  -1.288  -2.121  0.00  0.00     0.000 A 
ATOM      6  C7  UNL d   1      -5.276  -1.441  -3.518  0.00  0.00    -0.073 A 
ATOM      7  C8  UNL d   1      -4.875  -0.267  -4.369  0.00  0.00     0.078 C 
ENDROOT
BRANCH   1   8
ATOM      8  C1  UNL d   1      -5.557  -2.952  -5.566  0.00  0.00     0.053 C 
ATOM      9  C   UNL d   1      -4.299  -3.688  -6.000  0.00  0.00     0.018 C 
ENDBRANCH   1   8
TORSDOF 1
ENDMDL
