MODEL 1
REMARK minimizedAffinity 6.08329487
REMARK minimizedRMSD -1
REMARK  1 active torsions:
REMARK  status: ('A' for Active; 'I' for Inactive)
REMARK    1  A    between atoms: C1_2  and  C2_3 
ROOT
ATOM      1  C2  UNL d   1      -2.289  -0.627   3.410  0.00  0.00    -0.076 A 
ATOM      2  C3  UNL d   1      -3.089   0.324   2.754  0.00  0.00     0.004 A 
ATOM      3  C4  UNL d   1      -2.528   1.252   1.878  0.00  0.00    -0.003 A 
ATOM      4  C5  UNL d   1      -1.157   1.243   1.643  0.00  0.00     0.000 A 
ATOM      5  C6  UNL d   1      -0.351   0.295   2.272  0.00  0.00     0.000 A 
ATOM      6  C7  UNL d   1      -0.903  -0.658   3.145  0.00  0.00    -0.073 A 
ATOM      7  C8  UNL d   1       0.015  -1.654   3.801  0.00  0.00     0.078 C 
ENDROOT
BRANCH   1   8
ATOM      8  C1  UNL d   1      -2.949  -1.591   4.370  0.00  0.00     0.053 C 
ATOM      9  C   UNL d   1      -2.829  -1.145   5.818  0.00  0.00     0.018 C 
ENDBRANCH   1   8
TORSDOF 1
ENDMDL
