MODEL 1
REMARK minimizedAffinity 16.6633968
REMARK minimizedRMSD -1
REMARK  1 active torsions:
REMARK  status: ('A' for Active; 'I' for Inactive)
REMARK    1  A    between atoms: C1_2  and  C2_3 
ROOT
ATOM      1  C2  UNL d   1      -3.447  -0.948   0.809  0.00  0.00    -0.076 A 
ATOM      2  C3  UNL d   1      -4.805  -0.609   0.678  0.00  0.00     0.004 A 
ATOM      3  C4  UNL d   1      -5.766  -1.585   0.417  0.00  0.00    -0.003 A 
ATOM      4  C5  UNL d   1      -5.384  -2.915   0.282  0.00  0.00     0.000 A 
ATOM      5  C6  UNL d   1      -4.044  -3.271   0.427  0.00  0.00     0.000 A 
ATOM      6  C7  UNL d   1      -3.065  -2.302   0.707  0.00  0.00    -0.073 A 
ATOM      7  C8  UNL d   1      -1.633  -2.742   0.846  0.00  0.00     0.078 C 
ENDROOT
BRANCH   1   8
ATOM      8  C1  UNL d   1      -2.447   0.157   1.066  0.00  0.00     0.053 C 
ATOM      9  C   UNL d   1      -3.070   1.541   0.973  0.00  0.00     0.018 C 
ENDBRANCH   1   8
TORSDOF 1
ENDMDL
