MODEL 1
REMARK minimizedAffinity 6.51215363
REMARK minimizedRMSD -1
REMARK  1 active torsions:
REMARK  status: ('A' for Active; 'I' for Inactive)
REMARK    1  A    between atoms: C1_2  and  C2_3 
ROOT
ATOM      1  C2  UNL d   1       3.010   2.183  -4.694  0.00  0.00    -0.076 A 
ATOM      2  C3  UNL d   1       3.908   2.844  -5.549  0.00  0.00     0.004 A 
ATOM      3  C4  UNL d   1       4.250   4.179  -5.337  0.00  0.00    -0.003 A 
ATOM      4  C5  UNL d   1       3.699   4.873  -4.265  0.00  0.00     0.000 A 
ATOM      5  C6  UNL d   1       2.820   4.227  -3.397  0.00  0.00     0.000 A 
ATOM      6  C7  UNL d   1       2.477   2.878  -3.587  0.00  0.00    -0.073 A 
ATOM      7  C8  UNL d   1       1.519   2.233  -2.624  0.00  0.00     0.078 C 
ENDROOT
BRANCH   1   8
ATOM      8  C1  UNL d   1       2.655   0.743  -4.990  0.00  0.00     0.053 C 
ATOM      9  C   UNL d   1       3.599   0.106  -5.999  0.00  0.00     0.018 C 
ENDBRANCH   1   8
TORSDOF 1
ENDMDL
