MODEL 1
REMARK minimizedAffinity 9.93624783
REMARK minimizedRMSD -1
REMARK  1 active torsions:
REMARK  status: ('A' for Active; 'I' for Inactive)
REMARK    1  A    between atoms: C1_2  and  C2_3 
ROOT
ATOM      1  C2  UNL d   1      -3.024   0.269   0.834  0.00  0.00    -0.076 A 
ATOM      2  C3  UNL d   1      -3.965  -0.666   0.370  0.00  0.00     0.004 A 
ATOM      3  C4  UNL d   1      -3.660  -2.025   0.316  0.00  0.00    -0.003 A 
ATOM      4  C5  UNL d   1      -2.409  -2.471   0.727  0.00  0.00     0.000 A 
ATOM      5  C6  UNL d   1      -1.469  -1.560   1.207  0.00  0.00     0.000 A 
ATOM      6  C7  UNL d   1      -1.766  -0.189   1.283  0.00  0.00    -0.073 A 
ATOM      7  C8  UNL d   1      -0.713   0.751   1.804  0.00  0.00     0.078 C 
ENDROOT
BRANCH   1   8
ATOM      8  C1  UNL d   1      -3.401   1.733   0.844  0.00  0.00     0.053 C 
ATOM      9  C   UNL d   1      -4.631   2.012   1.695  0.00  0.00     0.018 C 
ENDBRANCH   1   8
TORSDOF 1
ENDMDL
