MODEL 1
REMARK minimizedAffinity 10.6529636
REMARK minimizedRMSD -1
REMARK  1 active torsions:
REMARK  status: ('A' for Active; 'I' for Inactive)
REMARK    1  A    between atoms: C1_2  and  C2_3 
ROOT
ATOM      1  C2  UNL d   1      -1.596   2.555   2.028  0.00  0.00    -0.076 A 
ATOM      2  C3  UNL d   1      -1.014   3.682   2.634  0.00  0.00     0.004 A 
ATOM      3  C4  UNL d   1       0.215   3.592   3.286  0.00  0.00    -0.003 A 
ATOM      4  C5  UNL d   1       0.882   2.373   3.342  0.00  0.00     0.000 A 
ATOM      5  C6  UNL d   1       0.328   1.249   2.731  0.00  0.00     0.000 A 
ATOM      6  C7  UNL d   1      -0.902   1.326   2.056  0.00  0.00    -0.073 A 
ATOM      7  C8  UNL d   1      -1.456   0.080   1.420  0.00  0.00     0.078 C 
ENDROOT
BRANCH   1   8
ATOM      8  C1  UNL d   1      -2.943   2.707   1.360  0.00  0.00     0.053 C 
ATOM      9  C   UNL d   1      -3.863   3.657   2.111  0.00  0.00     0.018 C 
ENDBRANCH   1   8
TORSDOF 1
ENDMDL
