MODEL 1
REMARK minimizedAffinity 13.3316517
REMARK minimizedRMSD -1
REMARK  1 active torsions:
REMARK  status: ('A' for Active; 'I' for Inactive)
REMARK    1  A    between atoms: C1_2  and  C2_3 
ROOT
ATOM      1  C2  UNL d   1       3.548   2.047  -4.601  0.00  0.00    -0.076 A 
ATOM      2  C3  UNL d   1       3.659   0.915  -5.427  0.00  0.00     0.004 A 
ATOM      3  C4  UNL d   1       3.156  -0.320  -5.023  0.00  0.00    -0.003 A 
ATOM      4  C5  UNL d   1       2.534  -0.444  -3.786  0.00  0.00     0.000 A 
ATOM      5  C6  UNL d   1       2.400   0.672  -2.961  0.00  0.00     0.000 A 
ATOM      6  C7  UNL d   1       2.887   1.928  -3.360  0.00  0.00    -0.073 A 
ATOM      7  C8  UNL d   1       2.720   3.097  -2.428  0.00  0.00     0.078 C 
ENDROOT
BRANCH   1   8
ATOM      8  C1  UNL d   1       4.137   3.354  -5.081  0.00  0.00     0.053 C 
ATOM      9  C   UNL d   1       5.594   3.220  -5.496  0.00  0.00     0.018 C 
ENDBRANCH   1   8
TORSDOF 1
ENDMDL
