MODEL 1
REMARK minimizedAffinity 16.0016975
REMARK minimizedRMSD -1
REMARK  1 active torsions:
REMARK  status: ('A' for Active; 'I' for Inactive)
REMARK    1  A    between atoms: C1_2  and  C2_3 
ROOT
ATOM      1  C2  UNL d   1      -3.461  -1.195   0.820  0.00  0.00    -0.076 A 
ATOM      2  C3  UNL d   1      -2.306  -1.993   0.729  0.00  0.00     0.004 A 
ATOM      3  C4  UNL d   1      -2.396  -3.356   0.455  0.00  0.00    -0.003 A 
ATOM      4  C5  UNL d   1      -3.641  -3.945   0.266  0.00  0.00     0.000 A 
ATOM      5  C6  UNL d   1      -4.796  -3.166   0.335  0.00  0.00     0.000 A 
ATOM      6  C7  UNL d   1      -4.722  -1.787   0.594  0.00  0.00    -0.073 A 
ATOM      7  C8  UNL d   1      -6.000  -0.996   0.663  0.00  0.00     0.078 C 
ENDROOT
BRANCH   1   8
ATOM      8  C1  UNL d   1      -3.304   0.272   1.146  0.00  0.00     0.053 C 
ATOM      9  C   UNL d   1      -1.907   0.791   0.841  0.00  0.00     0.018 C 
ENDBRANCH   1   8
TORSDOF 1
ENDMDL
