MODEL 1
REMARK minimizedAffinity -2.29545307
REMARK minimizedRMSD -1
REMARK  1 active torsions:
REMARK  status: ('A' for Active; 'I' for Inactive)
REMARK    1  A    between atoms: C1_2  and  C2_3 
ROOT
ATOM      1  C2  UNL d   1      -0.386   1.242   0.466  0.00  0.00    -0.076 A 
ATOM      2  C3  UNL d   1      -0.642   1.718  -0.832  0.00  0.00     0.004 A 
ATOM      3  C4  UNL d   1      -0.122   1.067  -1.950  0.00  0.00    -0.003 A 
ATOM      4  C5  UNL d   1       0.661  -0.070  -1.788  0.00  0.00     0.000 A 
ATOM      5  C6  UNL d   1       0.910  -0.566  -0.509  0.00  0.00     0.000 A 
ATOM      6  C7  UNL d   1       0.380   0.068   0.628  0.00  0.00    -0.073 A 
ATOM      7  C8  UNL d   1       0.686  -0.506   1.984  0.00  0.00     0.078 C 
ENDROOT
BRANCH   1   8
ATOM      8  C1  UNL d   1      -0.954   2.005   1.641  0.00  0.00     0.053 C 
ATOM      9  C   UNL d   1       0.115   2.758   2.419  0.00  0.00     0.018 C 
ENDBRANCH   1   8
TORSDOF 1
ENDMDL
