MODEL 1
REMARK minimizedAffinity -2.66808009
REMARK minimizedRMSD -1
REMARK  1 active torsions:
REMARK  status: ('A' for Active; 'I' for Inactive)
REMARK    1  A    between atoms: C1_2  and  C2_3 
ROOT
ATOM      1  C2  UNL d   1      -0.142  -1.603   0.146  0.00  0.00    -0.076 A 
ATOM      2  C3  UNL d   1      -0.480  -1.938   1.469  0.00  0.00     0.004 A 
ATOM      3  C4  UNL d   1      -0.542  -0.963   2.462  0.00  0.00    -0.003 A 
ATOM      4  C5  UNL d   1      -0.268   0.364   2.149  0.00  0.00     0.000 A 
ATOM      5  C6  UNL d   1       0.051   0.717   0.838  0.00  0.00     0.000 A 
ATOM      6  C7  UNL d   1       0.102  -0.252  -0.179  0.00  0.00    -0.073 A 
ATOM      7  C8  UNL d   1       0.457   0.184  -1.574  0.00  0.00     0.078 C 
ENDROOT
BRANCH   1   8
ATOM      8  C1  UNL d   1      -0.064  -2.708  -0.883  0.00  0.00     0.053 C 
ATOM      9  C   UNL d   1      -0.437  -4.067  -0.310  0.00  0.00     0.018 C 
ENDBRANCH   1   8
TORSDOF 1
ENDMDL
