MODEL 1
REMARK minimizedAffinity 4.63570976
REMARK minimizedRMSD -1
REMARK  1 active torsions:
REMARK  status: ('A' for Active; 'I' for Inactive)
REMARK    1  A    between atoms: C1_2  and  C2_3 
ROOT
ATOM      1  C2  UNL d   1      -1.296  -2.719  -2.344  0.00  0.00    -0.076 A 
ATOM      2  C3  UNL d   1      -1.469  -4.111  -2.433  0.00  0.00     0.004 A 
ATOM      3  C4  UNL d   1      -0.495  -4.987  -1.956  0.00  0.00    -0.003 A 
ATOM      4  C5  UNL d   1       0.667  -4.484  -1.381  0.00  0.00     0.000 A 
ATOM      5  C6  UNL d   1       0.847  -3.106  -1.268  0.00  0.00     0.000 A 
ATOM      6  C7  UNL d   1      -0.132  -2.210  -1.729  0.00  0.00    -0.073 A 
ATOM      7  C8  UNL d   1       0.117  -0.733  -1.588  0.00  0.00     0.078 C 
ENDROOT
BRANCH   1   8
ATOM      8  C1  UNL d   1      -2.374  -1.818  -2.903  0.00  0.00     0.053 C 
ATOM      9  C   UNL d   1      -3.134  -1.074  -1.815  0.00  0.00     0.018 C 
ENDBRANCH   1   8
TORSDOF 1
ENDMDL
