MODEL 1
REMARK minimizedAffinity 6.02949095
REMARK minimizedRMSD -1
REMARK  1 active torsions:
REMARK  status: ('A' for Active; 'I' for Inactive)
REMARK    1  A    between atoms: C1_2  and  C2_3 
ROOT
ATOM      1  C2  UNL d   1       4.061  -3.926  -1.646  0.00  0.00    -0.076 A 
ATOM      2  C3  UNL d   1       3.280  -4.866  -2.342  0.00  0.00     0.004 A 
ATOM      3  C4  UNL d   1       3.512  -5.135  -3.689  0.00  0.00    -0.003 A 
ATOM      4  C5  UNL d   1       4.529  -4.469  -4.364  0.00  0.00     0.000 A 
ATOM      5  C6  UNL d   1       5.325  -3.546  -3.685  0.00  0.00     0.000 A 
ATOM      6  C7  UNL d   1       5.115  -3.275  -2.322  0.00  0.00    -0.073 A 
ATOM      7  C8  UNL d   1       5.999  -2.267  -1.642  0.00  0.00     0.078 C 
ENDROOT
BRANCH   1   8
ATOM      8  C1  UNL d   1       3.745  -3.656  -0.193  0.00  0.00     0.053 C 
ATOM      9  C   UNL d   1       2.835  -2.452  -0.008  0.00  0.00     0.018 C 
ENDBRANCH   1   8
TORSDOF 1
ENDMDL
