MODEL 1
REMARK minimizedAffinity 15.221241
REMARK minimizedRMSD -1
REMARK  1 active torsions:
REMARK  status: ('A' for Active; 'I' for Inactive)
REMARK    1  A    between atoms: C1_2  and  C2_3 
ROOT
ATOM      1  C2  UNL d   1      -4.877   1.901  -4.982  0.00  0.00    -0.081 A 
ATOM      2  C3  UNL d   1      -5.719   2.940  -5.396  0.00  0.00     0.006 A 
ATOM      3  C4  UNL d   1      -5.415   4.266  -5.079  0.00  0.00     0.002 A 
ATOM      4  C5  UNL d   1      -4.261   4.575  -4.351  0.00  0.00    -0.080 A 
ATOM      5  C6  UNL d   1      -3.907   5.997  -4.030  0.00  0.00     0.076 C 
ATOM      6  C7  UNL d   1      -3.429   3.535  -3.922  0.00  0.00     0.002 A 
ATOM      7  C8  UNL d   1      -3.733   2.209  -4.238  0.00  0.00     0.006 A 
ENDROOT
BRANCH   1   8
ATOM      8  C1  UNL d   1      -5.169   0.475  -5.377  0.00  0.00     0.054 C 
ATOM      9  C   UNL d   1      -5.978  -0.241  -4.306  0.00  0.00     0.018 C 
ENDBRANCH   1   8
TORSDOF 1
ENDMDL
