MODEL 1
REMARK minimizedAffinity 9.19944286
REMARK minimizedRMSD -1
REMARK  1 active torsions:
REMARK  status: ('A' for Active; 'I' for Inactive)
REMARK    1  A    between atoms: C1_2  and  C2_3 
ROOT
ATOM      1  C2  UNL d   1       5.063   2.150  -5.086  0.00  0.00    -0.081 A 
ATOM      2  C3  UNL d   1       5.863   3.299  -5.099  0.00  0.00     0.006 A 
ATOM      3  C4  UNL d   1       5.308   4.545  -5.401  0.00  0.00     0.002 A 
ATOM      4  C5  UNL d   1       3.944   4.664  -5.686  0.00  0.00    -0.080 A 
ATOM      5  C6  UNL d   1       3.330   6.000  -5.981  0.00  0.00     0.076 C 
ATOM      6  C7  UNL d   1       3.148   3.514  -5.690  0.00  0.00     0.002 A 
ATOM      7  C8  UNL d   1       3.702   2.267  -5.389  0.00  0.00     0.006 A 
ENDROOT
BRANCH   1   8
ATOM      8  C1  UNL d   1       5.646   0.815  -4.698  0.00  0.00     0.054 C 
ATOM      9  C   UNL d   1       5.859   0.720  -3.194  0.00  0.00     0.018 C 
ENDBRANCH   1   8
TORSDOF 1
ENDMDL
