MODEL 1
REMARK minimizedAffinity 11.2127209
REMARK minimizedRMSD -1
REMARK  1 active torsions:
REMARK  status: ('A' for Active; 'I' for Inactive)
REMARK    1  A    between atoms: C1_2  and  C2_3 
ROOT
ATOM      1  C2  UNL d   1       4.735  -5.183  -0.076  0.00  0.00    -0.081 A 
ATOM      2  C3  UNL d   1       3.919  -4.240   0.562  0.00  0.00     0.006 A 
ATOM      3  C4  UNL d   1       3.956  -4.095   1.951  0.00  0.00     0.002 A 
ATOM      4  C5  UNL d   1       4.815  -4.884   2.724  0.00  0.00    -0.080 A 
ATOM      5  C6  UNL d   1       4.887  -4.718   4.212  0.00  0.00     0.076 C 
ATOM      6  C7  UNL d   1       5.618  -5.838   2.088  0.00  0.00     0.002 A 
ATOM      7  C8  UNL d   1       5.580  -5.984   0.700  0.00  0.00     0.006 A 
ENDROOT
BRANCH   1   8
ATOM      8  C1  UNL d   1       4.744  -5.296  -1.579  0.00  0.00     0.054 C 
ATOM      9  C   UNL d   1       6.000  -5.999  -2.073  0.00  0.00     0.018 C 
ENDBRANCH   1   8
TORSDOF 1
ENDMDL
