MODEL 1
REMARK minimizedAffinity 14.060833
REMARK minimizedRMSD -1
REMARK  1 active torsions:
REMARK  status: ('A' for Active; 'I' for Inactive)
REMARK    1  A    between atoms: C1_2  and  C2_3 
ROOT
ATOM      1  C2  UNL d   1       4.078   4.613  -5.145  0.00  0.00    -0.081 A 
ATOM      2  C3  UNL d   1       3.620   3.629  -4.260  0.00  0.00     0.006 A 
ATOM      3  C4  UNL d   1       4.225   2.371  -4.225  0.00  0.00     0.002 A 
ATOM      4  C5  UNL d   1       5.303   2.078  -5.067  0.00  0.00    -0.080 A 
ATOM      5  C6  UNL d   1       5.982   0.742  -5.017  0.00  0.00     0.076 C 
ATOM      6  C7  UNL d   1       5.750   3.055  -5.963  0.00  0.00     0.002 A 
ATOM      7  C8  UNL d   1       5.144   4.313  -6.000  0.00  0.00     0.006 A 
ENDROOT
BRANCH   1   8
ATOM      8  C1  UNL d   1       3.469   5.992  -5.141  0.00  0.00     0.054 C 
ATOM      9  C   UNL d   1       1.951   5.926  -5.057  0.00  0.00     0.018 C 
ENDBRANCH   1   8
TORSDOF 1
ENDMDL
