MODEL 1
REMARK minimizedAffinity 2.57745838
REMARK minimizedRMSD -1
REMARK  0 active torsions:
REMARK  status: ('A' for Active; 'I' for Inactive)
ROOT
ATOM      1  C1  DEN d   1      -1.167  -1.085  -0.055  0.00  0.00     0.130 A 
ATOM      2  C2  DEN d   1      -0.321  -1.036  -1.244  0.00  0.00    -0.031 A 
ATOM      3  C3  DEN d   1       0.514   0.179  -1.160  0.00  0.00     0.027 A 
ATOM      4  C4  DEN d   1       0.582   1.977   0.688  0.00  0.00     0.027 A 
ATOM      5  C5  DEN d   1       0.038   2.372   1.890  0.00  0.00    -0.003 A 
ATOM      6  C6  DEN d   1      -0.962   1.667   2.506  0.00  0.00     0.001 A 
ATOM      7  C7  DEN d   1      -1.418   0.504   1.944  0.00  0.00     0.017 A 
ATOM      8  C8  DEN d   1      -0.879   0.103   0.728  0.00  0.00    -0.094 A 
ATOM      9  C9  DEN d   1       0.140   0.823   0.128  0.00  0.00    -0.072 A 
ENDROOT
TORSDOF 0
ENDMDL
