MODEL 1
REMARK minimizedAffinity 8.33602428
REMARK minimizedRMSD -1
REMARK  0 active torsions:
REMARK  status: ('A' for Active; 'I' for Inactive)
ROOT
ATOM      1  C1  DEN d   1       1.295  -0.318   2.322  0.00  0.00     0.130 A 
ATOM      2  C2  DEN d   1       2.014  -0.519   1.067  0.00  0.00    -0.031 A 
ATOM      3  C3  DEN d   1       1.019  -0.600  -0.021  0.00  0.00     0.027 A 
ATOM      4  C4  DEN d   1      -1.551  -0.429   0.115  0.00  0.00     0.027 A 
ATOM      5  C5  DEN d   1      -2.622  -0.270   0.966  0.00  0.00    -0.003 A 
ATOM      6  C6  DEN d   1      -2.466  -0.151   2.322  0.00  0.00     0.001 A 
ATOM      7  C7  DEN d   1      -1.207  -0.143   2.862  0.00  0.00     0.017 A 
ATOM      8  C8  DEN d   1      -0.123  -0.311   2.011  0.00  0.00    -0.094 A 
ATOM      9  C9  DEN d   1      -0.301  -0.418   0.642  0.00  0.00    -0.072 A 
ENDROOT
TORSDOF 0
ENDMDL
