MODEL 1
REMARK minimizedAffinity -4.5867486
REMARK minimizedRMSD -1
REMARK  0 active torsions:
REMARK  status: ('A' for Active; 'I' for Inactive)
ROOT
ATOM      1  C1  DEN d   1      -1.580  -0.438   0.537  0.00  0.00     0.130 A 
ATOM      2  C2  DEN d   1      -0.516  -0.623  -0.446  0.00  0.00    -0.031 A 
ATOM      3  C3  DEN d   1       0.689   0.071   0.050  0.00  0.00     0.027 A 
ATOM      4  C4  DEN d   1       1.012   1.403   2.235  0.00  0.00     0.027 A 
ATOM      5  C5  DEN d   1       0.390   1.846   3.381  0.00  0.00    -0.003 A 
ATOM      6  C6  DEN d   1      -0.929   1.590   3.642  0.00  0.00     0.001 A 
ATOM      7  C7  DEN d   1      -1.660   0.832   2.766  0.00  0.00     0.017 A 
ATOM      8  C8  DEN d   1      -1.042   0.388   1.604  0.00  0.00    -0.094 A 
ATOM      9  C9  DEN d   1       0.296   0.648   1.364  0.00  0.00    -0.072 A 
ENDROOT
TORSDOF 0
ENDMDL
