MODEL 1
REMARK minimizedAffinity -4.46441269
REMARK minimizedRMSD -1
REMARK  0 active torsions:
REMARK  status: ('A' for Active; 'I' for Inactive)
ROOT
ATOM      1  C1  DEN d   1      -0.687   0.042  -2.945  0.00  0.00     0.130 A 
ATOM      2  C2  DEN d   1       0.683  -0.211  -3.383  0.00  0.00    -0.031 A 
ATOM      3  C3  DEN d   1       1.525  -0.370  -2.181  0.00  0.00     0.027 A 
ATOM      4  C4  DEN d   1       0.844  -0.255   0.304  0.00  0.00     0.027 A 
ATOM      5  C5  DEN d   1      -0.206  -0.052   1.172  0.00  0.00    -0.003 A 
ATOM      6  C6  DEN d   1      -1.473   0.229   0.732  0.00  0.00     0.001 A 
ATOM      7  C7  DEN d   1      -1.731   0.269  -0.612  0.00  0.00     0.017 A 
ATOM      8  C8  DEN d   1      -0.676   0.072  -1.494  0.00  0.00    -0.094 A 
ATOM      9  C9  DEN d   1       0.595  -0.223  -1.030  0.00  0.00    -0.072 A 
ENDROOT
TORSDOF 0
ENDMDL
