MODEL 1
REMARK minimizedAffinity -4.47736835
REMARK minimizedRMSD -1
REMARK  0 active torsions:
REMARK  status: ('A' for Active; 'I' for Inactive)
ROOT
ATOM      1  C1  DEN d   1       1.606  -0.487   1.414  0.00  0.00     0.130 A 
ATOM      2  C2  DEN d   1       2.048  -1.415   0.377  0.00  0.00    -0.031 A 
ATOM      3  C3  DEN d   1       0.903  -1.681  -0.517  0.00  0.00     0.027 A 
ATOM      4  C4  DEN d   1      -1.498  -0.746  -0.400  0.00  0.00     0.027 A 
ATOM      5  C5  DEN d   1      -2.352   0.069   0.311  0.00  0.00    -0.003 A 
ATOM      6  C6  DEN d   1      -1.960   0.723   1.448  0.00  0.00     0.001 A 
ATOM      7  C7  DEN d   1      -0.666   0.609   1.885  0.00  0.00     0.017 A 
ATOM      8  C8  DEN d   1       0.199  -0.216   1.178  0.00  0.00    -0.094 A 
ATOM      9  C9  DEN d   1      -0.213  -0.859   0.023  0.00  0.00    -0.072 A 
ENDROOT
TORSDOF 0
ENDMDL
