MODEL 1
REMARK minimizedAffinity -2.4155786
REMARK minimizedRMSD -1
REMARK  0 active torsions:
REMARK  status: ('A' for Active; 'I' for Inactive)
ROOT
ATOM      1  C1  DEN d   1       2.316   0.121   2.068  0.00  0.00     0.130 A 
ATOM      2  C2  DEN d   1       2.575  -0.989   1.154  0.00  0.00    -0.031 A 
ATOM      3  C3  DEN d   1       1.286  -1.412   0.572  0.00  0.00     0.027 A 
ATOM      4  C4  DEN d   1      -1.074  -0.460   0.991  0.00  0.00     0.027 A 
ATOM      5  C5  DEN d   1      -1.798   0.478   1.693  0.00  0.00    -0.003 A 
ATOM      6  C6  DEN d   1      -1.211   1.333   2.588  0.00  0.00     0.001 A 
ATOM      7  C7  DEN d   1       0.147   1.298   2.770  0.00  0.00     0.017 A 
ATOM      8  C8  DEN d   1       0.882   0.350   2.071  0.00  0.00    -0.094 A 
ATOM      9  C9  DEN d   1       0.272  -0.498   1.162  0.00  0.00    -0.072 A 
ENDROOT
TORSDOF 0
ENDMDL
