MODEL 1
REMARK minimizedAffinity -5.81258249
REMARK minimizedRMSD -1
REMARK  0 active torsions:
REMARK  status: ('A' for Active; 'I' for Inactive)
ROOT
ATOM      1  C1  DEN d   1      -1.211  -0.879  -0.308  0.00  0.00     0.130 A 
ATOM      2  C2  DEN d   1       0.020  -1.214  -1.019  0.00  0.00    -0.031 A 
ATOM      3  C3  DEN d   1       1.135  -0.504  -0.360  0.00  0.00     0.027 A 
ATOM      4  C4  DEN d   1       1.075   1.068   1.684  0.00  0.00     0.027 A 
ATOM      5  C5  DEN d   1       0.257   1.664   2.618  0.00  0.00    -0.003 A 
ATOM      6  C6  DEN d   1      -1.100   1.483   2.622  0.00  0.00     0.001 A 
ATOM      7  C7  DEN d   1      -1.676   0.649   1.700  0.00  0.00     0.017 A 
ATOM      8  C8  DEN d   1      -0.859   0.051   0.750  0.00  0.00    -0.094 A 
ATOM      9  C9  DEN d   1       0.513   0.237   0.770  0.00  0.00    -0.072 A 
ENDROOT
TORSDOF 0
ENDMDL
