MODEL 1
REMARK minimizedAffinity -4.35459423
REMARK minimizedRMSD -1
REMARK  0 active torsions:
REMARK  status: ('A' for Active; 'I' for Inactive)
ROOT
ATOM      1  C1  DEN d   1       0.192   0.843   2.524  0.00  0.00     0.130 A 
ATOM      2  C2  DEN d   1      -1.105   1.081   3.150  0.00  0.00    -0.031 A 
ATOM      3  C3  DEN d   1      -2.152   0.835   2.139  0.00  0.00     0.027 A 
ATOM      4  C4  DEN d   1      -1.892   0.108  -0.322  0.00  0.00     0.027 A 
ATOM      5  C5  DEN d   1      -0.985  -0.206  -1.310  0.00  0.00    -0.003 A 
ATOM      6  C6  DEN d   1       0.368  -0.160  -1.100  0.00  0.00     0.001 A 
ATOM      7  C7  DEN d   1       0.852   0.164   0.140  0.00  0.00     0.017 A 
ATOM      8  C8  DEN d   1      -0.056   0.490   1.138  0.00  0.00    -0.094 A 
ATOM      9  C9  DEN d   1      -1.420   0.425   0.910  0.00  0.00    -0.072 A 
ENDROOT
TORSDOF 0
ENDMDL
