MODEL 1
REMARK minimizedAffinity -3.92483115
REMARK minimizedRMSD -1
REMARK  0 active torsions:
REMARK  status: ('A' for Active; 'I' for Inactive)
ROOT
ATOM      1  C   UNL d   1       2.207  -4.487   0.993  0.00  0.00     0.172 C 
ATOM      2  N   UNL d   1       1.693  -3.140   0.920  0.00  0.00    -0.070 N 
ATOM      3  C1  UNL d   1       0.868  -2.549   1.840  0.00  0.00    -0.004 A 
ATOM      4  C2  UNL d   1       0.607  -1.267   1.410  0.00  0.00    -0.047 A 
ATOM      5  C3  UNL d   1       1.297  -1.080   0.189  0.00  0.00    -0.047 A 
ATOM      6  C4  UNL d   1       1.961  -2.256  -0.091  0.00  0.00    -0.004 A 
ENDROOT
TORSDOF 0
ENDMDL
