MODEL 1
REMARK minimizedAffinity 4.6730752
REMARK minimizedRMSD -1
REMARK  0 active torsions:
REMARK  status: ('A' for Active; 'I' for Inactive)
ROOT
ATOM      1  C   UNL d   1       1.878  -2.650  -0.154  0.00  0.00     0.172 C 
ATOM      2  N   UNL d   1       1.121  -1.741   0.674  0.00  0.00    -0.070 N 
ATOM      3  C1  UNL d   1       1.564  -0.534   1.145  0.00  0.00    -0.004 A 
ATOM      4  C2  UNL d   1       0.550   0.026   1.892  0.00  0.00    -0.047 A 
ATOM      5  C3  UNL d   1      -0.540  -0.877   1.870  0.00  0.00    -0.047 A 
ATOM      6  C4  UNL d   1      -0.159  -1.962   1.109  0.00  0.00    -0.004 A 
ENDROOT
TORSDOF 0
ENDMDL
