MODEL 1
REMARK minimizedAffinity -0.0830158964
REMARK minimizedRMSD -1
REMARK  0 active torsions:
REMARK  status: ('A' for Active; 'I' for Inactive)
ROOT
ATOM      1  C   UNL d   1      -4.817   5.221   6.000  0.00  0.00     0.172 C 
ATOM      2  N   UNL d   1      -4.882   3.878   5.474  0.00  0.00    -0.070 N 
ATOM      3  C1  UNL d   1      -3.850   3.201   4.882  0.00  0.00    -0.004 A 
ATOM      4  C2  UNL d   1      -4.315   1.955   4.519  0.00  0.00    -0.047 A 
ATOM      5  C3  UNL d   1      -5.674   1.881   4.906  0.00  0.00    -0.047 A 
ATOM      6  C4  UNL d   1      -6.000   3.085   5.494  0.00  0.00    -0.004 A 
ENDROOT
TORSDOF 0
ENDMDL
