MODEL 1
REMARK minimizedAffinity 2.9826715
REMARK minimizedRMSD -1
REMARK  0 active torsions:
REMARK  status: ('A' for Active; 'I' for Inactive)
ROOT
ATOM      1  C   UNL d   1       2.344  -4.390   0.362  0.00  0.00     0.172 C 
ATOM      2  N   UNL d   1       1.541  -3.191   0.434  0.00  0.00    -0.070 N 
ATOM      3  C1  UNL d   1       1.629  -2.119  -0.413  0.00  0.00    -0.004 A 
ATOM      4  C2  UNL d   1       0.698  -1.186  -0.011  0.00  0.00    -0.047 A 
ATOM      5  C3  UNL d   1       0.028  -1.715   1.117  0.00  0.00    -0.047 A 
ATOM      6  C4  UNL d   1       0.570  -2.957   1.371  0.00  0.00    -0.004 A 
ENDROOT
TORSDOF 0
ENDMDL
