MODEL 1
REMARK minimizedAffinity -0.448492408
REMARK minimizedRMSD -1
REMARK  0 active torsions:
REMARK  status: ('A' for Active; 'I' for Inactive)
ROOT
ATOM      1  C   UNL d   1       2.133  -2.751   0.173  0.00  0.00     0.172 C 
ATOM      2  N   UNL d   1       1.237  -1.746   0.694  0.00  0.00    -0.070 N 
ATOM      3  C1  UNL d   1       1.457  -0.980   1.808  0.00  0.00    -0.004 A 
ATOM      4  C2  UNL d   1       0.372  -0.146   1.968  0.00  0.00    -0.047 A 
ATOM      5  C3  UNL d   1      -0.532  -0.421   0.915  0.00  0.00    -0.047 A 
ATOM      6  C4  UNL d   1       0.028  -1.415   0.141  0.00  0.00    -0.004 A 
ENDROOT
TORSDOF 0
ENDMDL
