MODEL 1
REMARK minimizedAffinity 4.92854261
REMARK minimizedRMSD -1
REMARK  0 active torsions:
REMARK  status: ('A' for Active; 'I' for Inactive)
ROOT
ATOM      1  C   UNL d   1       2.366  -2.966   0.134  0.00  0.00     0.172 C 
ATOM      2  N   UNL d   1       1.386  -2.155   0.817  0.00  0.00    -0.070 N 
ATOM      3  C1  UNL d   1       1.618  -0.930   1.384  0.00  0.00    -0.004 A 
ATOM      4  C2  UNL d   1       0.434  -0.487   1.932  0.00  0.00    -0.047 A 
ATOM      5  C3  UNL d   1      -0.544  -1.480   1.686  0.00  0.00    -0.047 A 
ATOM      6  C4  UNL d   1       0.072  -2.501   0.994  0.00  0.00    -0.004 A 
ENDROOT
TORSDOF 0
ENDMDL
