MODEL 1
REMARK minimizedAffinity -2.83067465
REMARK minimizedRMSD -1
REMARK  0 active torsions:
REMARK  status: ('A' for Active; 'I' for Inactive)
ROOT
ATOM      1  C   UNL d   1       0.048  -1.719   2.033  0.00  0.00     0.172 C 
ATOM      2  N   UNL d   1       0.982  -2.235   1.059  0.00  0.00    -0.070 N 
ATOM      3  C1  UNL d   1       1.627  -3.440   1.133  0.00  0.00    -0.004 A 
ATOM      4  C2  UNL d   1       2.426  -3.560   0.016  0.00  0.00    -0.047 A 
ATOM      5  C3  UNL d   1       2.255  -2.386  -0.755  0.00  0.00    -0.047 A 
ATOM      6  C4  UNL d   1       1.356  -1.583  -0.086  0.00  0.00    -0.004 A 
ENDROOT
TORSDOF 0
ENDMDL
