MODEL 1
REMARK minimizedAffinity 3.36930394
REMARK minimizedRMSD -1
REMARK  0 active torsions:
REMARK  status: ('A' for Active; 'I' for Inactive)
ROOT
ATOM      1  C   UNL d   1       2.364  -3.428   0.491  0.00  0.00     0.172 C 
ATOM      2  N   UNL d   1       1.575  -2.251   0.770  0.00  0.00    -0.070 N 
ATOM      3  C1  UNL d   1       0.344  -2.238   1.370  0.00  0.00    -0.004 A 
ATOM      4  C2  UNL d   1      -0.071  -0.927   1.454  0.00  0.00    -0.047 A 
ATOM      5  C3  UNL d   1       0.945  -0.124   0.884  0.00  0.00    -0.047 A 
ATOM      6  C4  UNL d   1       1.952  -0.969   0.468  0.00  0.00    -0.004 A 
ENDROOT
TORSDOF 0
ENDMDL
