MODEL 1
REMARK minimizedAffinity -1.03004777
REMARK minimizedRMSD -1
REMARK  0 active torsions:
REMARK  status: ('A' for Active; 'I' for Inactive)
ROOT
ATOM      1  C   UNL d   1      -5.965   0.081  -6.000  0.00  0.00     0.172 C 
ATOM      2  N   UNL d   1      -4.946  -0.936  -5.886  0.00  0.00    -0.070 N 
ATOM      3  C1  UNL d   1      -5.153  -2.286  -5.978  0.00  0.00    -0.004 A 
ATOM      4  C2  UNL d   1      -3.936  -2.912  -5.817  0.00  0.00    -0.047 A 
ATOM      5  C3  UNL d   1      -2.963  -1.902  -5.621  0.00  0.00    -0.047 A 
ATOM      6  C4  UNL d   1      -3.616  -0.689  -5.669  0.00  0.00    -0.004 A 
ENDROOT
TORSDOF 0
ENDMDL
