MODEL 1
REMARK minimizedAffinity -3.25194454
REMARK minimizedRMSD -1
REMARK  0 active torsions:
REMARK  status: ('A' for Active; 'I' for Inactive)
ROOT
ATOM      1  N1  IND d   1       1.329  -0.233   0.563  0.00  0.00    -0.196 N 
ATOM      2  C2  IND d   1       1.092  -0.717  -0.693  0.00  0.00     0.054 A 
ATOM      3  C3  IND d   1      -0.110  -0.292  -1.142  0.00  0.00    -0.031 A 
ATOM      4  C4  IND d   1      -1.809   1.285  -0.022  0.00  0.00     0.051 A 
ATOM      5  C5  IND d   1      -2.052   1.954   1.145  0.00  0.00    -0.031 A 
ATOM      6  C6  IND d   1      -1.160   1.930   2.198  0.00  0.00     0.015 A 
ATOM      7  C7  IND d   1       0.018   1.242   2.118  0.00  0.00    -0.016 A 
ATOM      8  C8  IND d   1       0.264   0.556   0.937  0.00  0.00    -0.047 A 
ATOM      9  C9  IND d   1      -0.657   0.542  -0.118  0.00  0.00    -0.096 A 
ATOM     10  HN1 IND d   1       2.027  -0.395   1.039  0.00  0.00     0.298 HD
ENDROOT
TORSDOF 0
ENDMDL
