MODEL 1
REMARK minimizedAffinity -5.17607212
REMARK minimizedRMSD -1
REMARK  0 active torsions:
REMARK  status: ('A' for Active; 'I' for Inactive)
ROOT
ATOM      1  N1  IND d   1       0.931  -1.266   0.222  0.00  0.00    -0.196 N 
ATOM      2  C2  IND d   1       0.840  -1.585  -1.104  0.00  0.00     0.054 A 
ATOM      3  C3  IND d   1       0.077  -0.677  -1.754  0.00  0.00    -0.031 A 
ATOM      4  C4  IND d   1      -1.037   1.464  -0.859  0.00  0.00     0.051 A 
ATOM      5  C5  IND d   1      -1.265   2.158   0.297  0.00  0.00    -0.031 A 
ATOM      6  C6  IND d   1      -0.760   1.738   1.511  0.00  0.00     0.015 A 
ATOM      7  C7  IND d   1       0.004   0.610   1.613  0.00  0.00    -0.016 A 
ATOM      8  C8  IND d   1       0.232  -0.100   0.443  0.00  0.00    -0.047 A 
ATOM      9  C9  IND d   1      -0.313   0.298  -0.785  0.00  0.00    -0.096 A 
ATOM     10  HN1 IND d   1       1.354  -1.719   0.819  0.00  0.00     0.298 HD
ENDROOT
TORSDOF 0
ENDMDL
