MODEL 1
REMARK minimizedAffinity -2.71117663
REMARK minimizedRMSD -1
REMARK  0 active torsions:
REMARK  status: ('A' for Active; 'I' for Inactive)
ROOT
ATOM      1  N1  IND d   1      -1.261  -0.252  -1.049  0.00  0.00    -0.196 N 
ATOM      2  C2  IND d   1      -0.446  -1.347  -1.127  0.00  0.00     0.054 A 
ATOM      3  C3  IND d   1       0.411  -1.371  -0.082  0.00  0.00    -0.031 A 
ATOM      4  C4  IND d   1       0.585   0.229   1.928  0.00  0.00     0.051 A 
ATOM      5  C5  IND d   1       0.077   1.398   2.421  0.00  0.00    -0.031 A 
ATOM      6  C6  IND d   1      -0.925   2.089   1.771  0.00  0.00     0.015 A 
ATOM      7  C7  IND d   1      -1.467   1.629   0.605  0.00  0.00    -0.016 A 
ATOM      8  C8  IND d   1      -0.948   0.446   0.097  0.00  0.00    -0.047 A 
ATOM      9  C9  IND d   1       0.098  -0.238   0.730  0.00  0.00    -0.096 A 
ATOM     10  HN1 IND d   1      -1.867  -0.036  -1.619  0.00  0.00     0.298 HD
ENDROOT
TORSDOF 0
ENDMDL
