MODEL 1
REMARK minimizedAffinity -2.79913497
REMARK minimizedRMSD -1
REMARK  0 active torsions:
REMARK  status: ('A' for Active; 'I' for Inactive)
ROOT
ATOM      1  N1  IND d   1       0.612  -1.211   0.362  0.00  0.00    -0.196 N 
ATOM      2  C2  IND d   1       0.484  -1.506  -0.966  0.00  0.00     0.054 A 
ATOM      3  C3  IND d   1      -0.211  -0.535  -1.599  0.00  0.00    -0.031 A 
ATOM      4  C4  IND d   1      -1.146   1.677  -0.671  0.00  0.00     0.051 A 
ATOM      5  C5  IND d   1      -1.309   2.373   0.494  0.00  0.00    -0.031 A 
ATOM      6  C6  IND d   1      -0.828   1.901   1.699  0.00  0.00     0.015 A 
ATOM      7  C7  IND d   1      -0.153   0.716   1.781  0.00  0.00    -0.016 A 
ATOM      8  C8  IND d   1       0.008   0.004   0.602  0.00  0.00    -0.047 A 
ATOM      9  C9  IND d   1      -0.515   0.456  -0.616  0.00  0.00    -0.096 A 
ATOM     10  HN1 IND d   1       1.004  -1.702   0.950  0.00  0.00     0.298 HD
ENDROOT
TORSDOF 0
ENDMDL
