MODEL 1
REMARK minimizedAffinity -5.14801407
REMARK minimizedRMSD -1
REMARK  0 active torsions:
REMARK  status: ('A' for Active; 'I' for Inactive)
ROOT
ATOM      1  N1  IND d   1      -1.296   2.164   0.456  0.00  0.00    -0.196 N 
ATOM      2  C2  IND d   1      -1.155   2.548   1.761  0.00  0.00     0.054 A 
ATOM      3  C3  IND d   1      -0.474   1.610   2.456  0.00  0.00    -0.031 A 
ATOM      4  C4  IND d   1       0.591  -0.584   1.634  0.00  0.00     0.051 A 
ATOM      5  C5  IND d   1       0.697  -1.383   0.529  0.00  0.00    -0.031 A 
ATOM      6  C6  IND d   1       0.134  -1.031  -0.681  0.00  0.00     0.015 A 
ATOM      7  C7  IND d   1      -0.548   0.142  -0.835  0.00  0.00    -0.016 A 
ATOM      8  C8  IND d   1      -0.663   0.952   0.286  0.00  0.00    -0.047 A 
ATOM      9  C9  IND d   1      -0.131   0.581   1.527  0.00  0.00    -0.096 A 
ATOM     10  HN1 IND d   1      -1.710   2.604  -0.154  0.00  0.00     0.298 HD
ENDROOT
TORSDOF 0
ENDMDL
