MODEL 1
REMARK minimizedAffinity -2.14587092
REMARK minimizedRMSD -1
REMARK  0 active torsions:
REMARK  status: ('A' for Active; 'I' for Inactive)
ROOT
ATOM      1  N1  IND d   1      -0.250   2.052   2.326  0.00  0.00    -0.196 N 
ATOM      2  C2  IND d   1      -1.383   2.722   1.958  0.00  0.00     0.054 A 
ATOM      3  C3  IND d   1      -1.947   2.134   0.879  0.00  0.00    -0.031 A 
ATOM      4  C4  IND d   1      -1.238   0.004  -0.381  0.00  0.00     0.051 A 
ATOM      5  C5  IND d   1      -0.246  -0.934  -0.437  0.00  0.00    -0.031 A 
ATOM      6  C6  IND d   1       0.816  -0.927   0.445  0.00  0.00     0.015 A 
ATOM      7  C7  IND d   1       0.919   0.017   1.427  0.00  0.00    -0.016 A 
ATOM      8  C8  IND d   1      -0.083   0.976   1.482  0.00  0.00    -0.047 A 
ATOM      9  C9  IND d   1      -1.140   0.999   0.563  0.00  0.00    -0.096 A 
ATOM     10  HN1 IND d   1       0.271   2.267   2.976  0.00  0.00     0.298 HD
ENDROOT
TORSDOF 0
ENDMDL
