MODEL 1
REMARK minimizedAffinity -3.66080117
REMARK minimizedRMSD -1
REMARK  0 active torsions:
REMARK  status: ('A' for Active; 'I' for Inactive)
ROOT
ATOM      1  N1  IND d   1       1.241  -0.616  -0.163  0.00  0.00    -0.196 N 
ATOM      2  C2  IND d   1       0.928  -0.466  -1.486  0.00  0.00     0.054 A 
ATOM      3  C3  IND d   1      -0.043   0.462  -1.637  0.00  0.00    -0.031 A 
ATOM      4  C4  IND d   1      -1.191   1.932   0.137  0.00  0.00     0.051 A 
ATOM      5  C5  IND d   1      -1.265   2.131   1.487  0.00  0.00    -0.031 A 
ATOM      6  C6  IND d   1      -0.490   1.412   2.374  0.00  0.00     0.015 A 
ATOM      7  C7  IND d   1       0.401   0.471   1.941  0.00  0.00    -0.016 A 
ATOM      8  C8  IND d   1       0.473   0.261   0.571  0.00  0.00    -0.047 A 
ATOM      9  C9  IND d   1      -0.342   0.958  -0.331  0.00  0.00    -0.096 A 
ATOM     10  HN1 IND d   1       1.820  -1.166   0.156  0.00  0.00     0.298 HD
ENDROOT
TORSDOF 0
ENDMDL
