MODEL 1
REMARK minimizedAffinity 5.33633995
REMARK minimizedRMSD -1
REMARK  1 active torsions:
REMARK  status: ('A' for Active; 'I' for Inactive)
REMARK    1  A    between atoms: C1_2  and  C2_3 
ROOT
ATOM      1  C2  UNL d   1       1.809   4.082  -1.884  0.00  0.00    -0.081 A 
ATOM      2  C3  UNL d   1       1.306   3.192  -2.840  0.00  0.00     0.006 A 
ATOM      3  C4  UNL d   1       0.263   2.320  -2.518  0.00  0.00     0.002 A 
ATOM      4  C5  UNL d   1      -0.299   2.330  -1.237  0.00  0.00    -0.080 A 
ATOM      5  C6  UNL d   1      -1.439   1.420  -0.886  0.00  0.00     0.076 C 
ATOM      6  C7  UNL d   1       0.215   3.207  -0.276  0.00  0.00     0.002 A 
ATOM      7  C8  UNL d   1       1.258   4.078  -0.597  0.00  0.00     0.006 A 
ENDROOT
BRANCH   1   8
ATOM      8  C1  UNL d   1       2.889   5.068  -2.247  0.00  0.00     0.054 C 
ATOM      9  C   UNL d   1       3.331   4.897  -3.694  0.00  0.00     0.018 C 
ENDBRANCH   1   8
TORSDOF 1
ENDMDL
