MODEL 1
REMARK minimizedAffinity 3.61690044
REMARK minimizedRMSD -1
REMARK  1 active torsions:
REMARK  status: ('A' for Active; 'I' for Inactive)
REMARK    1  A    between atoms: C1_2  and  C2_3 
ROOT
ATOM      1  C2  UNL d   1       5.500   3.260   3.589  0.00  0.00    -0.081 A 
ATOM      2  C3  UNL d   1       4.633   2.744   2.619  0.00  0.00     0.006 A 
ATOM      3  C4  UNL d   1       4.124   1.449   2.740  0.00  0.00     0.002 A 
ATOM      4  C5  UNL d   1       4.467   0.652   3.838  0.00  0.00    -0.080 A 
ATOM      5  C6  UNL d   1       3.903  -0.729   3.996  0.00  0.00     0.076 C 
ATOM      6  C7  UNL d   1       5.347   1.161   4.798  0.00  0.00     0.002 A 
ATOM      7  C8  UNL d   1       5.857   2.456   4.677  0.00  0.00     0.006 A 
ENDROOT
BRANCH   1   8
ATOM      8  C1  UNL d   1       5.999   4.680   3.494  0.00  0.00     0.054 C 
ATOM      9  C   UNL d   1       5.846   5.410   4.821  0.00  0.00     0.018 C 
ENDBRANCH   1   8
TORSDOF 1
ENDMDL
