MODEL 1
REMARK minimizedAffinity 9.78390598
REMARK minimizedRMSD -1
REMARK  1 active torsions:
REMARK  status: ('A' for Active; 'I' for Inactive)
REMARK    1  A    between atoms: C1_2  and  C2_3 
ROOT
ATOM      1  C2  UNL d   1      -3.024   0.398   1.068  0.00  0.00    -0.081 A 
ATOM      2  C3  UNL d   1      -2.671   1.356   2.026  0.00  0.00     0.006 A 
ATOM      3  C4  UNL d   1      -2.685   2.716   1.707  0.00  0.00     0.002 A 
ATOM      4  C5  UNL d   1      -3.061   3.141   0.428  0.00  0.00    -0.080 A 
ATOM      5  C6  UNL d   1      -3.111   4.599   0.081  0.00  0.00     0.076 C 
ATOM      6  C7  UNL d   1      -3.398   2.183  -0.535  0.00  0.00     0.002 A 
ATOM      7  C8  UNL d   1      -3.382   0.823  -0.216  0.00  0.00     0.006 A 
ENDROOT
BRANCH   1   8
ATOM      8  C1  UNL d   1      -3.071  -1.065   1.429  0.00  0.00     0.054 C 
ATOM      9  C   UNL d   1      -3.398  -1.261   2.902  0.00  0.00     0.018 C 
ENDBRANCH   1   8
TORSDOF 1
ENDMDL
