MODEL 1
REMARK minimizedAffinity 8.64211845
REMARK minimizedRMSD -1
REMARK  1 active torsions:
REMARK  status: ('A' for Active; 'I' for Inactive)
REMARK    1  A    between atoms: C1_2  and  C2_3 
ROOT
ATOM      1  C2  UNL d   1      -3.123   0.880   2.121  0.00  0.00    -0.081 A 
ATOM      2  C3  UNL d   1      -3.057   2.101   2.803  0.00  0.00     0.006 A 
ATOM      3  C4  UNL d   1      -3.181   3.307   2.110  0.00  0.00     0.002 A 
ATOM      4  C5  UNL d   1      -3.382   3.313   0.726  0.00  0.00    -0.080 A 
ATOM      5  C6  UNL d   1      -3.547   4.601  -0.026  0.00  0.00     0.076 C 
ATOM      6  C7  UNL d   1      -3.430   2.094   0.041  0.00  0.00     0.002 A 
ATOM      7  C8  UNL d   1      -3.305   0.888   0.733  0.00  0.00     0.006 A 
ENDROOT
BRANCH   1   8
ATOM      8  C1  UNL d   1      -3.054  -0.424   2.873  0.00  0.00     0.054 C 
ATOM      9  C   UNL d   1      -2.610  -0.209   4.313  0.00  0.00     0.018 C 
ENDBRANCH   1   8
TORSDOF 1
ENDMDL
