MODEL 1
REMARK minimizedAffinity -4.59277773
REMARK minimizedRMSD -1
REMARK  1 active torsions:
REMARK  status: ('A' for Active; 'I' for Inactive)
REMARK    1  A    between atoms: C1_2  and  C2_3 
ROOT
ATOM      1  C2  UNL d   1      -2.900   0.025   1.076  0.00  0.00    -0.081 A 
ATOM      2  C3  UNL d   1      -3.666   0.892   0.287  0.00  0.00     0.006 A 
ATOM      3  C4  UNL d   1      -3.729   2.254   0.588  0.00  0.00     0.002 A 
ATOM      4  C5  UNL d   1      -3.022   2.774   1.678  0.00  0.00    -0.080 A 
ATOM      5  C6  UNL d   1      -3.056   4.240   1.994  0.00  0.00     0.076 C 
ATOM      6  C7  UNL d   1      -2.270   1.905   2.476  0.00  0.00     0.002 A 
ATOM      7  C8  UNL d   1      -2.208   0.543   2.176  0.00  0.00     0.006 A 
ENDROOT
BRANCH   1   8
ATOM      8  C1  UNL d   1      -2.779  -1.433   0.715  0.00  0.00     0.054 C 
ATOM      9  C   UNL d   1      -1.342  -1.801   0.374  0.00  0.00     0.018 C 
ENDBRANCH   1   8
TORSDOF 1
ENDMDL
