MODEL 1
REMARK minimizedAffinity 5.46678019
REMARK minimizedRMSD -1
REMARK  1 active torsions:
REMARK  status: ('A' for Active; 'I' for Inactive)
REMARK    1  A    between atoms: C1_2  and  C2_3 
ROOT
ATOM      1  C2  UNL d   1      -1.644  -4.161  -1.086  0.00  0.00    -0.081 A 
ATOM      2  C3  UNL d   1      -2.937  -4.390  -1.571  0.00  0.00     0.006 A 
ATOM      3  C4  UNL d   1      -3.936  -4.874  -0.724  0.00  0.00     0.002 A 
ATOM      4  C5  UNL d   1      -3.661  -5.130   0.624  0.00  0.00    -0.080 A 
ATOM      5  C6  UNL d   1      -4.732  -5.621   1.552  0.00  0.00     0.076 C 
ATOM      6  C7  UNL d   1      -2.365  -4.918   1.105  0.00  0.00     0.002 A 
ATOM      7  C8  UNL d   1      -1.365  -4.434   0.258  0.00  0.00     0.006 A 
ENDROOT
BRANCH   1   8
ATOM      8  C1  UNL d   1      -0.581  -3.577  -1.981  0.00  0.00     0.054 C 
ATOM      9  C   UNL d   1       0.246  -4.670  -2.643  0.00  0.00     0.018 C 
ENDBRANCH   1   8
TORSDOF 1
ENDMDL
