MODEL 1
REMARK minimizedAffinity 6.40459013
REMARK minimizedRMSD -1
REMARK  1 active torsions:
REMARK  status: ('A' for Active; 'I' for Inactive)
REMARK    1  A    between atoms: C1_2  and  C2_3 
ROOT
ATOM      1  C2  UNL d   1       3.946  -0.080   3.891  0.00  0.00    -0.081 A 
ATOM      2  C3  UNL d   1       4.401  -0.043   2.567  0.00  0.00     0.006 A 
ATOM      3  C4  UNL d   1       3.865  -0.907   1.609  0.00  0.00     0.002 A 
ATOM      4  C5  UNL d   1       2.859  -1.815   1.957  0.00  0.00    -0.080 A 
ATOM      5  C6  UNL d   1       2.253  -2.727   0.931  0.00  0.00     0.076 C 
ATOM      6  C7  UNL d   1       2.416  -1.864   3.283  0.00  0.00     0.002 A 
ATOM      7  C8  UNL d   1       2.953  -1.001   4.241  0.00  0.00     0.006 A 
ENDROOT
BRANCH   1   8
ATOM      8  C1  UNL d   1       4.477   0.894   4.911  0.00  0.00     0.054 C 
ATOM      9  C   UNL d   1       5.998   0.935   4.898  0.00  0.00     0.018 C 
ENDBRANCH   1   8
TORSDOF 1
ENDMDL
