MODEL 1
REMARK minimizedAffinity 2.23064041
REMARK minimizedRMSD -1
REMARK  1 active torsions:
REMARK  status: ('A' for Active; 'I' for Inactive)
REMARK    1  A    between atoms: C1_2  and  C2_3 
ROOT
ATOM      1  C2  UNL d   1      -2.987   1.945   0.747  0.00  0.00    -0.081 A 
ATOM      2  C3  UNL d   1      -3.490   0.830   0.065  0.00  0.00     0.006 A 
ATOM      3  C4  UNL d   1      -3.753  -0.359   0.750  0.00  0.00     0.002 A 
ATOM      4  C5  UNL d   1      -3.527  -0.450   2.127  0.00  0.00    -0.080 A 
ATOM      5  C6  UNL d   1      -3.834  -1.711   2.879  0.00  0.00     0.076 C 
ATOM      6  C7  UNL d   1      -3.008   0.658   2.805  0.00  0.00     0.002 A 
ATOM      7  C8  UNL d   1      -2.743   1.847   2.121  0.00  0.00     0.006 A 
ENDROOT
BRANCH   1   8
ATOM      8  C1  UNL d   1      -2.762   3.248   0.023  0.00  0.00     0.054 C 
ATOM      9  C   UNL d   1      -3.386   4.414   0.777  0.00  0.00     0.018 C 
ENDBRANCH   1   8
TORSDOF 1
ENDMDL
