MODEL 1
REMARK minimizedAffinity 1.20952845
REMARK minimizedRMSD -1
REMARK  1 active torsions:
REMARK  status: ('A' for Active; 'I' for Inactive)
REMARK    1  A    between atoms: C1_2  and  C2_3 
ROOT
ATOM      1  C2  UNL d   1      -3.593  -0.393   1.542  0.00  0.00    -0.081 A 
ATOM      2  C3  UNL d   1      -4.990  -0.464   1.613  0.00  0.00     0.006 A 
ATOM      3  C4  UNL d   1      -5.772  -0.145   0.501  0.00  0.00     0.002 A 
ATOM      4  C5  UNL d   1      -5.172   0.244  -0.702  0.00  0.00    -0.080 A 
ATOM      5  C6  UNL d   1      -5.999   0.560  -1.912  0.00  0.00     0.076 C 
ATOM      6  C7  UNL d   1      -3.777   0.332  -0.767  0.00  0.00     0.002 A 
ATOM      7  C8  UNL d   1      -2.994   0.013   0.344  0.00  0.00     0.006 A 
ENDROOT
BRANCH   1   8
ATOM      8  C1  UNL d   1      -2.744  -0.799   2.720  0.00  0.00     0.054 C 
ATOM      9  C   UNL d   1      -3.020   0.082   3.930  0.00  0.00     0.018 C 
ENDBRANCH   1   8
TORSDOF 1
ENDMDL
