MODEL 1
REMARK minimizedAffinity 1.16361356
REMARK minimizedRMSD -1
REMARK  1 active torsions:
REMARK  status: ('A' for Active; 'I' for Inactive)
REMARK    1  A    between atoms: C1_2  and  C2_3 
ROOT
ATOM      1  C2  UNL d   1       4.175   0.364   3.601  0.00  0.00    -0.081 A 
ATOM      2  C3  UNL d   1       3.855  -0.811   4.292  0.00  0.00     0.006 A 
ATOM      3  C4  UNL d   1       3.124  -1.824   3.667  0.00  0.00     0.002 A 
ATOM      4  C5  UNL d   1       2.709  -1.683   2.339  0.00  0.00    -0.080 A 
ATOM      5  C6  UNL d   1       1.950  -2.776   1.646  0.00  0.00     0.076 C 
ATOM      6  C7  UNL d   1       3.014  -0.502   1.653  0.00  0.00     0.002 A 
ATOM      7  C8  UNL d   1       3.743   0.512   2.278  0.00  0.00     0.006 A 
ENDROOT
BRANCH   1   8
ATOM      8  C1  UNL d   1       5.018   1.431   4.251  0.00  0.00     0.054 C 
ATOM      9  C   UNL d   1       6.000   0.830   5.247  0.00  0.00     0.018 C 
ENDBRANCH   1   8
TORSDOF 1
ENDMDL
