MODEL 1
REMARK minimizedAffinity 6.57975054
REMARK minimizedRMSD -1
REMARK  1 active torsions:
REMARK  status: ('A' for Active; 'I' for Inactive)
REMARK    1  A    between atoms: C1_2  and  C2_3 
ROOT
ATOM      1  C2  UNL d   1      -5.198  -1.491   3.256  0.00  0.00    -0.081 A 
ATOM      2  C3  UNL d   1      -5.287  -0.753   2.069  0.00  0.00     0.006 A 
ATOM      3  C4  UNL d   1      -4.499   0.385   1.882  0.00  0.00     0.002 A 
ATOM      4  C5  UNL d   1      -3.604   0.799   2.874  0.00  0.00    -0.080 A 
ATOM      5  C6  UNL d   1      -2.730   2.001   2.674  0.00  0.00     0.076 C 
ATOM      6  C7  UNL d   1      -3.527   0.072   4.067  0.00  0.00     0.002 A 
ATOM      7  C8  UNL d   1      -4.316  -1.066   4.255  0.00  0.00     0.006 A 
ENDROOT
BRANCH   1   8
ATOM      8  C1  UNL d   1      -6.000  -2.755   3.434  0.00  0.00     0.054 C 
ATOM      9  C   UNL d   1      -5.182  -3.985   3.067  0.00  0.00     0.018 C 
ENDBRANCH   1   8
TORSDOF 1
ENDMDL
