MODEL 1
REMARK minimizedAffinity -3.41149211
REMARK minimizedRMSD -1
REMARK  1 active torsions:
REMARK  status: ('A' for Active; 'I' for Inactive)
REMARK    1  A    between atoms: C1_2  and  C2_3 
ROOT
ATOM      1  C2  UNL d   1       3.134  -0.714   1.981  0.00  0.00    -0.081 A 
ATOM      2  C3  UNL d   1       3.334   0.641   2.274  0.00  0.00     0.006 A 
ATOM      3  C4  UNL d   1       4.250   1.026   3.256  0.00  0.00     0.002 A 
ATOM      4  C5  UNL d   1       4.986   0.064   3.956  0.00  0.00    -0.080 A 
ATOM      5  C6  UNL d   1       5.995   0.465   4.991  0.00  0.00     0.076 C 
ATOM      6  C7  UNL d   1       4.775  -1.290   3.675  0.00  0.00     0.002 A 
ATOM      7  C8  UNL d   1       3.859  -1.676   2.694  0.00  0.00     0.006 A 
ENDROOT
BRANCH   1   8
ATOM      8  C1  UNL d   1       2.195  -1.129   0.878  0.00  0.00     0.054 C 
ATOM      9  C   UNL d   1       2.410  -2.584   0.486  0.00  0.00     0.018 C 
ENDBRANCH   1   8
TORSDOF 1
ENDMDL
