MODEL 1
REMARK minimizedAffinity -2.47492075
REMARK minimizedRMSD -1
REMARK  1 active torsions:
REMARK  status: ('A' for Active; 'I' for Inactive)
REMARK    1  A    between atoms: C1_2  and  C2_3 
ROOT
ATOM      1  C2  UNL d   1       1.191  -0.637   1.067  0.00  0.00    -0.076 A 
ATOM      2  C3  UNL d   1       0.395   0.401   0.554  0.00  0.00     0.004 A 
ATOM      3  C4  UNL d   1       0.938   1.656   0.284  0.00  0.00    -0.003 A 
ATOM      4  C5  UNL d   1       2.287   1.892   0.522  0.00  0.00     0.000 A 
ATOM      5  C6  UNL d   1       3.096   0.869   1.014  0.00  0.00     0.000 A 
ATOM      6  C7  UNL d   1       2.568  -0.407   1.276  0.00  0.00    -0.073 A 
ATOM      7  C8  UNL d   1       3.485  -1.472   1.812  0.00  0.00     0.078 C 
ENDROOT
BRANCH   1   8
ATOM      8  C1  UNL d   1       0.541  -1.969   1.367  0.00  0.00     0.053 C 
ATOM      9  C   UNL d   1      -0.955  -1.961   1.093  0.00  0.00     0.018 C 
ENDBRANCH   1   8
TORSDOF 1
ENDMDL
