MODEL 1
REMARK minimizedAffinity 1.45719409
REMARK minimizedRMSD -1
REMARK  1 active torsions:
REMARK  status: ('A' for Active; 'I' for Inactive)
REMARK    1  A    between atoms: C1_2  and  C2_3 
ROOT
ATOM      1  C2  UNL d   1       1.467  -0.619   1.952  0.00  0.00    -0.076 A 
ATOM      2  C3  UNL d   1       2.564   0.261   1.934  0.00  0.00     0.004 A 
ATOM      3  C4  UNL d   1       2.582   1.368   1.087  0.00  0.00    -0.003 A 
ATOM      4  C5  UNL d   1       1.503   1.614   0.246  0.00  0.00     0.000 A 
ATOM      5  C6  UNL d   1       0.399   0.762   0.263  0.00  0.00     0.000 A 
ATOM      6  C7  UNL d   1       0.358  -0.350   1.123  0.00  0.00    -0.073 A 
ATOM      7  C8  UNL d   1      -0.855  -1.239   1.096  0.00  0.00     0.078 C 
ENDROOT
BRANCH   1   8
ATOM      8  C1  UNL d   1       1.516  -1.818   2.872  0.00  0.00     0.053 C 
ATOM      9  C   UNL d   1       2.065  -1.475   4.249  0.00  0.00     0.018 C 
ENDBRANCH   1   8
TORSDOF 1
ENDMDL
