MODEL 1
REMARK minimizedAffinity -0.625235796
REMARK minimizedRMSD -1
REMARK  1 active torsions:
REMARK  status: ('A' for Active; 'I' for Inactive)
REMARK    1  A    between atoms: C1_2  and  C2_3 
ROOT
ATOM      1  C2  UNL d   1       0.962  -0.665   1.279  0.00  0.00    -0.076 A 
ATOM      2  C3  UNL d   1       0.987   0.216   0.184  0.00  0.00     0.004 A 
ATOM      3  C4  UNL d   1       1.930   1.240   0.109  0.00  0.00    -0.003 A 
ATOM      4  C5  UNL d   1       2.863   1.399   1.127  0.00  0.00     0.000 A 
ATOM      5  C6  UNL d   1       2.864   0.523   2.212  0.00  0.00     0.000 A 
ATOM      6  C7  UNL d   1       1.931  -0.525   2.296  0.00  0.00    -0.073 A 
ATOM      7  C8  UNL d   1       1.974  -1.436   3.492  0.00  0.00     0.078 C 
ENDROOT
BRANCH   1   8
ATOM      8  C1  UNL d   1      -0.101  -1.740   1.320  0.00  0.00     0.053 C 
ATOM      9  C   UNL d   1      -1.410  -1.289   0.691  0.00  0.00     0.018 C 
ENDBRANCH   1   8
TORSDOF 1
ENDMDL
