MODEL 1
REMARK minimizedAffinity 7.52074862
REMARK minimizedRMSD -1
REMARK  1 active torsions:
REMARK  status: ('A' for Active; 'I' for Inactive)
REMARK    1  A    between atoms: C1_2  and  C2_3 
ROOT
ATOM      1  C2  UNL d   1       0.772   0.363   1.282  0.00  0.00    -0.076 A 
ATOM      2  C3  UNL d   1      -0.043   1.501   1.408  0.00  0.00     0.004 A 
ATOM      3  C4  UNL d   1      -1.433   1.393   1.408  0.00  0.00    -0.003 A 
ATOM      4  C5  UNL d   1      -2.030   0.143   1.283  0.00  0.00     0.000 A 
ATOM      5  C6  UNL d   1      -1.237  -0.999   1.176  0.00  0.00     0.000 A 
ATOM      6  C7  UNL d   1       0.165  -0.908   1.190  0.00  0.00    -0.073 A 
ATOM      7  C8  UNL d   1       0.971  -2.172   1.065  0.00  0.00     0.078 C 
ENDROOT
BRANCH   1   8
ATOM      8  C1  UNL d   1       2.273   0.545   1.261  0.00  0.00     0.053 C 
ATOM      9  C   UNL d   1       2.708   1.692   0.362  0.00  0.00     0.018 C 
ENDBRANCH   1   8
TORSDOF 1
ENDMDL
