MODEL 1
REMARK minimizedAffinity 0.393404931
REMARK minimizedRMSD -1
REMARK  1 active torsions:
REMARK  status: ('A' for Active; 'I' for Inactive)
REMARK    1  A    between atoms: C1_2  and  C2_3 
ROOT
ATOM      1  C2  UNL d   1       1.380   1.666   0.645  0.00  0.00    -0.076 A 
ATOM      2  C3  UNL d   1       2.569   1.923  -0.061  0.00  0.00     0.004 A 
ATOM      3  C4  UNL d   1       2.706   3.070  -0.842  0.00  0.00    -0.003 A 
ATOM      4  C5  UNL d   1       1.657   3.978  -0.929  0.00  0.00     0.000 A 
ATOM      5  C6  UNL d   1       0.477   3.748  -0.222  0.00  0.00     0.000 A 
ATOM      6  C7  UNL d   1       0.329   2.606   0.583  0.00  0.00    -0.073 A 
ATOM      7  C8  UNL d   1      -0.968   2.405   1.318  0.00  0.00     0.078 C 
ENDROOT
BRANCH   1   8
ATOM      8  C1  UNL d   1       1.279   0.393   1.453  0.00  0.00     0.053 C 
ATOM      9  C   UNL d   1       0.466  -0.682   0.748  0.00  0.00     0.018 C 
ENDBRANCH   1   8
TORSDOF 1
ENDMDL
