MODEL 1
REMARK minimizedAffinity 3.27733541
REMARK minimizedRMSD -1
REMARK  1 active torsions:
REMARK  status: ('A' for Active; 'I' for Inactive)
REMARK    1  A    between atoms: C1_2  and  C2_3 
ROOT
ATOM      1  C2  UNL d   1       1.115  -0.513   1.641  0.00  0.00    -0.076 A 
ATOM      2  C3  UNL d   1       2.197  -0.838   2.477  0.00  0.00     0.004 A 
ATOM      3  C4  UNL d   1       2.244  -2.059   3.149  0.00  0.00    -0.003 A 
ATOM      4  C5  UNL d   1       1.209  -2.975   2.994  0.00  0.00     0.000 A 
ATOM      5  C6  UNL d   1       0.137  -2.676   2.154  0.00  0.00     0.000 A 
ATOM      6  C7  UNL d   1       0.082  -1.457   1.457  0.00  0.00    -0.073 A 
ATOM      7  C8  UNL d   1      -1.101  -1.185   0.570  0.00  0.00     0.078 C 
ENDROOT
BRANCH   1   8
ATOM      8  C1  UNL d   1       1.106   0.837   0.960  0.00  0.00     0.053 C 
ATOM      9  C   UNL d   1       2.484   1.481   0.924  0.00  0.00     0.018 C 
ENDBRANCH   1   8
TORSDOF 1
ENDMDL
