MODEL 1
REMARK minimizedAffinity 1.8756274
REMARK minimizedRMSD -1
REMARK  1 active torsions:
REMARK  status: ('A' for Active; 'I' for Inactive)
REMARK    1  A    between atoms: C1_2  and  C2_3 
ROOT
ATOM      1  C2  UNL d   1       1.454  -0.285   2.279  0.00  0.00    -0.076 A 
ATOM      2  C3  UNL d   1       1.678  -1.446   3.039  0.00  0.00     0.004 A 
ATOM      3  C4  UNL d   1       1.021  -2.638   2.740  0.00  0.00    -0.003 A 
ATOM      4  C5  UNL d   1       0.129  -2.689   1.674  0.00  0.00     0.000 A 
ATOM      5  C6  UNL d   1      -0.092  -1.552   0.898  0.00  0.00     0.000 A 
ATOM      6  C7  UNL d   1       0.575  -0.346   1.176  0.00  0.00    -0.073 A 
ATOM      7  C8  UNL d   1       0.294   0.851   0.310  0.00  0.00     0.078 C 
ENDROOT
BRANCH   1   8
ATOM      8  C1  UNL d   1       2.175   0.986   2.667  0.00  0.00     0.053 C 
ATOM      9  C   UNL d   1       2.200   1.204   4.172  0.00  0.00     0.018 C 
ENDBRANCH   1   8
TORSDOF 1
ENDMDL
