MODEL 1
REMARK minimizedAffinity 3.66908336
REMARK minimizedRMSD -1
REMARK  2 active torsions:
REMARK  status: ('A' for Active; 'I' for Inactive)
REMARK    1  A    between atoms: C2'_3  and  C1'_4 
REMARK    2  A    between atoms: C1'_4  and  C1_5 
ROOT
ATOM      1  C1  I4B d   1       1.301   0.413   0.026  0.00  0.00    -0.075 A 
ATOM      2  C2  I4B d   1       0.388   1.286  -0.510  0.00  0.00     0.003 A 
ATOM      3  C3  I4B d   1       0.378   2.644  -0.107  0.00  0.00     0.002 A 
ATOM      4  C4  I4B d   1       1.258   3.070   0.866  0.00  0.00    -0.004 A 
ATOM      5  C5  I4B d   1       2.198   2.188   1.393  0.00  0.00     0.002 A 
ATOM      6  C6  I4B d   1       2.228   0.854   0.961  0.00  0.00     0.003 A 
ENDROOT
BRANCH   1   7
ATOM      7  C1' I4B d   1       1.262  -1.021  -0.398  0.00  0.00     0.060 C 
BRANCH   7   8
ATOM      8  C2' I4B d   1       2.643  -1.608  -0.187  0.00  0.00    -0.013 C 
ATOM      9  C4' I4B d   1       2.874  -1.950   1.262  0.00  0.00     0.013 C 
ATOM     10  C3' I4B d   1       2.767  -2.823  -1.057  0.00  0.00     0.013 C 
ENDBRANCH   7   8
ENDBRANCH   1   7
TORSDOF 2
ENDMDL
