MODEL 1
REMARK minimizedAffinity 10.0551014
REMARK minimizedRMSD -1
REMARK  2 active torsions:
REMARK  status: ('A' for Active; 'I' for Inactive)
REMARK    1  A    between atoms: C2'_3  and  C1'_4 
REMARK    2  A    between atoms: C1'_4  and  C1_5 
ROOT
ATOM      1  C1  I4B d   1       1.033  -2.819  -0.853  0.00  0.00    -0.075 A 
ATOM      2  C2  I4B d   1      -0.138  -2.401  -1.434  0.00  0.00     0.003 A 
ATOM      3  C3  I4B d   1      -1.274  -3.246  -1.437  0.00  0.00     0.002 A 
ATOM      4  C4  I4B d   1      -1.180  -4.512  -0.896  0.00  0.00    -0.004 A 
ATOM      5  C5  I4B d   1       0.001  -4.926  -0.287  0.00  0.00     0.002 A 
ATOM      6  C6  I4B d   1       1.111  -4.070  -0.254  0.00  0.00     0.003 A 
ENDROOT
BRANCH   1   7
ATOM      7  C1' I4B d   1       2.223  -1.914  -0.898  0.00  0.00     0.060 C 
BRANCH   7   8
ATOM      8  C2' I4B d   1       2.187  -1.035   0.336  0.00  0.00    -0.013 C 
ATOM      9  C4' I4B d   1       3.363  -1.310   1.236  0.00  0.00     0.013 C 
ATOM     10  C3' I4B d   1       2.173   0.395  -0.114  0.00  0.00     0.013 C 
ENDBRANCH   7   8
ENDBRANCH   1   7
TORSDOF 2
ENDMDL
