MODEL 1
REMARK minimizedAffinity 3.45561004
REMARK minimizedRMSD -1
REMARK  2 active torsions:
REMARK  status: ('A' for Active; 'I' for Inactive)
REMARK    1  A    between atoms: C2'_3  and  C1'_4 
REMARK    2  A    between atoms: C1'_4  and  C1_5 
ROOT
ATOM      1  C1  I4B d   1       1.227  -1.665  -0.940  0.00  0.00    -0.075 A 
ATOM      2  C2  I4B d   1       2.089  -2.572  -0.375  0.00  0.00     0.003 A 
ATOM      3  C3  I4B d   1       3.097  -2.137   0.519  0.00  0.00     0.002 A 
ATOM      4  C4  I4B d   1       3.238  -0.789   0.780  0.00  0.00    -0.004 A 
ATOM      5  C5  I4B d   1       2.350   0.127   0.224  0.00  0.00     0.002 A 
ATOM      6  C6  I4B d   1       1.330  -0.315  -0.631  0.00  0.00     0.003 A 
ENDROOT
BRANCH   1   7
ATOM      7  C1' I4B d   1       0.195  -2.155  -1.905  0.00  0.00     0.060 C 
BRANCH   7   8
ATOM      8  C2' I4B d   1      -0.834  -2.948  -1.126  0.00  0.00    -0.013 C 
ATOM      9  C4' I4B d   1      -2.234  -2.531  -1.491  0.00  0.00     0.013 C 
ATOM     10  C3' I4B d   1      -0.611  -4.403  -1.411  0.00  0.00     0.013 C 
ENDBRANCH   7   8
ENDBRANCH   1   7
TORSDOF 2
ENDMDL
