MODEL 1
REMARK minimizedAffinity -5.41274738
REMARK minimizedRMSD -1
REMARK  2 active torsions:
REMARK  status: ('A' for Active; 'I' for Inactive)
REMARK    1  A    between atoms: C2'_3  and  C1'_4 
REMARK    2  A    between atoms: C1'_4  and  C1_5 
ROOT
ATOM      1  C1  I4B d   1      -2.587  -0.194   1.216  0.00  0.00    -0.075 A 
ATOM      2  C2  I4B d   1      -1.780   0.729   1.834  0.00  0.00     0.003 A 
ATOM      3  C3  I4B d   1      -2.328   1.935   2.334  0.00  0.00     0.002 A 
ATOM      4  C4  I4B d   1      -3.670   2.199   2.150  0.00  0.00    -0.004 A 
ATOM      5  C5  I4B d   1      -4.492   1.252   1.544  0.00  0.00     0.002 A 
ATOM      6  C6  I4B d   1      -3.950   0.043   1.085  0.00  0.00     0.003 A 
ENDROOT
BRANCH   1   7
ATOM      7  C1' I4B d   1      -1.969  -1.442   0.671  0.00  0.00     0.060 C 
BRANCH   7   8
ATOM      8  C2' I4B d   1      -0.767  -1.043  -0.160  0.00  0.00    -0.013 C 
ATOM      9  C4' I4B d   1       0.481  -0.984   0.680  0.00  0.00     0.013 C 
ATOM     10  C3' I4B d   1      -0.624  -2.038  -1.273  0.00  0.00     0.013 C 
ENDBRANCH   7   8
ENDBRANCH   1   7
TORSDOF 2
ENDMDL
