MODEL 1
REMARK minimizedAffinity 0.447426707
REMARK minimizedRMSD -1
REMARK  2 active torsions:
REMARK  status: ('A' for Active; 'I' for Inactive)
REMARK    1  A    between atoms: C2'_3  and  C1'_4 
REMARK    2  A    between atoms: C1'_4  and  C1_5 
ROOT
ATOM      1  C1  I4B d   1      -1.050  -1.368   0.004  0.00  0.00    -0.075 A 
ATOM      2  C2  I4B d   1      -2.013  -0.558  -0.546  0.00  0.00     0.003 A 
ATOM      3  C3  I4B d   1      -2.859   0.211   0.289  0.00  0.00     0.002 A 
ATOM      4  C4  I4B d   1      -2.742   0.103   1.660  0.00  0.00    -0.004 A 
ATOM      5  C5  I4B d   1      -1.751  -0.701   2.215  0.00  0.00     0.002 A 
ATOM      6  C6  I4B d   1      -0.891  -1.432   1.382  0.00  0.00     0.003 A 
ENDROOT
BRANCH   1   7
ATOM      7  C1' I4B d   1      -0.196  -2.192  -0.906  0.00  0.00     0.060 C 
BRANCH   7   8
ATOM      8  C2' I4B d   1      -0.083  -1.461  -2.229  0.00  0.00    -0.013 C 
ATOM      9  C4' I4B d   1       1.357  -1.205  -2.588  0.00  0.00     0.013 C 
ATOM     10  C3' I4B d   1      -0.763  -2.292  -3.276  0.00  0.00     0.013 C 
ENDBRANCH   7   8
ENDBRANCH   1   7
TORSDOF 2
ENDMDL
