MODEL 1
REMARK minimizedAffinity -3.36754608
REMARK minimizedRMSD -1
REMARK  2 active torsions:
REMARK  status: ('A' for Active; 'I' for Inactive)
REMARK    1  A    between atoms: C2'_3  and  C1'_4 
REMARK    2  A    between atoms: C1'_4  and  C1_5 
ROOT
ATOM      1  C1  I4B d   1      -1.943  -1.651   0.226  0.00  0.00    -0.075 A 
ATOM      2  C2  I4B d   1      -1.110  -0.939   1.052  0.00  0.00     0.003 A 
ATOM      3  C3  I4B d   1      -1.579   0.226   1.706  0.00  0.00     0.002 A 
ATOM      4  C4  I4B d   1      -2.864   0.668   1.468  0.00  0.00    -0.004 A 
ATOM      5  C5  I4B d   1      -3.715  -0.067   0.648  0.00  0.00     0.002 A 
ATOM      6  C6  I4B d   1      -3.256  -1.241   0.032  0.00  0.00     0.003 A 
ENDROOT
BRANCH   1   7
ATOM      7  C1' I4B d   1      -1.405  -2.858  -0.475  0.00  0.00     0.060 C 
BRANCH   7   8
ATOM      8  C2' I4B d   1      -0.063  -2.490  -1.074  0.00  0.00    -0.013 C 
ATOM      9  C4' I4B d   1       0.878  -3.666  -1.067  0.00  0.00     0.013 C 
ATOM     10  C3' I4B d   1      -0.300  -1.994  -2.470  0.00  0.00     0.013 C 
ENDBRANCH   7   8
ENDBRANCH   1   7
TORSDOF 2
ENDMDL
