MODEL 1
REMARK minimizedAffinity -0.941528559
REMARK minimizedRMSD -1
REMARK  2 active torsions:
REMARK  status: ('A' for Active; 'I' for Inactive)
REMARK    1  A    between atoms: C2'_3  and  C1'_4 
REMARK    2  A    between atoms: C1'_4  and  C1_5 
ROOT
ATOM      1  C1  I4B d   1      -1.018  -0.069   1.546  0.00  0.00    -0.075 A 
ATOM      2  C2  I4B d   1       0.153  -0.536   1.004  0.00  0.00     0.003 A 
ATOM      3  C3  I4B d   1       1.101  -1.201   1.820  0.00  0.00     0.002 A 
ATOM      4  C4  I4B d   1       0.861  -1.330   3.173  0.00  0.00    -0.004 A 
ATOM      5  C5  I4B d   1      -0.338  -0.877   3.716  0.00  0.00     0.002 A 
ATOM      6  C6  I4B d   1      -1.289  -0.253   2.896  0.00  0.00     0.003 A 
ENDROOT
BRANCH   1   7
ATOM      7  C1' I4B d   1      -1.982   0.657   0.662  0.00  0.00     0.060 C 
BRANCH   7   8
ATOM      8  C2' I4B d   1      -3.284  -0.118   0.655  0.00  0.00    -0.013 C 
ATOM      9  C4' I4B d   1      -4.461   0.796   0.433  0.00  0.00     0.013 C 
ATOM     10  C3' I4B d   1      -3.197  -1.160  -0.419  0.00  0.00     0.013 C 
ENDBRANCH   7   8
ENDBRANCH   1   7
TORSDOF 2
ENDMDL
