MODEL 1
REMARK minimizedAffinity -2.77313757
REMARK minimizedRMSD -1
REMARK  2 active torsions:
REMARK  status: ('A' for Active; 'I' for Inactive)
REMARK    1  A    between atoms: C2'_3  and  C1'_4 
REMARK    2  A    between atoms: C1'_4  and  C1_5 
ROOT
ATOM      1  C1  I4B d   1      -0.870  -0.982   1.310  0.00  0.00    -0.075 A 
ATOM      2  C2  I4B d   1       0.229  -1.486   0.660  0.00  0.00     0.003 A 
ATOM      3  C3  I4B d   1       1.477  -1.566   1.326  0.00  0.00     0.002 A 
ATOM      4  C4  I4B d   1       1.591  -1.088   2.615  0.00  0.00    -0.004 A 
ATOM      5  C5  I4B d   1       0.470  -0.599   3.281  0.00  0.00     0.002 A 
ATOM      6  C6  I4B d   1      -0.771  -0.557   2.629  0.00  0.00     0.003 A 
ENDROOT
BRANCH   1   7
ATOM      7  C1' I4B d   1      -2.163  -0.881   0.566  0.00  0.00     0.060 C 
BRANCH   7   8
ATOM      8  C2' I4B d   1      -3.098  -0.001   1.372  0.00  0.00    -0.013 C 
ATOM      9  C4' I4B d   1      -2.487   1.351   1.628  0.00  0.00     0.013 C 
ATOM     10  C3' I4B d   1      -4.386   0.121   0.614  0.00  0.00     0.013 C 
ENDBRANCH   7   8
ENDBRANCH   1   7
TORSDOF 2
ENDMDL
