MODEL 1
REMARK minimizedAffinity -4.5522294
REMARK minimizedRMSD -1
REMARK  1 active torsions:
REMARK  status: ('A' for Active; 'I' for Inactive)
REMARK    1  A    between atoms: C3_4  and  O_7 
ROOT
ATOM      1  C   UNL d   1      -1.802  -2.101   1.953  0.00  0.00    -0.033 A 
ATOM      2  C1  UNL d   1      -2.509  -0.980   1.513  0.00  0.00     0.039 A 
ATOM      3  C2  UNL d   1      -1.876  -0.022   0.718  0.00  0.00    -0.080 A 
ATOM      4  C3  UNL d   1      -0.540  -0.197   0.370  0.00  0.00     0.150 A 
ATOM      5  C4  UNL d   1       0.169  -1.314   0.802  0.00  0.00    -0.007 A 
ATOM      6  C5  UNL d   1      -0.464  -2.269   1.596  0.00  0.00     0.039 A 
ENDROOT
BRANCH   4   7
ATOM      7  O   UNL d   1       0.121   0.713  -0.400  0.00  0.00    -0.526 OA
ATOM      8  H5  UNL d   1      -0.485   1.445  -0.600  0.00  0.00     0.418 HD
ENDBRANCH   4   7
TORSDOF 1
ENDMDL
