MODEL 1
REMARK minimizedAffinity -5.2736454
REMARK minimizedRMSD -1
REMARK  1 active torsions:
REMARK  status: ('A' for Active; 'I' for Inactive)
REMARK    1  A    between atoms: C3_4  and  O_7 
ROOT
ATOM      1  C   UNL d   1      -2.190  -1.919   1.186  0.00  0.00    -0.033 A 
ATOM      2  C1  UNL d   1      -0.860  -2.136   0.820  0.00  0.00     0.039 A 
ATOM      3  C2  UNL d   1      -0.111  -1.100   0.259  0.00  0.00    -0.080 A 
ATOM      4  C3  UNL d   1      -0.702   0.147   0.071  0.00  0.00     0.150 A 
ATOM      5  C4  UNL d   1      -2.025   0.371   0.438  0.00  0.00    -0.007 A 
ATOM      6  C5  UNL d   1      -2.772  -0.665   0.997  0.00  0.00     0.039 A 
ENDROOT
BRANCH   4   7
ATOM      7  O   UNL d   1      -0.012   1.187  -0.477  0.00  0.00    -0.526 OA
ATOM      8  H5  UNL d   1       0.880   0.878  -0.707  0.00  0.00     0.418 HD
ENDBRANCH   4   7
TORSDOF 1
ENDMDL
