MODEL 1
REMARK minimizedAffinity -3.90813494
REMARK minimizedRMSD -1
REMARK  1 active torsions:
REMARK  status: ('A' for Active; 'I' for Inactive)
REMARK    1  A    between atoms: C3_4  and  O_7 
ROOT
ATOM      1  C   UNL d   1       0.785  -1.188   0.013  0.00  0.00    -0.033 A 
ATOM      2  C1  UNL d   1       0.364   0.142  -0.053  0.00  0.00     0.039 A 
ATOM      3  C2  UNL d   1      -0.735   0.566   0.696  0.00  0.00    -0.080 A 
ATOM      4  C3  UNL d   1      -1.403  -0.347   1.507  0.00  0.00     0.150 A 
ATOM      5  C4  UNL d   1      -0.987  -1.672   1.581  0.00  0.00    -0.007 A 
ATOM      6  C5  UNL d   1       0.111  -2.095   0.831  0.00  0.00     0.039 A 
ENDROOT
BRANCH   4   7
ATOM      7  O   UNL d   1      -2.483   0.020   2.253  0.00  0.00    -0.526 OA
ATOM      8  H5  UNL d   1      -2.673   0.957   2.079  0.00  0.00     0.418 HD
ENDBRANCH   4   7
TORSDOF 1
ENDMDL
