MODEL 1
REMARK minimizedAffinity -2.95160508
REMARK minimizedRMSD -1
REMARK  1 active torsions:
REMARK  status: ('A' for Active; 'I' for Inactive)
REMARK    1  A    between atoms: C3_4  and  O_7 
ROOT
ATOM      1  C   UNL d   1       0.177  -1.814   1.197  0.00  0.00    -0.033 A 
ATOM      2  C1  UNL d   1      -0.477  -0.607   1.455  0.00  0.00     0.039 A 
ATOM      3  C2  UNL d   1      -0.381   0.449   0.547  0.00  0.00    -0.080 A 
ATOM      4  C3  UNL d   1       0.369   0.285  -0.614  0.00  0.00     0.150 A 
ATOM      5  C4  UNL d   1       1.020  -0.915  -0.880  0.00  0.00    -0.007 A 
ATOM      6  C5  UNL d   1       0.924  -1.968   0.029  0.00  0.00     0.039 A 
ENDROOT
BRANCH   4   7
ATOM      7  O   UNL d   1       0.496   1.289  -1.528  0.00  0.00    -0.526 OA
ATOM      8  H5  UNL d   1       0.017   2.068  -1.198  0.00  0.00     0.418 HD
ENDBRANCH   4   7
TORSDOF 1
ENDMDL
