MODEL 1
REMARK minimizedAffinity -3.1263268
REMARK minimizedRMSD -1
REMARK  1 active torsions:
REMARK  status: ('A' for Active; 'I' for Inactive)
REMARK    1  A    between atoms: C3_4  and  O_7 
ROOT
ATOM      1  C   UNL d   1       2.016  -1.540   0.060  0.00  0.00    -0.033 A 
ATOM      2  C1  UNL d   1       0.723  -1.654  -0.454  0.00  0.00     0.039 A 
ATOM      3  C2  UNL d   1      -0.238  -0.688  -0.151  0.00  0.00    -0.080 A 
ATOM      4  C3  UNL d   1       0.106   0.386   0.665  0.00  0.00     0.150 A 
ATOM      5  C4  UNL d   1       1.393   0.508   1.178  0.00  0.00    -0.007 A 
ATOM      6  C5  UNL d   1       2.352  -0.458   0.875  0.00  0.00     0.039 A 
ENDROOT
BRANCH   4   7
ATOM      7  O   UNL d   1      -0.800   1.351   0.993  0.00  0.00    -0.526 OA
ATOM      8  H5  UNL d   1      -1.654   1.121   0.591  0.00  0.00     0.418 HD
ENDBRANCH   4   7
TORSDOF 1
ENDMDL
