MODEL 1
REMARK minimizedAffinity -3.79115033
REMARK minimizedRMSD -1
REMARK  1 active torsions:
REMARK  status: ('A' for Active; 'I' for Inactive)
REMARK    1  A    between atoms: C3_4  and  O_7 
ROOT
ATOM      1  C   UNL d   1      -1.771  -2.041   1.835  0.00  0.00    -0.033 A 
ATOM      2  C1  UNL d   1      -0.598  -2.392   1.164  0.00  0.00     0.039 A 
ATOM      3  C2  UNL d   1       0.106  -1.432   0.434  0.00  0.00    -0.080 A 
ATOM      4  C3  UNL d   1      -0.373  -0.126   0.384  0.00  0.00     0.150 A 
ATOM      5  C4  UNL d   1      -1.538   0.232   1.053  0.00  0.00    -0.007 A 
ATOM      6  C5  UNL d   1      -2.240  -0.728   1.781  0.00  0.00     0.039 A 
ENDROOT
BRANCH   4   7
ATOM      7  O   UNL d   1       0.277   0.844  -0.319  0.00  0.00    -0.526 OA
ATOM      8  H5  UNL d   1       1.050   0.445  -0.753  0.00  0.00     0.418 HD
ENDBRANCH   4   7
TORSDOF 1
ENDMDL
