MODEL 1
REMARK minimizedAffinity -0.316761136
REMARK minimizedRMSD -1
REMARK  1 active torsions:
REMARK  status: ('A' for Active; 'I' for Inactive)
REMARK    1  A    between atoms: C3_4  and  O_7 
ROOT
ATOM      1  C   UNL d   1      -0.197  -1.129   1.131  0.00  0.00    -0.033 A 
ATOM      2  C1  UNL d   1      -0.878   0.079   0.965  0.00  0.00     0.039 A 
ATOM      3  C2  UNL d   1      -0.356   1.067   0.129  0.00  0.00    -0.080 A 
ATOM      4  C3  UNL d   1       0.845   0.835  -0.536  0.00  0.00     0.150 A 
ATOM      5  C4  UNL d   1       1.527  -0.367  -0.379  0.00  0.00    -0.007 A 
ATOM      6  C5  UNL d   1       1.004  -1.352   0.458  0.00  0.00     0.039 A 
ENDROOT
BRANCH   4   7
ATOM      7  O   UNL d   1       1.396   1.772  -1.360  0.00  0.00    -0.526 OA
ATOM      8  H5  UNL d   1       0.830   2.562  -1.349  0.00  0.00     0.418 HD
ENDBRANCH   4   7
TORSDOF 1
ENDMDL
