MODEL 1
REMARK minimizedAffinity -5.40869427
REMARK minimizedRMSD -1
REMARK  1 active torsions:
REMARK  status: ('A' for Active; 'I' for Inactive)
REMARK    1  A    between atoms: C3_4  and  O_7 
ROOT
ATOM      1  C   UNL d   1      -0.608  -2.402   0.722  0.00  0.00    -0.033 A 
ATOM      2  C1  UNL d   1       0.353  -1.451   0.375  0.00  0.00     0.039 A 
ATOM      3  C2  UNL d   1       0.044  -0.090   0.431  0.00  0.00    -0.080 A 
ATOM      4  C3  UNL d   1      -1.228   0.305   0.836  0.00  0.00     0.150 A 
ATOM      5  C4  UNL d   1      -2.189  -0.637   1.187  0.00  0.00    -0.007 A 
ATOM      6  C5  UNL d   1      -1.879  -1.995   1.130  0.00  0.00     0.039 A 
ENDROOT
BRANCH   4   7
ATOM      7  O   UNL d   1      -1.578   1.621   0.902  0.00  0.00    -0.526 OA
ATOM      8  H5  UNL d   1      -0.824   2.155   0.603  0.00  0.00     0.418 HD
ENDBRANCH   4   7
TORSDOF 1
ENDMDL
