MODEL 1
REMARK minimizedAffinity -4.93866205
REMARK minimizedRMSD -1
REMARK  1 active torsions:
REMARK  status: ('A' for Active; 'I' for Inactive)
REMARK    1  A    between atoms: C3_4  and  O_7 
ROOT
ATOM      1  C   UNL d   1      -1.677  -2.918   0.811  0.00  0.00    -0.033 A 
ATOM      2  C1  UNL d   1      -0.950  -1.796   0.407  0.00  0.00     0.039 A 
ATOM      3  C2  UNL d   1      -1.273  -0.534   0.909  0.00  0.00    -0.080 A 
ATOM      4  C3  UNL d   1      -2.324  -0.407   1.814  0.00  0.00     0.150 A 
ATOM      5  C4  UNL d   1      -3.050  -1.521   2.223  0.00  0.00    -0.007 A 
ATOM      6  C5  UNL d   1      -2.726  -2.780   1.720  0.00  0.00     0.039 A 
ENDROOT
BRANCH   4   7
ATOM      7  O   UNL d   1      -2.679   0.804   2.327  0.00  0.00    -0.526 OA
ATOM      8  H5  UNL d   1      -2.109   1.485   1.933  0.00  0.00     0.418 HD
ENDBRANCH   4   7
TORSDOF 1
ENDMDL
