MODEL 1
REMARK minimizedAffinity -3.3486824
REMARK minimizedRMSD -1
REMARK  1 active torsions:
REMARK  status: ('A' for Active; 'I' for Inactive)
REMARK    1  A    between atoms: C3_4  and  O_7 
ROOT
ATOM      1  C   UNL d   1       0.996  -0.980   0.057  0.00  0.00    -0.033 A 
ATOM      2  C1  UNL d   1       0.579   0.350  -0.029  0.00  0.00     0.039 A 
ATOM      3  C2  UNL d   1      -0.552   0.775   0.671  0.00  0.00    -0.080 A 
ATOM      4  C3  UNL d   1      -1.255  -0.138   1.452  0.00  0.00     0.150 A 
ATOM      5  C4  UNL d   1      -0.843  -1.463   1.546  0.00  0.00    -0.007 A 
ATOM      6  C5  UNL d   1       0.286  -1.886   0.845  0.00  0.00     0.039 A 
ENDROOT
BRANCH   4   7
ATOM      7  O   UNL d   1      -2.367   0.229   2.150  0.00  0.00    -0.526 OA
ATOM      8  H5  UNL d   1      -2.550   1.166   1.968  0.00  0.00     0.418 HD
ENDBRANCH   4   7
TORSDOF 1
ENDMDL
