MODEL 1
REMARK minimizedAffinity -4.36082935
REMARK minimizedRMSD -1
REMARK  1 active torsions:
REMARK  status: ('A' for Active; 'I' for Inactive)
REMARK    1  A    between atoms: C3_4  and  O_7 
ROOT
ATOM      1  C   UNL d   1      -3.210  -0.631   2.150  0.00  0.00    -0.033 A 
ATOM      2  C1  UNL d   1      -2.571   0.323   1.356  0.00  0.00     0.039 A 
ATOM      3  C2  UNL d   1      -1.439  -0.025   0.617  0.00  0.00    -0.080 A 
ATOM      4  C3  UNL d   1      -0.957  -1.330   0.681  0.00  0.00     0.150 A 
ATOM      5  C4  UNL d   1      -1.590  -2.287   1.467  0.00  0.00    -0.007 A 
ATOM      6  C5  UNL d   1      -2.720  -1.937   2.204  0.00  0.00     0.039 A 
ENDROOT
BRANCH   4   7
ATOM      7  O   UNL d   1       0.148  -1.716  -0.019  0.00  0.00    -0.526 OA
ATOM      8  H5  UNL d   1       0.497  -0.943  -0.494  0.00  0.00     0.418 HD
ENDBRANCH   4   7
TORSDOF 1
ENDMDL
