MODEL 1
REMARK minimizedAffinity -4.57787561
REMARK minimizedRMSD -1
REMARK  1 active torsions:
REMARK  status: ('A' for Active; 'I' for Inactive)
REMARK    1  A    between atoms: C3_4  and  O_7 
ROOT
ATOM      1  C   UNL d   1      -2.326  -2.659   1.739  0.00  0.00    -0.033 A 
ATOM      2  C1  UNL d   1      -2.631  -2.390   0.403  0.00  0.00     0.039 A 
ATOM      3  C2  UNL d   1      -1.762  -1.619  -0.372  0.00  0.00    -0.080 A 
ATOM      4  C3  UNL d   1      -0.593  -1.125   0.200  0.00  0.00     0.150 A 
ATOM      5  C4  UNL d   1      -0.281  -1.392   1.529  0.00  0.00    -0.007 A 
ATOM      6  C5  UNL d   1      -1.151  -2.161   2.301  0.00  0.00     0.039 A 
ENDROOT
BRANCH   4   7
ATOM      7  O   UNL d   1       0.283  -0.364  -0.515  0.00  0.00    -0.526 OA
ATOM      8  H5  UNL d   1      -0.077  -0.237  -1.409  0.00  0.00     0.418 HD
ENDBRANCH   4   7
TORSDOF 1
ENDMDL
