MODEL 1
REMARK minimizedAffinity 3.74819183
REMARK minimizedRMSD -1
REMARK  0 active torsions:
REMARK  status: ('A' for Active; 'I' for Inactive)
ROOT
ATOM      1  C4' PXY d   1       3.009  -0.751  -0.302  0.00  0.00     0.077 C 
ATOM      2  C1' PXY d   1      -1.030  -4.761  -1.309  0.00  0.00     0.077 C 
ATOM      3  C1  PXY d   1       0.032  -3.715  -1.034  0.00  0.00    -0.082 A 
ATOM      4  C2  PXY d   1      -0.036  -2.539  -1.637  0.00  0.00     0.003 A 
ATOM      5  C3  PXY d   1       0.933  -1.593  -1.424  0.00  0.00     0.003 A 
ATOM      6  C4  PXY d   1       1.954  -1.834  -0.543  0.00  0.00    -0.082 A 
ATOM      7  C5  PXY d   1       2.024  -3.027   0.084  0.00  0.00     0.003 A 
ATOM      8  C6  PXY d   1       1.053  -3.989  -0.177  0.00  0.00     0.003 A 
ENDROOT
TORSDOF 0
ENDMDL
