MODEL 1
REMARK minimizedAffinity -1.66003895
REMARK minimizedRMSD -1
REMARK  0 active torsions:
REMARK  status: ('A' for Active; 'I' for Inactive)
ROOT
ATOM      1  C4' PXY d   1      -5.017   1.131   0.443  0.00  0.00     0.077 C 
ATOM      2  C1' PXY d   1       0.695   1.899   0.003  0.00  0.00     0.077 C 
ATOM      3  C1  PXY d   1      -0.804   1.696   0.106  0.00  0.00    -0.082 A 
ATOM      4  C2  PXY d   1      -1.464   2.205   1.133  0.00  0.00     0.003 A 
ATOM      5  C3  PXY d   1      -2.814   2.004   1.258  0.00  0.00     0.003 A 
ATOM      6  C4  PXY d   1      -3.505   1.319   0.294  0.00  0.00    -0.082 A 
ATOM      7  C5  PXY d   1      -2.840   0.806  -0.763  0.00  0.00     0.003 A 
ATOM      8  C6  PXY d   1      -1.463   0.986  -0.850  0.00  0.00     0.003 A 
ENDROOT
TORSDOF 0
ENDMDL
