MODEL 1
REMARK minimizedAffinity 4.27748585
REMARK minimizedRMSD -1
REMARK  0 active torsions:
REMARK  status: ('A' for Active; 'I' for Inactive)
ROOT
ATOM      1  C4' PXY d   1       0.061  -0.413   3.686  0.00  0.00     0.077 C 
ATOM      2  C1' PXY d   1       0.096   3.891  -0.172  0.00  0.00     0.077 C 
ATOM      3  C1  PXY d   1       0.078   2.769   0.847  0.00  0.00    -0.082 A 
ATOM      4  C2  PXY d   1       1.132   1.979   0.968  0.00  0.00     0.003 A 
ATOM      5  C3  PXY d   1       1.120   0.939   1.862  0.00  0.00     0.003 A 
ATOM      6  C4  PXY d   1       0.039   0.739   2.677  0.00  0.00    -0.082 A 
ATOM      7  C5  PXY d   1      -1.037   1.547   2.567  0.00  0.00     0.003 A 
ATOM      8  C6  PXY d   1      -1.021   2.571   1.625  0.00  0.00     0.003 A 
ENDROOT
TORSDOF 0
ENDMDL
