MODEL 1
REMARK minimizedAffinity 3.95724988
REMARK minimizedRMSD -1
REMARK  0 active torsions:
REMARK  status: ('A' for Active; 'I' for Inactive)
ROOT
ATOM      1  C4' PXY d   1      -2.714   2.311   2.570  0.00  0.00     0.077 C 
ATOM      2  C1' PXY d   1       2.338   1.134   0.019  0.00  0.00     0.077 C 
ATOM      3  C1  PXY d   1       1.015   1.432   0.696  0.00  0.00    -0.082 A 
ATOM      4  C2  PXY d   1       0.111   2.168   0.069  0.00  0.00     0.003 A 
ATOM      5  C3  PXY d   1      -1.078   2.474   0.679  0.00  0.00     0.003 A 
ATOM      6  C4  PXY d   1      -1.367   1.977   1.922  0.00  0.00    -0.082 A 
ATOM      7  C5  PXY d   1      -0.455   1.217   2.563  0.00  0.00     0.003 A 
ATOM      8  C6  PXY d   1       0.763   0.952   1.944  0.00  0.00     0.003 A 
ENDROOT
TORSDOF 0
ENDMDL
