MODEL 1
REMARK minimizedAffinity 6.47331715
REMARK minimizedRMSD -1
REMARK  0 active torsions:
REMARK  status: ('A' for Active; 'I' for Inactive)
ROOT
ATOM      1  C4' PXY d   1       1.502   1.784  -0.057  0.00  0.00     0.077 C 
ATOM      2  C1' PXY d   1       0.886  -3.867  -1.105  0.00  0.00     0.077 C 
ATOM      3  C1  PXY d   1       1.058  -2.388  -0.823  0.00  0.00    -0.082 A 
ATOM      4  C2  PXY d   1       0.023  -1.573  -0.951  0.00  0.00     0.003 A 
ATOM      5  C3  PXY d   1       0.169  -0.227  -0.730  0.00  0.00     0.003 A 
ATOM      6  C4  PXY d   1       1.373   0.282  -0.323  0.00  0.00    -0.082 A 
ATOM      7  C5  PXY d   1       2.430  -0.545  -0.180  0.00  0.00     0.003 A 
ATOM      8  C6  PXY d   1       2.272  -1.901  -0.449  0.00  0.00     0.003 A 
ENDROOT
TORSDOF 0
ENDMDL
