MODEL 1
REMARK minimizedAffinity 3.98850918
REMARK minimizedRMSD -1
REMARK  0 active torsions:
REMARK  status: ('A' for Active; 'I' for Inactive)
ROOT
ATOM      1  C4' PXY d   1       2.091   0.977  -0.113  0.00  0.00     0.077 C 
ATOM      2  C1' PXY d   1      -0.833  -3.908  -1.115  0.00  0.00     0.077 C 
ATOM      3  C1  PXY d   1      -0.062  -2.632  -0.841  0.00  0.00    -0.082 A 
ATOM      4  C2  PXY d   1      -0.425  -1.508  -1.437  0.00  0.00     0.003 A 
ATOM      5  C3  PXY d   1       0.280  -0.351  -1.225  0.00  0.00     0.003 A 
ATOM      6  C4  PXY d   1       1.336  -0.334  -0.353  0.00  0.00    -0.082 A 
ATOM      7  C5  PXY d   1       1.706  -1.474   0.267  0.00  0.00     0.003 A 
ATOM      8  C6  PXY d   1       1.002  -2.646   0.007  0.00  0.00     0.003 A 
ENDROOT
TORSDOF 0
ENDMDL
