MODEL 1
REMARK minimizedAffinity 4.0502491
REMARK minimizedRMSD -1
REMARK  0 active torsions:
REMARK  status: ('A' for Active; 'I' for Inactive)
ROOT
ATOM      1  C4' PXY d   1      -0.721  -4.165  -1.416  0.00  0.00     0.077 C 
ATOM      2  C1' PXY d   1       3.187  -1.481   1.891  0.00  0.00     0.077 C 
ATOM      3  C1  PXY d   1       2.165  -2.176   1.014  0.00  0.00    -0.082 A 
ATOM      4  C2  PXY d   1       1.195  -2.882   1.573  0.00  0.00     0.003 A 
ATOM      5  C3  PXY d   1       0.281  -3.544   0.794  0.00  0.00     0.003 A 
ATOM      6  C4  PXY d   1       0.328  -3.438  -0.570  0.00  0.00    -0.082 A 
ATOM      7  C5  PXY d   1       1.308  -2.711  -1.148  0.00  0.00     0.003 A 
ATOM      8  C6  PXY d   1       2.250  -2.081  -0.341  0.00  0.00     0.003 A 
ENDROOT
TORSDOF 0
ENDMDL
