MODEL 1
REMARK minimizedAffinity -4.35486984
REMARK minimizedRMSD -1
REMARK  0 active torsions:
REMARK  status: ('A' for Active; 'I' for Inactive)
ROOT
ATOM      1  C4' PXY d   1       1.257   0.301  -2.089  0.00  0.00     0.077 C 
ATOM      2  C1' PXY d   1      -1.156  -0.030   3.153  0.00  0.00     0.077 C 
ATOM      3  C1  PXY d   1      -0.516   0.067   1.782  0.00  0.00    -0.082 A 
ATOM      4  C2  PXY d   1      -1.169  -0.381   0.722  0.00  0.00     0.003 A 
ATOM      5  C3  PXY d   1      -0.592  -0.331  -0.520  0.00  0.00     0.003 A 
ATOM      6  C4  PXY d   1       0.645   0.232  -0.687  0.00  0.00    -0.082 A 
ATOM      7  C5  PXY d   1       1.313   0.701   0.388  0.00  0.00     0.003 A 
ATOM      8  C6  PXY d   1       0.727   0.603   1.646  0.00  0.00     0.003 A 
ENDROOT
TORSDOF 0
ENDMDL
