MODEL 1
REMARK minimizedAffinity -5.9006362
REMARK minimizedRMSD -1
REMARK  0 active torsions:
REMARK  status: ('A' for Active; 'I' for Inactive)
ROOT
ATOM      1  C4' PXY d   1      -0.053   0.514  -1.717  0.00  0.00     0.077 C 
ATOM      2  C1' PXY d   1      -0.781  -0.587   3.910  0.00  0.00     0.077 C 
ATOM      3  C1  PXY d   1      -0.602  -0.304   2.432  0.00  0.00    -0.082 A 
ATOM      4  C2  PXY d   1       0.617  -0.184   1.932  0.00  0.00     0.003 A 
ATOM      5  C3  PXY d   1       0.797   0.104   0.603  0.00  0.00     0.003 A 
ATOM      6  C4  PXY d   1      -0.282   0.219  -0.232  0.00  0.00    -0.082 A 
ATOM      7  C5  PXY d   1      -1.528   0.087   0.268  0.00  0.00     0.003 A 
ATOM      8  C6  PXY d   1      -1.690  -0.165   1.627  0.00  0.00     0.003 A 
ENDROOT
TORSDOF 0
ENDMDL
