MODEL 1
REMARK minimizedAffinity -6.09198856
REMARK minimizedRMSD -1
REMARK  0 active torsions:
REMARK  status: ('A' for Active; 'I' for Inactive)
ROOT
ATOM      1  C4' PXY d   1       0.390   0.344  -1.524  0.00  0.00     0.077 C 
ATOM      2  C1' PXY d   1      -1.615  -0.467   3.837  0.00  0.00     0.077 C 
ATOM      3  C1  PXY d   1      -1.079  -0.248   2.436  0.00  0.00    -0.082 A 
ATOM      4  C2  PXY d   1      -1.915  -0.230   1.411  0.00  0.00     0.003 A 
ATOM      5  C3  PXY d   1      -1.443  -0.065   0.134  0.00  0.00     0.003 A 
ATOM      6  C4  PXY d   1      -0.108   0.136  -0.091  0.00  0.00    -0.082 A 
ATOM      7  C5  PXY d   1       0.751   0.129   0.951  0.00  0.00     0.003 A 
ATOM      8  C6  PXY d   1       0.257  -0.081   2.235  0.00  0.00     0.003 A 
ENDROOT
TORSDOF 0
ENDMDL
