MODEL 1
REMARK minimizedAffinity -2.8456285
REMARK minimizedRMSD -1
REMARK  0 active torsions:
REMARK  status: ('A' for Active; 'I' for Inactive)
ROOT
ATOM      1  C4' PXY d   1      -0.513  -0.600   3.033  0.00  0.00     0.077 C 
ATOM      2  C1' PXY d   1       0.699   0.230  -2.557  0.00  0.00     0.077 C 
ATOM      3  C1  PXY d   1       0.394   0.010  -1.089  0.00  0.00    -0.082 A 
ATOM      4  C2  PXY d   1      -0.821  -0.364  -0.722  0.00  0.00     0.003 A 
ATOM      5  C3  PXY d   1      -1.123  -0.536   0.604  0.00  0.00     0.003 A 
ATOM      6  C4  PXY d   1      -0.157  -0.375   1.561  0.00  0.00    -0.082 A 
ATOM      7  C5  PXY d   1       1.088  -0.005   1.194  0.00  0.00     0.003 A 
ATOM      8  C6  PXY d   1       1.363   0.205  -0.154  0.00  0.00     0.003 A 
ENDROOT
TORSDOF 0
ENDMDL
