MODEL 1
REMARK minimizedAffinity -4.87866402
REMARK minimizedRMSD -1
REMARK  0 active torsions:
REMARK  status: ('A' for Active; 'I' for Inactive)
ROOT
ATOM      1  C4' PXY d   1       0.331   0.121  -1.996  0.00  0.00     0.077 C 
ATOM      2  C1' PXY d   1      -1.106  -0.771   3.532  0.00  0.00     0.077 C 
ATOM      3  C1  PXY d   1      -0.720  -0.529   2.086  0.00  0.00    -0.082 A 
ATOM      4  C2  PXY d   1      -1.623  -0.685   1.132  0.00  0.00     0.003 A 
ATOM      5  C3  PXY d   1      -1.282  -0.502  -0.183  0.00  0.00     0.003 A 
ATOM      6  C4  PXY d   1      -0.017  -0.103  -0.522  0.00  0.00    -0.082 A 
ATOM      7  C5  PXY d   1       0.908   0.070   0.446  0.00  0.00     0.003 A 
ATOM      8  C6  PXY d   1       0.552  -0.161   1.772  0.00  0.00     0.003 A 
ENDROOT
TORSDOF 0
ENDMDL
