MODEL 1
REMARK minimizedAffinity -4.6212759
REMARK minimizedRMSD -1
REMARK  0 active torsions:
REMARK  status: ('A' for Active; 'I' for Inactive)
ROOT
ATOM      1  C4' PXY d   1       2.261  -0.407   1.886  0.00  0.00     0.077 C 
ATOM      2  C1' PXY d   1      -3.441   0.283   1.233  0.00  0.00     0.077 C 
ATOM      3  C1  PXY d   1      -1.945   0.100   1.391  0.00  0.00    -0.082 A 
ATOM      4  C2  PXY d   1      -1.449  -0.238   2.570  0.00  0.00     0.003 A 
ATOM      5  C3  PXY d   1      -0.095  -0.377   2.739  0.00  0.00     0.003 A 
ATOM      6  C4  PXY d   1       0.755  -0.220   1.678  0.00  0.00    -0.082 A 
ATOM      7  C5  PXY d   1       0.256   0.114   0.469  0.00  0.00     0.003 A 
ATOM      8  C6  PXY d   1      -1.118   0.291   0.328  0.00  0.00     0.003 A 
ENDROOT
TORSDOF 0
ENDMDL
