MODEL 1
REMARK minimizedAffinity -3.44515729
REMARK minimizedRMSD -1
REMARK  0 active torsions:
REMARK  status: ('A' for Active; 'I' for Inactive)
ROOT
ATOM      1  C4' PXY d   1       0.900   0.085  -2.283  0.00  0.00     0.077 C 
ATOM      2  C1' PXY d   1      -0.953  -0.079   3.190  0.00  0.00     0.077 C 
ATOM      3  C1  PXY d   1      -0.478  -0.043   1.751  0.00  0.00    -0.082 A 
ATOM      4  C2  PXY d   1       0.802   0.171   1.490  0.00  0.00     0.003 A 
ATOM      5  C3  PXY d   1       1.244   0.239   0.194  0.00  0.00     0.003 A 
ATOM      6  C4  PXY d   1       0.376   0.031  -0.845  0.00  0.00    -0.082 A 
ATOM      7  C5  PXY d   1      -0.928  -0.199  -0.587  0.00  0.00     0.003 A 
ATOM      8  C6  PXY d   1      -1.364  -0.223   0.734  0.00  0.00     0.003 A 
ENDROOT
TORSDOF 0
ENDMDL
