MODEL 1
REMARK minimizedAffinity -5.24802589
REMARK minimizedRMSD -1
REMARK  0 active torsions:
REMARK  status: ('A' for Active; 'I' for Inactive)
ROOT
ATOM      1  C4' PXY d   1      -1.829  -0.081   3.036  0.00  0.00     0.077 C 
ATOM      2  C1' PXY d   1       1.329  -0.154  -1.805  0.00  0.00     0.077 C 
ATOM      3  C1  PXY d   1       0.510  -0.141  -0.529  0.00  0.00    -0.082 A 
ATOM      4  C2  PXY d   1      -0.806  -0.029  -0.598  0.00  0.00     0.003 A 
ATOM      5  C3  PXY d   1      -1.559   0.017   0.547  0.00  0.00     0.003 A 
ATOM      6  C4  PXY d   1      -0.963  -0.108   1.773  0.00  0.00    -0.082 A 
ATOM      7  C5  PXY d   1       0.378  -0.234   1.851  0.00  0.00     0.003 A 
ATOM      8  C6  PXY d   1       1.129  -0.236   0.679  0.00  0.00     0.003 A 
ENDROOT
TORSDOF 0
ENDMDL
