MODEL 1
REMARK minimizedAffinity -5.96672964
REMARK minimizedRMSD -1
REMARK  0 active torsions:
REMARK  status: ('A' for Active; 'I' for Inactive)
ROOT
ATOM      1  C4' PXY d   1       0.598   0.072  -1.608  0.00  0.00     0.077 C 
ATOM      2  C1' PXY d   1      -1.597  -0.318   3.725  0.00  0.00     0.077 C 
ATOM      3  C1  PXY d   1      -1.010  -0.211   2.331  0.00  0.00    -0.082 A 
ATOM      4  C2  PXY d   1      -1.818  -0.123   1.287  0.00  0.00     0.003 A 
ATOM      5  C3  PXY d   1      -1.304  -0.057   0.017  0.00  0.00     0.003 A 
ATOM      6  C4  PXY d   1       0.050  -0.028  -0.182  0.00  0.00    -0.082 A 
ATOM      7  C5  PXY d   1       0.880  -0.107   0.880  0.00  0.00     0.003 A 
ATOM      8  C6  PXY d   1       0.339  -0.215   2.157  0.00  0.00     0.003 A 
ENDROOT
TORSDOF 0
ENDMDL
