MODEL 1
REMARK minimizedAffinity -1.06772768
REMARK minimizedRMSD -1
REMARK  0 active torsions:
REMARK  status: ('A' for Active; 'I' for Inactive)
ROOT
ATOM      1  C4' PXY d   1       1.182   1.100   0.993  0.00  0.00     0.077 C 
ATOM      2  C1' PXY d   1      -0.191  -1.756  -3.842  0.00  0.00     0.077 C 
ATOM      3  C1  PXY d   1       0.156  -1.005  -2.572  0.00  0.00    -0.082 A 
ATOM      4  C2  PXY d   1       1.357  -0.465  -2.439  0.00  0.00     0.003 A 
ATOM      5  C3  PXY d   1       1.699   0.191  -1.284  0.00  0.00     0.003 A 
ATOM      6  C4  PXY d   1       0.784   0.341  -0.276  0.00  0.00    -0.082 A 
ATOM      7  C5  PXY d   1      -0.447  -0.198  -0.409  0.00  0.00     0.003 A 
ATOM      8  C6  PXY d   1      -0.760  -0.895  -1.572  0.00  0.00     0.003 A 
ENDROOT
TORSDOF 0
ENDMDL
