MODEL 1
REMARK minimizedAffinity -4.75505352
REMARK minimizedRMSD -1
REMARK  0 active torsions:
REMARK  status: ('A' for Active; 'I' for Inactive)
ROOT
ATOM      1  C4' PXY d   1       0.422   0.272  -1.807  0.00  0.00     0.077 C 
ATOM      2  C1' PXY d   1      -1.424  -0.814   3.562  0.00  0.00     0.077 C 
ATOM      3  C1  PXY d   1      -0.929  -0.523   2.159  0.00  0.00    -0.082 A 
ATOM      4  C2  PXY d   1      -1.793  -0.473   1.158  0.00  0.00     0.003 A 
ATOM      5  C3  PXY d   1      -1.359  -0.243  -0.122  0.00  0.00     0.003 A 
ATOM      6  C4  PXY d   1      -0.033  -0.009  -0.372  0.00  0.00    -0.082 A 
ATOM      7  C5  PXY d   1       0.853  -0.048   0.645  0.00  0.00     0.003 A 
ATOM      8  C6  PXY d   1       0.398  -0.324   1.931  0.00  0.00     0.003 A 
ENDROOT
TORSDOF 0
ENDMDL
