MODEL 1
REMARK minimizedAffinity -5.21741629
REMARK minimizedRMSD -1
REMARK  0 active torsions:
REMARK  status: ('A' for Active; 'I' for Inactive)
ROOT
ATOM      1  C4' PXY d   1       0.549   0.480  -1.784  0.00  0.00     0.077 C 
ATOM      2  C1' PXY d   1      -1.688  -0.666   3.421  0.00  0.00     0.077 C 
ATOM      3  C1  PXY d   1      -1.092  -0.360   2.062  0.00  0.00    -0.082 A 
ATOM      4  C2  PXY d   1      -1.881  -0.288   1.002  0.00  0.00     0.003 A 
ATOM      5  C3  PXY d   1      -1.353  -0.043  -0.240  0.00  0.00     0.003 A 
ATOM      6  C4  PXY d   1      -0.011   0.183  -0.390  0.00  0.00    -0.082 A 
ATOM      7  C5  PXY d   1       0.799   0.122   0.688  0.00  0.00     0.003 A 
ATOM      8  C6  PXY d   1       0.249  -0.168   1.933  0.00  0.00     0.003 A 
ENDROOT
TORSDOF 0
ENDMDL
