MODEL 1
REMARK minimizedAffinity -0.462697446
REMARK minimizedRMSD -1
REMARK  0 active torsions:
REMARK  status: ('A' for Active; 'I' for Inactive)
ROOT
ATOM      1  C4' PXY d   1       0.595  -0.203  -2.989  0.00  0.00     0.077 C 
ATOM      2  C1' PXY d   1       0.386   0.304   2.766  0.00  0.00     0.077 C 
ATOM      3  C1  PXY d   1       0.429   0.165   1.257  0.00  0.00    -0.082 A 
ATOM      4  C2  PXY d   1       1.596   0.164   0.633  0.00  0.00     0.003 A 
ATOM      5  C3  PXY d   1       1.652   0.072  -0.734  0.00  0.00     0.003 A 
ATOM      6  C4  PXY d   1       0.504  -0.074  -1.466  0.00  0.00    -0.082 A 
ATOM      7  C5  PXY d   1      -0.690  -0.085  -0.836  0.00  0.00     0.003 A 
ATOM      8  C6  PXY d   1      -0.727   0.052   0.549  0.00  0.00     0.003 A 
ENDROOT
TORSDOF 0
ENDMDL
