MODEL 1
REMARK minimizedAffinity -5.76800728
REMARK minimizedRMSD -1
REMARK  0 active torsions:
REMARK  status: ('A' for Active; 'I' for Inactive)
ROOT
ATOM      1  C4' PXY d   1       0.505  -0.756  -2.273  0.00  0.00     0.077 C 
ATOM      2  C1' PXY d   1      -1.026  -0.644   3.300  0.00  0.00     0.077 C 
ATOM      3  C1  PXY d   1      -0.637  -0.672   1.835  0.00  0.00    -0.082 A 
ATOM      4  C2  PXY d   1       0.469  -1.296   1.463  0.00  0.00     0.003 A 
ATOM      5  C3  PXY d   1       0.852  -1.303   0.147  0.00  0.00     0.003 A 
ATOM      6  C4  PXY d   1       0.068  -0.711  -0.807  0.00  0.00    -0.082 A 
ATOM      7  C5  PXY d   1      -1.067  -0.081  -0.437  0.00  0.00     0.003 A 
ATOM      8  C6  PXY d   1      -1.418  -0.050   0.910  0.00  0.00     0.003 A 
ENDROOT
TORSDOF 0
ENDMDL
