MODEL 1
REMARK minimizedAffinity -1.28974319
REMARK minimizedRMSD -1
REMARK  0 active torsions:
REMARK  status: ('A' for Active; 'I' for Inactive)
ROOT
ATOM      1  C4' PXY d   1       0.340   0.727   1.596  0.00  0.00     0.077 C 
ATOM      2  C1' PXY d   1       0.731  -1.750  -3.612  0.00  0.00     0.077 C 
ATOM      3  C1  PXY d   1       0.635  -1.090  -2.251  0.00  0.00    -0.082 A 
ATOM      4  C2  PXY d   1       0.494  -1.839  -1.169  0.00  0.00     0.003 A 
ATOM      5  C3  PXY d   1       0.373  -1.257   0.066  0.00  0.00     0.003 A 
ATOM      6  C4  PXY d   1       0.450   0.104   0.202  0.00  0.00    -0.082 A 
ATOM      7  C5  PXY d   1       0.604   0.874  -0.896  0.00  0.00     0.003 A 
ATOM      8  C6  PXY d   1       0.683   0.266  -2.145  0.00  0.00     0.003 A 
ENDROOT
TORSDOF 0
ENDMDL
