MODEL 1
REMARK minimizedAffinity -3.49884295
REMARK minimizedRMSD -1
REMARK  0 active torsions:
REMARK  status: ('A' for Active; 'I' for Inactive)
ROOT
ATOM      1  C4' PXY d   1      -0.149  -0.350   2.714  0.00  0.00     0.077 C 
ATOM      2  C1' PXY d   1       0.760   0.454  -2.938  0.00  0.00     0.077 C 
ATOM      3  C1  PXY d   1       0.534   0.240  -1.454  0.00  0.00    -0.082 A 
ATOM      4  C2  PXY d   1      -0.672  -0.083  -1.016  0.00  0.00     0.003 A 
ATOM      5  C3  PXY d   1      -0.901  -0.248   0.326  0.00  0.00     0.003 A 
ATOM      6  C4  PXY d   1       0.127  -0.134   1.223  0.00  0.00    -0.082 A 
ATOM      7  C5  PXY d   1       1.363   0.184   0.783  0.00  0.00     0.003 A 
ATOM      8  C6  PXY d   1       1.566   0.388  -0.579  0.00  0.00     0.003 A 
ENDROOT
TORSDOF 0
ENDMDL
