MODEL 1
REMARK minimizedAffinity -4.44262171
REMARK minimizedRMSD -1
REMARK  0 active torsions:
REMARK  status: ('A' for Active; 'I' for Inactive)
ROOT
ATOM      1  C4' PXY d   1      -3.908   0.223   1.228  0.00  0.00     0.077 C 
ATOM      2  C1' PXY d   1       1.870   0.063   1.285  0.00  0.00     0.077 C 
ATOM      3  C1  PXY d   1       0.355   0.095   1.278  0.00  0.00    -0.082 A 
ATOM      4  C2  PXY d   1      -0.284   0.614   0.242  0.00  0.00     0.003 A 
ATOM      5  C3  PXY d   1      -1.654   0.680   0.234  0.00  0.00     0.003 A 
ATOM      6  C4  PXY d   1      -2.379   0.161   1.273  0.00  0.00    -0.082 A 
ATOM      7  C5  PXY d   1      -1.734  -0.381   2.329  0.00  0.00     0.003 A 
ATOM      8  C6  PXY d   1      -0.343  -0.401   2.336  0.00  0.00     0.003 A 
ENDROOT
TORSDOF 0
ENDMDL
