MODEL 1
REMARK minimizedAffinity -5.04647207
REMARK minimizedRMSD -1
REMARK  0 active torsions:
REMARK  status: ('A' for Active; 'I' for Inactive)
ROOT
ATOM      1  C4' PXY d   1       0.374   0.109  -2.184  0.00  0.00     0.077 C 
ATOM      2  C1' PXY d   1      -1.098  -0.487   3.374  0.00  0.00     0.077 C 
ATOM      3  C1  PXY d   1      -0.701  -0.324   1.920  0.00  0.00    -0.082 A 
ATOM      4  C2  PXY d   1      -1.631  -0.365   0.980  0.00  0.00     0.003 A 
ATOM      5  C3  PXY d   1      -1.286  -0.252  -0.343  0.00  0.00     0.003 A 
ATOM      6  C4  PXY d   1       0.018  -0.041  -0.703  0.00  0.00    -0.082 A 
ATOM      7  C5  PXY d   1       0.971   0.013   0.251  0.00  0.00     0.003 A 
ATOM      8  C6  PXY d   1       0.606  -0.146   1.585  0.00  0.00     0.003 A 
ENDROOT
TORSDOF 0
ENDMDL
