MODEL 1
REMARK minimizedAffinity -3.97752047
REMARK minimizedRMSD -1
REMARK  0 active torsions:
REMARK  status: ('A' for Active; 'I' for Inactive)
ROOT
ATOM      1  C4' PXY d   1      -1.777  -0.110   2.155  0.00  0.00     0.077 C 
ATOM      2  C1' PXY d   1       0.988  -0.263  -2.919  0.00  0.00     0.077 C 
ATOM      3  C1  PXY d   1       0.261  -0.210  -1.590  0.00  0.00    -0.082 A 
ATOM      4  C2  PXY d   1       0.494  -1.141  -0.679  0.00  0.00     0.003 A 
ATOM      5  C3  PXY d   1      -0.178  -1.127   0.516  0.00  0.00     0.003 A 
ATOM      6  C4  PXY d   1      -1.059  -0.118   0.803  0.00  0.00    -0.082 A 
ATOM      7  C5  PXY d   1      -1.294   0.841  -0.117  0.00  0.00     0.003 A 
ATOM      8  C6  PXY d   1      -0.632   0.785  -1.340  0.00  0.00     0.003 A 
ENDROOT
TORSDOF 0
ENDMDL
