MODEL 1
REMARK minimizedAffinity -1.16549516
REMARK minimizedRMSD -1
REMARK  1 active torsions:
REMARK  status: ('A' for Active; 'I' for Inactive)
REMARK    1  A    between atoms: C3_4  and  O_7 
ROOT
ATOM      1  C   UNL d   1       1.282  -1.155   0.516  0.00  0.00    -0.033 A 
ATOM      2  C1  UNL d   1       0.781  -2.457   0.457  0.00  0.00     0.039 A 
ATOM      3  C2  UNL d   1       1.641  -3.527   0.202  0.00  0.00    -0.080 A 
ATOM      4  C3  UNL d   1       2.997  -3.282   0.009  0.00  0.00     0.150 A 
ATOM      5  C4  UNL d   1       3.504  -1.988   0.070  0.00  0.00    -0.007 A 
ATOM      6  C5  UNL d   1       2.643  -0.921   0.323  0.00  0.00     0.039 A 
ENDROOT
BRANCH   4   7
ATOM      7  O   UNL d   1       3.875  -4.294  -0.247  0.00  0.00    -0.526 OA
ATOM      8  H5  UNL d   1       3.378  -5.128  -0.288  0.00  0.00     0.418 HD
ENDBRANCH   4   7
TORSDOF 1
ENDMDL
