MODEL 1
REMARK minimizedAffinity -5.49730968
REMARK minimizedRMSD -1
REMARK  1 active torsions:
REMARK  status: ('A' for Active; 'I' for Inactive)
REMARK    1  A    between atoms: C3_4  and  O_7 
ROOT
ATOM      1  C   UNL d   1      -0.080  -0.639   0.490  0.00  0.00    -0.033 A 
ATOM      2  C1  UNL d   1       1.245  -0.754   0.064  0.00  0.00     0.039 A 
ATOM      3  C2  UNL d   1       1.868  -2.004   0.044  0.00  0.00    -0.080 A 
ATOM      4  C3  UNL d   1       1.155  -3.128   0.451  0.00  0.00     0.150 A 
ATOM      5  C4  UNL d   1      -0.166  -3.022   0.873  0.00  0.00    -0.007 A 
ATOM      6  C5  UNL d   1      -0.786  -1.773   0.894  0.00  0.00     0.039 A 
ENDROOT
BRANCH   4   7
ATOM      7  O   UNL d   1       1.722  -4.368   0.454  0.00  0.00    -0.526 OA
ATOM      8  H5  UNL d   1       2.646  -4.285   0.165  0.00  0.00     0.418 HD
ENDBRANCH   4   7
TORSDOF 1
ENDMDL
