MODEL 1
REMARK minimizedAffinity -2.97337627
REMARK minimizedRMSD -1
REMARK  1 active torsions:
REMARK  status: ('A' for Active; 'I' for Inactive)
REMARK    1  A    between atoms: C3_4  and  O_7 
ROOT
ATOM      1  C   UNL d   1       3.138  -2.894   0.012  0.00  0.00    -0.033 A 
ATOM      2  C1  UNL d   1       2.068  -3.776  -0.149  0.00  0.00     0.039 A 
ATOM      3  C2  UNL d   1       0.761  -3.340   0.080  0.00  0.00    -0.080 A 
ATOM      4  C3  UNL d   1       0.538  -2.022   0.468  0.00  0.00     0.150 A 
ATOM      5  C4  UNL d   1       1.599  -1.137   0.626  0.00  0.00    -0.007 A 
ATOM      6  C5  UNL d   1       2.904  -1.574   0.398  0.00  0.00     0.039 A 
ENDROOT
BRANCH   4   7
ATOM      7  O   UNL d   1      -0.719  -1.552   0.707  0.00  0.00    -0.526 OA
ATOM      8  H5  UNL d   1      -1.349  -2.282   0.586  0.00  0.00     0.418 HD
ENDBRANCH   4   7
TORSDOF 1
ENDMDL
