MODEL 1
REMARK minimizedAffinity -4.51738691
REMARK minimizedRMSD -1
REMARK  1 active torsions:
REMARK  status: ('A' for Active; 'I' for Inactive)
REMARK    1  A    between atoms: C3_4  and  O_7 
ROOT
ATOM      1  C   UNL d   1      -0.411  -2.572   0.674  0.00  0.00    -0.033 A 
ATOM      2  C1  UNL d   1       0.818  -2.993   0.163  0.00  0.00     0.039 A 
ATOM      3  C2  UNL d   1       1.860  -2.077   0.003  0.00  0.00    -0.080 A 
ATOM      4  C3  UNL d   1       1.661  -0.746   0.360  0.00  0.00     0.150 A 
ATOM      5  C4  UNL d   1       0.440  -0.321   0.873  0.00  0.00    -0.007 A 
ATOM      6  C5  UNL d   1      -0.600  -1.236   1.030  0.00  0.00     0.039 A 
ENDROOT
BRANCH   4   7
ATOM      7  O   UNL d   1       2.647   0.185   0.218  0.00  0.00    -0.526 OA
ATOM      8  H5  UNL d   1       3.423  -0.247  -0.175  0.00  0.00     0.418 HD
ENDBRANCH   4   7
TORSDOF 1
ENDMDL
