MODEL 1
REMARK minimizedAffinity 3.16325831
REMARK minimizedRMSD -1
REMARK  1 active torsions:
REMARK  status: ('A' for Active; 'I' for Inactive)
REMARK    1  A    between atoms: C3_4  and  O_7 
ROOT
ATOM      1  C   UNL d   1       0.008  -2.687   0.068  0.00  0.00    -0.033 A 
ATOM      2  C1  UNL d   1       1.320  -2.387  -0.304  0.00  0.00     0.039 A 
ATOM      3  C2  UNL d   1       2.107  -1.567   0.507  0.00  0.00    -0.080 A 
ATOM      4  C3  UNL d   1       1.572  -1.055   1.686  0.00  0.00     0.150 A 
ATOM      5  C4  UNL d   1       0.267  -1.353   2.064  0.00  0.00    -0.007 A 
ATOM      6  C5  UNL d   1      -0.518  -2.171   1.253  0.00  0.00     0.039 A 
ENDROOT
BRANCH   4   7
ATOM      7  O   UNL d   1       2.300  -0.247   2.507  0.00  0.00    -0.526 OA
ATOM      8  H5  UNL d   1       3.172  -0.105   2.104  0.00  0.00     0.418 HD
ENDBRANCH   4   7
TORSDOF 1
ENDMDL
