MODEL 1
REMARK minimizedAffinity 2.72666979
REMARK minimizedRMSD -1
REMARK  1 active torsions:
REMARK  status: ('A' for Active; 'I' for Inactive)
REMARK    1  A    between atoms: C3_4  and  O_7 
ROOT
ATOM      1  C   UNL d   1      -0.689  -1.888   0.741  0.00  0.00    -0.033 A 
ATOM      2  C1  UNL d   1      -0.684  -1.156   1.930  0.00  0.00     0.039 A 
ATOM      3  C2  UNL d   1       0.493  -0.551   2.374  0.00  0.00    -0.080 A 
ATOM      4  C3  UNL d   1       1.657  -0.685   1.621  0.00  0.00     0.150 A 
ATOM      5  C4  UNL d   1       1.658  -1.409   0.434  0.00  0.00    -0.007 A 
ATOM      6  C5  UNL d   1       0.482  -2.013  -0.008  0.00  0.00     0.039 A 
ENDROOT
BRANCH   4   7
ATOM      7  O   UNL d   1       2.831  -0.116   2.017  0.00  0.00    -0.526 OA
ATOM      8  H5  UNL d   1       2.686   0.328   2.869  0.00  0.00     0.418 HD
ENDBRANCH   4   7
TORSDOF 1
ENDMDL
