MODEL 1
REMARK minimizedAffinity 8.24464798
REMARK minimizedRMSD -1
REMARK  1 active torsions:
REMARK  status: ('A' for Active; 'I' for Inactive)
REMARK    1  A    between atoms: C3_4  and  O_7 
ROOT
ATOM      1  C   UNL d   1       2.379   1.076  -2.995  0.00  0.00    -0.033 A 
ATOM      2  C1  UNL d   1       2.963   0.775  -1.763  0.00  0.00     0.039 A 
ATOM      3  C2  UNL d   1       4.183   0.099  -1.714  0.00  0.00    -0.080 A 
ATOM      4  C3  UNL d   1       4.809  -0.270  -2.901  0.00  0.00     0.150 A 
ATOM      5  C4  UNL d   1       4.234   0.029  -4.132  0.00  0.00    -0.007 A 
ATOM      6  C5  UNL d   1       3.015   0.704  -4.180  0.00  0.00     0.039 A 
ENDROOT
BRANCH   4   7
ATOM      7  O   UNL d   1       5.998  -0.936  -2.903  0.00  0.00    -0.526 OA
ATOM      8  H5  UNL d   1       6.261  -1.100  -1.982  0.00  0.00     0.418 HD
ENDBRANCH   4   7
TORSDOF 1
ENDMDL
