MODEL 1
REMARK minimizedAffinity 0.817118406
REMARK minimizedRMSD -1
REMARK  1 active torsions:
REMARK  status: ('A' for Active; 'I' for Inactive)
REMARK    1  A    between atoms: C3_4  and  O_7 
ROOT
ATOM      1  C   UNL d   1       1.697  -2.353   0.358  0.00  0.00    -0.033 A 
ATOM      2  C1  UNL d   1       2.983  -1.808   0.366  0.00  0.00     0.039 A 
ATOM      3  C2  UNL d   1       4.091  -2.628   0.142  0.00  0.00    -0.080 A 
ATOM      4  C3  UNL d   1       3.900  -3.987  -0.091  0.00  0.00     0.150 A 
ATOM      5  C4  UNL d   1       2.622  -4.535  -0.104  0.00  0.00    -0.007 A 
ATOM      6  C5  UNL d   1       1.517  -3.716   0.121  0.00  0.00     0.039 A 
ENDROOT
BRANCH   4   7
ATOM      7  O   UNL d   1       4.951  -4.827  -0.310  0.00  0.00    -0.526 OA
ATOM      8  H5  UNL d   1       5.774  -4.314  -0.243  0.00  0.00     0.418 HD
ENDBRANCH   4   7
TORSDOF 1
ENDMDL
