MODEL 1
REMARK minimizedAffinity -4.41345596
REMARK minimizedRMSD -1
REMARK  1 active torsions:
REMARK  status: ('A' for Active; 'I' for Inactive)
REMARK    1  A    between atoms: C3_4  and  O_7 
ROOT
ATOM      1  C   UNL d   1       0.606  -1.634   0.283  0.00  0.00    -0.033 A 
ATOM      2  C1  UNL d   1       1.892  -1.096   0.207  0.00  0.00     0.039 A 
ATOM      3  C2  UNL d   1       2.998  -1.940   0.094  0.00  0.00    -0.080 A 
ATOM      4  C3  UNL d   1       2.805  -3.319   0.056  0.00  0.00     0.150 A 
ATOM      5  C4  UNL d   1       1.527  -3.861   0.127  0.00  0.00    -0.007 A 
ATOM      6  C5  UNL d   1       0.423  -3.017   0.241  0.00  0.00     0.039 A 
ENDROOT
BRANCH   4   7
ATOM      7  O   UNL d   1       3.855  -4.182  -0.049  0.00  0.00    -0.526 OA
ATOM      8  H5  UNL d   1       4.678  -3.667  -0.060  0.00  0.00     0.418 HD
ENDBRANCH   4   7
TORSDOF 1
ENDMDL
