MODEL 1
REMARK minimizedAffinity -2.24657655
REMARK minimizedRMSD -1
REMARK  1 active torsions:
REMARK  status: ('A' for Active; 'I' for Inactive)
REMARK    1  A    between atoms: C3_4  and  O_7 
ROOT
ATOM      1  C   UNL d   1       0.473  -2.211   0.039  0.00  0.00    -0.033 A 
ATOM      2  C1  UNL d   1      -0.044  -1.453   1.091  0.00  0.00     0.039 A 
ATOM      3  C2  UNL d   1       0.810  -0.686   1.886  0.00  0.00    -0.080 A 
ATOM      4  C3  UNL d   1       2.176  -0.685   1.618  0.00  0.00     0.150 A 
ATOM      5  C4  UNL d   1       2.697  -1.434   0.569  0.00  0.00    -0.007 A 
ATOM      6  C5  UNL d   1       1.843  -2.201  -0.223  0.00  0.00     0.039 A 
ENDROOT
BRANCH   4   7
ATOM      7  O   UNL d   1       3.048   0.045   2.370  0.00  0.00    -0.526 OA
ATOM      8  H5  UNL d   1       2.550   0.489   3.076  0.00  0.00     0.418 HD
ENDBRANCH   4   7
TORSDOF 1
ENDMDL
