MODEL 1
REMARK minimizedAffinity 0.842448473
REMARK minimizedRMSD -1
REMARK  1 active torsions:
REMARK  status: ('A' for Active; 'I' for Inactive)
REMARK    1  A    between atoms: C3_4  and  O_7 
ROOT
ATOM      1  C   UNL d   1       1.514  -2.370   0.320  0.00  0.00    -0.033 A 
ATOM      2  C1  UNL d   1       2.889  -2.128   0.333  0.00  0.00     0.039 A 
ATOM      3  C2  UNL d   1       3.787  -3.194   0.258  0.00  0.00    -0.080 A 
ATOM      4  C3  UNL d   1       3.299  -4.495   0.171  0.00  0.00     0.150 A 
ATOM      5  C4  UNL d   1       1.930  -4.742   0.154  0.00  0.00    -0.007 A 
ATOM      6  C5  UNL d   1       1.034  -3.677   0.230  0.00  0.00     0.039 A 
ENDROOT
BRANCH   4   7
ATOM      7  O   UNL d   1       4.137  -5.567   0.101  0.00  0.00    -0.526 OA
ATOM      8  H5  UNL d   1       5.053  -5.246   0.152  0.00  0.00     0.418 HD
ENDBRANCH   4   7
TORSDOF 1
ENDMDL
