MODEL 1
REMARK minimizedAffinity -0.709617734
REMARK minimizedRMSD -1
REMARK  1 active torsions:
REMARK  status: ('A' for Active; 'I' for Inactive)
REMARK    1  A    between atoms: C3_4  and  O_7 
ROOT
ATOM      1  C   UNL d   1       1.495  -2.160   0.836  0.00  0.00    -0.033 A 
ATOM      2  C1  UNL d   1       2.798  -1.670   0.731  0.00  0.00     0.039 A 
ATOM      3  C2  UNL d   1       3.838  -2.523   0.357  0.00  0.00    -0.080 A 
ATOM      4  C3  UNL d   1       3.562  -3.861   0.090  0.00  0.00     0.150 A 
ATOM      5  C4  UNL d   1       2.265  -4.355   0.189  0.00  0.00    -0.007 A 
ATOM      6  C5  UNL d   1       1.228  -3.502   0.564  0.00  0.00     0.039 A 
ENDROOT
BRANCH   4   7
ATOM      7  O   UNL d   1       4.545  -4.733  -0.274  0.00  0.00    -0.526 OA
ATOM      8  H5  UNL d   1       5.393  -4.258  -0.273  0.00  0.00     0.418 HD
ENDBRANCH   4   7
TORSDOF 1
ENDMDL
