MODEL 1
REMARK minimizedAffinity 13.8348894
REMARK minimizedRMSD -1
REMARK  3 active torsions:
REMARK  status: ('A' for Active; 'I' for Inactive)
REMARK    1  A    between atoms: C3'_2  and  C2'_3 
REMARK    2  A    between atoms: C2'_3  and  C1'_4 
REMARK    3  A    between atoms: C1'_4  and  C1_5 
ROOT
ATOM      1  C1  N4B d   1       1.426   1.043   2.105  0.00  0.00    -0.075 A 
ATOM      2  C2  N4B d   1       1.327   1.742   3.328  0.00  0.00     0.002 A 
ATOM      3  C3  N4B d   1       2.115   2.843   3.556  0.00  0.00     0.002 A 
ATOM      4  C4  N4B d   1       3.019   3.252   2.586  0.00  0.00    -0.004 A 
ATOM      5  C5  N4B d   1       3.090   2.587   1.397  0.00  0.00     0.002 A 
ATOM      6  C6  N4B d   1       2.301   1.481   1.153  0.00  0.00     0.002 A 
ENDROOT
BRANCH   1   7
ATOM      7  C1' N4B d   1       0.646  -0.217   1.845  0.00  0.00     0.057 C 
BRANCH   7   8
ATOM      8  C2' N4B d   1       1.616  -1.344   1.505  0.00  0.00     0.009 C 
BRANCH   8   9
ATOM      9  C3' N4B d   1       2.052  -2.111   2.742  0.00  0.00     0.004 C 
ATOM     10  C4' N4B d   1       1.149  -1.880   3.916  0.00  0.00     0.003 C 
ENDBRANCH   8   9
ENDBRANCH   7   8
ENDBRANCH   1   7
TORSDOF 3
ENDMDL
