MODEL 1
REMARK minimizedAffinity 7.22224808
REMARK minimizedRMSD -1
REMARK  3 active torsions:
REMARK  status: ('A' for Active; 'I' for Inactive)
REMARK    1  A    between atoms: C3'_2  and  C2'_3 
REMARK    2  A    between atoms: C2'_3  and  C1'_4 
REMARK    3  A    between atoms: C1'_4  and  C1_5 
ROOT
ATOM      1  C1  N4B d   1      -5.116  -0.810  -2.985  0.00  0.00    -0.075 A 
ATOM      2  C2  N4B d   1      -3.762  -0.888  -2.591  0.00  0.00     0.002 A 
ATOM      3  C3  N4B d   1      -3.040   0.261  -2.386  0.00  0.00     0.002 A 
ATOM      4  C4  N4B d   1      -3.641   1.495  -2.586  0.00  0.00    -0.004 A 
ATOM      5  C5  N4B d   1      -4.957   1.562  -2.942  0.00  0.00     0.002 A 
ATOM      6  C6  N4B d   1      -5.696   0.415  -3.147  0.00  0.00     0.002 A 
ENDROOT
BRANCH   1   7
ATOM      7  C1' N4B d   1      -5.923  -2.039  -3.304  0.00  0.00     0.057 C 
BRANCH   7   8
ATOM      8  C2' N4B d   1      -5.060  -3.011  -4.104  0.00  0.00     0.009 C 
BRANCH   8   9
ATOM      9  C3' N4B d   1      -5.565  -3.181  -5.526  0.00  0.00     0.004 C 
ATOM     10  C4' N4B d   1      -5.499  -4.603  -5.999  0.00  0.00     0.003 C 
ENDBRANCH   8   9
ENDBRANCH   7   8
ENDBRANCH   1   7
TORSDOF 3
ENDMDL
