MODEL 1
REMARK minimizedAffinity 9.0209446
REMARK minimizedRMSD -1
REMARK  3 active torsions:
REMARK  status: ('A' for Active; 'I' for Inactive)
REMARK    1  A    between atoms: C3'_2  and  C2'_3 
REMARK    2  A    between atoms: C2'_3  and  C1'_4 
REMARK    3  A    between atoms: C1'_4  and  C1_5 
ROOT
ATOM      1  C1  N4B d   1      -2.271   1.841  -0.438  0.00  0.00    -0.075 A 
ATOM      2  C2  N4B d   1      -2.108   0.715  -1.275  0.00  0.00     0.002 A 
ATOM      3  C3  N4B d   1      -2.773   0.649  -2.474  0.00  0.00     0.002 A 
ATOM      4  C4  N4B d   1      -3.618   1.683  -2.848  0.00  0.00    -0.004 A 
ATOM      5  C5  N4B d   1      -3.750   2.779  -2.046  0.00  0.00     0.002 A 
ATOM      6  C6  N4B d   1      -3.084   2.861  -0.840  0.00  0.00     0.002 A 
ENDROOT
BRANCH   1   7
ATOM      7  C1' N4B d   1      -1.631   1.919   0.921  0.00  0.00     0.057 C 
BRANCH   7   8
ATOM      8  C2' N4B d   1      -1.551   0.518   1.518  0.00  0.00     0.009 C 
BRANCH   8   9
ATOM      9  C3' N4B d   1      -0.138   0.165   1.951  0.00  0.00     0.004 C 
ATOM     10  C4' N4B d   1       0.783   1.348   1.949  0.00  0.00     0.003 C 
ENDBRANCH   8   9
ENDBRANCH   7   8
ENDBRANCH   1   7
TORSDOF 3
ENDMDL
