MODEL 1
REMARK minimizedAffinity 11.0927382
REMARK minimizedRMSD -1
REMARK  3 active torsions:
REMARK  status: ('A' for Active; 'I' for Inactive)
REMARK    1  A    between atoms: C3'_2  and  C2'_3 
REMARK    2  A    between atoms: C2'_3  and  C1'_4 
REMARK    3  A    between atoms: C1'_4  and  C1_5 
ROOT
ATOM      1  C1  N4B d   1       0.821  -1.269   1.666  0.00  0.00    -0.075 A 
ATOM      2  C2  N4B d   1       0.675   0.031   1.135  0.00  0.00     0.002 A 
ATOM      3  C3  N4B d   1      -0.546   0.658   1.179  0.00  0.00     0.002 A 
ATOM      4  C4  N4B d   1      -1.635  -0.001   1.730  0.00  0.00    -0.004 A 
ATOM      5  C5  N4B d   1      -1.480  -1.247   2.264  0.00  0.00     0.002 A 
ATOM      6  C6  N4B d   1      -0.258  -1.887   2.230  0.00  0.00     0.002 A 
ENDROOT
BRANCH   1   7
ATOM      7  C1' N4B d   1       2.116  -2.028   1.564  0.00  0.00     0.057 C 
BRANCH   7   8
ATOM      8  C2' N4B d   1       2.099  -3.184   2.559  0.00  0.00     0.009 C 
BRANCH   8   9
ATOM      9  C3' N4B d   1       1.592  -4.470   1.928  0.00  0.00     0.004 C 
ATOM     10  C4' N4B d   1       0.107  -4.633   2.055  0.00  0.00     0.003 C 
ENDBRANCH   8   9
ENDBRANCH   7   8
ENDBRANCH   1   7
TORSDOF 3
ENDMDL
