MODEL 1
REMARK minimizedAffinity 1.25978529
REMARK minimizedRMSD -1
REMARK  3 active torsions:
REMARK  status: ('A' for Active; 'I' for Inactive)
REMARK    1  A    between atoms: C3'_2  and  C2'_3 
REMARK    2  A    between atoms: C2'_3  and  C1'_4 
REMARK    3  A    between atoms: C1'_4  and  C1_5 
ROOT
ATOM      1  C1  N4B d   1       3.305  -2.660   4.306  0.00  0.00    -0.075 A 
ATOM      2  C2  N4B d   1       3.691  -2.639   5.664  0.00  0.00     0.002 A 
ATOM      3  C3  N4B d   1       5.023  -2.659   6.000  0.00  0.00     0.002 A 
ATOM      4  C4  N4B d   1       5.982  -2.720   5.000  0.00  0.00    -0.004 A 
ATOM      5  C5  N4B d   1       5.601  -2.715   3.689  0.00  0.00     0.002 A 
ATOM      6  C6  N4B d   1       4.267  -2.691   3.337  0.00  0.00     0.002 A 
ENDROOT
BRANCH   1   7
ATOM      7  C1' N4B d   1       1.861  -2.726   3.892  0.00  0.00     0.057 C 
BRANCH   7   8
ATOM      8  C2' N4B d   1       1.740  -2.310   2.429  0.00  0.00     0.009 C 
BRANCH   8   9
ATOM      9  C3' N4B d   1       1.110  -0.936   2.279  0.00  0.00     0.004 C 
ATOM     10  C4' N4B d   1       2.082   0.099   1.797  0.00  0.00     0.003 C 
ENDBRANCH   8   9
ENDBRANCH   7   8
ENDBRANCH   1   7
TORSDOF 3
ENDMDL
