MODEL 1
REMARK minimizedAffinity 16.9046497
REMARK minimizedRMSD -1
REMARK  0 active torsions:
REMARK  status: ('A' for Active; 'I' for Inactive)
ROOT
ATOM      1  C   UNL d   1       3.004  -0.174  -1.067  0.00  0.00     0.020 A 
ATOM      2  C1  UNL d   1       1.994  -0.909  -0.446  0.00  0.00     0.020 A 
ATOM      3  C2  UNL d   1       1.003  -1.521  -1.215  0.00  0.00     0.034 A 
ATOM      4  C3  UNL d   1       1.018  -1.400  -2.609  0.00  0.00     0.017 A 
ATOM      5  C4  UNL d   1       2.031  -0.662  -3.231  0.00  0.00     0.017 A 
ATOM      6  C5  UNL d   1       3.022  -0.051  -2.457  0.00  0.00     0.034 A 
ATOM      7 Cl   UNL d   1       2.116  -0.468  -4.947  0.00  0.00    -0.070 Cl
ATOM      8 Cl1  UNL d   1      -0.240  -2.183  -3.497  0.00  0.00    -0.070 Cl
ENDROOT
TORSDOF 0
ENDMDL
