MODEL 1
REMARK minimizedAffinity 14.2980404
REMARK minimizedRMSD -1
REMARK  0 active torsions:
REMARK  status: ('A' for Active; 'I' for Inactive)
ROOT
ATOM      1  C   UNL d   1       2.412  -1.338  -0.350  0.00  0.00     0.020 A 
ATOM      2  C1  UNL d   1       2.523  -2.726  -0.416  0.00  0.00     0.020 A 
ATOM      3  C2  UNL d   1       1.714  -3.450  -1.294  0.00  0.00     0.034 A 
ATOM      4  C3  UNL d   1       0.791  -2.787  -2.110  0.00  0.00     0.017 A 
ATOM      5  C4  UNL d   1       0.680  -1.393  -2.043  0.00  0.00     0.017 A 
ATOM      6  C5  UNL d   1       1.492  -0.673  -1.162  0.00  0.00     0.034 A 
ATOM      7 Cl   UNL d   1      -0.436  -0.504  -3.018  0.00  0.00    -0.070 Cl
ATOM      8 Cl1  UNL d   1      -0.177  -3.745  -3.173  0.00  0.00    -0.070 Cl
ENDROOT
TORSDOF 0
ENDMDL
