MODEL 1
REMARK minimizedAffinity 16.4001408
REMARK minimizedRMSD -1
REMARK  0 active torsions:
REMARK  status: ('A' for Active; 'I' for Inactive)
ROOT
ATOM      1  C   UNL d   1       4.940   2.172  -0.661  0.00  0.00     0.020 A 
ATOM      2  C1  UNL d   1       4.578   3.016   0.388  0.00  0.00     0.020 A 
ATOM      3  C2  UNL d   1       3.476   2.703   1.188  0.00  0.00     0.034 A 
ATOM      4  C3  UNL d   1       2.733   1.543   0.939  0.00  0.00     0.017 A 
ATOM      5  C4  UNL d   1       3.097   0.697  -0.114  0.00  0.00     0.017 A 
ATOM      6  C5  UNL d   1       4.201   1.015  -0.912  0.00  0.00     0.034 A 
ATOM      7 Cl   UNL d   1       2.229  -0.751  -0.482  0.00  0.00    -0.070 Cl
ATOM      8 Cl1  UNL d   1       1.384   1.218   1.968  0.00  0.00    -0.070 Cl
ENDROOT
TORSDOF 0
ENDMDL
