MODEL 1
REMARK minimizedAffinity 15.2226171
REMARK minimizedRMSD -1
REMARK  0 active torsions:
REMARK  status: ('A' for Active; 'I' for Inactive)
ROOT
ATOM      1  C   UNL d   1      -3.521  -4.721  -3.001  0.00  0.00     0.020 A 
ATOM      2  C1  UNL d   1      -3.515  -3.459  -3.595  0.00  0.00     0.020 A 
ATOM      3  C2  UNL d   1      -2.344  -2.700  -3.609  0.00  0.00     0.034 A 
ATOM      4  C3  UNL d   1      -1.173  -3.201  -3.028  0.00  0.00     0.017 A 
ATOM      5  C4  UNL d   1      -1.180  -4.467  -2.432  0.00  0.00     0.017 A 
ATOM      6  C5  UNL d   1      -2.356  -5.223  -2.421  0.00  0.00     0.034 A 
ATOM      7 Cl   UNL d   1       0.225  -5.153  -1.695  0.00  0.00    -0.070 Cl
ATOM      8 Cl1  UNL d   1       0.240  -2.207  -3.082  0.00  0.00    -0.070 Cl
ENDROOT
TORSDOF 0
ENDMDL
