MODEL 1
REMARK minimizedAffinity 15.4055958
REMARK minimizedRMSD -1
REMARK  0 active torsions:
REMARK  status: ('A' for Active; 'I' for Inactive)
ROOT
ATOM      1  C   UNL d   1       2.369   1.505   4.036  0.00  0.00     0.020 A 
ATOM      2  C1  UNL d   1       2.256   1.696   5.413  0.00  0.00     0.020 A 
ATOM      3  C2  UNL d   1       0.994   1.819   5.999  0.00  0.00     0.034 A 
ATOM      4  C3  UNL d   1      -0.159   1.752   5.208  0.00  0.00     0.017 A 
ATOM      5  C4  UNL d   1      -0.044   1.560   3.827  0.00  0.00     0.017 A 
ATOM      6  C5  UNL d   1       1.222   1.437   3.245  0.00  0.00     0.034 A 
ATOM      7 Cl   UNL d   1      -1.421   1.466   2.786  0.00  0.00    -0.070 Cl
ATOM      8 Cl1  UNL d   1      -1.686   1.911   6.000  0.00  0.00    -0.070 Cl
ENDROOT
TORSDOF 0
ENDMDL
