MODEL 1
REMARK minimizedAffinity 3.75306225
REMARK minimizedRMSD -1
REMARK  0 active torsions:
REMARK  status: ('A' for Active; 'I' for Inactive)
ROOT
ATOM      1  C   UNL d   1       0.810  -3.274  -0.506  0.00  0.00     0.020 A 
ATOM      2  C1  UNL d   1       0.718  -1.956  -0.951  0.00  0.00     0.020 A 
ATOM      3  C2  UNL d   1      -0.441  -1.216  -0.707  0.00  0.00     0.034 A 
ATOM      4  C3  UNL d   1      -1.512  -1.794  -0.016  0.00  0.00     0.017 A 
ATOM      5  C4  UNL d   1      -1.419  -3.117   0.430  0.00  0.00     0.017 A 
ATOM      6  C5  UNL d   1      -0.256  -3.853   0.183  0.00  0.00     0.034 A 
ATOM      7 Cl   UNL d   1      -2.699  -3.898   1.289  0.00  0.00    -0.070 Cl
ATOM      8 Cl1  UNL d   1      -2.915  -0.820   0.251  0.00  0.00    -0.070 Cl
ENDROOT
TORSDOF 0
ENDMDL
