MODEL 1
REMARK minimizedAffinity 15.8286266
REMARK minimizedRMSD -1
REMARK  0 active torsions:
REMARK  status: ('A' for Active; 'I' for Inactive)
ROOT
ATOM      1  C   UNL d   1      -5.982   3.738  -6.000  0.00  0.00     0.020 A 
ATOM      2  C1  UNL d   1      -5.957   5.132  -5.995  0.00  0.00     0.020 A 
ATOM      3  C2  UNL d   1      -4.741   5.808  -5.878  0.00  0.00     0.034 A 
ATOM      4  C3  UNL d   1      -3.545   5.091  -5.765  0.00  0.00     0.017 A 
ATOM      5  C4  UNL d   1      -3.571   3.691  -5.770  0.00  0.00     0.017 A 
ATOM      6  C5  UNL d   1      -4.791   3.019  -5.888  0.00  0.00     0.034 A 
ATOM      7 Cl   UNL d   1      -2.136   2.737  -5.635  0.00  0.00    -0.070 Cl
ATOM      8 Cl1  UNL d   1      -2.077   5.992  -5.624  0.00  0.00    -0.070 Cl
ENDROOT
TORSDOF 0
ENDMDL
