MODEL 1
REMARK minimizedAffinity 24.4601383
REMARK minimizedRMSD -1
REMARK  0 active torsions:
REMARK  status: ('A' for Active; 'I' for Inactive)
ROOT
ATOM      1  C   UNL d   1      -3.290  -5.166   1.195  0.00  0.00     0.020 A 
ATOM      2  C1  UNL d   1      -3.655  -5.739  -0.023  0.00  0.00     0.020 A 
ATOM      3  C2  UNL d   1      -2.868  -5.528  -1.157  0.00  0.00     0.034 A 
ATOM      4  C3  UNL d   1      -1.713  -4.742  -1.077  0.00  0.00     0.017 A 
ATOM      5  C4  UNL d   1      -1.348  -4.167   0.146  0.00  0.00     0.017 A 
ATOM      6  C5  UNL d   1      -2.139  -4.382   1.279  0.00  0.00     0.034 A 
ATOM      7 Cl   UNL d   1       0.064  -3.185   0.324  0.00  0.00    -0.070 Cl
ATOM      8 Cl1  UNL d   1      -0.787  -4.523  -2.519  0.00  0.00    -0.070 Cl
ENDROOT
TORSDOF 0
ENDMDL
