MODEL 1
REMARK minimizedAffinity 17.7799759
REMARK minimizedRMSD -1
REMARK  0 active torsions:
REMARK  status: ('A' for Active; 'I' for Inactive)
ROOT
ATOM      1  C   UNL d   1       2.764   0.183  -1.315  0.00  0.00     0.020 A 
ATOM      2  C1  UNL d   1       1.502  -0.373  -1.104  0.00  0.00     0.020 A 
ATOM      3  C2  UNL d   1       0.762  -0.017   0.025  0.00  0.00     0.034 A 
ATOM      4  C3  UNL d   1       1.282   0.897   0.948  0.00  0.00     0.017 A 
ATOM      5  C4  UNL d   1       2.548   1.455   0.736  0.00  0.00     0.017 A 
ATOM      6  C5  UNL d   1       3.285   1.095  -0.397  0.00  0.00     0.034 A 
ATOM      7 Cl   UNL d   1       3.257   2.590   1.831  0.00  0.00    -0.070 Cl
ATOM      8 Cl1  UNL d   1       0.312   1.292   2.323  0.00  0.00    -0.070 Cl
ENDROOT
TORSDOF 0
ENDMDL
