MODEL 1
REMARK minimizedAffinity 9.45815945
REMARK minimizedRMSD -1
REMARK  0 active torsions:
REMARK  status: ('A' for Active; 'I' for Inactive)
ROOT
ATOM      1  C   UNL d   1      -4.129   1.875   4.020  0.00  0.00     0.020 A 
ATOM      2  C1  UNL d   1      -4.007   1.883   5.409  0.00  0.00     0.020 A 
ATOM      3  C2  UNL d   1      -2.742   1.845   6.000  0.00  0.00     0.034 A 
ATOM      4  C3  UNL d   1      -1.594   1.799   5.201  0.00  0.00     0.017 A 
ATOM      5  C4  UNL d   1      -1.717   1.792   3.807  0.00  0.00     0.017 A 
ATOM      6  C5  UNL d   1      -2.986   1.830   3.221  0.00  0.00     0.034 A 
ATOM      7 Cl   UNL d   1      -0.346   1.736   2.756  0.00  0.00    -0.070 Cl
ATOM      8 Cl1  UNL d   1      -0.062   1.754   5.999  0.00  0.00    -0.070 Cl
ENDROOT
TORSDOF 0
ENDMDL
