MODEL 1
REMARK minimizedAffinity 16.2469463
REMARK minimizedRMSD -1
REMARK  0 active torsions:
REMARK  status: ('A' for Active; 'I' for Inactive)
ROOT
ATOM      1  C   UNL d   1       1.141  -2.698  -0.791  0.00  0.00     0.020 A 
ATOM      2  C1  UNL d   1       0.432  -2.876  -1.978  0.00  0.00     0.020 A 
ATOM      3  C2  UNL d   1       0.481  -1.898  -2.974  0.00  0.00     0.034 A 
ATOM      4  C3  UNL d   1       1.240  -0.738  -2.784  0.00  0.00     0.017 A 
ATOM      5  C4  UNL d   1       1.951  -0.560  -1.591  0.00  0.00     0.017 A 
ATOM      6  C5  UNL d   1       1.898  -1.542  -0.598  0.00  0.00     0.034 A 
ATOM      7 Cl   UNL d   1       2.910   0.845  -1.284  0.00  0.00    -0.070 Cl
ATOM      8 Cl1  UNL d   1       1.256   0.430  -4.057  0.00  0.00    -0.070 Cl
ENDROOT
TORSDOF 0
ENDMDL
