MODEL 1
REMARK minimizedAffinity 14.8818712
REMARK minimizedRMSD -1
REMARK  0 active torsions:
REMARK  status: ('A' for Active; 'I' for Inactive)
ROOT
ATOM      1  C   UNL d   1       0.901  -1.660  -1.800  0.00  0.00     0.020 A 
ATOM      2  C1  UNL d   1       0.976  -0.291  -2.056  0.00  0.00     0.020 A 
ATOM      3  C2  UNL d   1       2.101   0.434  -1.657  0.00  0.00     0.034 A 
ATOM      4  C3  UNL d   1       3.156  -0.210  -1.000  0.00  0.00     0.017 A 
ATOM      5  C4  UNL d   1       3.080  -1.584  -0.744  0.00  0.00     0.017 A 
ATOM      6  C5  UNL d   1       1.951  -2.305  -1.146  0.00  0.00     0.034 A 
ATOM      7 Cl   UNL d   1       4.342  -2.448   0.062  0.00  0.00    -0.070 Cl
ATOM      8 Cl1  UNL d   1       4.517   0.748  -0.535  0.00  0.00    -0.070 Cl
ENDROOT
TORSDOF 0
ENDMDL
