MODEL 1
REMARK minimizedAffinity 1.28429496
REMARK minimizedRMSD -1
REMARK  0 active torsions:
REMARK  status: ('A' for Active; 'I' for Inactive)
ROOT
ATOM      1  C   UNL d   1      -1.250  -5.596  -5.988  0.00  0.00     0.020 A 
ATOM      2  C1  UNL d   1      -0.693  -5.999  -4.775  0.00  0.00     0.020 A 
ATOM      3  C2  UNL d   1      -1.318  -5.660  -3.573  0.00  0.00     0.034 A 
ATOM      4  C3  UNL d   1      -2.504  -4.917  -3.581  0.00  0.00     0.017 A 
ATOM      5  C4  UNL d   1      -3.062  -4.513  -4.799  0.00  0.00     0.017 A 
ATOM      6  C5  UNL d   1      -2.432  -4.855  -6.000  0.00  0.00     0.034 A 
ATOM      7 Cl   UNL d   1      -4.523  -3.594  -4.889  0.00  0.00    -0.070 Cl
ATOM      8 Cl1  UNL d   1      -3.223  -4.534  -2.057  0.00  0.00    -0.070 Cl
ENDROOT
TORSDOF 0
ENDMDL
