MODEL 1
REMARK minimizedAffinity 11.3861704
REMARK minimizedRMSD -1
REMARK  0 active torsions:
REMARK  status: ('A' for Active; 'I' for Inactive)
ROOT
ATOM      1  C   UNL d   1      -1.251  -6.000  -5.023  0.00  0.00     0.020 A 
ATOM      2  C1  UNL d   1      -0.377  -6.000  -3.937  0.00  0.00     0.020 A 
ATOM      3  C2  UNL d   1      -0.425  -4.965  -3.001  0.00  0.00     0.034 A 
ATOM      4  C3  UNL d   1      -1.351  -3.925  -3.149  0.00  0.00     0.017 A 
ATOM      5  C4  UNL d   1      -2.229  -3.926  -4.239  0.00  0.00     0.017 A 
ATOM      6  C5  UNL d   1      -2.175  -4.965  -5.173  0.00  0.00     0.034 A 
ATOM      7 Cl   UNL d   1      -3.398  -2.678  -4.488  0.00  0.00    -0.070 Cl
ATOM      8 Cl1  UNL d   1      -1.356  -2.678  -1.953  0.00  0.00    -0.070 Cl
ENDROOT
TORSDOF 0
ENDMDL
