MODEL 1
REMARK minimizedAffinity 2.09327769
REMARK minimizedRMSD -1
REMARK  0 active torsions:
REMARK  status: ('A' for Active; 'I' for Inactive)
ROOT
ATOM      1  C   UNL d   1      -1.873  -3.749  -3.458  0.00  0.00     0.020 A 
ATOM      2  C1  UNL d   1      -1.789  -5.133  -3.607  0.00  0.00     0.020 A 
ATOM      3  C2  UNL d   1      -2.722  -5.809  -4.396  0.00  0.00     0.034 A 
ATOM      4  C3  UNL d   1      -3.744  -5.100  -5.039  0.00  0.00     0.017 A 
ATOM      5  C4  UNL d   1      -3.828  -3.711  -4.889  0.00  0.00     0.017 A 
ATOM      6  C5  UNL d   1      -2.890  -3.040  -4.098  0.00  0.00     0.034 A 
ATOM      7 Cl   UNL d   1      -5.060  -2.769  -5.651  0.00  0.00    -0.070 Cl
ATOM      8 Cl1  UNL d   1      -4.864  -6.000  -6.000  0.00  0.00    -0.070 Cl
ENDROOT
TORSDOF 0
ENDMDL
