MODEL 1
REMARK minimizedAffinity -2.4103744
REMARK minimizedRMSD -1
REMARK  0 active torsions:
REMARK  status: ('A' for Active; 'I' for Inactive)
ROOT
ATOM      1  C   UNL d   1      -1.506  -4.026  -4.071  0.00  0.00     0.020 A 
ATOM      2  C1  UNL d   1      -1.555  -5.409  -4.248  0.00  0.00     0.020 A 
ATOM      3  C2  UNL d   1      -2.674  -5.998  -4.840  0.00  0.00     0.034 A 
ATOM      4  C3  UNL d   1      -3.749  -5.204  -5.258  0.00  0.00     0.017 A 
ATOM      5  C4  UNL d   1      -3.699  -3.817  -5.080  0.00  0.00     0.017 A 
ATOM      6  C5  UNL d   1      -2.576  -3.232  -4.487  0.00  0.00     0.034 A 
ATOM      7 Cl   UNL d   1      -4.986  -2.773  -5.571  0.00  0.00    -0.070 Cl
ATOM      8 Cl1  UNL d   1      -5.100  -6.000  -5.983  0.00  0.00    -0.070 Cl
ENDROOT
TORSDOF 0
ENDMDL
