MODEL 1
REMARK minimizedAffinity 13.1285505
REMARK minimizedRMSD -1
REMARK  0 active torsions:
REMARK  status: ('A' for Active; 'I' for Inactive)
ROOT
ATOM      1  C   UNL d   1       1.836  -1.838  -0.813  0.00  0.00     0.020 A 
ATOM      2  C1  UNL d   1       2.534  -2.882  -1.419  0.00  0.00     0.020 A 
ATOM      3  C2  UNL d   1       2.881  -2.798  -2.769  0.00  0.00     0.034 A 
ATOM      4  C3  UNL d   1       2.529  -1.669  -3.518  0.00  0.00     0.017 A 
ATOM      5  C4  UNL d   1       1.828  -0.622  -2.908  0.00  0.00     0.017 A 
ATOM      6  C5  UNL d   1       1.484  -0.711  -1.556  0.00  0.00     0.034 A 
ATOM      7 Cl   UNL d   1       1.360   0.803  -3.767  0.00  0.00    -0.070 Cl
ATOM      8 Cl1  UNL d   1       2.991  -1.633  -5.182  0.00  0.00    -0.070 Cl
ENDROOT
TORSDOF 0
ENDMDL
