MODEL 1
REMARK minimizedAffinity 16.2861824
REMARK minimizedRMSD -1
REMARK  0 active torsions:
REMARK  status: ('A' for Active; 'I' for Inactive)
ROOT
ATOM      1  C   UNL d   1      -3.008  -0.159   4.307  0.00  0.00     0.020 A 
ATOM      2  C1  UNL d   1      -3.624  -0.197   3.056  0.00  0.00     0.020 A 
ATOM      3  C2  UNL d   1      -4.538   0.795   2.698  0.00  0.00     0.034 A 
ATOM      4  C3  UNL d   1      -4.839   1.830   3.590  0.00  0.00     0.017 A 
ATOM      5  C4  UNL d   1      -4.221   1.868   4.845  0.00  0.00     0.017 A 
ATOM      6  C5  UNL d   1      -3.306   0.872   5.199  0.00  0.00     0.034 A 
ATOM      7 Cl   UNL d   1      -4.542   3.113   6.000  0.00  0.00    -0.070 Cl
ATOM      8 Cl1  UNL d   1      -5.979   3.024   3.080  0.00  0.00    -0.070 Cl
ENDROOT
TORSDOF 0
ENDMDL
