MODEL 1
REMARK minimizedAffinity -2.46784067
REMARK minimizedRMSD -1
REMARK  0 active torsions:
REMARK  status: ('A' for Active; 'I' for Inactive)
ROOT
ATOM      1  C   UNL d   1      -1.975   1.987   0.693  0.00  0.00     0.078 C 
ATOM      2  C1  UNL d   1      -0.856   1.041   0.372  0.00  0.00    -0.077 A 
ATOM      3  C2  UNL d   1      -0.232   1.062  -0.881  0.00  0.00    -0.001 A 
ATOM      4  C3  UNL d   1       0.802   0.169  -1.170  0.00  0.00     0.003 A 
ATOM      5  C4  UNL d   1       1.218  -0.752  -0.211  0.00  0.00    -0.005 A 
ATOM      6  C5  UNL d   1       0.601  -0.782   1.038  0.00  0.00     0.003 A 
ATOM      7  C6  UNL d   1      -0.432   0.110   1.328  0.00  0.00    -0.001 A 
ENDROOT
TORSDOF 0
ENDMDL
