MODEL 1
REMARK minimizedAffinity -3.38397026
REMARK minimizedRMSD -1
REMARK  0 active torsions:
REMARK  status: ('A' for Active; 'I' for Inactive)
ROOT
ATOM      1  C   UNL d   1      -2.529   2.192   1.444  0.00  0.00     0.078 C 
ATOM      2  C1  UNL d   1      -1.475   1.234   0.975  0.00  0.00    -0.077 A 
ATOM      3  C2  UNL d   1      -1.273   0.010   1.623  0.00  0.00    -0.001 A 
ATOM      4  C3  UNL d   1      -0.282  -0.868   1.181  0.00  0.00     0.003 A 
ATOM      5  C4  UNL d   1       0.516  -0.530   0.090  0.00  0.00    -0.005 A 
ATOM      6  C5  UNL d   1       0.324   0.687  -0.560  0.00  0.00     0.003 A 
ATOM      7  C6  UNL d   1      -0.667   1.566  -0.120  0.00  0.00    -0.001 A 
ENDROOT
TORSDOF 0
ENDMDL
