MODEL 1
REMARK minimizedAffinity -4.86512136
REMARK minimizedRMSD -1
REMARK  0 active torsions:
REMARK  status: ('A' for Active; 'I' for Inactive)
ROOT
ATOM      1  C   UNL d   1       1.471  -1.253  -0.479  0.00  0.00     0.078 C 
ATOM      2  C1  UNL d   1       0.475  -0.386   0.232  0.00  0.00    -0.077 A 
ATOM      3  C2  UNL d   1       0.018  -0.716   1.514  0.00  0.00    -0.001 A 
ATOM      4  C3  UNL d   1      -0.916   0.095   2.161  0.00  0.00     0.003 A 
ATOM      5  C4  UNL d   1      -1.403   1.240   1.532  0.00  0.00    -0.005 A 
ATOM      6  C5  UNL d   1      -0.956   1.574   0.256  0.00  0.00     0.003 A 
ATOM      7  C6  UNL d   1      -0.022   0.765  -0.392  0.00  0.00    -0.001 A 
ENDROOT
TORSDOF 0
ENDMDL
