MODEL 1
REMARK minimizedAffinity -5.47886276
REMARK minimizedRMSD -1
REMARK  0 active torsions:
REMARK  status: ('A' for Active; 'I' for Inactive)
ROOT
ATOM      1  C   UNL d   1      -0.753  -1.431   2.295  0.00  0.00     0.078 C 
ATOM      2  C1  UNL d   1      -0.684  -0.167   1.492  0.00  0.00    -0.077 A 
ATOM      3  C2  UNL d   1      -1.318   1.002   1.931  0.00  0.00    -0.001 A 
ATOM      4  C3  UNL d   1      -1.253   2.169   1.168  0.00  0.00     0.003 A 
ATOM      5  C4  UNL d   1      -0.556   2.179  -0.038  0.00  0.00    -0.005 A 
ATOM      6  C5  UNL d   1       0.076   1.020  -0.484  0.00  0.00     0.003 A 
ATOM      7  C6  UNL d   1       0.012  -0.148   0.277  0.00  0.00    -0.001 A 
ENDROOT
TORSDOF 0
ENDMDL
