MODEL 1
REMARK minimizedAffinity -3.49585676
REMARK minimizedRMSD -1
REMARK  0 active torsions:
REMARK  status: ('A' for Active; 'I' for Inactive)
ROOT
ATOM      1  C   UNL d   1      -2.203   2.118   1.256  0.00  0.00     0.078 C 
ATOM      2  C1  UNL d   1      -1.084   1.276   0.718  0.00  0.00    -0.077 A 
ATOM      3  C2  UNL d   1      -0.405   1.641  -0.451  0.00  0.00    -0.001 A 
ATOM      4  C3  UNL d   1       0.628   0.843  -0.945  0.00  0.00     0.003 A 
ATOM      5  C4  UNL d   1       0.990  -0.326  -0.278  0.00  0.00    -0.005 A 
ATOM      6  C5  UNL d   1       0.318  -0.699   0.884  0.00  0.00     0.003 A 
ATOM      7  C6  UNL d   1      -0.715   0.098   1.380  0.00  0.00    -0.001 A 
ENDROOT
TORSDOF 0
ENDMDL
