MODEL 1
REMARK minimizedAffinity -5.46607828
REMARK minimizedRMSD -1
REMARK  0 active torsions:
REMARK  status: ('A' for Active; 'I' for Inactive)
ROOT
ATOM      1  C   UNL d   1      -2.421   2.001   1.162  0.00  0.00     0.078 C 
ATOM      2  C1  UNL d   1      -1.248   1.135   0.811  0.00  0.00    -0.077 A 
ATOM      3  C2  UNL d   1      -0.780   1.054  -0.506  0.00  0.00    -0.001 A 
ATOM      4  C3  UNL d   1       0.306   0.237  -0.821  0.00  0.00     0.003 A 
ATOM      5  C4  UNL d   1       0.933  -0.508   0.177  0.00  0.00    -0.005 A 
ATOM      6  C5  UNL d   1       0.473  -0.436   1.490  0.00  0.00     0.003 A 
ATOM      7  C6  UNL d   1      -0.613   0.381   1.806  0.00  0.00    -0.001 A 
ENDROOT
TORSDOF 0
ENDMDL
