MODEL 1
REMARK minimizedAffinity -3.87183404
REMARK minimizedRMSD -1
REMARK  0 active torsions:
REMARK  status: ('A' for Active; 'I' for Inactive)
ROOT
ATOM      1  C   UNL d   1       2.639  -5.987   0.253  0.00  0.00     0.078 C 
ATOM      2  C1  UNL d   1       1.932  -5.020  -0.649  0.00  0.00    -0.077 A 
ATOM      3  C2  UNL d   1       0.932  -5.453  -1.529  0.00  0.00    -0.001 A 
ATOM      4  C3  UNL d   1       0.290  -4.542  -2.369  0.00  0.00     0.003 A 
ATOM      5  C4  UNL d   1       0.640  -3.194  -2.339  0.00  0.00    -0.005 A 
ATOM      6  C5  UNL d   1       1.635  -2.755  -1.469  0.00  0.00     0.003 A 
ATOM      7  C6  UNL d   1       2.279  -3.663  -0.628  0.00  0.00    -0.001 A 
ENDROOT
TORSDOF 0
ENDMDL
