MODEL 1
REMARK minimizedAffinity -4.20819283
REMARK minimizedRMSD -1
REMARK  0 active torsions:
REMARK  status: ('A' for Active; 'I' for Inactive)
ROOT
ATOM      1  C   UNL d   1       1.905  -5.549  -0.338  0.00  0.00     0.078 C 
ATOM      2  C1  UNL d   1       1.550  -4.385  -1.214  0.00  0.00    -0.077 A 
ATOM      3  C2  UNL d   1       1.549  -4.505  -2.609  0.00  0.00    -0.001 A 
ATOM      4  C3  UNL d   1       1.226  -3.410  -3.411  0.00  0.00     0.003 A 
ATOM      5  C4  UNL d   1       0.902  -2.187  -2.828  0.00  0.00    -0.005 A 
ATOM      6  C5  UNL d   1       0.902  -2.057  -1.441  0.00  0.00     0.003 A 
ATOM      7  C6  UNL d   1       1.225  -3.151  -0.637  0.00  0.00    -0.001 A 
ENDROOT
TORSDOF 0
ENDMDL
