MODEL 1
REMARK minimizedAffinity -5.36797953
REMARK minimizedRMSD -1
REMARK  0 active torsions:
REMARK  status: ('A' for Active; 'I' for Inactive)
ROOT
ATOM      1  C   UNL d   1       0.869  -0.756  -0.671  0.00  0.00     0.078 C 
ATOM      2  C1  UNL d   1      -0.031   0.101   0.168  0.00  0.00    -0.077 A 
ATOM      3  C2  UNL d   1      -0.580   1.284  -0.341  0.00  0.00    -0.001 A 
ATOM      4  C3  UNL d   1      -1.408   2.078   0.455  0.00  0.00     0.003 A 
ATOM      5  C4  UNL d   1      -1.693   1.697   1.765  0.00  0.00    -0.005 A 
ATOM      6  C5  UNL d   1      -1.150   0.522   2.281  0.00  0.00     0.003 A 
ATOM      7  C6  UNL d   1      -0.321  -0.272   1.486  0.00  0.00    -0.001 A 
ENDROOT
TORSDOF 0
ENDMDL
