MODEL 1
REMARK minimizedAffinity -1.49855018
REMARK minimizedRMSD -1
REMARK  0 active torsions:
REMARK  status: ('A' for Active; 'I' for Inactive)
ROOT
ATOM      1  C   UNL d   1       0.626   0.778  -0.998  0.00  0.00     0.078 C 
ATOM      2  C1  UNL d   1      -0.083   0.745   0.323  0.00  0.00    -0.077 A 
ATOM      3  C2  UNL d   1       0.055  -0.347   1.189  0.00  0.00    -0.001 A 
ATOM      4  C3  UNL d   1      -0.618  -0.368   2.411  0.00  0.00     0.003 A 
ATOM      5  C4  UNL d   1      -1.436   0.698   2.778  0.00  0.00    -0.005 A 
ATOM      6  C5  UNL d   1      -1.583   1.788   1.922  0.00  0.00     0.003 A 
ATOM      7  C6  UNL d   1      -0.910   1.811   0.699  0.00  0.00    -0.001 A 
ENDROOT
TORSDOF 0
ENDMDL
