MODEL 1
REMARK minimizedAffinity -5.39585161
REMARK minimizedRMSD -1
REMARK  0 active torsions:
REMARK  status: ('A' for Active; 'I' for Inactive)
ROOT
ATOM      1  C   UNL d   1      -1.631   1.519   1.573  0.00  0.00     0.078 C 
ATOM      2  C1  UNL d   1      -0.429   1.139   0.762  0.00  0.00    -0.077 A 
ATOM      3  C2  UNL d   1      -0.048   1.887  -0.358  0.00  0.00    -0.001 A 
ATOM      4  C3  UNL d   1       1.067   1.516  -1.110  0.00  0.00     0.003 A 
ATOM      5  C4  UNL d   1       1.811   0.394  -0.750  0.00  0.00    -0.005 A 
ATOM      6  C5  UNL d   1       1.439  -0.359   0.362  0.00  0.00     0.003 A 
ATOM      7  C6  UNL d   1       0.323   0.011   1.115  0.00  0.00    -0.001 A 
ENDROOT
TORSDOF 0
ENDMDL
