MODEL 1
REMARK minimizedAffinity -3.905123
REMARK minimizedRMSD -1
REMARK  0 active torsions:
REMARK  status: ('A' for Active; 'I' for Inactive)
ROOT
ATOM      1  C   UNL d   1       1.906  -5.400  -0.248  0.00  0.00     0.078 C 
ATOM      2  C1  UNL d   1       1.262  -4.304  -1.044  0.00  0.00    -0.077 A 
ATOM      3  C2  UNL d   1       1.716  -2.982  -0.950  0.00  0.00    -0.001 A 
ATOM      4  C3  UNL d   1       1.100  -1.971  -1.690  0.00  0.00     0.003 A 
ATOM      5  C4  UNL d   1       0.028  -2.270  -2.527  0.00  0.00    -0.005 A 
ATOM      6  C5  UNL d   1      -0.432  -3.581  -2.625  0.00  0.00     0.003 A 
ATOM      7  C6  UNL d   1       0.182  -4.594  -1.886  0.00  0.00    -0.001 A 
ENDROOT
TORSDOF 0
ENDMDL
