MODEL 1
REMARK minimizedAffinity -3.48458147
REMARK minimizedRMSD -1
REMARK  0 active torsions:
REMARK  status: ('A' for Active; 'I' for Inactive)
ROOT
ATOM      1  C   UNL d   1      -1.976   1.948   1.331  0.00  0.00     0.078 C 
ATOM      2  C1  UNL d   1      -0.872   1.170   0.679  0.00  0.00    -0.077 A 
ATOM      3  C2  UNL d   1      -0.352   0.016   1.278  0.00  0.00    -0.001 A 
ATOM      4  C3  UNL d   1       0.682  -0.692   0.664  0.00  0.00     0.003 A 
ATOM      5  C4  UNL d   1       1.206  -0.255  -0.550  0.00  0.00    -0.005 A 
ATOM      6  C5  UNL d   1       0.696   0.894  -1.153  0.00  0.00     0.003 A 
ATOM      7  C6  UNL d   1      -0.338   1.604  -0.541  0.00  0.00    -0.001 A 
ENDROOT
TORSDOF 0
ENDMDL
