MODEL 1
REMARK minimizedAffinity -4.42507076
REMARK minimizedRMSD -1
REMARK  1 active torsions:
REMARK  status: ('A' for Active; 'I' for Inactive)
REMARK    1  A    between atoms: N_2  and  C1_3 
ROOT
ATOM      1  C1  UNL d   1       0.941  -0.195   0.681  0.00  0.00     0.143 A 
ATOM      2  C2  UNL d   1       0.711  -0.321   2.055  0.00  0.00    -0.057 A 
ATOM      3  C3  UNL d   1       1.472  -1.196   2.841  0.00  0.00     0.033 A 
ATOM      4  C4  UNL d   1       2.460  -1.983   2.259  0.00  0.00    -0.042 A 
ATOM      5  C5  UNL d   1       2.689  -1.891   0.890  0.00  0.00     0.033 A 
ATOM      6  C6  UNL d   1       1.930  -1.012   0.112  0.00  0.00    -0.057 A 
ENDROOT
BRANCH   1   7
ATOM      7  N   UNL d   1       0.153   0.584  -0.171  0.00  0.00    -0.732 N 
ATOM      8  C   UNL d   1      -0.447   0.005  -1.354  0.00  0.00     0.284 C 
ATOM      9  H3  UNL d   1      -0.458   1.219   0.337  0.00  0.00     0.395 HD
ENDBRANCH   1   7
TORSDOF 1
ENDMDL
