MODEL 1
REMARK minimizedAffinity -3.80573773
REMARK minimizedRMSD -1
REMARK  1 active torsions:
REMARK  status: ('A' for Active; 'I' for Inactive)
REMARK    1  A    between atoms: N_2  and  C1_3 
ROOT
ATOM      1  C1  UNL d   1       0.302  -1.170   1.464  0.00  0.00     0.143 A 
ATOM      2  C2  UNL d   1      -0.904  -0.630   1.004  0.00  0.00    -0.057 A 
ATOM      3  C3  UNL d   1      -1.087  -0.307  -0.346  0.00  0.00     0.033 A 
ATOM      4  C4  UNL d   1      -0.053  -0.492  -1.258  0.00  0.00    -0.042 A 
ATOM      5  C5  UNL d   1       1.162  -1.004  -0.818  0.00  0.00     0.033 A 
ATOM      6  C6  UNL d   1       1.337  -1.330   0.530  0.00  0.00    -0.057 A 
ENDROOT
BRANCH   1   7
ATOM      7  N   UNL d   1       0.579  -1.419   2.810  0.00  0.00    -0.732 N 
ATOM      8  C   UNL d   1       1.940  -1.392   3.300  0.00  0.00     0.284 C 
ATOM      9  H3  UNL d   1      -0.096  -0.981   3.434  0.00  0.00     0.395 HD
ENDBRANCH   1   7
TORSDOF 1
ENDMDL
