MODEL 1
REMARK minimizedAffinity -2.34849882
REMARK minimizedRMSD -1
REMARK  1 active torsions:
REMARK  status: ('A' for Active; 'I' for Inactive)
REMARK    1  A    between atoms: N_2  and  C1_3 
ROOT
ATOM      1  C1  UNL d   1      -0.624   0.172  -0.402  0.00  0.00     0.143 A 
ATOM      2  C2  UNL d   1       0.536  -0.597  -0.262  0.00  0.00    -0.057 A 
ATOM      3  C3  UNL d   1       0.918  -1.116   0.981  0.00  0.00     0.033 A 
ATOM      4  C4  UNL d   1       0.159  -0.849   2.116  0.00  0.00    -0.042 A 
ATOM      5  C5  UNL d   1      -0.985  -0.066   2.005  0.00  0.00     0.033 A 
ATOM      6  C6  UNL d   1      -1.365   0.443   0.760  0.00  0.00    -0.057 A 
ENDROOT
BRANCH   1   7
ATOM      7  N   UNL d   1      -1.004   0.798  -1.591  0.00  0.00    -0.732 N 
ATOM      8  C   UNL d   1      -0.625   2.170  -1.857  0.00  0.00     0.284 C 
ATOM      9  H3  UNL d   1      -0.925   0.182  -2.397  0.00  0.00     0.395 HD
ENDBRANCH   1   7
TORSDOF 1
ENDMDL
