MODEL 1
REMARK minimizedAffinity -5.41958952
REMARK minimizedRMSD -1
REMARK  1 active torsions:
REMARK  status: ('A' for Active; 'I' for Inactive)
REMARK    1  A    between atoms: N_2  and  C1_3 
ROOT
ATOM      1  C1  UNL d   1       1.018  -0.606   0.271  0.00  0.00     0.143 A 
ATOM      2  C2  UNL d   1       0.286  -0.415   1.448  0.00  0.00    -0.057 A 
ATOM      3  C3  UNL d   1       0.767  -0.864   2.684  0.00  0.00     0.033 A 
ATOM      4  C4  UNL d   1       1.980  -1.540   2.761  0.00  0.00    -0.042 A 
ATOM      5  C5  UNL d   1       2.713  -1.763   1.601  0.00  0.00     0.033 A 
ATOM      6  C6  UNL d   1       2.231  -1.307   0.371  0.00  0.00    -0.057 A 
ENDROOT
BRANCH   1   7
ATOM      7  N   UNL d   1       0.548  -0.271  -1.001  0.00  0.00    -0.732 N 
ATOM      8  C   UNL d   1      -0.037   1.028  -1.252  0.00  0.00     0.284 C 
ATOM      9  H3  UNL d   1       1.163  -0.600  -1.741  0.00  0.00     0.395 HD
ENDBRANCH   1   7
TORSDOF 1
ENDMDL
