MODEL 1
REMARK minimizedAffinity -4.32515526
REMARK minimizedRMSD -1
REMARK  1 active torsions:
REMARK  status: ('A' for Active; 'I' for Inactive)
REMARK    1  A    between atoms: N_2  and  C1_3 
ROOT
ATOM      1  C1  UNL d   1      -0.462   0.149  -0.362  0.00  0.00     0.143 A 
ATOM      2  C2  UNL d   1       0.793  -0.460  -0.254  0.00  0.00    -0.057 A 
ATOM      3  C3  UNL d   1       1.216  -1.044   0.946  0.00  0.00     0.033 A 
ATOM      4  C4  UNL d   1       0.400  -1.003   2.072  0.00  0.00    -0.042 A 
ATOM      5  C5  UNL d   1      -0.841  -0.380   1.995  0.00  0.00     0.033 A 
ATOM      6  C6  UNL d   1      -1.260   0.195   0.791  0.00  0.00    -0.057 A 
ENDROOT
BRANCH   1   7
ATOM      7  N   UNL d   1      -0.899   0.833  -1.499  0.00  0.00    -0.732 N 
ATOM      8  C   UNL d   1      -0.347   2.127  -1.839  0.00  0.00     0.284 C 
ATOM      9  H3  UNL d   1      -1.032   0.216  -2.297  0.00  0.00     0.395 HD
ENDBRANCH   1   7
TORSDOF 1
ENDMDL
