MODEL 1
REMARK minimizedAffinity -4.34195471
REMARK minimizedRMSD -1
REMARK  1 active torsions:
REMARK  status: ('A' for Active; 'I' for Inactive)
REMARK    1  A    between atoms: C1_2  and  C2_3 
ROOT
ATOM      1  C2  UNL d   1      -0.463   0.539   0.105  0.00  0.00    -0.073 A 
ATOM      2  C3  UNL d   1       0.001  -0.754   0.368  0.00  0.00    -0.002 A 
ATOM      3  C4  UNL d   1       0.948  -1.347  -0.469  0.00  0.00     0.004 A 
ATOM      4  C5  UNL d   1       1.445  -0.651  -1.570  0.00  0.00    -0.004 A 
ATOM      5  C6  UNL d   1       1.002   0.648  -1.843  0.00  0.00    -0.075 A 
ATOM      6  C7  UNL d   1       1.525   1.409  -3.025  0.00  0.00     0.076 C 
ATOM      7  C8  UNL d   1       0.049   1.235  -1.000  0.00  0.00     0.001 A 
ENDROOT
BRANCH   1   8
ATOM      8  C1  UNL d   1      -1.481   1.186   1.009  0.00  0.00     0.053 C 
ATOM      9  C   UNL d   1      -2.342   0.157   1.725  0.00  0.00     0.018 C 
ENDBRANCH   1   8
TORSDOF 1
ENDMDL
