MODEL 1
REMARK minimizedAffinity -4.29656839
REMARK minimizedRMSD -1
REMARK  1 active torsions:
REMARK  status: ('A' for Active; 'I' for Inactive)
REMARK    1  A    between atoms: C1_2  and  C2_3 
ROOT
ATOM      1  C2  UNL d   1      -1.456   1.095   1.074  0.00  0.00    -0.073 A 
ATOM      2  C3  UNL d   1      -1.260   2.033   2.094  0.00  0.00    -0.002 A 
ATOM      3  C4  UNL d   1      -2.021   1.974   3.262  0.00  0.00     0.004 A 
ATOM      4  C5  UNL d   1      -2.980   0.973   3.425  0.00  0.00    -0.004 A 
ATOM      5  C6  UNL d   1      -3.182   0.020   2.422  0.00  0.00    -0.075 A 
ATOM      6  C7  UNL d   1      -4.211  -1.061   2.581  0.00  0.00     0.076 C 
ATOM      7  C8  UNL d   1      -2.415   0.088   1.251  0.00  0.00     0.001 A 
ENDROOT
BRANCH   1   8
ATOM      8  C1  UNL d   1      -0.631   1.152  -0.186  0.00  0.00     0.053 C 
ATOM      9  C   UNL d   1      -1.033   2.316  -1.078  0.00  0.00     0.018 C 
ENDBRANCH   1   8
TORSDOF 1
ENDMDL
