MODEL 1
REMARK minimizedAffinity -3.40201783
REMARK minimizedRMSD -1
REMARK  1 active torsions:
REMARK  status: ('A' for Active; 'I' for Inactive)
REMARK    1  A    between atoms: C1_2  and  C2_3 
ROOT
ATOM      1  C2  UNL d   1      -0.368  -0.323  -0.106  0.00  0.00    -0.073 A 
ATOM      2  C3  UNL d   1       0.440  -1.456   0.047  0.00  0.00    -0.002 A 
ATOM      3  C4  UNL d   1       1.535  -1.659  -0.794  0.00  0.00     0.004 A 
ATOM      4  C5  UNL d   1       1.837  -0.730  -1.790  0.00  0.00    -0.004 A 
ATOM      5  C6  UNL d   1       1.049   0.414  -1.950  0.00  0.00    -0.075 A 
ATOM      6  C7  UNL d   1       1.360   1.422  -3.017  0.00  0.00     0.076 C 
ATOM      7  C8  UNL d   1      -0.051   0.610  -1.103  0.00  0.00     0.001 A 
ENDROOT
BRANCH   1   8
ATOM      8  C1  UNL d   1      -1.548  -0.096   0.804  0.00  0.00     0.053 C 
ATOM      9  C   UNL d   1      -1.158   0.658   2.065  0.00  0.00     0.018 C 
ENDBRANCH   1   8
TORSDOF 1
ENDMDL
