MODEL 1
REMARK minimizedAffinity -4.43740749
REMARK minimizedRMSD -1
REMARK  1 active torsions:
REMARK  status: ('A' for Active; 'I' for Inactive)
REMARK    1  A    between atoms: C1_2  and  C2_3 
ROOT
ATOM      1  C2  UNL d   1      -0.865   0.552   1.197  0.00  0.00    -0.073 A 
ATOM      2  C3  UNL d   1      -0.604   1.619   2.065  0.00  0.00    -0.002 A 
ATOM      3  C4  UNL d   1      -1.381   1.802   3.210  0.00  0.00     0.004 A 
ATOM      4  C5  UNL d   1      -2.419   0.918   3.503  0.00  0.00    -0.004 A 
ATOM      5  C6  UNL d   1      -2.687  -0.161   2.655  0.00  0.00    -0.075 A 
ATOM      6  C7  UNL d   1      -3.802  -1.120   2.954  0.00  0.00     0.076 C 
ATOM      7  C8  UNL d   1      -1.905  -0.337   1.505  0.00  0.00     0.001 A 
ENDROOT
BRANCH   1   8
ATOM      8  C1  UNL d   1      -0.025   0.346  -0.037  0.00  0.00     0.053 C 
ATOM      9  C   UNL d   1       0.593  -1.043  -0.081  0.00  0.00     0.018 C 
ENDBRANCH   1   8
TORSDOF 1
ENDMDL
