MODEL 1
REMARK minimizedAffinity -4.95637751
REMARK minimizedRMSD -1
REMARK  1 active torsions:
REMARK  status: ('A' for Active; 'I' for Inactive)
REMARK    1  A    between atoms: C1_2  and  C2_3 
ROOT
ATOM      1  C2  UNL d   1       1.139   0.077  -0.599  0.00  0.00    -0.073 A 
ATOM      2  C3  UNL d   1       2.212  -0.704  -1.044  0.00  0.00    -0.002 A 
ATOM      3  C4  UNL d   1       3.020  -0.260  -2.092  0.00  0.00     0.004 A 
ATOM      4  C5  UNL d   1       2.768   0.969  -2.701  0.00  0.00    -0.004 A 
ATOM      5  C6  UNL d   1       1.708   1.769  -2.263  0.00  0.00    -0.075 A 
ATOM      6  C7  UNL d   1       1.422   3.093  -2.909  0.00  0.00     0.076 C 
ATOM      7  C8  UNL d   1       0.900   1.316  -1.212  0.00  0.00     0.001 A 
ENDROOT
BRANCH   1   8
ATOM      8  C1  UNL d   1       0.268  -0.394   0.536  0.00  0.00     0.053 C 
ATOM      9  C   UNL d   1      -1.088   0.294   0.538  0.00  0.00     0.018 C 
ENDBRANCH   1   8
TORSDOF 1
ENDMDL
