MODEL 1
REMARK minimizedAffinity -4.04218721
REMARK minimizedRMSD -1
REMARK  1 active torsions:
REMARK  status: ('A' for Active; 'I' for Inactive)
REMARK    1  A    between atoms: C1_2  and  C2_3 
ROOT
ATOM      1  C2  UNL d   1       0.555  -0.523  -0.302  0.00  0.00    -0.073 A 
ATOM      2  C3  UNL d   1       1.485  -1.514  -0.635  0.00  0.00    -0.002 A 
ATOM      3  C4  UNL d   1       2.282  -1.379  -1.773  0.00  0.00     0.004 A 
ATOM      4  C5  UNL d   1       2.163  -0.250  -2.583  0.00  0.00    -0.004 A 
ATOM      5  C6  UNL d   1       1.248   0.757  -2.260  0.00  0.00    -0.075 A 
ATOM      6  C7  UNL d   1       1.107   1.976  -3.123  0.00  0.00     0.076 C 
ATOM      7  C8  UNL d   1       0.449   0.613  -1.118  0.00  0.00     0.001 A 
ENDROOT
BRANCH   1   8
ATOM      8  C1  UNL d   1      -0.304  -0.662   0.928  0.00  0.00     0.053 C 
ATOM      9  C   UNL d   1      -1.373   0.417   1.001  0.00  0.00     0.018 C 
ENDBRANCH   1   8
TORSDOF 1
ENDMDL
