MODEL 1
REMARK minimizedAffinity -1.36184311
REMARK minimizedRMSD -1
REMARK  1 active torsions:
REMARK  status: ('A' for Active; 'I' for Inactive)
REMARK    1  A    between atoms: C1_2  and  C2_3 
ROOT
ATOM      1  C2  UNL d   1      -0.628   0.626   1.456  0.00  0.00    -0.073 A 
ATOM      2  C3  UNL d   1      -1.009   1.247   0.262  0.00  0.00    -0.002 A 
ATOM      3  C4  UNL d   1      -0.741   0.639  -0.966  0.00  0.00     0.004 A 
ATOM      4  C5  UNL d   1      -0.097  -0.597  -1.011  0.00  0.00    -0.004 A 
ATOM      5  C6  UNL d   1       0.282  -1.239   0.173  0.00  0.00    -0.075 A 
ATOM      6  C7  UNL d   1       0.978  -2.568   0.141  0.00  0.00     0.076 C 
ATOM      7  C8  UNL d   1       0.011  -0.621   1.401  0.00  0.00     0.001 A 
ENDROOT
BRANCH   1   8
ATOM      8  C1  UNL d   1      -0.921   1.276   2.784  0.00  0.00     0.053 C 
ATOM      9  C   UNL d   1      -1.640   0.332   3.734  0.00  0.00     0.018 C 
ENDBRANCH   1   8
TORSDOF 1
ENDMDL
