MODEL 1
REMARK minimizedAffinity -4.75636625
REMARK minimizedRMSD -1
REMARK  1 active torsions:
REMARK  status: ('A' for Active; 'I' for Inactive)
REMARK    1  A    between atoms: C1_2  and  C2_3 
ROOT
ATOM      1  C2  UNL d   1       0.043   0.292   0.389  0.00  0.00    -0.073 A 
ATOM      2  C3  UNL d   1      -0.414  -1.029   0.312  0.00  0.00    -0.002 A 
ATOM      3  C4  UNL d   1       0.273  -1.969  -0.458  0.00  0.00     0.004 A 
ATOM      4  C5  UNL d   1       1.425  -1.601  -1.152  0.00  0.00    -0.004 A 
ATOM      5  C6  UNL d   1       1.905  -0.289  -1.078  0.00  0.00    -0.075 A 
ATOM      6  C7  UNL d   1       3.142   0.123  -1.821  0.00  0.00     0.076 C 
ATOM      7  C8  UNL d   1       1.208   0.650  -0.305  0.00  0.00     0.001 A 
ENDROOT
BRANCH   1   8
ATOM      8  C1  UNL d   1      -0.691   1.309   1.223  0.00  0.00     0.053 C 
ATOM      9  C   UNL d   1      -1.867   0.695   1.966  0.00  0.00     0.018 C 
ENDBRANCH   1   8
TORSDOF 1
ENDMDL
