MODEL 1
REMARK minimizedAffinity -5.08766317
REMARK minimizedRMSD -1
REMARK  1 active torsions:
REMARK  status: ('A' for Active; 'I' for Inactive)
REMARK    1  A    between atoms: C1_2  and  C2_3 
ROOT
ATOM      1  C2  UNL d   1       1.305  -1.065  -0.634  0.00  0.00    -0.073 A 
ATOM      2  C3  UNL d   1       2.630  -1.247  -1.044  0.00  0.00    -0.002 A 
ATOM      3  C4  UNL d   1       3.281  -0.262  -1.788  0.00  0.00     0.004 A 
ATOM      4  C5  UNL d   1       2.616   0.918  -2.123  0.00  0.00    -0.004 A 
ATOM      5  C6  UNL d   1       1.295   1.124  -1.713  0.00  0.00    -0.075 A 
ATOM      6  C7  UNL d   1       0.565   2.386  -2.068  0.00  0.00     0.076 C 
ATOM      7  C8  UNL d   1       0.648   0.128  -0.969  0.00  0.00     0.001 A 
ENDROOT
BRANCH   1   8
ATOM      8  C1  UNL d   1       0.600  -2.123   0.174  0.00  0.00     0.053 C 
ATOM      9  C   UNL d   1      -0.819  -2.365  -0.316  0.00  0.00     0.018 C 
ENDBRANCH   1   8
TORSDOF 1
ENDMDL
