MODEL 1
REMARK minimizedAffinity -4.55126143
REMARK minimizedRMSD -1
REMARK  1 active torsions:
REMARK  status: ('A' for Active; 'I' for Inactive)
REMARK    1  A    between atoms: C1_2  and  C2_3 
ROOT
ATOM      1  C2  UNL d   1       4.435  -3.000   4.160  0.00  0.00    -0.073 A 
ATOM      2  C3  UNL d   1       3.456  -3.624   3.379  0.00  0.00    -0.002 A 
ATOM      3  C4  UNL d   1       3.307  -5.011   3.412  0.00  0.00     0.004 A 
ATOM      4  C5  UNL d   1       4.128  -5.787   4.230  0.00  0.00    -0.004 A 
ATOM      5  C6  UNL d   1       5.104  -5.180   5.028  0.00  0.00    -0.075 A 
ATOM      6  C7  UNL d   1       5.997  -6.000   5.912  0.00  0.00     0.076 C 
ATOM      7  C8  UNL d   1       5.250  -3.787   4.987  0.00  0.00     0.001 A 
ENDROOT
BRANCH   1   8
ATOM      8  C1  UNL d   1       4.596  -1.502   4.133  0.00  0.00     0.053 C 
ATOM      9  C   UNL d   1       5.997  -1.087   3.714  0.00  0.00     0.018 C 
ENDBRANCH   1   8
TORSDOF 1
ENDMDL
