MODEL 1
REMARK minimizedAffinity -0.17014809
REMARK minimizedRMSD -1
REMARK  1 active torsions:
REMARK  status: ('A' for Active; 'I' for Inactive)
REMARK    1  A    between atoms: C1_2  and  C2_3 
ROOT
ATOM      1  C2  UNL d   1      -0.284   2.526   0.230  0.00  0.00    -0.073 A 
ATOM      2  C3  UNL d   1       0.944   2.731   0.869  0.00  0.00    -0.002 A 
ATOM      3  C4  UNL d   1       2.132   2.699   0.138  0.00  0.00     0.004 A 
ATOM      4  C5  UNL d   1       2.105   2.469  -1.238  0.00  0.00    -0.004 A 
ATOM      5  C6  UNL d   1       0.886   2.274  -1.896  0.00  0.00    -0.075 A 
ATOM      6  C7  UNL d   1       0.839   2.024  -3.375  0.00  0.00     0.076 C 
ATOM      7  C8  UNL d   1      -0.303   2.305  -1.154  0.00  0.00     0.001 A 
ENDROOT
BRANCH   1   8
ATOM      8  C1  UNL d   1      -1.571   2.566   1.014  0.00  0.00     0.053 C 
ATOM      9  C   UNL d   1      -1.323   2.600   2.514  0.00  0.00     0.018 C 
ENDBRANCH   1   8
TORSDOF 1
ENDMDL
