MODEL 1
REMARK minimizedAffinity -1.99634206
REMARK minimizedRMSD -1
REMARK  1 active torsions:
REMARK  status: ('A' for Active; 'I' for Inactive)
REMARK    1  A    between atoms: C1_2  and  C2_3 
ROOT
ATOM      1  C2  UNL d   1       4.822  -1.344   4.739  0.00  0.00    -0.073 A 
ATOM      2  C3  UNL d   1       4.435  -1.662   3.432  0.00  0.00    -0.002 A 
ATOM      3  C4  UNL d   1       4.561  -2.968   2.957  0.00  0.00     0.004 A 
ATOM      4  C5  UNL d   1       5.069  -3.970   3.785  0.00  0.00    -0.004 A 
ATOM      5  C6  UNL d   1       5.450  -3.674   5.097  0.00  0.00    -0.075 A 
ATOM      6  C7  UNL d   1       6.000  -4.740   5.999  0.00  0.00     0.076 C 
ATOM      7  C8  UNL d   1       5.323  -2.360   5.566  0.00  0.00     0.001 A 
ENDROOT
BRANCH   1   8
ATOM      8  C1  UNL d   1       4.681   0.063   5.258  0.00  0.00     0.053 C 
ATOM      9  C   UNL d   1       5.926   0.525   5.998  0.00  0.00     0.018 C 
ENDBRANCH   1   8
TORSDOF 1
ENDMDL
