MODEL 1
REMARK minimizedAffinity -4.99127674
REMARK minimizedRMSD -1
REMARK  1 active torsions:
REMARK  status: ('A' for Active; 'I' for Inactive)
REMARK    1  A    between atoms: C1_2  and  C2_3 
ROOT
ATOM      1  C2  UNL d   1       1.714  -0.171  -1.594  0.00  0.00    -0.073 A 
ATOM      2  C3  UNL d   1       0.912   0.894  -1.170  0.00  0.00    -0.002 A 
ATOM      3  C4  UNL d   1      -0.232   0.655  -0.407  0.00  0.00     0.004 A 
ATOM      4  C5  UNL d   1      -0.582  -0.648  -0.057  0.00  0.00    -0.004 A 
ATOM      5  C6  UNL d   1       0.213  -1.726  -0.461  0.00  0.00    -0.075 A 
ATOM      6  C7  UNL d   1      -0.151  -3.134  -0.094  0.00  0.00     0.076 C 
ATOM      7  C8  UNL d   1       1.359  -1.478  -1.229  0.00  0.00     0.001 A 
ENDROOT
BRANCH   1   8
ATOM      8  C1  UNL d   1       2.954   0.082  -2.412  0.00  0.00     0.053 C 
ATOM      9  C   UNL d   1       2.742   1.179  -3.444  0.00  0.00     0.018 C 
ENDBRANCH   1   8
TORSDOF 1
ENDMDL
