MODEL 1
REMARK minimizedAffinity -5.71938753
REMARK minimizedRMSD -1
REMARK  1 active torsions:
REMARK  status: ('A' for Active; 'I' for Inactive)
REMARK    1  A    between atoms: C1_2  and  C2_3 
ROOT
ATOM      1  C2  UNL d   1       0.165   0.097   0.396  0.00  0.00    -0.073 A 
ATOM      2  C3  UNL d   1       0.973  -1.007   0.101  0.00  0.00    -0.002 A 
ATOM      3  C4  UNL d   1       1.637  -1.087  -1.124  0.00  0.00     0.004 A 
ATOM      4  C5  UNL d   1       1.506  -0.063  -2.062  0.00  0.00    -0.004 A 
ATOM      5  C6  UNL d   1       0.713   1.054  -1.781  0.00  0.00    -0.075 A 
ATOM      6  C7  UNL d   1       0.560   2.163  -2.780  0.00  0.00     0.076 C 
ATOM      7  C8  UNL d   1       0.047   1.126  -0.549  0.00  0.00     0.001 A 
ENDROOT
BRANCH   1   8
ATOM      8  C1  UNL d   1      -0.548   0.192   1.720  0.00  0.00     0.053 C 
ATOM      9  C   UNL d   1      -0.952   1.620   2.049  0.00  0.00     0.018 C 
ENDBRANCH   1   8
TORSDOF 1
ENDMDL
