MODEL 1
REMARK minimizedAffinity -4.6591301
REMARK minimizedRMSD -1
REMARK  1 active torsions:
REMARK  status: ('A' for Active; 'I' for Inactive)
REMARK    1  A    between atoms: C1_2  and  C2_3 
ROOT
ATOM      1  C2  UNL d   1       1.095  -0.708  -1.185  0.00  0.00    -0.073 A 
ATOM      2  C3  UNL d   1       0.265  -1.449  -0.335  0.00  0.00    -0.002 A 
ATOM      3  C4  UNL d   1      -0.830  -0.845   0.284  0.00  0.00     0.004 A 
ATOM      4  C5  UNL d   1      -1.111   0.502   0.054  0.00  0.00    -0.004 A 
ATOM      5  C6  UNL d   1      -0.301   1.256  -0.801  0.00  0.00    -0.075 A 
ATOM      6  C7  UNL d   1      -0.589   2.706  -1.056  0.00  0.00     0.076 C 
ATOM      7  C8  UNL d   1       0.798   0.643  -1.416  0.00  0.00     0.001 A 
ENDROOT
BRANCH   1   8
ATOM      8  C1  UNL d   1       2.275  -1.357  -1.860  0.00  0.00     0.053 C 
ATOM      9  C   UNL d   1       3.191  -0.335  -2.514  0.00  0.00     0.018 C 
ENDBRANCH   1   8
TORSDOF 1
ENDMDL
