MODEL 1
REMARK minimizedAffinity -2.76803875
REMARK minimizedRMSD -1
REMARK  1 active torsions:
REMARK  status: ('A' for Active; 'I' for Inactive)
REMARK    1  A    between atoms: C1_2  and  C2_3 
ROOT
ATOM      1  C2  UNL d   1       1.037   1.494  -0.631  0.00  0.00    -0.073 A 
ATOM      2  C3  UNL d   1       1.147   2.355  -1.729  0.00  0.00    -0.002 A 
ATOM      3  C4  UNL d   1       1.393   3.715  -1.536  0.00  0.00     0.004 A 
ATOM      4  C5  UNL d   1       1.539   4.226  -0.246  0.00  0.00    -0.004 A 
ATOM      5  C6  UNL d   1       1.445   3.379   0.863  0.00  0.00    -0.075 A 
ATOM      6  C7  UNL d   1       1.597   3.914   2.257  0.00  0.00     0.076 C 
ATOM      7  C8  UNL d   1       1.195   2.015   0.661  0.00  0.00     0.001 A 
ENDROOT
BRANCH   1   8
ATOM      8  C1  UNL d   1       0.778   0.023  -0.835  0.00  0.00     0.053 C 
ATOM      9  C   UNL d   1       1.503  -0.520  -2.056  0.00  0.00     0.018 C 
ENDBRANCH   1   8
TORSDOF 1
ENDMDL
