MODEL 1
REMARK minimizedAffinity -1.80904162
REMARK minimizedRMSD -1
REMARK  1 active torsions:
REMARK  status: ('A' for Active; 'I' for Inactive)
REMARK    1  A    between atoms: C1_2  and  C2_3 
ROOT
ATOM      1  C2  UNL d   1       1.359   1.695   1.222  0.00  0.00    -0.073 A 
ATOM      2  C3  UNL d   1       1.545   0.370   0.812  0.00  0.00    -0.002 A 
ATOM      3  C4  UNL d   1       1.561   0.047  -0.545  0.00  0.00     0.004 A 
ATOM      4  C5  UNL d   1       1.399   1.046  -1.506  0.00  0.00    -0.004 A 
ATOM      5  C6  UNL d   1       1.225   2.378  -1.116  0.00  0.00    -0.075 A 
ATOM      6  C7  UNL d   1       1.047   3.463  -2.137  0.00  0.00     0.076 C 
ATOM      7  C8  UNL d   1       1.207   2.693   0.249  0.00  0.00     0.001 A 
ENDROOT
BRANCH   1   8
ATOM      8  C1  UNL d   1       1.348   2.048   2.687  0.00  0.00     0.053 C 
ATOM      9  C   UNL d   1       2.279   1.160   3.496  0.00  0.00     0.018 C 
ENDBRANCH   1   8
TORSDOF 1
ENDMDL
