MODEL 1
REMARK minimizedAffinity -2.74138117
REMARK minimizedRMSD -1
REMARK  1 active torsions:
REMARK  status: ('A' for Active; 'I' for Inactive)
REMARK    1  A    between atoms: C1_2  and  C2_3 
ROOT
ATOM      1  C2  UNL d   1       1.599   3.473  -0.196  0.00  0.00    -0.073 A 
ATOM      2  C3  UNL d   1       1.548   3.155  -1.558  0.00  0.00    -0.002 A 
ATOM      3  C4  UNL d   1       1.345   1.836  -1.966  0.00  0.00     0.004 A 
ATOM      4  C5  UNL d   1       1.186   0.824  -1.019  0.00  0.00    -0.004 A 
ATOM      5  C6  UNL d   1       1.223   1.124   0.346  0.00  0.00    -0.075 A 
ATOM      6  C7  UNL d   1       1.055   0.047   1.378  0.00  0.00     0.076 C 
ATOM      7  C8  UNL d   1       1.429   2.451   0.749  0.00  0.00     0.001 A 
ENDROOT
BRANCH   1   8
ATOM      8  C1  UNL d   1       1.811   4.897   0.250  0.00  0.00     0.053 C 
ATOM      9  C   UNL d   1       1.873   5.859  -0.925  0.00  0.00     0.018 C 
ENDBRANCH   1   8
TORSDOF 1
ENDMDL
