MODEL 1
REMARK minimizedAffinity 6.32587004
REMARK minimizedRMSD -1
REMARK  1 active torsions:
REMARK  status: ('A' for Active; 'I' for Inactive)
REMARK    1  A    between atoms: C1_2  and  C2_3 
ROOT
ATOM      1  C2  UNL d   1       1.342   3.548  -1.027  0.00  0.00    -0.073 A 
ATOM      2  C3  UNL d   1       0.543   3.457  -2.172  0.00  0.00    -0.002 A 
ATOM      3  C4  UNL d   1       0.418   2.244  -2.851  0.00  0.00     0.004 A 
ATOM      4  C5  UNL d   1       1.085   1.109  -2.389  0.00  0.00    -0.004 A 
ATOM      5  C6  UNL d   1       1.879   1.177  -1.239  0.00  0.00    -0.075 A 
ATOM      6  C7  UNL d   1       2.604  -0.034  -0.730  0.00  0.00     0.076 C 
ATOM      7  C8  UNL d   1       2.001   2.399  -0.565  0.00  0.00     0.001 A 
ENDROOT
BRANCH   1   8
ATOM      8  C1  UNL d   1       1.474   4.854  -0.287  0.00  0.00     0.053 C 
ATOM      9  C   UNL d   1       2.089   5.940  -1.155  0.00  0.00     0.018 C 
ENDBRANCH   1   8
TORSDOF 1
ENDMDL
