MODEL 1
REMARK minimizedAffinity 5.62620544
REMARK minimizedRMSD -1
REMARK  1 active torsions:
REMARK  status: ('A' for Active; 'I' for Inactive)
REMARK    1  A    between atoms: C1_2  and  C2_3 
ROOT
ATOM      1  C2  UNL d   1       1.393   2.382  -1.421  0.00  0.00    -0.073 A 
ATOM      2  C3  UNL d   1       1.205   2.190  -0.048  0.00  0.00    -0.002 A 
ATOM      3  C4  UNL d   1       1.470   3.223   0.852  0.00  0.00     0.004 A 
ATOM      4  C5  UNL d   1       1.918   4.460   0.388  0.00  0.00    -0.004 A 
ATOM      5  C6  UNL d   1       2.101   4.675  -0.982  0.00  0.00    -0.075 A 
ATOM      6  C7  UNL d   1       2.585   5.999  -1.497  0.00  0.00     0.076 C 
ATOM      7  C8  UNL d   1       1.835   3.631  -1.879  0.00  0.00     0.001 A 
ENDROOT
BRANCH   1   8
ATOM      8  C1  UNL d   1       1.102   1.271  -2.396  0.00  0.00     0.053 C 
ATOM      9  C   UNL d   1       0.397   0.099  -1.732  0.00  0.00     0.018 C 
ENDBRANCH   1   8
TORSDOF 1
ENDMDL
