MODEL 1
REMARK minimizedAffinity -1.62462282
REMARK minimizedRMSD -1
REMARK  1 active torsions:
REMARK  status: ('A' for Active; 'I' for Inactive)
REMARK    1  A    between atoms: C1_2  and  C2_3 
ROOT
ATOM      1  C2  UNL d   1       1.177   3.256  -0.696  0.00  0.00    -0.073 A 
ATOM      2  C3  UNL d   1       0.459   3.158  -1.893  0.00  0.00    -0.002 A 
ATOM      3  C4  UNL d   1       0.325   1.926  -2.536  0.00  0.00     0.004 A 
ATOM      4  C5  UNL d   1       0.901   0.781  -1.985  0.00  0.00    -0.004 A 
ATOM      5  C6  UNL d   1       1.612   0.857  -0.783  0.00  0.00    -0.075 A 
ATOM      6  C7  UNL d   1       2.239  -0.365  -0.179  0.00  0.00     0.076 C 
ATOM      7  C8  UNL d   1       1.744   2.098  -0.146  0.00  0.00     0.001 A 
ENDROOT
BRANCH   1   8
ATOM      8  C1  UNL d   1       1.318   4.583   0.005  0.00  0.00     0.053 C 
ATOM      9  C   UNL d   1       1.983   5.626  -0.879  0.00  0.00     0.018 C 
ENDBRANCH   1   8
TORSDOF 1
ENDMDL
