MODEL 1
REMARK minimizedAffinity -2.03485799
REMARK minimizedRMSD -1
REMARK  1 active torsions:
REMARK  status: ('A' for Active; 'I' for Inactive)
REMARK    1  A    between atoms: C1_2  and  C2_3 
ROOT
ATOM      1  C2  UNL d   1       1.008   2.079  -0.627  0.00  0.00    -0.073 A 
ATOM      2  C3  UNL d   1       0.730   2.045   0.744  0.00  0.00    -0.002 A 
ATOM      3  C4  UNL d   1       0.802   3.211   1.507  0.00  0.00     0.004 A 
ATOM      4  C5  UNL d   1       1.146   4.422   0.907  0.00  0.00    -0.004 A 
ATOM      5  C6  UNL d   1       1.416   4.479  -0.464  0.00  0.00    -0.075 A 
ATOM      6  C7  UNL d   1       1.789   5.774  -1.124  0.00  0.00     0.076 C 
ATOM      7  C8  UNL d   1       1.344   3.304  -1.223  0.00  0.00     0.001 A 
ENDROOT
BRANCH   1   8
ATOM      8  C1  UNL d   1       0.926   0.824  -1.457  0.00  0.00     0.053 C 
ATOM      9  C   UNL d   1       1.309  -0.412  -0.660  0.00  0.00     0.018 C 
ENDBRANCH   1   8
TORSDOF 1
ENDMDL
