MODEL 1
REMARK minimizedAffinity -2.05375361
REMARK minimizedRMSD -1
REMARK  1 active torsions:
REMARK  status: ('A' for Active; 'I' for Inactive)
REMARK    1  A    between atoms: C1_2  and  C2_3 
ROOT
ATOM      1  C2  UNL d   1       0.837  -1.481  -0.896  0.00  0.00    -0.073 A 
ATOM      2  C3  UNL d   1       1.025  -0.917  -2.163  0.00  0.00    -0.002 A 
ATOM      3  C4  UNL d   1       1.381   0.427  -2.291  0.00  0.00     0.004 A 
ATOM      4  C5  UNL d   1       1.559   1.217  -1.155  0.00  0.00    -0.004 A 
ATOM      5  C6  UNL d   1       1.388   0.668   0.120  0.00  0.00    -0.075 A 
ATOM      6  C7  UNL d   1       1.574   1.505   1.352  0.00  0.00     0.076 C 
ATOM      7  C8  UNL d   1       1.028  -0.681   0.240  0.00  0.00     0.001 A 
ENDROOT
BRANCH   1   8
ATOM      8  C1  UNL d   1       0.460  -2.933  -0.753  0.00  0.00     0.053 C 
ATOM      9  C   UNL d   1      -0.629  -3.337  -1.734  0.00  0.00     0.018 C 
ENDBRANCH   1   8
TORSDOF 1
ENDMDL
