MODEL 1
REMARK minimizedAffinity 6.00697613
REMARK minimizedRMSD -1
REMARK  1 active torsions:
REMARK  status: ('A' for Active; 'I' for Inactive)
REMARK    1  A    between atoms: C1_2  and  C2_3 
ROOT
ATOM      1  C2  UNL d   1       1.420   2.214  -0.823  0.00  0.00    -0.073 A 
ATOM      2  C3  UNL d   1       1.267   2.032   0.557  0.00  0.00    -0.002 A 
ATOM      3  C4  UNL d   1       1.298   3.128   1.420  0.00  0.00     0.004 A 
ATOM      4  C5  UNL d   1       1.475   4.416   0.913  0.00  0.00    -0.004 A 
ATOM      5  C6  UNL d   1       1.617   4.619  -0.463  0.00  0.00    -0.075 A 
ATOM      6  C7  UNL d   1       1.811   5.997  -1.023  0.00  0.00     0.076 C 
ATOM      7  C8  UNL d   1       1.588   3.513  -1.323  0.00  0.00     0.001 A 
ENDROOT
BRANCH   1   8
ATOM      8  C1  UNL d   1       1.380   1.034  -1.759  0.00  0.00     0.053 C 
ATOM      9  C   UNL d   1       1.453  -0.289  -1.013  0.00  0.00     0.018 C 
ENDBRANCH   1   8
TORSDOF 1
ENDMDL
