MODEL 1
REMARK minimizedAffinity -3.94031286
REMARK minimizedRMSD -1
REMARK  3 active torsions:
REMARK  status: ('A' for Active; 'I' for Inactive)
REMARK    1  A    between atoms: C3'_2  and  C2'_3 
REMARK    2  A    between atoms: C2'_3  and  C1'_4 
REMARK    3  A    between atoms: C1'_4  and  C1_5 
ROOT
ATOM      1  C1  N4B d   1       0.320  -0.471   0.353  0.00  0.00    -0.075 A 
ATOM      2  C2  N4B d   1       1.675  -0.198   0.641  0.00  0.00     0.002 A 
ATOM      3  C3  N4B d   1       2.405  -1.076   1.404  0.00  0.00     0.002 A 
ATOM      4  C4  N4B d   1       1.799  -2.219   1.904  0.00  0.00    -0.004 A 
ATOM      5  C5  N4B d   1       0.496  -2.487   1.601  0.00  0.00     0.002 A 
ATOM      6  C6  N4B d   1      -0.249  -1.616   0.832  0.00  0.00     0.002 A 
ENDROOT
BRANCH   1   7
ATOM      7  C1' N4B d   1      -0.542   0.501  -0.405  0.00  0.00     0.057 C 
BRANCH   7   8
ATOM      8  C2' N4B d   1      -1.956  -0.062  -0.513  0.00  0.00     0.009 C 
BRANCH   8   9
ATOM      9  C3' N4B d   1      -2.739   0.581  -1.645  0.00  0.00     0.004 C 
ATOM     10  C4' N4B d   1      -3.127  -0.398  -2.713  0.00  0.00     0.003 C 
ENDBRANCH   8   9
ENDBRANCH   7   8
ENDBRANCH   1   7
TORSDOF 3
ENDMDL
