MODEL 1
REMARK minimizedAffinity -4.18138552
REMARK minimizedRMSD -1
REMARK  3 active torsions:
REMARK  status: ('A' for Active; 'I' for Inactive)
REMARK    1  A    between atoms: C3'_2  and  C2'_3 
REMARK    2  A    between atoms: C2'_3  and  C1'_4 
REMARK    3  A    between atoms: C1'_4  and  C1_5 
ROOT
ATOM      1  C1  N4B d   1      -0.514  -0.353   0.477  0.00  0.00    -0.075 A 
ATOM      2  C2  N4B d   1      -0.518  -1.401   1.424  0.00  0.00     0.002 A 
ATOM      3  C3  N4B d   1       0.636  -2.101   1.679  0.00  0.00     0.002 A 
ATOM      4  C4  N4B d   1       1.796  -1.786   0.988  0.00  0.00    -0.004 A 
ATOM      5  C5  N4B d   1       1.798  -0.756   0.093  0.00  0.00     0.002 A 
ATOM      6  C6  N4B d   1       0.647  -0.041  -0.170  0.00  0.00     0.002 A 
ENDROOT
BRANCH   1   7
ATOM      7  C1' N4B d   1      -1.770   0.384   0.103  0.00  0.00     0.057 C 
BRANCH   7   8
ATOM      8  C2' N4B d   1      -2.263  -0.122  -1.250  0.00  0.00     0.009 C 
BRANCH   8   9
ATOM      9  C3' N4B d   1      -3.050   0.939  -2.000  0.00  0.00     0.004 C 
ATOM     10  C4' N4B d   1      -2.651   1.046  -3.442  0.00  0.00     0.003 C 
ENDBRANCH   8   9
ENDBRANCH   7   8
ENDBRANCH   1   7
TORSDOF 3
ENDMDL
