MODEL 1
REMARK minimizedAffinity -6.33782578
REMARK minimizedRMSD -1
REMARK  3 active torsions:
REMARK  status: ('A' for Active; 'I' for Inactive)
REMARK    1  A    between atoms: C3'_2  and  C2'_3 
REMARK    2  A    between atoms: C2'_3  and  C1'_4 
REMARK    3  A    between atoms: C1'_4  and  C1_5 
ROOT
ATOM      1  C1  N4B d   1       0.651  -0.021   0.030  0.00  0.00    -0.075 A 
ATOM      2  C2  N4B d   1       1.374   1.122   0.435  0.00  0.00     0.002 A 
ATOM      3  C3  N4B d   1       2.563   0.980   1.106  0.00  0.00     0.002 A 
ATOM      4  C4  N4B d   1       3.038  -0.290   1.399  0.00  0.00    -0.004 A 
ATOM      5  C5  N4B d   1       2.347  -1.389   0.981  0.00  0.00     0.002 A 
ATOM      6  C6  N4B d   1       1.152  -1.261   0.302  0.00  0.00     0.002 A 
ENDROOT
BRANCH   1   7
ATOM      7  C1' N4B d   1      -0.697   0.084  -0.631  0.00  0.00     0.057 C 
BRANCH   7   8
ATOM      8  C2' N4B d   1      -0.516   0.041  -2.146  0.00  0.00     0.009 C 
BRANCH   8   9
ATOM      9  C3' N4B d   1      -1.800   0.389  -2.881  0.00  0.00     0.004 C 
ATOM     10  C4' N4B d   1      -2.778  -0.747  -2.910  0.00  0.00     0.003 C 
ENDBRANCH   8   9
ENDBRANCH   7   8
ENDBRANCH   1   7
TORSDOF 3
ENDMDL
