MODEL 1
REMARK minimizedAffinity -2.99824119
REMARK minimizedRMSD -1
REMARK  3 active torsions:
REMARK  status: ('A' for Active; 'I' for Inactive)
REMARK    1  A    between atoms: C3'_2  and  C2'_3 
REMARK    2  A    between atoms: C2'_3  and  C1'_4 
REMARK    3  A    between atoms: C1'_4  and  C1_5 
ROOT
ATOM      1  C1  N4B d   1       0.320   0.231   0.278  0.00  0.00    -0.075 A 
ATOM      2  C2  N4B d   1       0.978  -1.016   0.356  0.00  0.00     0.002 A 
ATOM      3  C3  N4B d   1       2.337  -1.064   0.547  0.00  0.00     0.002 A 
ATOM      4  C4  N4B d   1       3.058   0.117   0.642  0.00  0.00    -0.004 A 
ATOM      5  C5  N4B d   1       2.412   1.317   0.591  0.00  0.00     0.002 A 
ATOM      6  C6  N4B d   1       1.045   1.380   0.404  0.00  0.00     0.002 A 
ENDROOT
BRANCH   1   7
ATOM      7  C1' N4B d   1      -1.152   0.335  -0.016  0.00  0.00     0.057 C 
BRANCH   7   8
ATOM      8  C2' N4B d   1      -1.438  -0.300  -1.373  0.00  0.00     0.009 C 
BRANCH   8   9
ATOM      9  C3' N4B d   1      -2.179   0.650  -2.300  0.00  0.00     0.004 C 
ATOM     10  C4' N4B d   1      -2.499   0.033  -3.629  0.00  0.00     0.003 C 
ENDBRANCH   8   9
ENDBRANCH   7   8
ENDBRANCH   1   7
TORSDOF 3
ENDMDL
