MODEL 1
REMARK minimizedAffinity -4.17905855
REMARK minimizedRMSD -1
REMARK  1 active torsions:
REMARK  status: ('A' for Active; 'I' for Inactive)
REMARK    1  A    between atoms: C1_2  and  C2_3 
ROOT
ATOM      1  C2  UNL d   1       1.156   0.695   0.258  0.00  0.00    -0.081 A 
ATOM      2  C3  UNL d   1       0.537  -0.549   0.083  0.00  0.00     0.006 A 
ATOM      3  C4  UNL d   1      -0.779  -0.627  -0.379  0.00  0.00     0.002 A 
ATOM      4  C5  UNL d   1      -1.495   0.536  -0.681  0.00  0.00    -0.080 A 
ATOM      5  C6  UNL d   1      -2.897   0.466  -1.206  0.00  0.00     0.076 C 
ATOM      6  C7  UNL d   1      -0.882   1.780  -0.489  0.00  0.00     0.002 A 
ATOM      7  C8  UNL d   1       0.433   1.858  -0.027  0.00  0.00     0.006 A 
ENDROOT
BRANCH   1   8
ATOM      8  C1  UNL d   1       2.596   0.779   0.695  0.00  0.00     0.054 C 
ATOM      9  C   UNL d   1       3.535   0.288  -0.397  0.00  0.00     0.018 C 
ENDBRANCH   1   8
TORSDOF 1
ENDMDL
