MODEL 1
REMARK minimizedAffinity -1.31375849
REMARK minimizedRMSD -1
REMARK  1 active torsions:
REMARK  status: ('A' for Active; 'I' for Inactive)
REMARK    1  A    between atoms: C1_2  and  C2_3 
ROOT
ATOM      1  C2  UNL d   1      -0.563   0.368  -0.933  0.00  0.00    -0.081 A 
ATOM      2  C3  UNL d   1      -0.089   0.180  -2.237  0.00  0.00     0.006 A 
ATOM      3  C4  UNL d   1      -0.978  -0.081  -3.283  0.00  0.00     0.002 A 
ATOM      4  C5  UNL d   1      -2.354  -0.150  -3.044  0.00  0.00    -0.080 A 
ATOM      5  C6  UNL d   1      -3.321  -0.399  -4.163  0.00  0.00     0.076 C 
ATOM      6  C7  UNL d   1      -2.827   0.021  -1.739  0.00  0.00     0.002 A 
ATOM      7  C8  UNL d   1      -1.939   0.281  -0.692  0.00  0.00     0.006 A 
ENDROOT
BRANCH   1   8
ATOM      8  C1  UNL d   1       0.386   0.714   0.185  0.00  0.00     0.054 C 
ATOM      9  C   UNL d   1       1.586   1.496  -0.330  0.00  0.00     0.018 C 
ENDBRANCH   1   8
TORSDOF 1
ENDMDL
