MODEL 1
REMARK minimizedAffinity -3.22396421
REMARK minimizedRMSD -1
REMARK  1 active torsions:
REMARK  status: ('A' for Active; 'I' for Inactive)
REMARK    1  A    between atoms: C1_2  and  C2_3 
ROOT
ATOM      1  C2  UNL d   1       1.241  -1.078   1.823  0.00  0.00    -0.081 A 
ATOM      2  C3  UNL d   1      -0.009  -1.671   1.609  0.00  0.00     0.006 A 
ATOM      3  C4  UNL d   1      -0.924  -1.095   0.725  0.00  0.00     0.002 A 
ATOM      4  C5  UNL d   1      -0.602   0.079   0.035  0.00  0.00    -0.080 A 
ATOM      5  C6  UNL d   1      -1.564   0.691  -0.939  0.00  0.00     0.076 C 
ATOM      6  C7  UNL d   1       0.640   0.681   0.262  0.00  0.00     0.002 A 
ATOM      7  C8  UNL d   1       1.555   0.105   1.146  0.00  0.00     0.006 A 
ENDROOT
BRANCH   1   8
ATOM      8  C1  UNL d   1       2.255  -1.733   2.726  0.00  0.00     0.054 C 
ATOM      9  C   UNL d   1       3.664  -1.598   2.166  0.00  0.00     0.018 C 
ENDBRANCH   1   8
TORSDOF 1
ENDMDL
