MODEL 1
REMARK minimizedAffinity -4.39904213
REMARK minimizedRMSD -1
REMARK  1 active torsions:
REMARK  status: ('A' for Active; 'I' for Inactive)
REMARK    1  A    between atoms: C1_2  and  C2_3 
ROOT
ATOM      1  C2  UNL d   1      -0.522  -0.159  -0.498  0.00  0.00    -0.081 A 
ATOM      2  C3  UNL d   1      -0.567  -0.859   0.714  0.00  0.00     0.006 A 
ATOM      3  C4  UNL d   1       0.613  -1.275   1.335  0.00  0.00     0.002 A 
ATOM      4  C5  UNL d   1       1.856  -0.993   0.759  0.00  0.00    -0.080 A 
ATOM      5  C6  UNL d   1       3.131  -1.408   1.431  0.00  0.00     0.076 C 
ATOM      6  C7  UNL d   1       1.900  -0.309  -0.461  0.00  0.00     0.002 A 
ATOM      7  C8  UNL d   1       0.721   0.107  -1.083  0.00  0.00     0.006 A 
ENDROOT
BRANCH   1   8
ATOM      8  C1  UNL d   1      -1.790   0.348  -1.138  0.00  0.00     0.054 C 
ATOM      9  C   UNL d   1      -2.190  -0.510  -2.330  0.00  0.00     0.018 C 
ENDBRANCH   1   8
TORSDOF 1
ENDMDL
