MODEL 1
REMARK minimizedAffinity -4.18108988
REMARK minimizedRMSD -1
REMARK  1 active torsions:
REMARK  status: ('A' for Active; 'I' for Inactive)
REMARK    1  A    between atoms: C1_2  and  C2_3 
ROOT
ATOM      1  C2  UNL d   1      -0.527  -0.077   0.236  0.00  0.00    -0.081 A 
ATOM      2  C3  UNL d   1       0.268   1.066   0.386  0.00  0.00     0.006 A 
ATOM      3  C4  UNL d   1       1.584   0.959   0.842  0.00  0.00     0.002 A 
ATOM      4  C5  UNL d   1       2.130  -0.293   1.146  0.00  0.00    -0.080 A 
ATOM      5  C6  UNL d   1       3.551  -0.425   1.607  0.00  0.00     0.076 C 
ATOM      6  C7  UNL d   1       1.331  -1.433   1.012  0.00  0.00     0.002 A 
ATOM      7  C8  UNL d   1       0.014  -1.327   0.558  0.00  0.00     0.006 A 
ENDROOT
BRANCH   1   8
ATOM      8  C1  UNL d   1      -1.925   0.029  -0.317  0.00  0.00     0.054 C 
ATOM      9  C   UNL d   1      -1.964  -0.329  -1.796  0.00  0.00     0.018 C 
ENDBRANCH   1   8
TORSDOF 1
ENDMDL
