MODEL 1
REMARK minimizedAffinity 22.9022655
REMARK minimizedRMSD -1
REMARK  0 active torsions:
REMARK  status: ('A' for Active; 'I' for Inactive)
ROOT
ATOM      1  O1  BZF d   1       4.140   3.377  -3.802  0.00  0.00    -0.204 OA
ATOM      2  C2  BZF d   1       4.385   3.830  -5.084  0.00  0.00     0.174 A 
ATOM      3  C3  BZF d   1       3.978   2.925  -5.997  0.00  0.00    -0.012 A 
ATOM      4  C3A BZF d   1       3.360   1.879  -5.241  0.00  0.00    -0.107 A 
ATOM      5  C4  BZF d   1       2.748   0.707  -5.585  0.00  0.00     0.055 A 
ATOM      6  C5  BZF d   1       2.316  -0.125  -4.602  0.00  0.00    -0.016 A 
ATOM      7  C6  BZF d   1       2.484   0.179  -3.267  0.00  0.00     0.022 A 
ATOM      8  C7  BZF d   1       3.081   1.331  -2.877  0.00  0.00     0.029 A 
ATOM      9  C7A BZF d   1       3.489   2.190  -3.868  0.00  0.00     0.058 A 
ENDROOT
TORSDOF 0
ENDMDL
