MODEL 1
REMARK minimizedAffinity 8.30713749
REMARK minimizedRMSD -1
REMARK  0 active torsions:
REMARK  status: ('A' for Active; 'I' for Inactive)
ROOT
ATOM      1  O1  BZF d   1      -4.484  -2.539   0.107  0.00  0.00    -0.204 OA
ATOM      2  C2  BZF d   1      -5.397  -1.760   0.790  0.00  0.00     0.174 A 
ATOM      3  C3  BZF d   1      -6.000  -2.473   1.764  0.00  0.00    -0.012 A 
ATOM      4  C3A BZF d   1      -5.361  -3.753   1.744  0.00  0.00    -0.107 A 
ATOM      5  C4  BZF d   1      -5.511  -4.889   2.486  0.00  0.00     0.055 A 
ATOM      6  C5  BZF d   1      -4.783  -5.990   2.164  0.00  0.00    -0.016 A 
ATOM      7  C6  BZF d   1      -3.899  -5.991   1.104  0.00  0.00     0.022 A 
ATOM      8  C7  BZF d   1      -3.712  -4.886   0.342  0.00  0.00     0.029 A 
ATOM      9  C7A BZF d   1      -4.423  -3.762   0.686  0.00  0.00     0.058 A 
ENDROOT
TORSDOF 0
ENDMDL
