MODEL 1
REMARK minimizedAffinity 5.89378548
REMARK minimizedRMSD -1
REMARK  0 active torsions:
REMARK  status: ('A' for Active; 'I' for Inactive)
ROOT
ATOM      1  O1  BZF d   1      -3.772   1.105   1.430  0.00  0.00    -0.204 OA
ATOM      2  C2  BZF d   1      -2.670   1.936   1.490  0.00  0.00     0.174 A 
ATOM      3  C3  BZF d   1      -1.529   1.216   1.496  0.00  0.00    -0.012 A 
ATOM      4  C3A BZF d   1      -1.941  -0.145   1.344  0.00  0.00    -0.107 A 
ATOM      5  C4  BZF d   1      -1.264  -1.328   1.262  0.00  0.00     0.055 A 
ATOM      6  C5  BZF d   1      -1.967  -2.488   1.190  0.00  0.00    -0.016 A 
ATOM      7  C6  BZF d   1      -3.347  -2.503   1.202  0.00  0.00     0.022 A 
ATOM      8  C7  BZF d   1      -4.063  -1.355   1.276  0.00  0.00     0.029 A 
ATOM      9  C7A BZF d   1      -3.355  -0.179   1.316  0.00  0.00     0.058 A 
ENDROOT
TORSDOF 0
ENDMDL
