MODEL 1
REMARK minimizedAffinity 9.86361599
REMARK minimizedRMSD -1
REMARK  0 active torsions:
REMARK  status: ('A' for Active; 'I' for Inactive)
ROOT
ATOM      1  O1  BZF d   1       1.868  -1.494  -4.061  0.00  0.00    -0.204 OA
ATOM      2  C2  BZF d   1       1.827  -0.199  -3.580  0.00  0.00     0.174 A 
ATOM      3  C3  BZF d   1       0.697   0.422  -3.973  0.00  0.00    -0.012 A 
ATOM      4  C3A BZF d   1      -0.057  -0.574  -4.670  0.00  0.00    -0.107 A 
ATOM      5  C4  BZF d   1      -1.278  -0.571  -5.282  0.00  0.00     0.055 A 
ATOM      6  C5  BZF d   1      -1.693  -1.688  -5.935  0.00  0.00    -0.016 A 
ATOM      7  C6  BZF d   1      -0.913  -2.824  -5.999  0.00  0.00     0.022 A 
ATOM      8  C7  BZF d   1       0.303  -2.877  -5.403  0.00  0.00     0.029 A 
ATOM      9  C7A BZF d   1       0.711  -1.760  -4.715  0.00  0.00     0.058 A 
ENDROOT
TORSDOF 0
ENDMDL
