MODEL 1
REMARK minimizedAffinity 15.1762571
REMARK minimizedRMSD -1
REMARK  0 active torsions:
REMARK  status: ('A' for Active; 'I' for Inactive)
ROOT
ATOM      1  O1  BZF d   1      -2.585  -2.267  -5.825  0.00  0.00    -0.204 OA
ATOM      2  C2  BZF d   1      -1.507  -3.130  -5.873  0.00  0.00     0.174 A 
ATOM      3  C3  BZF d   1      -1.921  -4.413  -5.891  0.00  0.00    -0.012 A 
ATOM      4  C3A BZF d   1      -3.349  -4.347  -5.945  0.00  0.00    -0.107 A 
ATOM      5  C4  BZF d   1      -4.331  -5.294  -6.000  0.00  0.00     0.055 A 
ATOM      6  C5  BZF d   1      -5.631  -4.900  -5.969  0.00  0.00    -0.016 A 
ATOM      7  C6  BZF d   1      -5.985  -3.569  -5.879  0.00  0.00     0.022 A 
ATOM      8  C7  BZF d   1      -5.046  -2.593  -5.828  0.00  0.00     0.029 A 
ATOM      9  C7A BZF d   1      -3.731  -2.986  -5.892  0.00  0.00     0.058 A 
ENDROOT
TORSDOF 0
ENDMDL
