MODEL 1
REMARK minimizedAffinity 9.28216934
REMARK minimizedRMSD -1
REMARK  0 active torsions:
REMARK  status: ('A' for Active; 'I' for Inactive)
ROOT
ATOM      1  O1  BZF d   1      -2.809   3.411   1.579  0.00  0.00    -0.204 OA
ATOM      2  C2  BZF d   1      -4.172   3.364   1.798  0.00  0.00     0.174 A 
ATOM      3  C3  BZF d   1      -4.552   2.130   2.188  0.00  0.00    -0.012 A 
ATOM      4  C3A BZF d   1      -3.338   1.382   2.304  0.00  0.00    -0.107 A 
ATOM      5  C4  BZF d   1      -3.059   0.096   2.670  0.00  0.00     0.055 A 
ATOM      6  C5  BZF d   1      -1.775  -0.344   2.608  0.00  0.00    -0.016 A 
ATOM      7  C6  BZF d   1      -0.747   0.471   2.179  0.00  0.00     0.022 A 
ATOM      8  C7  BZF d   1      -0.974   1.755   1.811  0.00  0.00     0.029 A 
ATOM      9  C7A BZF d   1      -2.266   2.213   1.904  0.00  0.00     0.058 A 
ENDROOT
TORSDOF 0
ENDMDL
