MODEL 1
REMARK minimizedAffinity 10.0545349
REMARK minimizedRMSD -1
REMARK  0 active torsions:
REMARK  status: ('A' for Active; 'I' for Inactive)
ROOT
ATOM      1  O1  BZF d   1      -4.794  -5.032  -5.947  0.00  0.00    -0.204 OA
ATOM      2  C2  BZF d   1      -5.994  -4.350  -5.888  0.00  0.00     0.174 A 
ATOM      3  C3  BZF d   1      -5.784  -3.020  -5.811  0.00  0.00    -0.012 A 
ATOM      4  C3A BZF d   1      -4.367  -2.856  -5.915  0.00  0.00    -0.107 A 
ATOM      5  C4  BZF d   1      -3.546  -1.764  -5.920  0.00  0.00     0.055 A 
ATOM      6  C5  BZF d   1      -2.200  -1.950  -5.964  0.00  0.00    -0.016 A 
ATOM      7  C6  BZF d   1      -1.642  -3.211  -5.998  0.00  0.00     0.022 A 
ATOM      8  C7  BZF d   1      -2.416  -4.324  -6.000  0.00  0.00     0.029 A 
ATOM      9  C7A BZF d   1      -3.777  -4.139  -5.989  0.00  0.00     0.058 A 
ENDROOT
TORSDOF 0
ENDMDL
