MODEL 1
REMARK minimizedAffinity 16.6237907
REMARK minimizedRMSD -1
REMARK  0 active torsions:
REMARK  status: ('A' for Active; 'I' for Inactive)
ROOT
ATOM      1  O1  BZF d   1       4.972   3.120  -5.496  0.00  0.00    -0.204 OA
ATOM      2  C2  BZF d   1       5.959   3.448  -4.588  0.00  0.00     0.174 A 
ATOM      3  C3  BZF d   1       5.601   4.525  -3.860  0.00  0.00    -0.012 A 
ATOM      4  C3A BZF d   1       4.269   4.838  -4.280  0.00  0.00    -0.107 A 
ATOM      5  C4  BZF d   1       3.369   5.796  -3.911  0.00  0.00     0.055 A 
ATOM      6  C5  BZF d   1       2.181   5.874  -4.567  0.00  0.00    -0.016 A 
ATOM      7  C6  BZF d   1       1.864   5.015  -5.599  0.00  0.00     0.022 A 
ATOM      8  C7  BZF d   1       2.724   4.045  -5.997  0.00  0.00     0.029 A 
ATOM      9  C7A BZF d   1       3.911   3.943  -5.314  0.00  0.00     0.058 A 
ENDROOT
TORSDOF 0
ENDMDL
