MODEL 1
REMARK minimizedAffinity 11.54634
REMARK minimizedRMSD -1
REMARK  0 active torsions:
REMARK  status: ('A' for Active; 'I' for Inactive)
ROOT
ATOM      1  O1  BZF d   1      -0.906  -0.233   1.622  0.00  0.00    -0.204 OA
ATOM      2  C2  BZF d   1      -1.719   0.873   1.773  0.00  0.00     0.174 A 
ATOM      3  C3  BZF d   1      -2.933   0.653   1.228  0.00  0.00    -0.012 A 
ATOM      4  C3A BZF d   1      -2.905  -0.707   0.784  0.00  0.00    -0.107 A 
ATOM      5  C4  BZF d   1      -3.822  -1.514   0.175  0.00  0.00     0.055 A 
ATOM      6  C5  BZF d   1      -3.456  -2.770  -0.192  0.00  0.00    -0.016 A 
ATOM      7  C6  BZF d   1      -2.181  -3.249   0.031  0.00  0.00     0.022 A 
ATOM      8  C7  BZF d   1      -1.239  -2.487   0.637  0.00  0.00     0.029 A 
ATOM      9  C7A BZF d   1      -1.616  -1.229   1.038  0.00  0.00     0.058 A 
ENDROOT
TORSDOF 0
ENDMDL
