MODEL 1
REMARK minimizedAffinity 11.7497072
REMARK minimizedRMSD -1
REMARK  0 active torsions:
REMARK  status: ('A' for Active; 'I' for Inactive)
ROOT
ATOM      1  O1  BZF d   1      -2.821   3.269   1.683  0.00  0.00    -0.204 OA
ATOM      2  C2  BZF d   1      -4.170   3.202   1.974  0.00  0.00     0.174 A 
ATOM      3  C3  BZF d   1      -4.582   1.919   2.038  0.00  0.00    -0.012 A 
ATOM      4  C3A BZF d   1      -3.399   1.134   1.860  0.00  0.00    -0.107 A 
ATOM      5  C4  BZF d   1      -3.158  -0.210   1.840  0.00  0.00     0.055 A 
ATOM      6  C5  BZF d   1      -1.901  -0.651   1.570  0.00  0.00    -0.016 A 
ATOM      7  C6  BZF d   1      -0.864   0.221   1.312  0.00  0.00     0.022 A 
ATOM      8  C7  BZF d   1      -1.054   1.563   1.325  0.00  0.00     0.029 A 
ATOM      9  C7A BZF d   1      -2.315   2.014   1.630  0.00  0.00     0.058 A 
ENDROOT
TORSDOF 0
ENDMDL
