MODEL 1
REMARK minimizedAffinity 19.1775227
REMARK minimizedRMSD -1
REMARK  0 active torsions:
REMARK  status: ('A' for Active; 'I' for Inactive)
ROOT
ATOM      1  O1  BZF d   1      -4.723  -0.181   2.551  0.00  0.00    -0.204 OA
ATOM      2  C2  BZF d   1      -4.774  -1.472   2.063  0.00  0.00     0.174 A 
ATOM      3  C3  BZF d   1      -3.595  -1.821   1.508  0.00  0.00    -0.012 A 
ATOM      4  C3A BZF d   1      -2.726  -0.709   1.742  0.00  0.00    -0.107 A 
ATOM      5  C4  BZF d   1      -1.417  -0.461   1.441  0.00  0.00     0.055 A 
ATOM      6  C5  BZF d   1      -0.888   0.754   1.743  0.00  0.00    -0.016 A 
ATOM      7  C6  BZF d   1      -1.640   1.744   2.341  0.00  0.00     0.022 A 
ATOM      8  C7  BZF d   1      -2.941   1.544   2.663  0.00  0.00     0.029 A 
ATOM      9  C7A BZF d   1      -3.469   0.306   2.388  0.00  0.00     0.058 A 
ENDROOT
TORSDOF 0
ENDMDL
