MODEL 1
REMARK minimizedAffinity 7.81144238
REMARK minimizedRMSD -1
REMARK  0 active torsions:
REMARK  status: ('A' for Active; 'I' for Inactive)
ROOT
ATOM      1  O1  BZF d   1       1.477   3.889  -1.810  0.00  0.00    -0.204 OA
ATOM      2  C2  BZF d   1       1.492   2.515  -1.673  0.00  0.00     0.174 A 
ATOM      3  C3  BZF d   1       2.209   1.943  -2.662  0.00  0.00    -0.012 A 
ATOM      4  C3A BZF d   1       2.747   3.034  -3.415  0.00  0.00    -0.107 A 
ATOM      5  C4  BZF d   1       3.557   3.109  -4.512  0.00  0.00     0.055 A 
ATOM      6  C5  BZF d   1       3.838   4.327  -5.045  0.00  0.00    -0.016 A 
ATOM      7  C6  BZF d   1       3.322   5.489  -4.510  0.00  0.00     0.022 A 
ATOM      8  C7  BZF d   1       2.518   5.466  -3.419  0.00  0.00     0.029 A 
ATOM      9  C7A BZF d   1       2.260   4.239  -2.859  0.00  0.00     0.058 A 
ENDROOT
TORSDOF 0
ENDMDL
