MODEL 1
REMARK minimizedAffinity 9.12307644
REMARK minimizedRMSD -1
REMARK  0 active torsions:
REMARK  status: ('A' for Active; 'I' for Inactive)
ROOT
ATOM      1  O1  BZF d   1       2.922   3.122  -5.454  0.00  0.00    -0.204 OA
ATOM      2  C2  BZF d   1       4.179   3.686  -5.555  0.00  0.00     0.174 A 
ATOM      3  C3  BZF d   1       5.119   2.733  -5.721  0.00  0.00    -0.012 A 
ATOM      4  C3A BZF d   1       4.395   1.503  -5.815  0.00  0.00    -0.107 A 
ATOM      5  C4  BZF d   1       4.772   0.203  -6.000  0.00  0.00     0.055 A 
ATOM      6  C5  BZF d   1       3.824  -0.770  -5.971  0.00  0.00    -0.016 A 
ATOM      7  C6  BZF d   1       2.492  -0.480  -5.755  0.00  0.00     0.022 A 
ATOM      8  C7  BZF d   1       2.070   0.794  -5.572  0.00  0.00     0.029 A 
ATOM      9  C7A BZF d   1       3.021   1.783  -5.633  0.00  0.00     0.058 A 
ENDROOT
TORSDOF 0
ENDMDL
