MODEL 1
REMARK minimizedAffinity 15.7927189
REMARK minimizedRMSD -1
REMARK  0 active torsions:
REMARK  status: ('A' for Active; 'I' for Inactive)
ROOT
ATOM      1  O1  BZF d   1      -2.224   2.402   1.544  0.00  0.00    -0.204 OA
ATOM      2  C2  BZF d   1      -3.146   1.405   1.292  0.00  0.00     0.174 A 
ATOM      3  C3  BZF d   1      -2.582   0.187   1.423  0.00  0.00    -0.012 A 
ATOM      4  C3A BZF d   1      -1.246   0.438   1.870  0.00  0.00    -0.107 A 
ATOM      5  C4  BZF d   1      -0.197  -0.374   2.194  0.00  0.00     0.055 A 
ATOM      6  C5  BZF d   1       0.996   0.188   2.523  0.00  0.00    -0.016 A 
ATOM      7  C6  BZF d   1       1.175   1.556   2.535  0.00  0.00     0.022 A 
ATOM      8  C7  BZF d   1       0.162   2.402   2.227  0.00  0.00     0.029 A 
ATOM      9  C7A BZF d   1      -1.053   1.838   1.925  0.00  0.00     0.058 A 
ENDROOT
TORSDOF 0
ENDMDL
