MODEL 1
REMARK minimizedAffinity 7.73071527
REMARK minimizedRMSD -1
REMARK  0 active torsions:
REMARK  status: ('A' for Active; 'I' for Inactive)
ROOT
ATOM      1  O1  BZF d   1      -2.020  -0.147   2.797  0.00  0.00    -0.204 OA
ATOM      2  C2  BZF d   1      -2.640   0.843   2.059  0.00  0.00     0.174 A 
ATOM      3  C3  BZF d   1      -1.747   1.772   1.659  0.00  0.00    -0.012 A 
ATOM      4  C3A BZF d   1      -0.476   1.286   2.102  0.00  0.00    -0.107 A 
ATOM      5  C4  BZF d   1       0.800   1.759   1.991  0.00  0.00     0.055 A 
ATOM      6  C5  BZF d   1       1.811   1.083   2.598  0.00  0.00    -0.016 A 
ATOM      7  C6  BZF d   1       1.581  -0.066   3.326  0.00  0.00     0.022 A 
ATOM      8  C7  BZF d   1       0.333  -0.577   3.460  0.00  0.00     0.029 A 
ATOM      9  C7A BZF d   1      -0.686   0.086   2.820  0.00  0.00     0.058 A 
ENDROOT
TORSDOF 0
ENDMDL
