MODEL 1
REMARK minimizedAffinity 13.8692169
REMARK minimizedRMSD -1
REMARK  0 active torsions:
REMARK  status: ('A' for Active; 'I' for Inactive)
ROOT
ATOM      1  O1  BZF d   1       1.891   1.143  -3.284  0.00  0.00    -0.204 OA
ATOM      2  C2  BZF d   1       1.524  -0.045  -2.683  0.00  0.00     0.174 A 
ATOM      3  C3  BZF d   1       2.140  -1.090  -3.271  0.00  0.00    -0.012 A 
ATOM      4  C3A BZF d   1       3.014  -0.511  -4.246  0.00  0.00    -0.107 A 
ATOM      5  C4  BZF d   1       3.903  -1.036  -5.140  0.00  0.00     0.055 A 
ATOM      6  C5  BZF d   1       4.545  -0.203  -6.000  0.00  0.00    -0.016 A 
ATOM      7  C6  BZF d   1       4.318   1.158  -5.998  0.00  0.00     0.022 A 
ATOM      8  C7  BZF d   1       3.449   1.726  -5.126  0.00  0.00     0.029 A 
ATOM      9  C7A BZF d   1       2.824   0.890  -4.233  0.00  0.00     0.058 A 
ENDROOT
TORSDOF 0
ENDMDL
