MODEL 1
REMARK minimizedAffinity 6.27476692
REMARK minimizedRMSD -1
REMARK  0 active torsions:
REMARK  status: ('A' for Active; 'I' for Inactive)
ROOT
ATOM      1  O1  BZF d   1       3.501   3.111  -4.008  0.00  0.00    -0.204 OA
ATOM      2  C2  BZF d   1       4.123   3.729  -5.075  0.00  0.00     0.174 A 
ATOM      3  C3  BZF d   1       4.506   2.821  -5.996  0.00  0.00    -0.012 A 
ATOM      4  C3A BZF d   1       4.014   1.566  -5.515  0.00  0.00    -0.107 A 
ATOM      5  C4  BZF d   1       4.064   0.290  -6.000  0.00  0.00     0.055 A 
ATOM      6  C5  BZF d   1       3.551  -0.721  -5.251  0.00  0.00    -0.016 A 
ATOM      7  C6  BZF d   1       2.987  -0.493  -4.012  0.00  0.00     0.022 A 
ATOM      8  C7  BZF d   1       2.911   0.756  -3.492  0.00  0.00     0.029 A 
ATOM      9  C7A BZF d   1       3.398   1.784  -4.261  0.00  0.00     0.058 A 
ENDROOT
TORSDOF 0
ENDMDL
