MODEL 1
REMARK minimizedAffinity 1.36563623
REMARK minimizedRMSD -1
REMARK  0 active torsions:
REMARK  status: ('A' for Active; 'I' for Inactive)
ROOT
ATOM      1  O1  BZF d   1      -1.290   3.599   2.847  0.00  0.00    -0.204 OA
ATOM      2  C2  BZF d   1       0.015   3.296   3.184  0.00  0.00     0.174 A 
ATOM      3  C3  BZF d   1       0.233   1.967   3.106  0.00  0.00    -0.012 A 
ATOM      4  C3A BZF d   1      -0.988   1.415   2.604  0.00  0.00    -0.107 A 
ATOM      5  C4  BZF d   1      -1.388   0.146   2.296  0.00  0.00     0.055 A 
ATOM      6  C5  BZF d   1      -2.670  -0.065   1.898  0.00  0.00    -0.016 A 
ATOM      7  C6  BZF d   1      -3.579   0.968   1.802  0.00  0.00     0.022 A 
ATOM      8  C7  BZF d   1      -3.228   2.245   2.092  0.00  0.00     0.029 A 
ATOM      9  C7A BZF d   1      -1.924   2.465   2.463  0.00  0.00     0.058 A 
ENDROOT
TORSDOF 0
ENDMDL
