MODEL 1
REMARK minimizedAffinity 10.8628521
REMARK minimizedRMSD -1
REMARK  0 active torsions:
REMARK  status: ('A' for Active; 'I' for Inactive)
ROOT
ATOM      1  C   UNL d   1      -4.330   0.467   3.213  0.00  0.00     0.078 C 
ATOM      2  C1  UNL d   1      -2.962   1.006   2.917  0.00  0.00    -0.077 A 
ATOM      3  C2  UNL d   1      -1.823   0.206   3.066  0.00  0.00    -0.001 A 
ATOM      4  C3  UNL d   1      -0.556   0.724   2.796  0.00  0.00     0.003 A 
ATOM      5  C4  UNL d   1      -0.415   2.046   2.376  0.00  0.00    -0.005 A 
ATOM      6  C5  UNL d   1      -1.542   2.851   2.227  0.00  0.00     0.003 A 
ATOM      7  C6  UNL d   1      -2.811   2.334   2.496  0.00  0.00    -0.001 A 
ENDROOT
TORSDOF 0
ENDMDL
