MODEL 1
REMARK minimizedAffinity 4.77497625
REMARK minimizedRMSD -1
REMARK  0 active torsions:
REMARK  status: ('A' for Active; 'I' for Inactive)
ROOT
ATOM      1  C   UNL d   1      -2.081   2.181   2.709  0.00  0.00     0.078 C 
ATOM      2  C1  UNL d   1      -0.650   2.204   2.262  0.00  0.00    -0.077 A 
ATOM      3  C2  UNL d   1      -0.182   3.199   1.393  0.00  0.00    -0.001 A 
ATOM      4  C3  UNL d   1       1.150   3.203   0.977  0.00  0.00     0.003 A 
ATOM      5  C4  UNL d   1       2.026   2.214   1.423  0.00  0.00    -0.005 A 
ATOM      6  C5  UNL d   1       1.569   1.220   2.285  0.00  0.00     0.003 A 
ATOM      7  C6  UNL d   1       0.237   1.214   2.703  0.00  0.00    -0.001 A 
ENDROOT
TORSDOF 0
ENDMDL
