MODEL 1
REMARK minimizedAffinity 2.2081511
REMARK minimizedRMSD -1
REMARK  0 active torsions:
REMARK  status: ('A' for Active; 'I' for Inactive)
ROOT
ATOM      1  C   UNL d   1      -0.024   2.185   2.205  0.00  0.00     0.078 C 
ATOM      2  C1  UNL d   1       1.198   1.905   1.382  0.00  0.00    -0.077 A 
ATOM      3  C2  UNL d   1       1.268   0.775   0.558  0.00  0.00    -0.001 A 
ATOM      4  C3  UNL d   1       2.416   0.521  -0.195  0.00  0.00     0.003 A 
ATOM      5  C4  UNL d   1       3.501   1.392  -0.132  0.00  0.00    -0.005 A 
ATOM      6  C5  UNL d   1       3.441   2.518   0.686  0.00  0.00     0.003 A 
ATOM      7  C6  UNL d   1       2.294   2.774   1.441  0.00  0.00    -0.001 A 
ENDROOT
TORSDOF 0
ENDMDL
