MODEL 1
REMARK minimizedAffinity 3.44757223
REMARK minimizedRMSD -1
REMARK  0 active torsions:
REMARK  status: ('A' for Active; 'I' for Inactive)
ROOT
ATOM      1  C   UNL d   1       3.272   1.860   0.330  0.00  0.00     0.078 C 
ATOM      2  C1  UNL d   1       1.981   2.076   1.061  0.00  0.00    -0.077 A 
ATOM      3  C2  UNL d   1       1.520   1.147   2.001  0.00  0.00    -0.001 A 
ATOM      4  C3  UNL d   1       0.311   1.356   2.667  0.00  0.00     0.003 A 
ATOM      5  C4  UNL d   1      -0.448   2.494   2.398  0.00  0.00    -0.005 A 
ATOM      6  C5  UNL d   1       0.002   3.423   1.462  0.00  0.00     0.003 A 
ATOM      7  C6  UNL d   1       1.210   3.215   0.796  0.00  0.00    -0.001 A 
ENDROOT
TORSDOF 0
ENDMDL
