MODEL 1
REMARK minimizedAffinity 4.4582839
REMARK minimizedRMSD -1
REMARK  0 active torsions:
REMARK  status: ('A' for Active; 'I' for Inactive)
ROOT
ATOM      1  C   UNL d   1       5.747   2.435  -3.158  0.00  0.00     0.078 C 
ATOM      2  C1  UNL d   1       5.164   3.639  -3.837  0.00  0.00    -0.077 A 
ATOM      3  C2  UNL d   1       5.986   4.574  -4.477  0.00  0.00    -0.001 A 
ATOM      4  C3  UNL d   1       5.431   5.694  -5.097  0.00  0.00     0.003 A 
ATOM      5  C4  UNL d   1       4.052   5.891  -5.081  0.00  0.00    -0.005 A 
ATOM      6  C5  UNL d   1       3.226   4.967  -4.444  0.00  0.00     0.003 A 
ATOM      7  C6  UNL d   1       3.779   3.846  -3.824  0.00  0.00    -0.001 A 
ENDROOT
TORSDOF 0
ENDMDL
