MODEL 1
REMARK minimizedAffinity 8.84272289
REMARK minimizedRMSD -1
REMARK  0 active torsions:
REMARK  status: ('A' for Active; 'I' for Inactive)
ROOT
ATOM      1  C   UNL d   1       1.608   4.209   0.629  0.00  0.00     0.078 C 
ATOM      2  C1  UNL d   1       1.237   2.850   1.143  0.00  0.00    -0.077 A 
ATOM      3  C2  UNL d   1       0.184   2.685   2.051  0.00  0.00    -0.001 A 
ATOM      4  C3  UNL d   1      -0.144   1.415   2.529  0.00  0.00     0.003 A 
ATOM      5  C4  UNL d   1       0.577   0.300   2.105  0.00  0.00    -0.005 A 
ATOM      6  C5  UNL d   1       1.628   0.455   1.203  0.00  0.00     0.003 A 
ATOM      7  C6  UNL d   1       1.957   1.724   0.724  0.00  0.00    -0.001 A 
ENDROOT
TORSDOF 0
ENDMDL
