MODEL 1
REMARK minimizedAffinity 0.2823385
REMARK minimizedRMSD -1
REMARK  0 active torsions:
REMARK  status: ('A' for Active; 'I' for Inactive)
ROOT
ATOM      1  C   UNL d   1       1.521   1.993   1.678  0.00  0.00     0.078 C 
ATOM      2  C1  UNL d   1       2.079   0.923   0.789  0.00  0.00    -0.077 A 
ATOM      3  C2  UNL d   1       1.375  -0.266   0.561  0.00  0.00    -0.001 A 
ATOM      4  C3  UNL d   1       1.912  -1.258  -0.261  0.00  0.00     0.003 A 
ATOM      5  C4  UNL d   1       3.155  -1.073  -0.861  0.00  0.00    -0.005 A 
ATOM      6  C5  UNL d   1       3.865   0.106  -0.639  0.00  0.00     0.003 A 
ATOM      7  C6  UNL d   1       3.330   1.099   0.183  0.00  0.00    -0.001 A 
ENDROOT
TORSDOF 0
ENDMDL
