MODEL 1
REMARK minimizedAffinity 4.98778343
REMARK minimizedRMSD -1
REMARK  0 active torsions:
REMARK  status: ('A' for Active; 'I' for Inactive)
ROOT
ATOM      1  C   UNL d   1      -0.495   2.186   2.883  0.00  0.00     0.078 C 
ATOM      2  C1  UNL d   1       0.762   2.231   2.067  0.00  0.00    -0.077 A 
ATOM      3  C2  UNL d   1       1.529   1.077   1.858  0.00  0.00    -0.001 A 
ATOM      4  C3  UNL d   1       2.702   1.136   1.104  0.00  0.00     0.003 A 
ATOM      5  C4  UNL d   1       3.120   2.346   0.553  0.00  0.00    -0.005 A 
ATOM      6  C5  UNL d   1       2.365   3.499   0.757  0.00  0.00     0.003 A 
ATOM      7  C6  UNL d   1       1.191   3.442   1.511  0.00  0.00    -0.001 A 
ENDROOT
TORSDOF 0
ENDMDL
