MODEL 1
REMARK minimizedAffinity -0.902015865
REMARK minimizedRMSD -1
REMARK  0 active torsions:
REMARK  status: ('A' for Active; 'I' for Inactive)
ROOT
ATOM      1  C   UNL d   1      -0.100  -2.645   0.375  0.00  0.00     0.078 C 
ATOM      2  C1  UNL d   1       0.756  -1.414   0.381  0.00  0.00    -0.077 A 
ATOM      3  C2  UNL d   1       1.708  -1.192  -0.621  0.00  0.00    -0.001 A 
ATOM      4  C3  UNL d   1       2.504  -0.046  -0.598  0.00  0.00     0.003 A 
ATOM      5  C4  UNL d   1       2.357   0.887   0.427  0.00  0.00    -0.005 A 
ATOM      6  C5  UNL d   1       1.414   0.674   1.430  0.00  0.00     0.003 A 
ATOM      7  C6  UNL d   1       0.617  -0.472   1.408  0.00  0.00    -0.001 A 
ENDROOT
TORSDOF 0
ENDMDL
