MODEL 1
REMARK minimizedAffinity 0.718941212
REMARK minimizedRMSD -1
REMARK  0 active torsions:
REMARK  status: ('A' for Active; 'I' for Inactive)
ROOT
ATOM      1  C   UNL d   1      -2.493  -5.263  -1.612  0.00  0.00     0.078 C 
ATOM      2  C1  UNL d   1      -3.710  -4.956  -2.433  0.00  0.00    -0.077 A 
ATOM      3  C2  UNL d   1      -4.135  -3.636  -2.629  0.00  0.00    -0.001 A 
ATOM      4  C3  UNL d   1      -5.274  -3.366  -3.388  0.00  0.00     0.003 A 
ATOM      5  C4  UNL d   1      -6.000  -4.411  -3.957  0.00  0.00    -0.005 A 
ATOM      6  C5  UNL d   1      -5.586  -5.728  -3.766  0.00  0.00     0.003 A 
ATOM      7  C6  UNL d   1      -4.446  -6.000  -3.007  0.00  0.00    -0.001 A 
ENDROOT
TORSDOF 0
ENDMDL
