MODEL 1
REMARK minimizedAffinity 2.29179955
REMARK minimizedRMSD -1
REMARK  0 active torsions:
REMARK  status: ('A' for Active; 'I' for Inactive)
ROOT
ATOM      1  C   UNL d   1       0.204   2.980  -2.778  0.00  0.00     0.078 C 
ATOM      2  C1  UNL d   1       0.644   1.605  -2.374  0.00  0.00    -0.077 A 
ATOM      3  C2  UNL d   1       0.228   0.475  -3.089  0.00  0.00    -0.001 A 
ATOM      4  C3  UNL d   1       0.638  -0.800  -2.695  0.00  0.00     0.003 A 
ATOM      5  C4  UNL d   1       1.465  -0.957  -1.584  0.00  0.00    -0.005 A 
ATOM      6  C5  UNL d   1       1.882   0.161  -0.866  0.00  0.00     0.003 A 
ATOM      7  C6  UNL d   1       1.474   1.437  -1.258  0.00  0.00    -0.001 A 
ENDROOT
TORSDOF 0
ENDMDL
