MODEL 1
REMARK minimizedAffinity 9.40310097
REMARK minimizedRMSD -1
REMARK  0 active torsions:
REMARK  status: ('A' for Active; 'I' for Inactive)
ROOT
ATOM      1  C   UNL d   1      -0.336   2.596  -2.783  0.00  0.00     0.078 C 
ATOM      2  C1  UNL d   1       0.556   1.550  -2.183  0.00  0.00    -0.077 A 
ATOM      3  C2  UNL d   1       0.760   0.322  -2.824  0.00  0.00    -0.001 A 
ATOM      4  C3  UNL d   1       1.585  -0.646  -2.250  0.00  0.00     0.003 A 
ATOM      5  C4  UNL d   1       2.213  -0.396  -1.031  0.00  0.00    -0.005 A 
ATOM      6  C5  UNL d   1       2.014   0.822  -0.384  0.00  0.00     0.003 A 
ATOM      7  C6  UNL d   1       1.189   1.791  -0.958  0.00  0.00    -0.001 A 
ENDROOT
TORSDOF 0
ENDMDL
