MODEL 1
REMARK minimizedAffinity 10.308239
REMARK minimizedRMSD -1
REMARK  0 active torsions:
REMARK  status: ('A' for Active; 'I' for Inactive)
ROOT
ATOM      1  C   UNL d   1       5.999   5.596  -5.626  0.00  0.00     0.078 C 
ATOM      2  C1  UNL d   1       5.875   4.455  -4.660  0.00  0.00    -0.077 A 
ATOM      3  C2  UNL d   1       5.650   4.686  -3.297  0.00  0.00    -0.001 A 
ATOM      4  C3  UNL d   1       5.547   3.615  -2.408  0.00  0.00     0.003 A 
ATOM      5  C4  UNL d   1       5.669   2.307  -2.871  0.00  0.00    -0.005 A 
ATOM      6  C5  UNL d   1       5.896   2.068  -4.225  0.00  0.00     0.003 A 
ATOM      7  C6  UNL d   1       5.999   3.137  -5.116  0.00  0.00    -0.001 A 
ENDROOT
TORSDOF 0
ENDMDL
