MODEL 1
REMARK minimizedAffinity 6.7929678
REMARK minimizedRMSD -1
REMARK  0 active torsions:
REMARK  status: ('A' for Active; 'I' for Inactive)
ROOT
ATOM      1  C   UNL d   1       0.098   2.265   2.335  0.00  0.00     0.078 C 
ATOM      2  C1  UNL d   1       1.238   1.886   1.437  0.00  0.00    -0.077 A 
ATOM      3  C2  UNL d   1       2.339   2.735   1.271  0.00  0.00    -0.001 A 
ATOM      4  C3  UNL d   1       3.388   2.373   0.425  0.00  0.00     0.003 A 
ATOM      5  C4  UNL d   1       3.346   1.162  -0.264  0.00  0.00    -0.005 A 
ATOM      6  C5  UNL d   1       2.253   0.312  -0.107  0.00  0.00     0.003 A 
ATOM      7  C6  UNL d   1       1.203   0.672   0.739  0.00  0.00    -0.001 A 
ENDROOT
TORSDOF 0
ENDMDL
