MODEL 1
REMARK minimizedAffinity -0.64833492
REMARK minimizedRMSD -1
REMARK  2 active torsions:
REMARK  status: ('A' for Active; 'I' for Inactive)
REMARK    1  A    between atoms: C1_2  and  C2_3 
REMARK    2  A    between atoms: C2_3  and  C3_4 
ROOT
ATOM      1  C3  UNL d   1      -0.847   1.371   0.702  0.00  0.00    -0.075 A 
ATOM      2  C4  UNL d   1      -0.887   2.761   0.523  0.00  0.00     0.002 A 
ATOM      3  C5  UNL d   1       0.247   3.454   0.097  0.00  0.00     0.002 A 
ATOM      4  C6  UNL d   1       1.435   2.768  -0.146  0.00  0.00    -0.004 A 
ATOM      5  C7  UNL d   1       1.491   1.389   0.045  0.00  0.00     0.002 A 
ATOM      6  C8  UNL d   1       0.357   0.693   0.467  0.00  0.00     0.002 A 
ENDROOT
BRANCH   1   7
ATOM      7  C2  UNL d   1      -2.078   0.612   1.135  0.00  0.00     0.056 C 
BRANCH   7   8
ATOM      8  C1  UNL d   1      -3.325   0.916   0.298  0.00  0.00     0.007 C 
ATOM      9  C   UNL d   1      -4.490  -0.018   0.595  0.00  0.00     0.009 C 
ENDBRANCH   7   8
ENDBRANCH   1   7
TORSDOF 2
ENDMDL
