MODEL 1
REMARK minimizedAffinity 7.48999453
REMARK minimizedRMSD -1
REMARK  2 active torsions:
REMARK  status: ('A' for Active; 'I' for Inactive)
REMARK    1  A    between atoms: C1_2  and  C2_3 
REMARK    2  A    between atoms: C2_3  and  C3_4 
ROOT
ATOM      1  C3  UNL d   1       0.102   0.395   1.005  0.00  0.00    -0.075 A 
ATOM      2  C4  UNL d   1      -0.956   0.030   1.851  0.00  0.00     0.002 A 
ATOM      3  C5  UNL d   1      -1.306  -1.311   2.008  0.00  0.00     0.002 A 
ATOM      4  C6  UNL d   1      -0.612  -2.301   1.315  0.00  0.00    -0.004 A 
ATOM      5  C7  UNL d   1       0.429  -1.949   0.459  0.00  0.00     0.002 A 
ATOM      6  C8  UNL d   1       0.784  -0.608   0.303  0.00  0.00     0.002 A 
ENDROOT
BRANCH   1   7
ATOM      7  C2  UNL d   1       0.505   1.843   0.853  0.00  0.00     0.056 C 
BRANCH   7   8
ATOM      8  C1  UNL d   1       1.865   2.043   0.177  0.00  0.00     0.007 C 
ATOM      9  C   UNL d   1       3.018   2.153   1.167  0.00  0.00     0.009 C 
ENDBRANCH   7   8
ENDBRANCH   1   7
TORSDOF 2
ENDMDL
