MODEL 1
REMARK minimizedAffinity 2.74678349
REMARK minimizedRMSD -1
REMARK  2 active torsions:
REMARK  status: ('A' for Active; 'I' for Inactive)
REMARK    1  A    between atoms: C1_2  and  C2_3 
REMARK    2  A    between atoms: C2_3  and  C3_4 
ROOT
ATOM      1  C3  UNL d   1       1.086   2.199   0.664  0.00  0.00    -0.075 A 
ATOM      2  C4  UNL d   1       0.375   2.148   1.872  0.00  0.00     0.002 A 
ATOM      3  C5  UNL d   1      -0.888   2.732   1.975  0.00  0.00     0.002 A 
ATOM      4  C6  UNL d   1      -1.450   3.383   0.879  0.00  0.00    -0.004 A 
ATOM      5  C7  UNL d   1      -0.745   3.454  -0.321  0.00  0.00     0.002 A 
ATOM      6  C8  UNL d   1       0.516   2.866  -0.429  0.00  0.00     0.002 A 
ENDROOT
BRANCH   1   7
ATOM      7  C2  UNL d   1       2.440   1.543   0.537  0.00  0.00     0.056 C 
BRANCH   7   8
ATOM      8  C1  UNL d   1       3.599   2.396   1.064  0.00  0.00     0.007 C 
ATOM      9  C   UNL d   1       3.779   2.296   2.573  0.00  0.00     0.009 C 
ENDBRANCH   7   8
ENDBRANCH   1   7
TORSDOF 2
ENDMDL
