MODEL 1
REMARK minimizedAffinity 6.18940973
REMARK minimizedRMSD -1
REMARK  2 active torsions:
REMARK  status: ('A' for Active; 'I' for Inactive)
REMARK    1  A    between atoms: C1_2  and  C2_3 
REMARK    2  A    between atoms: C2_3  and  C3_4 
ROOT
ATOM      1  C3  UNL d   1      -0.818  -1.262   1.421  0.00  0.00    -0.075 A 
ATOM      2  C4  UNL d   1      -2.029  -1.743   1.940  0.00  0.00     0.002 A 
ATOM      3  C5  UNL d   1      -2.975  -0.861   2.463  0.00  0.00     0.002 A 
ATOM      4  C6  UNL d   1      -2.720   0.508   2.483  0.00  0.00    -0.004 A 
ATOM      5  C7  UNL d   1      -1.513   0.995   1.985  0.00  0.00     0.002 A 
ATOM      6  C8  UNL d   1      -0.567   0.116   1.457  0.00  0.00     0.002 A 
ENDROOT
BRANCH   1   7
ATOM      7  C2  UNL d   1       0.197  -2.208   0.826  0.00  0.00     0.056 C 
BRANCH   7   8
ATOM      8  C1  UNL d   1       1.106  -1.567  -0.228  0.00  0.00     0.007 C 
ATOM      9  C   UNL d   1       1.904  -2.584  -1.032  0.00  0.00     0.009 C 
ENDBRANCH   7   8
ENDBRANCH   1   7
TORSDOF 2
ENDMDL
