MODEL 1
REMARK minimizedAffinity 3.35352683
REMARK minimizedRMSD -1
REMARK  2 active torsions:
REMARK  status: ('A' for Active; 'I' for Inactive)
REMARK    1  A    between atoms: C1_2  and  C2_3 
REMARK    2  A    between atoms: C2_3  and  C3_4 
ROOT
ATOM      1  C3  UNL d   1      -0.955   2.278   1.284  0.00  0.00    -0.075 A 
ATOM      2  C4  UNL d   1       0.414   2.081   1.050  0.00  0.00     0.002 A 
ATOM      3  C5  UNL d   1       1.029   2.640  -0.070  0.00  0.00     0.002 A 
ATOM      4  C6  UNL d   1       0.283   3.393  -0.975  0.00  0.00    -0.004 A 
ATOM      5  C7  UNL d   1      -1.081   3.581  -0.761  0.00  0.00     0.002 A 
ATOM      6  C8  UNL d   1      -1.698   3.026   0.362  0.00  0.00     0.002 A 
ENDROOT
BRANCH   1   7
ATOM      7  C2  UNL d   1      -1.619   1.700   2.511  0.00  0.00     0.056 C 
BRANCH   7   8
ATOM      8  C1  UNL d   1      -1.692   0.169   2.519  0.00  0.00     0.007 C 
ATOM      9  C   UNL d   1      -3.087  -0.368   2.229  0.00  0.00     0.009 C 
ENDBRANCH   7   8
ENDBRANCH   1   7
TORSDOF 2
ENDMDL
