MODEL 1
REMARK minimizedAffinity 4.13464642
REMARK minimizedRMSD -1
REMARK  2 active torsions:
REMARK  status: ('A' for Active; 'I' for Inactive)
REMARK    1  A    between atoms: C1_2  and  C2_3 
REMARK    2  A    between atoms: C2_3  and  C3_4 
ROOT
ATOM      1  C3  UNL d   1       1.581   2.916   0.868  0.00  0.00    -0.075 A 
ATOM      2  C4  UNL d   1       0.985   2.733  -0.389  0.00  0.00     0.002 A 
ATOM      3  C5  UNL d   1      -0.396   2.576  -0.502  0.00  0.00     0.002 A 
ATOM      4  C6  UNL d   1      -1.197   2.590   0.638  0.00  0.00    -0.004 A 
ATOM      5  C7  UNL d   1      -0.615   2.754   1.893  0.00  0.00     0.002 A 
ATOM      6  C8  UNL d   1       0.767   2.916   2.008  0.00  0.00     0.002 A 
ENDROOT
BRANCH   1   7
ATOM      7  C2  UNL d   1       3.072   3.116   0.994  0.00  0.00     0.056 C 
BRANCH   7   8
ATOM      8  C1  UNL d   1       3.889   1.828   0.843  0.00  0.00     0.007 C 
ATOM      9  C   UNL d   1       4.978   1.929  -0.216  0.00  0.00     0.009 C 
ENDBRANCH   7   8
ENDBRANCH   1   7
TORSDOF 2
ENDMDL
