MODEL 1
REMARK minimizedAffinity 0.830290139
REMARK minimizedRMSD -1
REMARK  2 active torsions:
REMARK  status: ('A' for Active; 'I' for Inactive)
REMARK    1  A    between atoms: C1_2  and  C2_3 
REMARK    2  A    between atoms: C2_3  and  C3_4 
ROOT
ATOM      1  C3  UNL d   1       1.303  -5.232  -2.588  0.00  0.00    -0.075 A 
ATOM      2  C4  UNL d   1       0.680  -5.615  -3.785  0.00  0.00     0.002 A 
ATOM      3  C5  UNL d   1       1.443  -5.999  -4.888  0.00  0.00     0.002 A 
ATOM      4  C6  UNL d   1       2.834  -5.995  -4.813  0.00  0.00    -0.004 A 
ATOM      5  C7  UNL d   1       3.463  -5.601  -3.634  0.00  0.00     0.002 A 
ATOM      6  C8  UNL d   1       2.702  -5.220  -2.527  0.00  0.00     0.002 A 
ENDROOT
BRANCH   1   7
ATOM      7  C2  UNL d   1       0.482  -4.843  -1.381  0.00  0.00     0.056 C 
BRANCH   7   8
ATOM      8  C1  UNL d   1       1.147  -5.178  -0.041  0.00  0.00     0.007 C 
ATOM      9  C   UNL d   1       0.481  -4.496   1.146  0.00  0.00     0.009 C 
ENDBRANCH   7   8
ENDBRANCH   1   7
TORSDOF 2
ENDMDL
