MODEL 1
REMARK minimizedAffinity 8.87199879
REMARK minimizedRMSD -1
REMARK  2 active torsions:
REMARK  status: ('A' for Active; 'I' for Inactive)
REMARK    1  A    between atoms: C1_2  and  C2_3 
REMARK    2  A    between atoms: C2_3  and  C3_4 
ROOT
ATOM      1  C3  UNL d   1       4.511   2.482  -3.657  0.00  0.00    -0.075 A 
ATOM      2  C4  UNL d   1       3.919   2.162  -4.887  0.00  0.00     0.002 A 
ATOM      3  C5  UNL d   1       4.113   2.982  -6.000  0.00  0.00     0.002 A 
ATOM      4  C6  UNL d   1       4.889   4.134  -5.894  0.00  0.00    -0.004 A 
ATOM      5  C7  UNL d   1       5.467   4.470  -4.672  0.00  0.00     0.002 A 
ATOM      6  C8  UNL d   1       5.280   3.649  -3.558  0.00  0.00     0.002 A 
ENDROOT
BRANCH   1   7
ATOM      7  C2  UNL d   1       4.330   1.583  -2.456  0.00  0.00     0.056 C 
BRANCH   7   8
ATOM      8  C1  UNL d   1       4.626   2.266  -1.116  0.00  0.00     0.007 C 
ATOM      9  C   UNL d   1       3.602   1.938  -0.037  0.00  0.00     0.009 C 
ENDBRANCH   7   8
ENDBRANCH   1   7
TORSDOF 2
ENDMDL
