MODEL 1
REMARK minimizedAffinity 5.26387167
REMARK minimizedRMSD -1
REMARK  2 active torsions:
REMARK  status: ('A' for Active; 'I' for Inactive)
REMARK    1  A    between atoms: C1_2  and  C2_3 
REMARK    2  A    between atoms: C2_3  and  C3_4 
ROOT
ATOM      1  C3  UNL d   1       2.895   1.706  -0.435  0.00  0.00    -0.075 A 
ATOM      2  C4  UNL d   1       3.980   1.411   0.403  0.00  0.00     0.002 A 
ATOM      3  C5  UNL d   1       3.779   1.161   1.761  0.00  0.00     0.002 A 
ATOM      4  C6  UNL d   1       2.496   1.212   2.299  0.00  0.00    -0.004 A 
ATOM      5  C7  UNL d   1       1.412   1.520   1.479  0.00  0.00     0.002 A 
ATOM      6  C8  UNL d   1       1.610   1.767   0.120  0.00  0.00     0.002 A 
ENDROOT
BRANCH   1   7
ATOM      7  C2  UNL d   1       3.102   1.948  -1.911  0.00  0.00     0.056 C 
BRANCH   7   8
ATOM      8  C1  UNL d   1       1.951   1.452  -2.792  0.00  0.00     0.007 C 
ATOM      9  C   UNL d   1       2.302   1.414  -4.273  0.00  0.00     0.009 C 
ENDBRANCH   7   8
ENDBRANCH   1   7
TORSDOF 2
ENDMDL
