MODEL 1
REMARK minimizedAffinity 1.0601958
REMARK minimizedRMSD -1
REMARK  2 active torsions:
REMARK  status: ('A' for Active; 'I' for Inactive)
REMARK    1  A    between atoms: C1_2  and  C2_3 
REMARK    2  A    between atoms: C2_3  and  C3_4 
ROOT
ATOM      1  C3  UNL d   1       3.508   2.871   1.095  0.00  0.00    -0.075 A 
ATOM      2  C4  UNL d   1       4.591   3.473   1.751  0.00  0.00     0.002 A 
ATOM      3  C5  UNL d   1       4.846   3.199   3.095  0.00  0.00     0.002 A 
ATOM      4  C6  UNL d   1       4.018   2.331   3.802  0.00  0.00    -0.004 A 
ATOM      5  C7  UNL d   1       2.929   1.740   3.164  0.00  0.00     0.002 A 
ATOM      6  C8  UNL d   1       2.674   2.008   1.818  0.00  0.00     0.002 A 
ENDROOT
BRANCH   1   7
ATOM      7  C2  UNL d   1       3.244   3.140  -0.367  0.00  0.00     0.056 C 
BRANCH   7   8
ATOM      8  C1  UNL d   1       4.492   3.054  -1.252  0.00  0.00     0.007 C 
ATOM      9  C   UNL d   1       4.178   2.699  -2.700  0.00  0.00     0.009 C 
ENDBRANCH   7   8
ENDBRANCH   1   7
TORSDOF 2
ENDMDL
