MODEL 1
REMARK minimizedAffinity -1.54932129
REMARK minimizedRMSD -1
REMARK  2 active torsions:
REMARK  status: ('A' for Active; 'I' for Inactive)
REMARK    1  A    between atoms: C1_2  and  C2_3 
REMARK    2  A    between atoms: C2_3  and  C3_4 
ROOT
ATOM      1  C3  UNL d   1       1.359   2.471   1.528  0.00  0.00    -0.075 A 
ATOM      2  C4  UNL d   1       0.110   1.981   1.935  0.00  0.00     0.002 A 
ATOM      3  C5  UNL d   1      -1.067   2.583   1.490  0.00  0.00     0.002 A 
ATOM      4  C6  UNL d   1      -1.011   3.687   0.642  0.00  0.00    -0.004 A 
ATOM      5  C7  UNL d   1       0.224   4.193   0.244  0.00  0.00     0.002 A 
ATOM      6  C8  UNL d   1       1.404   3.590   0.685  0.00  0.00     0.002 A 
ENDROOT
BRANCH   1   7
ATOM      7  C2  UNL d   1       2.636   1.806   1.982  0.00  0.00     0.056 C 
BRANCH   7   8
ATOM      8  C1  UNL d   1       3.586   2.736   2.745  0.00  0.00     0.007 C 
ATOM      9  C   UNL d   1       4.876   3.028   1.990  0.00  0.00     0.009 C 
ENDBRANCH   7   8
ENDBRANCH   1   7
TORSDOF 2
ENDMDL
