MODEL 1
REMARK minimizedAffinity 1.69552577
REMARK minimizedRMSD -1
REMARK  2 active torsions:
REMARK  status: ('A' for Active; 'I' for Inactive)
REMARK    1  A    between atoms: C1_2  and  C2_3 
REMARK    2  A    between atoms: C2_3  and  C3_4 
ROOT
ATOM      1  C3  UNL d   1       0.939   2.514   0.821  0.00  0.00    -0.075 A 
ATOM      2  C4  UNL d   1       1.167   1.199   0.390  0.00  0.00     0.002 A 
ATOM      3  C5  UNL d   1       2.458   0.670   0.383  0.00  0.00     0.002 A 
ATOM      4  C6  UNL d   1       3.536   1.451   0.796  0.00  0.00    -0.004 A 
ATOM      5  C7  UNL d   1       3.323   2.763   1.211  0.00  0.00     0.002 A 
ATOM      6  C8  UNL d   1       2.031   3.294   1.223  0.00  0.00     0.002 A 
ENDROOT
BRANCH   1   7
ATOM      7  C2  UNL d   1      -0.460   3.082   0.858  0.00  0.00     0.056 C 
BRANCH   7   8
ATOM      8  C1  UNL d   1      -1.368   2.581  -0.270  0.00  0.00     0.007 C 
ATOM      9  C   UNL d   1      -2.685   2.005   0.231  0.00  0.00     0.009 C 
ENDBRANCH   7   8
ENDBRANCH   1   7
TORSDOF 2
ENDMDL
