MODEL 1
REMARK minimizedAffinity 20.8976269
REMARK minimizedRMSD -1
REMARK  0 active torsions:
REMARK  status: ('A' for Active; 'I' for Inactive)
ROOT
ATOM      1  C1  DEN d   1      -3.601   0.634   3.531  0.00  0.00     0.130 A 
ATOM      2  C2  DEN d   1      -4.064   2.018   3.592  0.00  0.00    -0.031 A 
ATOM      3  C3  DEN d   1      -2.880   2.889   3.742  0.00  0.00     0.027 A 
ATOM      4  C4  DEN d   1      -0.390   2.233   3.880  0.00  0.00     0.027 A 
ATOM      5  C5  DEN d   1       0.494   1.176   3.885  0.00  0.00    -0.003 A 
ATOM      6  C6  DEN d   1       0.076  -0.126   3.807  0.00  0.00     0.001 A 
ATOM      7  C7  DEN d   1      -1.259  -0.403   3.675  0.00  0.00     0.017 A 
ATOM      8  C8  DEN d   1      -2.157   0.656   3.677  0.00  0.00    -0.094 A 
ATOM      9  C9  DEN d   1      -1.714   1.966   3.745  0.00  0.00    -0.072 A 
ENDROOT
TORSDOF 0
ENDMDL
