MODEL 1
REMARK minimizedAffinity 23.8661842
REMARK minimizedRMSD -1
REMARK  0 active torsions:
REMARK  status: ('A' for Active; 'I' for Inactive)
ROOT
ATOM      1  C1  DEN d   1      -0.493  -5.589  -3.887  0.00  0.00     0.130 A 
ATOM      2  C2  DEN d   1       0.398  -4.630  -4.534  0.00  0.00    -0.031 A 
ATOM      3  C3  DEN d   1      -0.170  -3.280  -4.346  0.00  0.00     0.027 A 
ATOM      4  C4  DEN d   1      -2.330  -2.585  -3.120  0.00  0.00     0.027 A 
ATOM      5  C5  DEN d   1      -3.423  -3.048  -2.421  0.00  0.00    -0.003 A 
ATOM      6  C6  DEN d   1      -3.632  -4.382  -2.194  0.00  0.00     0.001 A 
ATOM      7  C7  DEN d   1      -2.711  -5.298  -2.630  0.00  0.00     0.017 A 
ATOM      8  C8  DEN d   1      -1.610  -4.839  -3.341  0.00  0.00    -0.094 A 
ATOM      9  C9  DEN d   1      -1.410  -3.485  -3.551  0.00  0.00    -0.072 A 
ENDROOT
TORSDOF 0
ENDMDL
