MODEL 1
REMARK minimizedAffinity 16.8237476
REMARK minimizedRMSD -1
REMARK  0 active torsions:
REMARK  status: ('A' for Active; 'I' for Inactive)
ROOT
ATOM      1  C1  DEN d   1      -2.172  -2.673  -0.313  0.00  0.00     0.130 A 
ATOM      2  C2  DEN d   1      -1.073  -1.878   0.226  0.00  0.00    -0.031 A 
ATOM      3  C3  DEN d   1      -0.470  -2.630   1.344  0.00  0.00     0.027 A 
ATOM      4  C4  DEN d   1      -1.126  -4.940   2.286  0.00  0.00     0.027 A 
ATOM      5  C5  DEN d   1      -2.004  -5.994   2.164  0.00  0.00    -0.003 A 
ATOM      6  C6  DEN d   1      -3.013  -6.000   1.237  0.00  0.00     0.001 A 
ATOM      7  C7  DEN d   1      -3.141  -4.950   0.366  0.00  0.00     0.017 A 
ATOM      8  C8  DEN d   1      -2.264  -3.881   0.488  0.00  0.00    -0.094 A 
ATOM      9  C9  DEN d   1      -1.243  -3.899   1.423  0.00  0.00    -0.072 A 
ENDROOT
TORSDOF 0
ENDMDL
