MODEL 1
REMARK minimizedAffinity 13.8131924
REMARK minimizedRMSD -1
REMARK  0 active torsions:
REMARK  status: ('A' for Active; 'I' for Inactive)
ROOT
ATOM      1  C1  DEN d   1      -1.383  -2.177   0.522  0.00  0.00     0.130 A 
ATOM      2  C2  DEN d   1      -2.025  -3.253   1.272  0.00  0.00    -0.031 A 
ATOM      3  C3  DEN d   1      -1.786  -3.013   2.709  0.00  0.00     0.027 A 
ATOM      4  C4  DEN d   1      -0.495  -1.087   3.840  0.00  0.00     0.027 A 
ATOM      5  C5  DEN d   1       0.235   0.059   3.615  0.00  0.00    -0.003 A 
ATOM      6  C6  DEN d   1       0.504   0.518   2.353  0.00  0.00     0.001 A 
ATOM      7  C7  DEN d   1       0.001  -0.149   1.267  0.00  0.00     0.017 A 
ATOM      8  C8  DEN d   1      -0.730  -1.309   1.485  0.00  0.00    -0.094 A 
ATOM      9  C9  DEN d   1      -1.002  -1.749   2.770  0.00  0.00    -0.072 A 
ENDROOT
TORSDOF 0
ENDMDL
