MODEL 1
REMARK minimizedAffinity 14.6980801
REMARK minimizedRMSD -1
REMARK  0 active torsions:
REMARK  status: ('A' for Active; 'I' for Inactive)
ROOT
ATOM      1  C1  DEN d   1      -4.653   4.907   5.913  0.00  0.00     0.130 A 
ATOM      2  C2  DEN d   1      -5.585   6.000   5.645  0.00  0.00    -0.031 A 
ATOM      3  C3  DEN d   1      -6.000   5.909   4.231  0.00  0.00     0.027 A 
ATOM      4  C4  DEN d   1      -5.299   4.190   2.441  0.00  0.00     0.027 A 
ATOM      5  C5  DEN d   1      -4.518   3.082   2.194  0.00  0.00    -0.003 A 
ATOM      6  C6  DEN d   1      -3.709   2.530   3.151  0.00  0.00     0.001 A 
ATOM      7  C7  DEN d   1      -3.696   3.058   4.415  0.00  0.00     0.017 A 
ATOM      8  C8  DEN d   1      -4.474   4.179   4.670  0.00  0.00    -0.094 A 
ATOM      9  C9  DEN d   1      -5.295   4.715   3.693  0.00  0.00    -0.072 A 
ENDROOT
TORSDOF 0
ENDMDL
