MODEL 1
REMARK minimizedAffinity 19.6387234
REMARK minimizedRMSD -1
REMARK  0 active torsions:
REMARK  status: ('A' for Active; 'I' for Inactive)
ROOT
ATOM      1  C1  DEN d   1      -2.194  -3.726  -3.397  0.00  0.00     0.130 A 
ATOM      2  C2  DEN d   1      -1.383  -4.901  -3.089  0.00  0.00    -0.031 A 
ATOM      3  C3  DEN d   1      -2.293  -5.994  -2.695  0.00  0.00     0.027 A 
ATOM      4  C4  DEN d   1      -4.868  -5.984  -2.537  0.00  0.00     0.027 A 
ATOM      5  C5  DEN d   1      -5.999  -5.213  -2.690  0.00  0.00    -0.003 A 
ATOM      6  C6  DEN d   1      -5.939  -3.893  -3.053  0.00  0.00     0.001 A 
ATOM      7  C7  DEN d   1      -4.726  -3.317  -3.319  0.00  0.00     0.017 A 
ATOM      8  C8  DEN d   1      -3.580  -4.086  -3.161  0.00  0.00    -0.094 A 
ATOM      9  C9  DEN d   1      -3.662  -5.422  -2.805  0.00  0.00    -0.072 A 
ENDROOT
TORSDOF 0
ENDMDL
