MODEL 1
REMARK minimizedAffinity 12.1066504
REMARK minimizedRMSD -1
REMARK  0 active torsions:
REMARK  status: ('A' for Active; 'I' for Inactive)
ROOT
ATOM      1  C1  DEN d   1       1.070   2.585   0.910  0.00  0.00     0.130 A 
ATOM      2  C2  DEN d   1       0.410   1.706   1.871  0.00  0.00    -0.031 A 
ATOM      3  C3  DEN d   1       1.161   0.436   1.921  0.00  0.00     0.027 A 
ATOM      4  C4  DEN d   1       3.276  -0.250   0.614  0.00  0.00     0.027 A 
ATOM      5  C5  DEN d   1       4.195   0.157  -0.328  0.00  0.00    -0.003 A 
ATOM      6  C6  DEN d   1       4.118   1.379  -0.943  0.00  0.00     0.001 A 
ATOM      7  C7  DEN d   1       3.126   2.255  -0.590  0.00  0.00     0.017 A 
ATOM      8  C8  DEN d   1       2.191   1.849   0.353  0.00  0.00    -0.094 A 
ATOM      9  C9  DEN d   1       2.293   0.615   0.972  0.00  0.00    -0.072 A 
ENDROOT
TORSDOF 0
ENDMDL
