MODEL 1
REMARK minimizedAffinity 9.82697582
REMARK minimizedRMSD -1
REMARK  0 active torsions:
REMARK  status: ('A' for Active; 'I' for Inactive)
ROOT
ATOM      1  C1  DEN d   1       2.693  -0.472   0.379  0.00  0.00     0.130 A 
ATOM      2  C2  DEN d   1       3.309   0.218  -0.751  0.00  0.00    -0.031 A 
ATOM      3  C3  DEN d   1       2.866   1.626  -0.722  0.00  0.00     0.027 A 
ATOM      4  C4  DEN d   1       1.298   2.800   0.956  0.00  0.00     0.027 A 
ATOM      5  C5  DEN d   1       0.520   2.622   2.079  0.00  0.00    -0.003 A 
ATOM      6  C6  DEN d   1       0.385   1.403   2.689  0.00  0.00     0.001 A 
ATOM      7  C7  DEN d   1       1.075   0.323   2.205  0.00  0.00     0.017 A 
ATOM      8  C8  DEN d   1       1.856   0.493   1.069  0.00  0.00    -0.094 A 
ATOM      9  C9  DEN d   1       1.989   1.736   0.475  0.00  0.00    -0.072 A 
ENDROOT
TORSDOF 0
ENDMDL
