MODEL 1
REMARK minimizedAffinity 13.6344776
REMARK minimizedRMSD -1
REMARK  0 active torsions:
REMARK  status: ('A' for Active; 'I' for Inactive)
ROOT
ATOM      1  C1  DEN d   1       1.654   3.591  -3.910  0.00  0.00     0.130 A 
ATOM      2  C2  DEN d   1       1.506   4.483  -5.057  0.00  0.00    -0.031 A 
ATOM      3  C3  DEN d   1       2.822   4.602  -5.716  0.00  0.00     0.027 A 
ATOM      4  C4  DEN d   1       5.062   3.492  -5.079  0.00  0.00     0.027 A 
ATOM      5  C5  DEN d   1       5.685   2.660  -4.176  0.00  0.00    -0.003 A 
ATOM      6  C6  DEN d   1       5.022   2.111  -3.110  0.00  0.00     0.001 A 
ATOM      7  C7  DEN d   1       3.684   2.352  -2.946  0.00  0.00     0.017 A 
ATOM      8  C8  DEN d   1       3.050   3.196  -3.849  0.00  0.00    -0.094 A 
ATOM      9  C9  DEN d   1       3.734   3.732  -4.926  0.00  0.00    -0.072 A 
ENDROOT
TORSDOF 0
ENDMDL
