MODEL 1
REMARK minimizedAffinity 1.74121082
REMARK minimizedRMSD -1
REMARK  0 active torsions:
REMARK  status: ('A' for Active; 'I' for Inactive)
ROOT
ATOM      1  C1  DEN d   1       2.250   3.009  -5.225  0.00  0.00     0.130 A 
ATOM      2  C2  DEN d   1       1.394   4.121  -5.628  0.00  0.00    -0.031 A 
ATOM      3  C3  DEN d   1       2.263   5.256  -6.000  0.00  0.00     0.027 A 
ATOM      4  C4  DEN d   1       4.839   5.395  -5.996  0.00  0.00     0.027 A 
ATOM      5  C5  DEN d   1       6.000   4.707  -5.722  0.00  0.00    -0.003 A 
ATOM      6  C6  DEN d   1       5.992   3.427  -5.234  0.00  0.00     0.001 A 
ATOM      7  C7  DEN d   1       4.799   2.778  -5.049  0.00  0.00     0.017 A 
ATOM      8  C8  DEN d   1       3.624   3.468  -5.316  0.00  0.00    -0.094 A 
ATOM      9  C9  DEN d   1       3.653   4.758  -5.820  0.00  0.00    -0.072 A 
ENDROOT
TORSDOF 0
ENDMDL
