MODEL 1
REMARK minimizedAffinity -6.03109455
REMARK minimizedRMSD -1
REMARK  0 active torsions:
REMARK  status: ('A' for Active; 'I' for Inactive)
ROOT
ATOM      1  N1  IND d   1      -0.092   0.930   0.357  0.00  0.00    -0.196 N 
ATOM      2  C2  IND d   1      -0.960  -0.073   0.025  0.00  0.00     0.054 A 
ATOM      3  C3  IND d   1      -0.293  -1.238  -0.137  0.00  0.00    -0.031 A 
ATOM      4  C4  IND d   1       2.209  -1.750   0.192  0.00  0.00     0.051 A 
ATOM      5  C5  IND d   1       3.406  -1.146   0.458  0.00  0.00    -0.031 A 
ATOM      6  C6  IND d   1       3.500   0.207   0.713  0.00  0.00     0.015 A 
ATOM      7  C7  IND d   1       2.393   1.008   0.721  0.00  0.00    -0.016 A 
ATOM      8  C8  IND d   1       1.177   0.401   0.444  0.00  0.00    -0.047 A 
ATOM      9  C9  IND d   1       1.081  -0.964   0.143  0.00  0.00    -0.096 A 
ATOM     10  HN1 IND d   1      -0.303   1.753   0.489  0.00  0.00     0.298 HD
ENDROOT
TORSDOF 0
ENDMDL
