MODEL 1
REMARK minimizedAffinity -0.0139422659
REMARK minimizedRMSD -1
REMARK  0 active torsions:
REMARK  status: ('A' for Active; 'I' for Inactive)
ROOT
ATOM      1  N1  IND d   1      -0.550   0.800   0.053  0.00  0.00    -0.196 N 
ATOM      2  C2  IND d   1      -1.355  -0.275  -0.204  0.00  0.00     0.054 A 
ATOM      3  C3  IND d   1      -0.607  -1.373  -0.452  0.00  0.00    -0.031 A 
ATOM      4  C4  IND d   1       1.951  -1.658  -0.391  0.00  0.00     0.051 A 
ATOM      5  C5  IND d   1       3.110  -0.951  -0.240  0.00  0.00    -0.031 A 
ATOM      6  C6  IND d   1       3.109   0.404   0.025  0.00  0.00     0.015 A 
ATOM      7  C7  IND d   1       1.942   1.102   0.160  0.00  0.00    -0.016 A 
ATOM      8  C8  IND d   1       0.763   0.388  -0.000  0.00  0.00    -0.047 A 
ATOM      9  C9  IND d   1       0.759  -0.978  -0.311  0.00  0.00    -0.096 A 
ATOM     10  HN1 IND d   1      -0.819   1.600   0.219  0.00  0.00     0.298 HD
ENDROOT
TORSDOF 0
ENDMDL
