MODEL 1
REMARK minimizedAffinity -2.79509711
REMARK minimizedRMSD -1
REMARK  0 active torsions:
REMARK  status: ('A' for Active; 'I' for Inactive)
ROOT
ATOM      1  N1  IND d   1       1.881   1.896   0.257  0.00  0.00    -0.196 N 
ATOM      2  C2  IND d   1       2.505   0.993   1.072  0.00  0.00     0.054 A 
ATOM      3  C3  IND d   1       1.641   0.025   1.451  0.00  0.00    -0.031 A 
ATOM      4  C4  IND d   1      -0.817  -0.330   0.772  0.00  0.00     0.051 A 
ATOM      5  C5  IND d   1      -1.837   0.253   0.074  0.00  0.00    -0.031 A 
ATOM      6  C6  IND d   1      -1.665   1.437  -0.614  0.00  0.00     0.015 A 
ATOM      7  C7  IND d   1      -0.459   2.078  -0.640  0.00  0.00    -0.016 A 
ATOM      8  C8  IND d   1       0.577   1.491   0.073  0.00  0.00    -0.047 A 
ATOM      9  C9  IND d   1       0.398   0.313   0.809  0.00  0.00    -0.096 A 
ATOM     10  HN1 IND d   1       2.242   2.598  -0.083  0.00  0.00     0.298 HD
ENDROOT
TORSDOF 0
ENDMDL
