MODEL 1
REMARK minimizedAffinity -4.50760508
REMARK minimizedRMSD -1
REMARK  0 active torsions:
REMARK  status: ('A' for Active; 'I' for Inactive)
ROOT
ATOM      1  N1  IND d   1      -0.018   1.068  -0.623  0.00  0.00    -0.196 N 
ATOM      2  C2  IND d   1      -0.796   0.070  -1.139  0.00  0.00     0.054 A 
ATOM      3  C3  IND d   1      -0.184  -1.126  -0.995  0.00  0.00    -0.031 A 
ATOM      4  C4  IND d   1       2.051  -1.693   0.151  0.00  0.00     0.051 A 
ATOM      5  C5  IND d   1       3.137  -1.110   0.740  0.00  0.00    -0.031 A 
ATOM      6  C6  IND d   1       3.228   0.257   0.911  0.00  0.00     0.015 A 
ATOM      7  C7  IND d   1       2.226   1.093   0.508  0.00  0.00    -0.016 A 
ATOM      8  C8  IND d   1       1.125   0.505  -0.097  0.00  0.00    -0.047 A 
ATOM      9  C9  IND d   1       1.046  -0.877  -0.312  0.00  0.00    -0.096 A 
ATOM     10  HN1 IND d   1      -0.209   1.906  -0.625  0.00  0.00     0.298 HD
ENDROOT
TORSDOF 0
ENDMDL
