MODEL 1
REMARK minimizedAffinity -2.5087173
REMARK minimizedRMSD -1
REMARK  0 active torsions:
REMARK  status: ('A' for Active; 'I' for Inactive)
ROOT
ATOM      1  N1  IND d   1      -0.476   1.562  -0.427  0.00  0.00    -0.196 N 
ATOM      2  C2  IND d   1      -1.724   1.112  -0.096  0.00  0.00     0.054 A 
ATOM      3  C3  IND d   1      -1.682  -0.203   0.215  0.00  0.00    -0.031 A 
ATOM      4  C4  IND d   1       0.341  -1.789   0.347  0.00  0.00     0.051 A 
ATOM      5  C5  IND d   1       1.684  -1.846   0.099  0.00  0.00    -0.031 A 
ATOM      6  C6  IND d   1       2.390  -0.746  -0.344  0.00  0.00     0.015 A 
ATOM      7  C7  IND d   1       1.779   0.459  -0.545  0.00  0.00    -0.016 A 
ATOM      8  C8  IND d   1       0.414   0.519  -0.300  0.00  0.00    -0.047 A 
ATOM      9  C9  IND d   1      -0.316  -0.605   0.108  0.00  0.00    -0.096 A 
ATOM     10  HN1 IND d   1      -0.280   2.362  -0.674  0.00  0.00     0.298 HD
ENDROOT
TORSDOF 0
ENDMDL
