MODEL 1
REMARK minimizedAffinity -6.00421667
REMARK minimizedRMSD -1
REMARK  0 active torsions:
REMARK  status: ('A' for Active; 'I' for Inactive)
ROOT
ATOM      1  N1  IND d   1       0.152   0.915  -0.807  0.00  0.00    -0.196 N 
ATOM      2  C2  IND d   1      -0.579  -0.194  -1.132  0.00  0.00     0.054 A 
ATOM      3  C3  IND d   1       0.133  -1.316  -0.883  0.00  0.00    -0.031 A 
ATOM      4  C4  IND d   1       2.477  -1.570   0.151  0.00  0.00     0.051 A 
ATOM      5  C5  IND d   1       3.552  -0.840   0.577  0.00  0.00    -0.031 A 
ATOM      6  C6  IND d   1       3.547   0.539   0.565  0.00  0.00     0.015 A 
ATOM      7  C7  IND d   1       2.458   1.244   0.136  0.00  0.00    -0.016 A 
ATOM      8  C8  IND d   1       1.368   0.507  -0.304  0.00  0.00    -0.047 A 
ATOM      9  C9  IND d   1       1.383  -0.894  -0.334  0.00  0.00    -0.096 A 
ATOM     10  HN1 IND d   1      -0.104   1.730  -0.902  0.00  0.00     0.298 HD
ENDROOT
TORSDOF 0
ENDMDL
