MODEL 1
REMARK minimizedAffinity -6.18300104
REMARK minimizedRMSD -1
REMARK  0 active torsions:
REMARK  status: ('A' for Active; 'I' for Inactive)
ROOT
ATOM      1  N1  IND d   1       0.338   1.291  -0.632  0.00  0.00    -0.196 N 
ATOM      2  C2  IND d   1      -0.489   0.215  -0.795  0.00  0.00     0.054 A 
ATOM      3  C3  IND d   1       0.149  -0.925  -0.446  0.00  0.00    -0.031 A 
ATOM      4  C4  IND d   1       2.515  -1.247   0.516  0.00  0.00     0.051 A 
ATOM      5  C5  IND d   1       3.661  -0.562   0.810  0.00  0.00    -0.031 A 
ATOM      6  C6  IND d   1       3.759   0.804   0.637  0.00  0.00     0.015 A 
ATOM      7  C7  IND d   1       2.706   1.540   0.173  0.00  0.00    -0.016 A 
ATOM      8  C8  IND d   1       1.543   0.847  -0.133  0.00  0.00    -0.047 A 
ATOM      9  C9  IND d   1       1.452  -0.545  -0.000  0.00  0.00    -0.096 A 
ATOM     10  HN1 IND d   1       0.139   2.108  -0.810  0.00  0.00     0.298 HD
ENDROOT
TORSDOF 0
ENDMDL
