MODEL 1
REMARK minimizedAffinity -3.65949512
REMARK minimizedRMSD -1
REMARK  0 active torsions:
REMARK  status: ('A' for Active; 'I' for Inactive)
ROOT
ATOM      1  N1  IND d   1       1.253   1.731   0.034  0.00  0.00    -0.196 N 
ATOM      2  C2  IND d   1       2.618   1.662   0.045  0.00  0.00     0.054 A 
ATOM      3  C3  IND d   1       3.024   0.373  -0.005  0.00  0.00    -0.031 A 
ATOM      4  C4  IND d   1       1.623  -1.777  -0.212  0.00  0.00     0.051 A 
ATOM      5  C5  IND d   1       0.332  -2.224  -0.222  0.00  0.00    -0.031 A 
ATOM      6  C6  IND d   1      -0.740  -1.359  -0.149  0.00  0.00     0.015 A 
ATOM      7  C7  IND d   1      -0.560  -0.006  -0.073  0.00  0.00    -0.016 A 
ATOM      8  C8  IND d   1       0.750   0.451  -0.056  0.00  0.00    -0.047 A 
ATOM      9  C9  IND d   1       1.842  -0.425  -0.088  0.00  0.00    -0.096 A 
ATOM     10  HN1 IND d   1       0.786   2.452   0.076  0.00  0.00     0.298 HD
ENDROOT
TORSDOF 0
ENDMDL
