MODEL 1
REMARK minimizedAffinity -4.47649813
REMARK minimizedRMSD -1
REMARK  0 active torsions:
REMARK  status: ('A' for Active; 'I' for Inactive)
ROOT
ATOM      1  C2' OXE d   1      -0.025  -2.837   0.356  0.00  0.00     0.078 C 
ATOM      2  C1' OXE d   1       0.890  -1.732  -2.057  0.00  0.00     0.078 C 
ATOM      3  C1  OXE d   1       0.243  -0.804  -1.059  0.00  0.00    -0.078 A 
ATOM      4  C2  OXE d   1      -0.244  -1.362   0.099  0.00  0.00    -0.078 A 
ATOM      5  C3  OXE d   1      -0.801  -0.543   1.077  0.00  0.00     0.003 A 
ATOM      6  C4  OXE d   1      -1.008   0.819   0.828  0.00  0.00    -0.002 A 
ATOM      7  C5  OXE d   1      -0.556   1.400  -0.362  0.00  0.00    -0.002 A 
ATOM      8  C6  OXE d   1       0.108   0.612  -1.295  0.00  0.00     0.003 A 
ENDROOT
TORSDOF 0
ENDMDL
