MODEL 1
REMARK minimizedAffinity -3.02885079
REMARK minimizedRMSD -1
REMARK  0 active torsions:
REMARK  status: ('A' for Active; 'I' for Inactive)
ROOT
ATOM      1  C2' OXE d   1       0.475   0.564  -1.205  0.00  0.00     0.078 C 
ATOM      2  C1' OXE d   1      -1.358   0.094   0.868  0.00  0.00     0.078 C 
ATOM      3  C1  OXE d   1      -0.462  -1.045   0.449  0.00  0.00    -0.078 A 
ATOM      4  C2  OXE d   1       0.399  -0.820  -0.597  0.00  0.00    -0.078 A 
ATOM      5  C3  OXE d   1       1.286  -1.819  -0.987  0.00  0.00     0.003 A 
ATOM      6  C4  OXE d   1       1.202  -3.099  -0.427  0.00  0.00    -0.002 A 
ATOM      7  C5  OXE d   1       0.305  -3.362   0.614  0.00  0.00    -0.002 A 
ATOM      8  C6  OXE d   1      -0.503  -2.336   1.091  0.00  0.00     0.003 A 
ENDROOT
TORSDOF 0
ENDMDL
