MODEL 1
REMARK minimizedAffinity -2.01892066
REMARK minimizedRMSD -1
REMARK  0 active torsions:
REMARK  status: ('A' for Active; 'I' for Inactive)
ROOT
ATOM      1  C2' OXE d   1      -1.747   0.486   2.055  0.00  0.00     0.078 C 
ATOM      2  C1' OXE d   1      -0.312   1.855   0.069  0.00  0.00     0.078 C 
ATOM      3  C1  OXE d   1      -0.318   0.348   0.019  0.00  0.00    -0.078 A 
ATOM      4  C2  OXE d   1      -0.984  -0.315   1.022  0.00  0.00    -0.078 A 
ATOM      5  C3  OXE d   1      -1.067  -1.704   0.993  0.00  0.00     0.003 A 
ATOM      6  C4  OXE d   1      -0.350  -2.437   0.039  0.00  0.00    -0.002 A 
ATOM      7  C5  OXE d   1       0.367  -1.783  -0.968  0.00  0.00    -0.002 A 
ATOM      8  C6  OXE d   1       0.358  -0.393  -1.017  0.00  0.00     0.003 A 
ENDROOT
TORSDOF 0
ENDMDL
