MODEL 1
REMARK minimizedAffinity -3.82923436
REMARK minimizedRMSD -1
REMARK  0 active torsions:
REMARK  status: ('A' for Active; 'I' for Inactive)
ROOT
ATOM      1  C2' OXE d   1      -0.011   1.437  -0.658  0.00  0.00     0.078 C 
ATOM      2  C1' OXE d   1       0.853  -0.646  -2.329  0.00  0.00     0.078 C 
ATOM      3  C1  OXE d   1       0.343  -1.011  -0.957  0.00  0.00    -0.078 A 
ATOM      4  C2  OXE d   1      -0.033   0.019  -0.129  0.00  0.00    -0.078 A 
ATOM      5  C3  OXE d   1      -0.562  -0.265   1.127  0.00  0.00     0.003 A 
ATOM      6  C4  OXE d   1      -0.571  -1.578   1.612  0.00  0.00    -0.002 A 
ATOM      7  C5  OXE d   1      -0.154  -2.638   0.800  0.00  0.00    -0.002 A 
ATOM      8  C6  OXE d   1       0.264  -2.376  -0.500  0.00  0.00     0.003 A 
ENDROOT
TORSDOF 0
ENDMDL
