MODEL 1
REMARK minimizedAffinity -2.89590931
REMARK minimizedRMSD -1
REMARK  0 active torsions:
REMARK  status: ('A' for Active; 'I' for Inactive)
ROOT
ATOM      1  C2' OXE d   1      -0.706   1.825  -1.347  0.00  0.00     0.078 C 
ATOM      2  C1' OXE d   1       0.517  -0.152   0.227  0.00  0.00     0.078 C 
ATOM      3  C1  OXE d   1       0.874   1.287   0.502  0.00  0.00    -0.078 A 
ATOM      4  C2  OXE d   1       0.306   2.244  -0.303  0.00  0.00    -0.078 A 
ATOM      5  C3  OXE d   1       0.560   3.591  -0.057  0.00  0.00     0.003 A 
ATOM      6  C4  OXE d   1       1.505   3.970   0.904  0.00  0.00    -0.002 A 
ATOM      7  C5  OXE d   1       2.125   3.008   1.709  0.00  0.00    -0.002 A 
ATOM      8  C6  OXE d   1       1.789   1.668   1.550  0.00  0.00     0.003 A 
ENDROOT
TORSDOF 0
ENDMDL
