MODEL 1
REMARK minimizedAffinity -2.31028938
REMARK minimizedRMSD -1
REMARK  0 active torsions:
REMARK  status: ('A' for Active; 'I' for Inactive)
ROOT
ATOM      1  C2' OXE d   1      -1.517  -0.254   2.132  0.00  0.00     0.078 C 
ATOM      2  C1' OXE d   1      -0.606  -2.434   0.616  0.00  0.00     0.078 C 
ATOM      3  C1  OXE d   1      -0.381  -1.049   0.063  0.00  0.00    -0.078 A 
ATOM      4  C2  OXE d   1      -0.871   0.009   0.789  0.00  0.00    -0.078 A 
ATOM      5  C3  OXE d   1      -0.643   1.311   0.351  0.00  0.00     0.003 A 
ATOM      6  C4  OXE d   1      -0.053   1.546  -0.897  0.00  0.00    -0.002 A 
ATOM      7  C5  OXE d   1       0.418   0.480  -1.671  0.00  0.00    -0.002 A 
ATOM      8  C6  OXE d   1       0.301  -0.818  -1.187  0.00  0.00     0.003 A 
ENDROOT
TORSDOF 0
ENDMDL
