MODEL 1
REMARK minimizedAffinity -2.56317186
REMARK minimizedRMSD -1
REMARK  0 active torsions:
REMARK  status: ('A' for Active; 'I' for Inactive)
ROOT
ATOM      1  C2' OXE d   1      -1.893   0.018   1.709  0.00  0.00     0.078 C 
ATOM      2  C1' OXE d   1       0.274   1.018   0.232  0.00  0.00     0.078 C 
ATOM      3  C1  OXE d   1      -0.017  -0.459   0.141  0.00  0.00    -0.078 A 
ATOM      4  C2  OXE d   1      -1.051  -0.947   0.903  0.00  0.00    -0.078 A 
ATOM      5  C3  OXE d   1      -1.397  -2.293   0.814  0.00  0.00     0.003 A 
ATOM      6  C4  OXE d   1      -0.606  -3.181   0.074  0.00  0.00    -0.002 A 
ATOM      7  C5  OXE d   1       0.475  -2.710  -0.679  0.00  0.00    -0.002 A 
ATOM      8  C6  OXE d   1       0.756  -1.348  -0.690  0.00  0.00     0.003 A 
ENDROOT
TORSDOF 0
ENDMDL
