MODEL 1
REMARK minimizedAffinity -3.79673481
REMARK minimizedRMSD -1
REMARK  0 active torsions:
REMARK  status: ('A' for Active; 'I' for Inactive)
ROOT
ATOM      1  C2' OXE d   1      -1.822  -0.038   1.129  0.00  0.00     0.078 C 
ATOM      2  C1' OXE d   1       0.114   0.845  -0.702  0.00  0.00     0.078 C 
ATOM      3  C1  OXE d   1       0.171  -0.595  -0.257  0.00  0.00    -0.078 A 
ATOM      4  C2  OXE d   1      -0.752  -1.006   0.675  0.00  0.00    -0.078 A 
ATOM      5  C3  OXE d   1      -0.778  -2.338   1.079  0.00  0.00     0.003 A 
ATOM      6  C4  OXE d   1       0.223  -3.225   0.662  0.00  0.00    -0.002 A 
ATOM      7  C5  OXE d   1       1.196  -2.816  -0.256  0.00  0.00    -0.002 A 
ATOM      8  C6  OXE d   1       1.159  -1.519  -0.757  0.00  0.00     0.003 A 
ENDROOT
TORSDOF 0
ENDMDL
