MODEL 1
REMARK minimizedAffinity -4.25465298
REMARK minimizedRMSD -1
REMARK  0 active torsions:
REMARK  status: ('A' for Active; 'I' for Inactive)
ROOT
ATOM      1  C2' OXE d   1       0.946  -1.649  -1.790  0.00  0.00     0.078 C 
ATOM      2  C1' OXE d   1      -0.232  -2.788   0.489  0.00  0.00     0.078 C 
ATOM      3  C1  OXE d   1       0.001  -1.298   0.488  0.00  0.00    -0.078 A 
ATOM      4  C2  OXE d   1       0.620  -0.755  -0.612  0.00  0.00    -0.078 A 
ATOM      5  C3  OXE d   1       0.809   0.621  -0.688  0.00  0.00     0.003 A 
ATOM      6  C4  OXE d   1       0.514   1.439   0.409  0.00  0.00    -0.002 A 
ATOM      7  C5  OXE d   1      -0.081   0.901   1.556  0.00  0.00    -0.002 A 
ATOM      8  C6  OXE d   1      -0.382  -0.455   1.594  0.00  0.00     0.003 A 
ENDROOT
TORSDOF 0
ENDMDL
