MODEL 1
REMARK minimizedAffinity -4.30654669
REMARK minimizedRMSD -1
REMARK  0 active torsions:
REMARK  status: ('A' for Active; 'I' for Inactive)
ROOT
ATOM      1  C2' OXE d   1      -0.843  -1.046   1.887  0.00  0.00     0.078 C 
ATOM      2  C1' OXE d   1       0.076  -3.297   0.484  0.00  0.00     0.078 C 
ATOM      3  C1  OXE d   1       0.083  -1.970  -0.233  0.00  0.00    -0.078 A 
ATOM      4  C2  OXE d   1      -0.412  -0.883   0.445  0.00  0.00    -0.078 A 
ATOM      5  C3  OXE d   1      -0.378   0.375  -0.150  0.00  0.00     0.003 A 
ATOM      6  C4  OXE d   1       0.012   0.516  -1.488  0.00  0.00    -0.002 A 
ATOM      7  C5  OXE d   1       0.483  -0.586  -2.210  0.00  0.00    -0.002 A 
ATOM      8  C6  OXE d   1       0.564  -1.826  -1.585  0.00  0.00     0.003 A 
ENDROOT
TORSDOF 0
ENDMDL
