MODEL 1
REMARK minimizedAffinity -4.74815226
REMARK minimizedRMSD -1
REMARK  0 active torsions:
REMARK  status: ('A' for Active; 'I' for Inactive)
ROOT
ATOM      1  C2' OXE d   1      -1.368  -0.464   2.050  0.00  0.00     0.078 C 
ATOM      2  C1' OXE d   1      -0.142  -2.764   1.009  0.00  0.00     0.078 C 
ATOM      3  C1  OXE d   1      -0.044  -1.491   0.207  0.00  0.00    -0.078 A 
ATOM      4  C2  OXE d   1      -0.686  -0.381   0.702  0.00  0.00    -0.078 A 
ATOM      5  C3  OXE d   1      -0.581   0.833   0.029  0.00  0.00     0.003 A 
ATOM      6  C4  OXE d   1       0.042   0.899  -1.223  0.00  0.00    -0.002 A 
ATOM      7  C5  OXE d   1       0.669  -0.229  -1.764  0.00  0.00    -0.002 A 
ATOM      8  C6  OXE d   1       0.672  -1.418  -1.043  0.00  0.00     0.003 A 
ENDROOT
TORSDOF 0
ENDMDL
