MODEL 1
REMARK minimizedAffinity -3.58537197
REMARK minimizedRMSD -1
REMARK  0 active torsions:
REMARK  status: ('A' for Active; 'I' for Inactive)
ROOT
ATOM      1  C2' OXE d   1       0.863  -1.591  -2.215  0.00  0.00     0.078 C 
ATOM      2  C1' OXE d   1      -0.352  -2.909  -0.055  0.00  0.00     0.078 C 
ATOM      3  C1  OXE d   1      -0.323  -1.402  -0.032  0.00  0.00    -0.078 A 
ATOM      4  C2  OXE d   1       0.315  -0.766  -1.070  0.00  0.00    -0.078 A 
ATOM      5  C3  OXE d   1       0.323   0.625  -1.126  0.00  0.00     0.003 A 
ATOM      6  C4  OXE d   1      -0.177   1.380  -0.058  0.00  0.00    -0.002 A 
ATOM      7  C5  OXE d   1      -0.795   0.751   1.028  0.00  0.00    -0.002 A 
ATOM      8  C6  OXE d   1      -0.914  -0.634   1.036  0.00  0.00     0.003 A 
ENDROOT
TORSDOF 0
ENDMDL
