MODEL 1
REMARK minimizedAffinity -2.83627796
REMARK minimizedRMSD -1
REMARK  0 active torsions:
REMARK  status: ('A' for Active; 'I' for Inactive)
ROOT
ATOM      1  C2' OXE d   1       1.192  -1.567  -2.029  0.00  0.00     0.078 C 
ATOM      2  C1' OXE d   1       0.113  -3.439  -0.237  0.00  0.00     0.078 C 
ATOM      3  C1  OXE d   1      -0.237  -1.986  -0.032  0.00  0.00    -0.078 A 
ATOM      4  C2  OXE d   1       0.333  -1.072  -0.885  0.00  0.00    -0.078 A 
ATOM      5  C3  OXE d   1       0.001   0.275  -0.774  0.00  0.00     0.003 A 
ATOM      6  C4  OXE d   1      -0.786   0.726   0.292  0.00  0.00    -0.002 A 
ATOM      7  C5  OXE d   1      -1.345  -0.184   1.196  0.00  0.00    -0.002 A 
ATOM      8  C6  OXE d   1      -1.115  -1.545   1.023  0.00  0.00     0.003 A 
ENDROOT
TORSDOF 0
ENDMDL
