MODEL 1
REMARK minimizedAffinity -4.37211514
REMARK minimizedRMSD -1
REMARK  0 active torsions:
REMARK  status: ('A' for Active; 'I' for Inactive)
ROOT
ATOM      1  C2' OXE d   1       0.874  -0.842  -1.670  0.00  0.00     0.078 C 
ATOM      2  C1' OXE d   1       0.386   1.515  -0.225  0.00  0.00     0.078 C 
ATOM      3  C1  OXE d   1      -0.026   0.207   0.403  0.00  0.00    -0.078 A 
ATOM      4  C2  OXE d   1       0.174  -0.938  -0.331  0.00  0.00    -0.078 A 
ATOM      5  C3  OXE d   1      -0.139  -2.176   0.223  0.00  0.00     0.003 A 
ATOM      6  C4  OXE d   1      -0.795  -2.254   1.458  0.00  0.00    -0.002 A 
ATOM      7  C5  OXE d   1      -1.044  -1.098   2.204  0.00  0.00    -0.002 A 
ATOM      8  C6  OXE d   1      -0.628   0.134   1.711  0.00  0.00     0.003 A 
ENDROOT
TORSDOF 0
ENDMDL
