MODEL 1
REMARK minimizedAffinity -4.89509249
REMARK minimizedRMSD -1
REMARK  0 active torsions:
REMARK  status: ('A' for Active; 'I' for Inactive)
ROOT
ATOM      1  C2' OXE d   1       1.209  -1.788  -1.847  0.00  0.00     0.078 C 
ATOM      2  C1' OXE d   1       0.289  -3.815  -0.137  0.00  0.00     0.078 C 
ATOM      3  C1  OXE d   1      -0.051  -2.389   0.215  0.00  0.00    -0.078 A 
ATOM      4  C2  OXE d   1       0.442  -1.400  -0.601  0.00  0.00    -0.078 A 
ATOM      5  C3  OXE d   1       0.112  -0.071  -0.352  0.00  0.00     0.003 A 
ATOM      6  C4  OXE d   1      -0.589   0.279   0.808  0.00  0.00    -0.002 A 
ATOM      7  C5  OXE d   1      -1.067  -0.709   1.674  0.00  0.00    -0.002 A 
ATOM      8  C6  OXE d   1      -0.844  -2.048   1.371  0.00  0.00     0.003 A 
ENDROOT
TORSDOF 0
ENDMDL
