MODEL 1
REMARK minimizedAffinity -1.07902086
REMARK minimizedRMSD -1
REMARK  0 active torsions:
REMARK  status: ('A' for Active; 'I' for Inactive)
ROOT
ATOM      1  C2' OXE d   1      -2.015  -0.268   1.022  0.00  0.00     0.078 C 
ATOM      2  C1' OXE d   1       0.249   0.657  -0.355  0.00  0.00     0.078 C 
ATOM      3  C1  OXE d   1       0.185  -0.810  -0.013  0.00  0.00    -0.078 A 
ATOM      4  C2  OXE d   1      -0.905  -1.245   0.702  0.00  0.00    -0.078 A 
ATOM      5  C3  OXE d   1      -1.040  -2.599   0.996  0.00  0.00     0.003 A 
ATOM      6  C4  OXE d   1      -0.004  -3.495   0.705  0.00  0.00    -0.002 A 
ATOM      7  C5  OXE d   1       1.133  -3.065   0.013  0.00  0.00    -0.002 A 
ATOM      8  C6  OXE d   1       1.223  -1.737  -0.390  0.00  0.00     0.003 A 
ENDROOT
TORSDOF 0
ENDMDL
