MODEL 1
REMARK minimizedAffinity -1.56368601
REMARK minimizedRMSD -1
REMARK  0 active torsions:
REMARK  status: ('A' for Active; 'I' for Inactive)
ROOT
ATOM      1  C2' OXE d   1      -1.116  -0.460   1.859  0.00  0.00     0.078 C 
ATOM      2  C1' OXE d   1      -0.875  -2.875   0.448  0.00  0.00     0.078 C 
ATOM      3  C1  OXE d   1      -0.510  -1.601  -0.271  0.00  0.00    -0.078 A 
ATOM      4  C2  OXE d   1      -0.675  -0.420   0.412  0.00  0.00    -0.078 A 
ATOM      5  C3  OXE d   1      -0.302   0.780  -0.186  0.00  0.00     0.003 A 
ATOM      6  C4  OXE d   1       0.095   0.810  -1.529  0.00  0.00    -0.002 A 
ATOM      7  C5  OXE d   1       0.233  -0.378  -2.255  0.00  0.00    -0.002 A 
ATOM      8  C6  OXE d   1      -0.024  -1.592  -1.629  0.00  0.00     0.003 A 
ENDROOT
TORSDOF 0
ENDMDL
