MODEL 1
REMARK minimizedAffinity -3.4613471
REMARK minimizedRMSD -1
REMARK  0 active torsions:
REMARK  status: ('A' for Active; 'I' for Inactive)
ROOT
ATOM      1  C2' OXE d   1       0.252  -3.039   0.087  0.00  0.00     0.078 C 
ATOM      2  C1' OXE d   1      -1.618  -1.985   1.897  0.00  0.00     0.078 C 
ATOM      3  C1  OXE d   1      -0.971  -1.035   0.920  0.00  0.00    -0.078 A 
ATOM      4  C2  OXE d   1      -0.023  -1.551   0.070  0.00  0.00    -0.078 A 
ATOM      5  C3  OXE d   1       0.565  -0.729  -0.888  0.00  0.00     0.003 A 
ATOM      6  C4  OXE d   1       0.313   0.648  -0.891  0.00  0.00    -0.002 A 
ATOM      7  C5  OXE d   1      -0.620   1.201  -0.007  0.00  0.00    -0.002 A 
ATOM      8  C6  OXE d   1      -1.300   0.368   0.875  0.00  0.00     0.003 A 
ENDROOT
TORSDOF 0
ENDMDL
