MODEL 1
REMARK minimizedAffinity -3.0483427
REMARK minimizedRMSD -1
REMARK  0 active torsions:
REMARK  status: ('A' for Active; 'I' for Inactive)
ROOT
ATOM      1  C2' OXE d   1       1.347  -1.860  -1.946  0.00  0.00     0.078 C 
ATOM      2  C1' OXE d   1       0.153  -3.041   0.304  0.00  0.00     0.078 C 
ATOM      3  C1  OXE d   1       0.062  -1.542   0.165  0.00  0.00    -0.078 A 
ATOM      4  C2  OXE d   1       0.690  -0.968  -0.915  0.00  0.00    -0.078 A 
ATOM      5  C3  OXE d   1       0.590   0.405  -1.120  0.00  0.00     0.003 A 
ATOM      6  C4  OXE d   1      -0.011   1.224  -0.156  0.00  0.00    -0.002 A 
ATOM      7  C5  OXE d   1      -0.621   0.663   0.971  0.00  0.00    -0.002 A 
ATOM      8  C6  OXE d   1      -0.631  -0.719   1.125  0.00  0.00     0.003 A 
ENDROOT
TORSDOF 0
ENDMDL
