MODEL 1
REMARK minimizedAffinity 2.77436543
REMARK minimizedRMSD -1
REMARK  0 active torsions:
REMARK  status: ('A' for Active; 'I' for Inactive)
ROOT
ATOM      1  C   UNL d   1       1.163  -3.004   3.910  0.00  0.00     0.023 A 
ATOM      2  C1  UNL d   1       1.799  -1.869   3.406  0.00  0.00     0.003 A 
ATOM      3  C2  UNL d   1       3.187  -1.747   3.496  0.00  0.00     0.048 A 
ATOM      4  C3  UNL d   1       3.934  -2.764   4.090  0.00  0.00     0.023 A 
ATOM      5  C4  UNL d   1       3.302  -3.902   4.595  0.00  0.00     0.048 A 
ATOM      6  C5  UNL d   1       1.914  -4.019   4.504  0.00  0.00     0.003 A 
ATOM      7  I   UNL d   1       6.000  -2.585   4.225  0.00  0.00    -0.146 I 
ENDROOT
TORSDOF 0
ENDMDL
