MODEL 1
REMARK minimizedAffinity 2.18178272
REMARK minimizedRMSD -1
REMARK  0 active torsions:
REMARK  status: ('A' for Active; 'I' for Inactive)
ROOT
ATOM      1  C   UNL d   1       1.020   1.355   0.009  0.00  0.00     0.023 A 
ATOM      2  C1  UNL d   1       0.170   0.273   0.235  0.00  0.00     0.003 A 
ATOM      3  C2  UNL d   1       0.424  -0.608   1.289  0.00  0.00     0.048 A 
ATOM      4  C3  UNL d   1       1.530  -0.399   2.113  0.00  0.00     0.023 A 
ATOM      5  C4  UNL d   1       2.383   0.683   1.890  0.00  0.00     0.048 A 
ATOM      6  C5  UNL d   1       2.125   1.560   0.835  0.00  0.00     0.003 A 
ATOM      7  I   UNL d   1       1.910  -1.708   3.682  0.00  0.00    -0.146 I 
ENDROOT
TORSDOF 0
ENDMDL
