MODEL 1
REMARK minimizedAffinity 5.93132019
REMARK minimizedRMSD -1
REMARK  0 active torsions:
REMARK  status: ('A' for Active; 'I' for Inactive)
ROOT
ATOM      1  C   UNL d   1      -0.522  -3.804  -0.239  0.00  0.00     0.023 A 
ATOM      2  C1  UNL d   1      -0.184  -3.220   0.982  0.00  0.00     0.003 A 
ATOM      3  C2  UNL d   1      -0.283  -1.837   1.148  0.00  0.00     0.048 A 
ATOM      4  C3  UNL d   1      -0.721  -1.044   0.088  0.00  0.00     0.023 A 
ATOM      5  C4  UNL d   1      -1.061  -1.623  -1.136  0.00  0.00     0.048 A 
ATOM      6  C5  UNL d   1      -0.960  -3.007  -1.297  0.00  0.00     0.003 A 
ATOM      7  I   UNL d   1      -0.869   1.015   0.332  0.00  0.00    -0.146 I 
ENDROOT
TORSDOF 0
ENDMDL
