MODEL 1
REMARK minimizedAffinity 1.34000623
REMARK minimizedRMSD -1
REMARK  0 active torsions:
REMARK  status: ('A' for Active; 'I' for Inactive)
ROOT
ATOM      1  C   UNL d   1       1.133  -3.466   4.112  0.00  0.00     0.023 A 
ATOM      2  C1  UNL d   1       0.752  -2.891   2.900  0.00  0.00     0.003 A 
ATOM      3  C2  UNL d   1       1.090  -1.566   2.617  0.00  0.00     0.048 A 
ATOM      4  C3  UNL d   1       1.810  -0.822   3.551  0.00  0.00     0.023 A 
ATOM      5  C4  UNL d   1       2.194  -1.393   4.765  0.00  0.00     0.048 A 
ATOM      6  C5  UNL d   1       1.853  -2.718   5.044  0.00  0.00     0.003 A 
ATOM      7  I   UNL d   1       2.315   1.150   3.133  0.00  0.00    -0.146 I 
ENDROOT
TORSDOF 0
ENDMDL
