MODEL 1
REMARK minimizedAffinity -1.04076898
REMARK minimizedRMSD -1
REMARK  3 active torsions:
REMARK  status: ('A' for Active; 'I' for Inactive)
REMARK    1  A    between atoms: C3'_2  and  C2'_3 
REMARK    2  A    between atoms: C2'_3  and  C1'_4 
REMARK    3  A    between atoms: C1'_4  and  C1_5 
ROOT
ATOM      1  C1  N4B d   1      -0.538  -0.778  -0.075  0.00  0.00    -0.075 A 
ATOM      2  C2  N4B d   1       0.601  -0.044  -0.473  0.00  0.00     0.002 A 
ATOM      3  C3  N4B d   1       0.744   1.265  -0.086  0.00  0.00     0.002 A 
ATOM      4  C4  N4B d   1      -0.243   1.866   0.681  0.00  0.00    -0.004 A 
ATOM      5  C5  N4B d   1      -1.328   1.143   1.083  0.00  0.00     0.002 A 
ATOM      6  C6  N4B d   1      -1.483  -0.176   0.705  0.00  0.00     0.002 A 
ENDROOT
BRANCH   1   7
ATOM      7  C1' N4B d   1      -0.781  -2.186  -0.545  0.00  0.00     0.057 C 
BRANCH   7   8
ATOM      8  C2' N4B d   1      -1.753  -2.161  -1.720  0.00  0.00     0.009 C 
BRANCH   8   9
ATOM      9  C3' N4B d   1      -1.193  -2.878  -2.937  0.00  0.00     0.004 C 
ATOM     10  C4' N4B d   1       0.276  -2.645  -3.123  0.00  0.00     0.003 C 
ENDBRANCH   8   9
ENDBRANCH   7   8
ENDBRANCH   1   7
TORSDOF 3
ENDMDL
