MODEL 1
REMARK minimizedAffinity -4.16923523
REMARK minimizedRMSD -1
REMARK  3 active torsions:
REMARK  status: ('A' for Active; 'I' for Inactive)
REMARK    1  A    between atoms: C3'_2  and  C2'_3 
REMARK    2  A    between atoms: C2'_3  and  C1'_4 
REMARK    3  A    between atoms: C1'_4  and  C1_5 
ROOT
ATOM      1  C1  N4B d   1       0.060   0.075   0.215  0.00  0.00    -0.075 A 
ATOM      2  C2  N4B d   1      -1.151   0.704   0.579  0.00  0.00     0.002 A 
ATOM      3  C3  N4B d   1      -1.186   2.064   0.773  0.00  0.00     0.002 A 
ATOM      4  C4  N4B d   1      -0.025   2.808   0.627  0.00  0.00    -0.004 A 
ATOM      5  C5  N4B d   1       1.134   2.196   0.249  0.00  0.00     0.002 A 
ATOM      6  C6  N4B d   1       1.184   0.831   0.048  0.00  0.00     0.002 A 
ENDROOT
BRANCH   1   7
ATOM      7  C1' N4B d   1       0.168  -1.419   0.076  0.00  0.00     0.057 C 
BRANCH   7   8
ATOM      8  C2' N4B d   1      -0.017  -1.801  -1.390  0.00  0.00     0.009 C 
BRANCH   8   9
ATOM      9  C3' N4B d   1      -0.944  -2.992  -1.554  0.00  0.00     0.004 C 
ATOM     10  C4' N4B d   1      -0.712  -3.735  -2.836  0.00  0.00     0.003 C 
ENDBRANCH   8   9
ENDBRANCH   7   8
ENDBRANCH   1   7
TORSDOF 3
ENDMDL
