MODEL 1
REMARK minimizedAffinity 11.5246191
REMARK minimizedRMSD -1
REMARK  3 active torsions:
REMARK  status: ('A' for Active; 'I' for Inactive)
REMARK    1  A    between atoms: C3'_2  and  C2'_3 
REMARK    2  A    between atoms: C2'_3  and  C1'_4 
REMARK    3  A    between atoms: C1'_4  and  C1_5 
ROOT
ATOM      1  C1  N4B d   1      -3.540  -0.482   2.243  0.00  0.00    -0.075 A 
ATOM      2  C2  N4B d   1      -3.127   0.176   3.422  0.00  0.00     0.002 A 
ATOM      3  C3  N4B d   1      -3.989   0.283   4.486  0.00  0.00     0.002 A 
ATOM      4  C4  N4B d   1      -5.269  -0.242   4.388  0.00  0.00    -0.004 A 
ATOM      5  C5  N4B d   1      -5.651  -0.898   3.254  0.00  0.00     0.002 A 
ATOM      6  C6  N4B d   1      -4.794  -1.016   2.179  0.00  0.00     0.002 A 
ENDROOT
BRANCH   1   7
ATOM      7  C1' N4B d   1      -2.663  -0.548   1.022  0.00  0.00     0.057 C 
BRANCH   7   8
ATOM      8  C2' N4B d   1      -1.224  -0.813   1.454  0.00  0.00     0.009 C 
BRANCH   8   9
ATOM      9  C3' N4B d   1      -0.308   0.353   1.122  0.00  0.00     0.004 C 
ATOM     10  C4' N4B d   1       1.136  -0.046   1.047  0.00  0.00     0.003 C 
ENDBRANCH   8   9
ENDBRANCH   7   8
ENDBRANCH   1   7
TORSDOF 3
ENDMDL
