MODEL 1
REMARK minimizedAffinity 1.05048466
REMARK minimizedRMSD -1
REMARK  3 active torsions:
REMARK  status: ('A' for Active; 'I' for Inactive)
REMARK    1  A    between atoms: C3'_2  and  C2'_3 
REMARK    2  A    between atoms: C2'_3  and  C1'_4 
REMARK    3  A    between atoms: C1'_4  and  C1_5 
ROOT
ATOM      1  C1  N4B d   1       3.969   3.098  -3.794  0.00  0.00    -0.075 A 
ATOM      2  C2  N4B d   1       3.588   2.312  -4.905  0.00  0.00     0.002 A 
ATOM      3  C3  N4B d   1       4.423   2.209  -5.991  0.00  0.00     0.002 A 
ATOM      4  C4  N4B d   1       5.629   2.894  -5.997  0.00  0.00    -0.004 A 
ATOM      5  C5  N4B d   1       6.000   3.630  -4.910  0.00  0.00     0.002 A 
ATOM      6  C6  N4B d   1       5.173   3.740  -3.810  0.00  0.00     0.002 A 
ENDROOT
BRANCH   1   7
ATOM      7  C1' N4B d   1       3.052   3.310  -2.621  0.00  0.00     0.057 C 
BRANCH   7   8
ATOM      8  C2' N4B d   1       1.625   3.498  -3.127  0.00  0.00     0.009 C 
BRANCH   8   9
ATOM      9  C3' N4B d   1       1.477   4.764  -3.953  0.00  0.00     0.004 C 
ATOM     10  C4' N4B d   1       2.229   5.926  -3.375  0.00  0.00     0.003 C 
ENDBRANCH   8   9
ENDBRANCH   7   8
ENDBRANCH   1   7
TORSDOF 3
ENDMDL
