MODEL 1
REMARK minimizedAffinity -4.97423887
REMARK minimizedRMSD -1
REMARK  3 active torsions:
REMARK  status: ('A' for Active; 'I' for Inactive)
REMARK    1  A    between atoms: C3'_2  and  C2'_3 
REMARK    2  A    between atoms: C2'_3  and  C1'_4 
REMARK    3  A    between atoms: C1'_4  and  C1_5 
ROOT
ATOM      1  C1  N4B d   1      -0.351  -0.404  -0.027  0.00  0.00    -0.075 A 
ATOM      2  C2  N4B d   1      -1.527   0.249   0.400  0.00  0.00     0.002 A 
ATOM      3  C3  N4B d   1      -1.578   1.621   0.434  0.00  0.00     0.002 A 
ATOM      4  C4  N4B d   1      -0.462   2.357   0.065  0.00  0.00    -0.004 A 
ATOM      5  C5  N4B d   1       0.662   1.719  -0.371  0.00  0.00     0.002 A 
ATOM      6  C6  N4B d   1       0.725   0.341  -0.414  0.00  0.00     0.002 A 
ENDROOT
BRANCH   1   7
ATOM      7  C1' N4B d   1      -0.219  -1.902   0.000  0.00  0.00     0.057 C 
BRANCH   7   8
ATOM      8  C2' N4B d   1       0.022  -2.410  -1.419  0.00  0.00     0.009 C 
BRANCH   8   9
ATOM      9  C3' N4B d   1      -0.690  -3.726  -1.680  0.00  0.00     0.004 C 
ATOM     10  C4' N4B d   1      -1.841  -3.585  -2.631  0.00  0.00     0.003 C 
ENDBRANCH   8   9
ENDBRANCH   7   8
ENDBRANCH   1   7
TORSDOF 3
ENDMDL
