MODEL 1
REMARK minimizedAffinity -4.66150188
REMARK minimizedRMSD -1
REMARK  3 active torsions:
REMARK  status: ('A' for Active; 'I' for Inactive)
REMARK    1  A    between atoms: C3'_2  and  C2'_3 
REMARK    2  A    between atoms: C2'_3  and  C1'_4 
REMARK    3  A    between atoms: C1'_4  and  C1_5 
ROOT
ATOM      1  C1  N4B d   1      -0.448  -1.070   0.040  0.00  0.00    -0.075 A 
ATOM      2  C2  N4B d   1      -1.216  -1.861  -0.843  0.00  0.00     0.002 A 
ATOM      3  C3  N4B d   1      -0.598  -2.776  -1.660  0.00  0.00     0.002 A 
ATOM      4  C4  N4B d   1       0.783  -2.903  -1.626  0.00  0.00    -0.004 A 
ATOM      5  C5  N4B d   1       1.515  -2.154  -0.752  0.00  0.00     0.002 A 
ATOM      6  C6  N4B d   1       0.907  -1.233   0.078  0.00  0.00     0.002 A 
ENDROOT
BRANCH   1   7
ATOM      7  C1' N4B d   1      -1.070   0.003   0.890  0.00  0.00     0.057 C 
BRANCH   7   8
ATOM      8  C2' N4B d   1      -1.436   1.192   0.007  0.00  0.00     0.009 C 
BRANCH   8   9
ATOM      9  C3' N4B d   1      -0.835   2.488   0.522  0.00  0.00     0.004 C 
ATOM     10  C4' N4B d   1       0.651   2.556   0.328  0.00  0.00     0.003 C 
ENDBRANCH   8   9
ENDBRANCH   7   8
ENDBRANCH   1   7
TORSDOF 3
ENDMDL
