MODEL 1
REMARK minimizedAffinity -3.49072838
REMARK minimizedRMSD -1
REMARK  3 active torsions:
REMARK  status: ('A' for Active; 'I' for Inactive)
REMARK    1  A    between atoms: C3'_2  and  C2'_3 
REMARK    2  A    between atoms: C2'_3  and  C1'_4 
REMARK    3  A    between atoms: C1'_4  and  C1_5 
ROOT
ATOM      1  C1  N4B d   1      -0.329  -1.416  -0.395  0.00  0.00    -0.075 A 
ATOM      2  C2  N4B d   1       0.807  -2.107   0.079  0.00  0.00     0.002 A 
ATOM      3  C3  N4B d   1       1.311  -3.170  -0.631  0.00  0.00     0.002 A 
ATOM      4  C4  N4B d   1       0.685  -3.569  -1.803  0.00  0.00    -0.004 A 
ATOM      5  C5  N4B d   1      -0.397  -2.880  -2.267  0.00  0.00     0.002 A 
ATOM      6  C6  N4B d   1      -0.911  -1.808  -1.566  0.00  0.00     0.002 A 
ENDROOT
BRANCH   1   7
ATOM      7  C1' N4B d   1      -0.967  -0.303   0.391  0.00  0.00     0.057 C 
BRANCH   7   8
ATOM      8  C2' N4B d   1      -0.028   0.899   0.409  0.00  0.00     0.009 C 
BRANCH   8   9
ATOM      9  C3' N4B d   1      -0.733   2.165   0.865  0.00  0.00     0.004 C 
ATOM     10  C4' N4B d   1      -2.061   2.362   0.196  0.00  0.00     0.003 C 
ENDBRANCH   8   9
ENDBRANCH   7   8
ENDBRANCH   1   7
TORSDOF 3
ENDMDL
