MODEL 1
REMARK minimizedAffinity -3.32554674
REMARK minimizedRMSD -1
REMARK  3 active torsions:
REMARK  status: ('A' for Active; 'I' for Inactive)
REMARK    1  A    between atoms: C3'_2  and  C2'_3 
REMARK    2  A    between atoms: C2'_3  and  C1'_4 
REMARK    3  A    between atoms: C1'_4  and  C1_5 
ROOT
ATOM      1  C1  N4B d   1       0.932  -0.314   0.027  0.00  0.00    -0.075 A 
ATOM      2  C2  N4B d   1       2.191   0.294  -0.176  0.00  0.00     0.002 A 
ATOM      3  C3  N4B d   1       2.272   1.645  -0.403  0.00  0.00     0.002 A 
ATOM      4  C4  N4B d   1       1.113   2.404  -0.451  0.00  0.00    -0.004 A 
ATOM      5  C5  N4B d   1      -0.097   1.814  -0.228  0.00  0.00     0.002 A 
ATOM      6  C6  N4B d   1      -0.194   0.457   0.006  0.00  0.00     0.002 A 
ENDROOT
BRANCH   1   7
ATOM      7  C1' N4B d   1       0.786  -1.801   0.194  0.00  0.00     0.057 C 
BRANCH   7   8
ATOM      8  C2' N4B d   1      -0.405  -2.283  -0.629  0.00  0.00     0.009 C 
BRANCH   8   9
ATOM      9  C3' N4B d   1       0.008  -2.721  -2.024  0.00  0.00     0.004 C 
ATOM     10  C4' N4B d   1      -1.087  -3.437  -2.756  0.00  0.00     0.003 C 
ENDBRANCH   8   9
ENDBRANCH   7   8
ENDBRANCH   1   7
TORSDOF 3
ENDMDL
