MODEL 1
REMARK minimizedAffinity -3.60464907
REMARK minimizedRMSD -1
REMARK  3 active torsions:
REMARK  status: ('A' for Active; 'I' for Inactive)
REMARK    1  A    between atoms: C3'_2  and  C2'_3 
REMARK    2  A    between atoms: C2'_3  and  C1'_4 
REMARK    3  A    between atoms: C1'_4  and  C1_5 
ROOT
ATOM      1  C1  N4B d   1       0.793   1.116  -0.688  0.00  0.00    -0.075 A 
ATOM      2  C2  N4B d   1       2.102   0.912  -0.201  0.00  0.00     0.002 A 
ATOM      3  C3  N4B d   1       2.432  -0.275   0.406  0.00  0.00     0.002 A 
ATOM      4  C4  N4B d   1       1.467  -1.261   0.554  0.00  0.00    -0.004 A 
ATOM      5  C5  N4B d   1       0.212  -1.066   0.058  0.00  0.00     0.002 A 
ATOM      6  C6  N4B d   1      -0.132   0.121  -0.559  0.00  0.00     0.002 A 
ENDROOT
BRANCH   1   7
ATOM      7  C1' N4B d   1       0.362   2.429  -1.283  0.00  0.00     0.057 C 
BRANCH   7   8
ATOM      8  C2' N4B d   1       0.201   3.455  -0.165  0.00  0.00     0.009 C 
BRANCH   8   9
ATOM      9  C3' N4B d   1      -0.182   2.805   1.153  0.00  0.00     0.004 C 
ATOM     10  C4' N4B d   1      -1.639   2.456   1.226  0.00  0.00     0.003 C 
ENDBRANCH   8   9
ENDBRANCH   7   8
ENDBRANCH   1   7
TORSDOF 3
ENDMDL
