MODEL 1
REMARK minimizedAffinity 8.62469101
REMARK minimizedRMSD -1
REMARK  1 active torsions:
REMARK  status: ('A' for Active; 'I' for Inactive)
REMARK    1  A    between atoms: C1_2  and  C2_3 
ROOT
ATOM      1  C2  UNL d   1       0.804   2.861  -2.688  0.00  0.00    -0.073 A 
ATOM      2  C3  UNL d   1       1.843   2.181  -3.334  0.00  0.00    -0.002 A 
ATOM      3  C4  UNL d   1       3.121   2.738  -3.394  0.00  0.00     0.004 A 
ATOM      4  C5  UNL d   1       3.375   3.976  -2.804  0.00  0.00    -0.004 A 
ATOM      5  C6  UNL d   1       2.353   4.666  -2.143  0.00  0.00    -0.075 A 
ATOM      6  C7  UNL d   1       2.609   6.000  -1.506  0.00  0.00     0.076 C 
ATOM      7  C8  UNL d   1       1.071   4.101  -2.090  0.00  0.00     0.001 A 
ENDROOT
BRANCH   1   8
ATOM      8  C1  UNL d   1      -0.576   2.260  -2.615  0.00  0.00     0.053 C 
ATOM      9  C   UNL d   1      -0.683   0.980  -3.429  0.00  0.00     0.018 C 
ENDBRANCH   1   8
TORSDOF 1
ENDMDL
