MODEL 1
REMARK minimizedAffinity -0.382290334
REMARK minimizedRMSD -1
REMARK  1 active torsions:
REMARK  status: ('A' for Active; 'I' for Inactive)
REMARK    1  A    between atoms: C1_2  and  C2_3 
ROOT
ATOM      1  C2  UNL d   1      -3.998   3.024  -3.453  0.00  0.00    -0.073 A 
ATOM      2  C3  UNL d   1      -4.935   1.986  -3.391  0.00  0.00    -0.002 A 
ATOM      3  C4  UNL d   1      -4.526   0.658  -3.522  0.00  0.00     0.004 A 
ATOM      4  C5  UNL d   1      -3.177   0.354  -3.708  0.00  0.00    -0.004 A 
ATOM      5  C6  UNL d   1      -2.224   1.376  -3.760  0.00  0.00    -0.075 A 
ATOM      6  C7  UNL d   1      -0.770   1.066  -3.962  0.00  0.00     0.076 C 
ATOM      7  C8  UNL d   1      -2.643   2.707  -3.631  0.00  0.00     0.001 A 
ENDROOT
BRANCH   1   8
ATOM      8  C1  UNL d   1      -4.434   4.459  -3.306  0.00  0.00     0.053 C 
ATOM      9  C   UNL d   1      -5.865   4.571  -2.807  0.00  0.00     0.018 C 
ENDBRANCH   1   8
TORSDOF 1
ENDMDL
