MODEL 1
REMARK minimizedAffinity 2.12597871
REMARK minimizedRMSD -1
REMARK  1 active torsions:
REMARK  status: ('A' for Active; 'I' for Inactive)
REMARK    1  A    between atoms: C1_2  and  C2_3 
ROOT
ATOM      1  C2  UNL d   1       2.199  -2.345  -5.748  0.00  0.00    -0.073 A 
ATOM      2  C3  UNL d   1       1.850  -3.698  -5.814  0.00  0.00    -0.002 A 
ATOM      3  C4  UNL d   1       2.838  -4.676  -5.943  0.00  0.00     0.004 A 
ATOM      4  C5  UNL d   1       4.183  -4.311  -6.000  0.00  0.00    -0.004 A 
ATOM      5  C6  UNL d   1       4.553  -2.964  -5.924  0.00  0.00    -0.075 A 
ATOM      6  C7  UNL d   1       5.995  -2.555  -5.986  0.00  0.00     0.076 C 
ATOM      7  C8  UNL d   1       3.555  -1.989  -5.797  0.00  0.00     0.001 A 
ENDROOT
BRANCH   1   8
ATOM      8  C1  UNL d   1       1.137  -1.286  -5.603  0.00  0.00     0.053 C 
ATOM      9  C   UNL d   1       0.975  -0.836  -4.160  0.00  0.00     0.018 C 
ENDBRANCH   1   8
TORSDOF 1
ENDMDL
