MODEL 1
REMARK minimizedAffinity 2.43506384
REMARK minimizedRMSD -1
REMARK  1 active torsions:
REMARK  status: ('A' for Active; 'I' for Inactive)
REMARK    1  A    between atoms: C1_2  and  C2_3 
ROOT
ATOM      1  C2  UNL d   1       5.039   5.446  -3.245  0.00  0.00    -0.073 A 
ATOM      2  C3  UNL d   1       5.302   6.000  -1.987  0.00  0.00    -0.002 A 
ATOM      3  C4  UNL d   1       4.412   5.803  -0.930  0.00  0.00     0.004 A 
ATOM      4  C5  UNL d   1       3.256   5.045  -1.117  0.00  0.00    -0.004 A 
ATOM      5  C6  UNL d   1       2.982   4.473  -2.364  0.00  0.00    -0.075 A 
ATOM      6  C7  UNL d   1       1.742   3.657  -2.582  0.00  0.00     0.076 C 
ATOM      7  C8  UNL d   1       3.878   4.678  -3.421  0.00  0.00     0.001 A 
ENDROOT
BRANCH   1   8
ATOM      8  C1  UNL d   1       5.999   5.650  -4.388  0.00  0.00     0.053 C 
ATOM      9  C   UNL d   1       5.999   4.473  -5.350  0.00  0.00     0.018 C 
ENDBRANCH   1   8
TORSDOF 1
ENDMDL
