MODEL 1
REMARK minimizedAffinity 1.37821031
REMARK minimizedRMSD -1
REMARK  1 active torsions:
REMARK  status: ('A' for Active; 'I' for Inactive)
REMARK    1  A    between atoms: C1_2  and  C2_3 
ROOT
ATOM      1  C2  UNL d   1      -4.174   2.997  -3.375  0.00  0.00    -0.073 A 
ATOM      2  C3  UNL d   1      -5.171   2.066  -3.690  0.00  0.00    -0.002 A 
ATOM      3  C4  UNL d   1      -4.841   0.728  -3.911  0.00  0.00     0.004 A 
ATOM      4  C5  UNL d   1      -3.515   0.306  -3.814  0.00  0.00    -0.004 A 
ATOM      5  C6  UNL d   1      -2.507   1.219  -3.490  0.00  0.00    -0.075 A 
ATOM      6  C7  UNL d   1      -1.075   0.782  -3.384  0.00  0.00     0.076 C 
ATOM      7  C8  UNL d   1      -2.845   2.561  -3.271  0.00  0.00     0.001 A 
ENDROOT
BRANCH   1   8
ATOM      8  C1  UNL d   1      -4.525   4.441  -3.129  0.00  0.00     0.053 C 
ATOM      9  C   UNL d   1      -5.995   4.619  -2.784  0.00  0.00     0.018 C 
ENDBRANCH   1   8
TORSDOF 1
ENDMDL
