MODEL 1
REMARK minimizedAffinity 15.739377
REMARK minimizedRMSD -1
REMARK  1 active torsions:
REMARK  status: ('A' for Active; 'I' for Inactive)
REMARK    1  A    between atoms: C1_2  and  C2_3 
ROOT
ATOM      1  C2  UNL d   1      -3.861   2.988  -3.449  0.00  0.00    -0.073 A 
ATOM      2  C3  UNL d   1      -2.824   2.160  -3.894  0.00  0.00    -0.002 A 
ATOM      3  C4  UNL d   1      -2.567   0.946  -3.255  0.00  0.00     0.004 A 
ATOM      4  C5  UNL d   1      -3.347   0.545  -2.171  0.00  0.00    -0.004 A 
ATOM      5  C6  UNL d   1      -4.396   1.353  -1.719  0.00  0.00    -0.075 A 
ATOM      6  C7  UNL d   1      -5.243   0.937  -0.552  0.00  0.00     0.076 C 
ATOM      7  C8  UNL d   1      -4.645   2.571  -2.364  0.00  0.00     0.001 A 
ENDROOT
BRANCH   1   8
ATOM      8  C1  UNL d   1      -4.146   4.296  -4.140  0.00  0.00     0.053 C 
ATOM      9  C   UNL d   1      -5.110   5.162  -3.345  0.00  0.00     0.018 C 
ENDBRANCH   1   8
TORSDOF 1
ENDMDL
