MODEL 1
REMARK minimizedAffinity 1.83827901
REMARK minimizedRMSD -1
REMARK  1 active torsions:
REMARK  status: ('A' for Active; 'I' for Inactive)
REMARK    1  A    between atoms: C1_2  and  C2_3 
ROOT
ATOM      1  C2  UNL d   1       4.925  -3.904  -5.206  0.00  0.00    -0.073 A 
ATOM      2  C3  UNL d   1       5.930  -3.274  -5.948  0.00  0.00    -0.002 A 
ATOM      3  C4  UNL d   1       6.000  -1.881  -6.000  0.00  0.00     0.004 A 
ATOM      4  C5  UNL d   1       5.072  -1.105  -5.306  0.00  0.00    -0.004 A 
ATOM      5  C6  UNL d   1       4.067  -1.717  -4.549  0.00  0.00    -0.075 A 
ATOM      6  C7  UNL d   1       3.059  -0.896  -3.798  0.00  0.00     0.076 C 
ATOM      7  C8  UNL d   1       4.002  -3.116  -4.504  0.00  0.00     0.001 A 
ENDROOT
BRANCH   1   8
ATOM      8  C1  UNL d   1       4.849  -5.408  -5.141  0.00  0.00     0.053 C 
ATOM      9  C   UNL d   1       5.965  -5.999  -4.294  0.00  0.00     0.018 C 
ENDBRANCH   1   8
TORSDOF 1
ENDMDL
