MODEL 1
REMARK minimizedAffinity 9.28297997
REMARK minimizedRMSD -1
REMARK  1 active torsions:
REMARK  status: ('A' for Active; 'I' for Inactive)
REMARK    1  A    between atoms: C1_2  and  C2_3 
ROOT
ATOM      1  C2  UNL d   1      -3.779   2.464  -2.917  0.00  0.00    -0.073 A 
ATOM      2  C3  UNL d   1      -3.477   1.264  -3.570  0.00  0.00    -0.002 A 
ATOM      3  C4  UNL d   1      -2.510   0.403  -3.050  0.00  0.00     0.004 A 
ATOM      4  C5  UNL d   1      -1.842   0.728  -1.869  0.00  0.00    -0.004 A 
ATOM      5  C6  UNL d   1      -2.139   1.917  -1.196  0.00  0.00    -0.075 A 
ATOM      6  C7  UNL d   1      -1.428   2.283   0.074  0.00  0.00     0.076 C 
ATOM      7  C8  UNL d   1      -3.109   2.779  -1.726  0.00  0.00     0.001 A 
ENDROOT
BRANCH   1   8
ATOM      8  C1  UNL d   1      -4.827   3.395  -3.472  0.00  0.00     0.053 C 
ATOM      9  C   UNL d   1      -5.237   4.457  -2.464  0.00  0.00     0.018 C 
ENDBRANCH   1   8
TORSDOF 1
ENDMDL
