MODEL 1
REMARK minimizedAffinity 14.6430454
REMARK minimizedRMSD -1
REMARK  0 active torsions:
REMARK  status: ('A' for Active; 'I' for Inactive)
ROOT
ATOM      1  C   UNL d   1       4.049   4.932   5.822  0.00  0.00    -0.002 A 
ATOM      2  C1  UNL d   1       5.328   4.422   6.000  0.00  0.00     0.010 A 
ATOM      3  C2  UNL d   1       5.998   3.803   4.943  0.00  0.00     0.041 A 
ATOM      4  C3  UNL d   1       5.357   3.705   3.693  0.00  0.00    -0.075 A 
ATOM      5  S   UNL d   1       5.986   2.990   2.255  0.00  0.00     0.015 SA
ATOM      6  C4  UNL d   1       4.572   3.344   1.372  0.00  0.00     0.022 A 
ATOM      7  C5  UNL d   1       3.633   3.992   2.139  0.00  0.00     0.026 A 
ATOM      8  C6  UNL d   1       4.070   4.211   3.489  0.00  0.00    -0.082 A 
ATOM      9  C7  UNL d   1       3.416   4.833   4.580  0.00  0.00     0.045 A 
ENDROOT
TORSDOF 0
ENDMDL
