MODEL 1
REMARK minimizedAffinity 19.4913998
REMARK minimizedRMSD -1
REMARK  0 active torsions:
REMARK  status: ('A' for Active; 'I' for Inactive)
ROOT
ATOM      1  C   UNL d   1      -2.047  -2.209   1.213  0.00  0.00    -0.002 A 
ATOM      2  C1  UNL d   1      -3.062  -1.271   1.083  0.00  0.00     0.010 A 
ATOM      3  C2  UNL d   1      -3.402  -0.763  -0.172  0.00  0.00     0.041 A 
ATOM      4  C3  UNL d   1      -2.700  -1.218  -1.305  0.00  0.00    -0.075 A 
ATOM      5  S   UNL d   1      -2.944  -0.737  -2.943  0.00  0.00     0.015 SA
ATOM      6  C4  UNL d   1      -1.708  -1.765  -3.508  0.00  0.00     0.022 A 
ATOM      7  C5  UNL d   1      -1.112  -2.465  -2.486  0.00  0.00     0.026 A 
ATOM      8  C6  UNL d   1      -1.674  -2.162  -1.200  0.00  0.00    -0.082 A 
ATOM      9  C7  UNL d   1      -1.353  -2.658   0.087  0.00  0.00     0.045 A 
ENDROOT
TORSDOF 0
ENDMDL
