MODEL 1
REMARK minimizedAffinity 16.2826252
REMARK minimizedRMSD -1
REMARK  0 active torsions:
REMARK  status: ('A' for Active; 'I' for Inactive)
ROOT
ATOM      1  C   UNL d   1      -0.744  -1.517   0.861  0.00  0.00    -0.002 A 
ATOM      2  C1  UNL d   1      -1.368  -2.100  -0.234  0.00  0.00     0.010 A 
ATOM      3  C2  UNL d   1      -1.526  -3.486  -0.306  0.00  0.00     0.041 A 
ATOM      4  C3  UNL d   1      -1.044  -4.283   0.751  0.00  0.00    -0.075 A 
ATOM      5  S   UNL d   1      -1.127  -6.000   0.879  0.00  0.00     0.015 SA
ATOM      6  C4  UNL d   1      -0.338  -6.000   2.390  0.00  0.00     0.022 A 
ATOM      7  C5  UNL d   1      -0.012  -4.729   2.801  0.00  0.00     0.026 A 
ATOM      8  C6  UNL d   1      -0.414  -3.719   1.864  0.00  0.00    -0.082 A 
ATOM      9  C7  UNL d   1      -0.268  -2.311   1.907  0.00  0.00     0.045 A 
ENDROOT
TORSDOF 0
ENDMDL
