MODEL 1
REMARK minimizedAffinity 20.8787041
REMARK minimizedRMSD -1
REMARK  0 active torsions:
REMARK  status: ('A' for Active; 'I' for Inactive)
ROOT
ATOM      1  C   UNL d   1       5.436   3.045  -0.285  0.00  0.00    -0.002 A 
ATOM      2  C1  UNL d   1       4.997   4.206   0.335  0.00  0.00     0.010 A 
ATOM      3  C2  UNL d   1       4.887   4.270   1.726  0.00  0.00     0.041 A 
ATOM      4  C3  UNL d   1       5.231   3.137   2.490  0.00  0.00    -0.075 A 
ATOM      5  S   UNL d   1       5.177   2.985   4.206  0.00  0.00     0.015 SA
ATOM      6  C4  UNL d   1       5.736   1.375   4.156  0.00  0.00     0.022 A 
ATOM      7  C5  UNL d   1       5.963   0.948   2.869  0.00  0.00     0.026 A 
ATOM      8  C6  UNL d   1       5.676   1.957   1.887  0.00  0.00    -0.082 A 
ATOM      9  C7  UNL d   1       5.776   1.923   0.476  0.00  0.00     0.045 A 
ENDROOT
TORSDOF 0
ENDMDL
