MODEL 1
REMARK minimizedAffinity 12.9056911
REMARK minimizedRMSD -1
REMARK  0 active torsions:
REMARK  status: ('A' for Active; 'I' for Inactive)
ROOT
ATOM      1  C   UNL d   1      -1.748  -2.286   0.142  0.00  0.00    -0.002 A 
ATOM      2  C1  UNL d   1      -2.380  -1.067   0.344  0.00  0.00     0.010 A 
ATOM      3  C2  UNL d   1      -3.700  -1.017   0.797  0.00  0.00     0.041 A 
ATOM      4  C3  UNL d   1      -4.380  -2.225   1.048  0.00  0.00    -0.075 A 
ATOM      5  S   UNL d   1      -6.000  -2.409   1.609  0.00  0.00     0.015 SA
ATOM      6  C4  UNL d   1      -5.891  -4.110   1.595  0.00  0.00     0.022 A 
ATOM      7  C5  UNL d   1      -4.656  -4.544   1.175  0.00  0.00     0.026 A 
ATOM      8  C6  UNL d   1      -3.765  -3.465   0.854  0.00  0.00    -0.082 A 
ATOM      9  C7  UNL d   1      -2.426  -3.482   0.393  0.00  0.00     0.045 A 
ENDROOT
TORSDOF 0
ENDMDL
