MODEL 1
REMARK minimizedAffinity 22.9388695
REMARK minimizedRMSD -1
REMARK  0 active torsions:
REMARK  status: ('A' for Active; 'I' for Inactive)
ROOT
ATOM      1  C   UNL d   1       5.155   3.267   0.897  0.00  0.00    -0.002 A 
ATOM      2  C1  UNL d   1       6.000   2.197   0.638  0.00  0.00     0.010 A 
ATOM      3  C2  UNL d   1       5.578   1.138  -0.170  0.00  0.00     0.041 A 
ATOM      4  C3  UNL d   1       4.281   1.175  -0.719  0.00  0.00    -0.075 A 
ATOM      5  S   UNL d   1       3.550  -0.009  -1.737  0.00  0.00     0.015 SA
ATOM      6  C4  UNL d   1       2.099   0.879  -1.852  0.00  0.00     0.022 A 
ATOM      7  C5  UNL d   1       2.154   2.052  -1.137  0.00  0.00     0.026 A 
ATOM      8  C6  UNL d   1       3.412   2.242  -0.473  0.00  0.00    -0.082 A 
ATOM      9  C7  UNL d   1       3.869   3.299   0.351  0.00  0.00     0.045 A 
ENDROOT
TORSDOF 0
ENDMDL
