MODEL 1
REMARK minimizedAffinity 24.8595905
REMARK minimizedRMSD -1
REMARK  0 active torsions:
REMARK  status: ('A' for Active; 'I' for Inactive)
ROOT
ATOM      1  C   UNL d   1      -1.124  -0.427  -1.757  0.00  0.00    -0.002 A 
ATOM      2  C1  UNL d   1      -1.266  -1.553  -2.556  0.00  0.00     0.010 A 
ATOM      3  C2  UNL d   1      -1.288  -2.829  -1.989  0.00  0.00     0.041 A 
ATOM      4  C3  UNL d   1      -1.166  -2.955  -0.591  0.00  0.00    -0.075 A 
ATOM      5  S   UNL d   1      -1.167  -4.415   0.325  0.00  0.00     0.015 SA
ATOM      6  C4  UNL d   1      -0.981  -3.580   1.798  0.00  0.00     0.022 A 
ATOM      7  C5  UNL d   1      -0.917  -2.219   1.615  0.00  0.00     0.026 A 
ATOM      8  C6  UNL d   1      -1.023  -1.836   0.235  0.00  0.00    -0.082 A 
ATOM      9  C7  UNL d   1      -1.003  -0.557  -0.371  0.00  0.00     0.045 A 
ENDROOT
TORSDOF 0
ENDMDL
