MODEL 1
REMARK minimizedAffinity 17.7265224
REMARK minimizedRMSD -1
REMARK  0 active torsions:
REMARK  status: ('A' for Active; 'I' for Inactive)
ROOT
ATOM      1  C   UNL d   1      -1.679  -3.073   5.777  0.00  0.00    -0.002 A 
ATOM      2  C1  UNL d   1      -3.033  -3.313   5.966  0.00  0.00     0.010 A 
ATOM      3  C2  UNL d   1      -3.944  -2.256   5.994  0.00  0.00     0.041 A 
ATOM      4  C3  UNL d   1      -3.468  -0.941   5.827  0.00  0.00    -0.075 A 
ATOM      5  S   UNL d   1      -4.400   0.510   5.825  0.00  0.00     0.015 SA
ATOM      6  C4  UNL d   1      -3.024   1.483   5.573  0.00  0.00     0.022 A 
ATOM      7  C5  UNL d   1      -1.873   0.735   5.490  0.00  0.00     0.026 A 
ATOM      8  C6  UNL d   1      -2.110  -0.673   5.634  0.00  0.00    -0.082 A 
ATOM      9  C7  UNL d   1      -1.211  -1.767   5.611  0.00  0.00     0.045 A 
ENDROOT
TORSDOF 0
ENDMDL
