MODEL 1
REMARK minimizedAffinity 17.2110748
REMARK minimizedRMSD -1
REMARK  0 active torsions:
REMARK  status: ('A' for Active; 'I' for Inactive)
ROOT
ATOM      1  C   UNL d   1      -1.362  -2.007   0.722  0.00  0.00    -0.002 A 
ATOM      2  C1  UNL d   1      -2.305  -0.991   0.660  0.00  0.00     0.010 A 
ATOM      3  C2  UNL d   1      -2.797  -0.553  -0.571  0.00  0.00     0.041 A 
ATOM      4  C3  UNL d   1      -2.322  -1.160  -1.750  0.00  0.00    -0.075 A 
ATOM      5  S   UNL d   1      -2.783  -0.788  -3.369  0.00  0.00     0.015 SA
ATOM      6  C4  UNL d   1      -1.739  -1.969  -4.017  0.00  0.00     0.022 A 
ATOM      7  C5  UNL d   1      -1.048  -2.641  -3.036  0.00  0.00     0.026 A 
ATOM      8  C6  UNL d   1      -1.374  -2.186  -1.713  0.00  0.00    -0.082 A 
ATOM      9  C7  UNL d   1      -0.894  -2.607  -0.450  0.00  0.00     0.045 A 
ENDROOT
TORSDOF 0
ENDMDL
