MODEL 1
REMARK minimizedAffinity 13.7293196
REMARK minimizedRMSD -1
REMARK  0 active torsions:
REMARK  status: ('A' for Active; 'I' for Inactive)
ROOT
ATOM      1  C   UNL d   1      -3.056  -2.967   5.366  0.00  0.00    -0.002 A 
ATOM      2  C1  UNL d   1      -1.769  -2.656   5.781  0.00  0.00     0.010 A 
ATOM      3  C2  UNL d   1      -1.394  -1.329   5.999  0.00  0.00     0.041 A 
ATOM      4  C3  UNL d   1      -2.344  -0.309   5.793  0.00  0.00    -0.075 A 
ATOM      5  S   UNL d   1      -2.110   1.386   5.999  0.00  0.00     0.015 SA
ATOM      6  C4  UNL d   1      -3.714   1.738   5.542  0.00  0.00     0.022 A 
ATOM      7  C5  UNL d   1      -4.424   0.602   5.236  0.00  0.00     0.026 A 
ATOM      8  C6  UNL d   1      -3.647  -0.597   5.376  0.00  0.00    -0.082 A 
ATOM      9  C7  UNL d   1      -3.996  -1.953   5.163  0.00  0.00     0.045 A 
ENDROOT
TORSDOF 0
ENDMDL
