MODEL 1
REMARK minimizedAffinity -1.27855814
REMARK minimizedRMSD -1
REMARK  0 active torsions:
REMARK  status: ('A' for Active; 'I' for Inactive)
ROOT
ATOM      1  C2' OXE d   1      -1.489   1.887   1.240  0.00  0.00     0.078 C 
ATOM      2  C1' OXE d   1      -0.211   2.990  -1.003  0.00  0.00     0.078 C 
ATOM      3  C1  OXE d   1       0.002   1.523  -0.722  0.00  0.00    -0.078 A 
ATOM      4  C2  OXE d   1      -0.590   1.003   0.404  0.00  0.00    -0.078 A 
ATOM      5  C3  OXE d   1      -0.471  -0.357   0.679  0.00  0.00     0.003 A 
ATOM      6  C4  OXE d   1       0.371  -1.166  -0.094  0.00  0.00    -0.002 A 
ATOM      7  C5  OXE d   1       1.014  -0.646  -1.222  0.00  0.00    -0.002 A 
ATOM      8  C6  OXE d   1       0.807   0.683  -1.574  0.00  0.00     0.003 A 
ENDROOT
TORSDOF 0
ENDMDL
