MODEL 1
REMARK minimizedAffinity 5.58491421
REMARK minimizedRMSD -1
REMARK  0 active torsions:
REMARK  status: ('A' for Active; 'I' for Inactive)
ROOT
ATOM      1  C2' OXE d   1      -1.006  -2.270  -0.390  0.00  0.00     0.078 C 
ATOM      2  C1' OXE d   1       0.742  -1.146   1.498  0.00  0.00     0.078 C 
ATOM      3  C1  OXE d   1       0.125  -0.226   0.475  0.00  0.00    -0.078 A 
ATOM      4  C2  OXE d   1      -0.692  -0.792  -0.474  0.00  0.00    -0.078 A 
ATOM      5  C3  OXE d   1      -1.330   0.020  -1.407  0.00  0.00     0.003 A 
ATOM      6  C4  OXE d   1      -1.027   1.385  -1.484  0.00  0.00    -0.002 A 
ATOM      7  C5  OXE d   1      -0.166   1.975  -0.552  0.00  0.00    -0.002 A 
ATOM      8  C6  OXE d   1       0.384   1.193   0.458  0.00  0.00     0.003 A 
ENDROOT
TORSDOF 0
ENDMDL
