MODEL 1
REMARK minimizedAffinity -6.15226889
REMARK minimizedRMSD -1
REMARK  0 active torsions:
REMARK  status: ('A' for Active; 'I' for Inactive)
ROOT
ATOM      1  C2' OXE d   1      -0.514  -1.217   1.594  0.00  0.00     0.078 C 
ATOM      2  C1' OXE d   1       0.397  -0.372  -0.924  0.00  0.00     0.078 C 
ATOM      3  C1  OXE d   1      -0.397   0.608  -0.097  0.00  0.00    -0.078 A 
ATOM      4  C2  OXE d   1      -0.878   0.171   1.113  0.00  0.00    -0.078 A 
ATOM      5  C3  OXE d   1      -1.570   1.053   1.939  0.00  0.00     0.003 A 
ATOM      6  C4  OXE d   1      -1.911   2.332   1.483  0.00  0.00    -0.002 A 
ATOM      7  C5  OXE d   1      -1.465   2.783   0.236  0.00  0.00    -0.002 A 
ATOM      8  C6  OXE d   1      -0.672   1.951  -0.546  0.00  0.00     0.003 A 
ENDROOT
TORSDOF 0
ENDMDL
