MODEL 1
REMARK minimizedAffinity -1.05639982
REMARK minimizedRMSD -1
REMARK  0 active torsions:
REMARK  status: ('A' for Active; 'I' for Inactive)
ROOT
ATOM      1  C2' OXE d   1       1.692  -3.962   0.089  0.00  0.00     0.078 C 
ATOM      2  C1' OXE d   1       1.722  -1.174   0.415  0.00  0.00     0.078 C 
ATOM      3  C1  OXE d   1       1.245  -1.722  -0.906  0.00  0.00    -0.078 A 
ATOM      4  C2  OXE d   1       1.277  -3.086  -1.074  0.00  0.00    -0.078 A 
ATOM      5  C3  OXE d   1       0.796  -3.648  -2.253  0.00  0.00     0.003 A 
ATOM      6  C4  OXE d   1       0.424  -2.830  -3.327  0.00  0.00    -0.002 A 
ATOM      7  C5  OXE d   1       0.421  -1.438  -3.192  0.00  0.00    -0.002 A 
ATOM      8  C6  OXE d   1       0.787  -0.870  -1.976  0.00  0.00     0.003 A 
ENDROOT
TORSDOF 0
ENDMDL
