MODEL 1
REMARK minimizedAffinity -5.31816101
REMARK minimizedRMSD -1
REMARK  0 active torsions:
REMARK  status: ('A' for Active; 'I' for Inactive)
ROOT
ATOM      1  C2' OXE d   1       1.552   0.824  -1.304  0.00  0.00     0.078 C 
ATOM      2  C1' OXE d   1       0.150  -0.619   0.654  0.00  0.00     0.078 C 
ATOM      3  C1  OXE d   1      -0.148   0.853   0.517  0.00  0.00    -0.078 A 
ATOM      4  C2  OXE d   1       0.577   1.561  -0.412  0.00  0.00    -0.078 A 
ATOM      5  C3  OXE d   1       0.304   2.911  -0.616  0.00  0.00     0.003 A 
ATOM      6  C4  OXE d   1      -0.593   3.587   0.220  0.00  0.00    -0.002 A 
ATOM      7  C5  OXE d   1      -1.312   2.893   1.198  0.00  0.00    -0.002 A 
ATOM      8  C6  OXE d   1      -1.133   1.521   1.331  0.00  0.00     0.003 A 
ENDROOT
TORSDOF 0
ENDMDL
