MODEL 1
REMARK minimizedAffinity 0.11114084
REMARK minimizedRMSD -1
REMARK  0 active torsions:
REMARK  status: ('A' for Active; 'I' for Inactive)
ROOT
ATOM      1  C2' OXE d   1       1.908  -1.041   0.261  0.00  0.00     0.078 C 
ATOM      2  C1' OXE d   1      -0.455   0.015  -0.825  0.00  0.00     0.078 C 
ATOM      3  C1  OXE d   1       0.002  -1.336  -1.316  0.00  0.00    -0.078 A 
ATOM      4  C2  OXE d   1       1.184  -1.824  -0.813  0.00  0.00    -0.078 A 
ATOM      5  C3  OXE d   1       1.624  -3.090  -1.191  0.00  0.00     0.003 A 
ATOM      6  C4  OXE d   1       0.954  -3.803  -2.193  0.00  0.00    -0.002 A 
ATOM      7  C5  OXE d   1      -0.231  -3.306  -2.747  0.00  0.00    -0.002 A 
ATOM      8  C6  OXE d   1      -0.742  -2.096  -2.290  0.00  0.00     0.003 A 
ENDROOT
TORSDOF 0
ENDMDL
