MODEL 1
REMARK minimizedAffinity -4.69351387
REMARK minimizedRMSD -1
REMARK  0 active torsions:
REMARK  status: ('A' for Active; 'I' for Inactive)
ROOT
ATOM      1  C2' OXE d   1      -2.268   1.976   1.094  0.00  0.00     0.078 C 
ATOM      2  C1' OXE d   1      -1.196   0.211   2.996  0.00  0.00     0.078 C 
ATOM      3  C1  OXE d   1      -0.598   0.202   1.611  0.00  0.00    -0.078 A 
ATOM      4  C2  OXE d   1      -1.159   1.035   0.674  0.00  0.00    -0.078 A 
ATOM      5  C3  OXE d   1      -0.610   1.106  -0.603  0.00  0.00     0.003 A 
ATOM      6  C4  OXE d   1       0.408   0.225  -0.986  0.00  0.00    -0.002 A 
ATOM      7  C5  OXE d   1       0.968  -0.660  -0.058  0.00  0.00    -0.002 A 
ATOM      8  C6  OXE d   1       0.506  -0.654   1.253  0.00  0.00     0.003 A 
ENDROOT
TORSDOF 0
ENDMDL
