MODEL 1
REMARK minimizedAffinity 0.879255116
REMARK minimizedRMSD -1
REMARK  0 active torsions:
REMARK  status: ('A' for Active; 'I' for Inactive)
ROOT
ATOM      1  C2' OXE d   1       0.138  -0.952   2.288  0.00  0.00     0.078 C 
ATOM      2  C1' OXE d   1      -0.967   1.600   1.908  0.00  0.00     0.078 C 
ATOM      3  C1  OXE d   1      -0.131   1.022   0.794  0.00  0.00    -0.078 A 
ATOM      4  C2  OXE d   1       0.444  -0.207   1.007  0.00  0.00    -0.078 A 
ATOM      5  C3  OXE d   1       1.180  -0.810  -0.010  0.00  0.00     0.003 A 
ATOM      6  C4  OXE d   1       1.467  -0.109  -1.188  0.00  0.00    -0.002 A 
ATOM      7  C5  OXE d   1       0.923   1.160  -1.409  0.00  0.00    -0.002 A 
ATOM      8  C6  OXE d   1       0.089   1.722  -0.448  0.00  0.00     0.003 A 
ENDROOT
TORSDOF 0
ENDMDL
