MODEL 1
REMARK minimizedAffinity -1.91348565
REMARK minimizedRMSD -1
REMARK  0 active torsions:
REMARK  status: ('A' for Active; 'I' for Inactive)
ROOT
ATOM      1  C2' OXE d   1      -0.512  -0.932   1.526  0.00  0.00     0.078 C 
ATOM      2  C1' OXE d   1       0.376  -0.333  -1.069  0.00  0.00     0.078 C 
ATOM      3  C1  OXE d   1      -0.217   0.788  -0.252  0.00  0.00    -0.078 A 
ATOM      4  C2  OXE d   1      -0.692   0.476   0.999  0.00  0.00    -0.078 A 
ATOM      5  C3  OXE d   1      -1.199   1.483   1.815  0.00  0.00     0.003 A 
ATOM      6  C4  OXE d   1      -1.370   2.780   1.316  0.00  0.00    -0.002 A 
ATOM      7  C5  OXE d   1      -0.930   3.110   0.030  0.00  0.00    -0.002 A 
ATOM      8  C6  OXE d   1      -0.314   2.138  -0.750  0.00  0.00     0.003 A 
ENDROOT
TORSDOF 0
ENDMDL
