MODEL 1
REMARK minimizedAffinity -6.20041943
REMARK minimizedRMSD -1
REMARK  0 active torsions:
REMARK  status: ('A' for Active; 'I' for Inactive)
ROOT
ATOM      1  C2' OXE d   1       0.547  -0.627  -0.328  0.00  0.00     0.078 C 
ATOM      2  C1' OXE d   1      -1.029  -0.641   1.995  0.00  0.00     0.078 C 
ATOM      3  C1  OXE d   1      -0.923   0.651   1.225  0.00  0.00    -0.078 A 
ATOM      4  C2  OXE d   1      -0.112   0.662   0.116  0.00  0.00    -0.078 A 
ATOM      5  C3  OXE d   1      -0.021   1.813  -0.661  0.00  0.00     0.003 A 
ATOM      6  C4  OXE d   1      -0.626   3.003  -0.238  0.00  0.00    -0.002 A 
ATOM      7  C5  OXE d   1      -1.424   3.024   0.910  0.00  0.00    -0.002 A 
ATOM      8  C6  OXE d   1      -1.617   1.849   1.628  0.00  0.00     0.003 A 
ENDROOT
TORSDOF 0
ENDMDL
