MODEL 1
REMARK minimizedAffinity 0.371562093
REMARK minimizedRMSD -1
REMARK  0 active torsions:
REMARK  status: ('A' for Active; 'I' for Inactive)
ROOT
ATOM      1  C2' OXE d   1      -0.830   0.649  -0.786  0.00  0.00     0.078 C 
ATOM      2  C1' OXE d   1       0.245  -1.042   1.180  0.00  0.00     0.078 C 
ATOM      3  C1  OXE d   1       0.346  -1.483  -0.259  0.00  0.00    -0.078 A 
ATOM      4  C2  OXE d   1      -0.223  -0.671  -1.211  0.00  0.00    -0.078 A 
ATOM      5  C3  OXE d   1      -0.110  -1.003  -2.558  0.00  0.00     0.003 A 
ATOM      6  C4  OXE d   1       0.443  -2.231  -2.941  0.00  0.00    -0.002 A 
ATOM      7  C5  OXE d   1       0.994  -3.091  -1.985  0.00  0.00    -0.002 A 
ATOM      8  C6  OXE d   1       0.991  -2.713  -0.647  0.00  0.00     0.003 A 
ENDROOT
TORSDOF 0
ENDMDL
