MODEL 1
REMARK minimizedAffinity -2.2448585
REMARK minimizedRMSD -1
REMARK  0 active torsions:
REMARK  status: ('A' for Active; 'I' for Inactive)
ROOT
ATOM      1  C2' OXE d   1      -0.735   2.557  -1.735  0.00  0.00     0.078 C 
ATOM      2  C1' OXE d   1      -1.978   2.014   0.723  0.00  0.00     0.078 C 
ATOM      3  C1  OXE d   1      -0.966   1.019   0.211  0.00  0.00    -0.078 A 
ATOM      4  C2  OXE d   1      -0.397   1.270  -1.014  0.00  0.00    -0.078 A 
ATOM      5  C3  OXE d   1       0.583   0.413  -1.508  0.00  0.00     0.003 A 
ATOM      6  C4  OXE d   1       0.882  -0.781  -0.840  0.00  0.00    -0.002 A 
ATOM      7  C5  OXE d   1       0.285  -1.075   0.390  0.00  0.00    -0.002 A 
ATOM      8  C6  OXE d   1      -0.608  -0.167   0.949  0.00  0.00     0.003 A 
ENDROOT
TORSDOF 0
ENDMDL
