MODEL 1
REMARK minimizedAffinity -4.18243265
REMARK minimizedRMSD -1
REMARK  0 active torsions:
REMARK  status: ('A' for Active; 'I' for Inactive)
ROOT
ATOM      1  C2' OXE d   1       0.508  -1.101   2.288  0.00  0.00     0.078 C 
ATOM      2  C1' OXE d   1       0.717  -0.780  -0.493  0.00  0.00     0.078 C 
ATOM      3  C1  OXE d   1      -0.128   0.211   0.268  0.00  0.00    -0.078 A 
ATOM      4  C2  OXE d   1      -0.263   0.018   1.622  0.00  0.00    -0.078 A 
ATOM      5  C3  OXE d   1      -0.987   0.934   2.380  0.00  0.00     0.003 A 
ATOM      6  C4  OXE d   1      -1.705   1.961   1.755  0.00  0.00    -0.002 A 
ATOM      7  C5  OXE d   1      -1.613   2.151   0.372  0.00  0.00    -0.002 A 
ATOM      8  C6  OXE d   1      -0.797   1.312  -0.379  0.00  0.00     0.003 A 
ENDROOT
TORSDOF 0
ENDMDL
