MODEL 1
REMARK minimizedAffinity -2.54318714
REMARK minimizedRMSD -1
REMARK  0 active torsions:
REMARK  status: ('A' for Active; 'I' for Inactive)
ROOT
ATOM      1  C2' OXE d   1       0.217  -0.755   2.444  0.00  0.00     0.078 C 
ATOM      2  C1' OXE d   1       0.021  -0.770  -0.356  0.00  0.00     0.078 C 
ATOM      3  C1  OXE d   1      -0.650   0.356   0.390  0.00  0.00    -0.078 A 
ATOM      4  C2  OXE d   1      -0.589   0.330   1.762  0.00  0.00    -0.078 A 
ATOM      5  C3  OXE d   1      -1.144   1.374   2.497  0.00  0.00     0.003 A 
ATOM      6  C4  OXE d   1      -1.896   2.368   1.859  0.00  0.00    -0.002 A 
ATOM      7  C5  OXE d   1      -2.005   2.391   0.465  0.00  0.00    -0.002 A 
ATOM      8  C6  OXE d   1      -1.354   1.418  -0.286  0.00  0.00     0.003 A 
ENDROOT
TORSDOF 0
ENDMDL
