MODEL 1
REMARK minimizedAffinity -4.34030819
REMARK minimizedRMSD -1
REMARK  0 active torsions:
REMARK  status: ('A' for Active; 'I' for Inactive)
ROOT
ATOM      1  C2' OXE d   1       0.463  -0.802   2.483  0.00  0.00     0.078 C 
ATOM      2  C1' OXE d   1       0.700  -0.671  -0.311  0.00  0.00     0.078 C 
ATOM      3  C1  OXE d   1      -0.344   0.195   0.348  0.00  0.00    -0.078 A 
ATOM      4  C2  OXE d   1      -0.485   0.090   1.711  0.00  0.00    -0.078 A 
ATOM      5  C3  OXE d   1      -1.396   0.906   2.375  0.00  0.00     0.003 A 
ATOM      6  C4  OXE d   1      -2.276   1.721   1.652  0.00  0.00    -0.002 A 
ATOM      7  C5  OXE d   1      -2.176   1.814   0.260  0.00  0.00    -0.002 A 
ATOM      8  C6  OXE d   1      -1.190   1.091  -0.402  0.00  0.00     0.003 A 
ENDROOT
TORSDOF 0
ENDMDL
