MODEL 1
REMARK minimizedAffinity -3.29261827
REMARK minimizedRMSD -1
REMARK  0 active torsions:
REMARK  status: ('A' for Active; 'I' for Inactive)
ROOT
ATOM      1  C2' OXE d   1       1.119  -0.827  -0.603  0.00  0.00     0.078 C 
ATOM      2  C1' OXE d   1      -0.124   1.618  -1.202  0.00  0.00     0.078 C 
ATOM      3  C1  OXE d   1      -0.383   1.010   0.154  0.00  0.00    -0.078 A 
ATOM      4  C2  OXE d   1       0.191  -0.209   0.421  0.00  0.00    -0.078 A 
ATOM      5  C3  OXE d   1       0.029  -0.788   1.677  0.00  0.00     0.003 A 
ATOM      6  C4  OXE d   1      -0.838  -0.215   2.614  0.00  0.00    -0.002 A 
ATOM      7  C5  OXE d   1      -1.465   1.007   2.348  0.00  0.00    -0.002 A 
ATOM      8  C6  OXE d   1      -1.215   1.652   1.142  0.00  0.00     0.003 A 
ENDROOT
TORSDOF 0
ENDMDL
