MODEL 1
REMARK minimizedAffinity -3.16843224
REMARK minimizedRMSD -1
REMARK  0 active torsions:
REMARK  status: ('A' for Active; 'I' for Inactive)
ROOT
ATOM      1  C2' OXE d   1      -0.120   2.452  -1.503  0.00  0.00     0.078 C 
ATOM      2  C1' OXE d   1      -1.563   2.052   0.871  0.00  0.00     0.078 C 
ATOM      3  C1  OXE d   1      -0.754   0.896   0.337  0.00  0.00    -0.078 A 
ATOM      4  C2  OXE d   1      -0.088   1.087  -0.851  0.00  0.00    -0.078 A 
ATOM      5  C3  OXE d   1       0.717   0.072  -1.360  0.00  0.00     0.003 A 
ATOM      6  C4  OXE d   1       0.732  -1.191  -0.756  0.00  0.00    -0.002 A 
ATOM      7  C5  OXE d   1       0.030  -1.418   0.433  0.00  0.00    -0.002 A 
ATOM      8  C6  OXE d   1      -0.682  -0.375   1.014  0.00  0.00     0.003 A 
ENDROOT
TORSDOF 0
ENDMDL
