MODEL 1
REMARK minimizedAffinity -4.81089211
REMARK minimizedRMSD -1
REMARK  0 active torsions:
REMARK  status: ('A' for Active; 'I' for Inactive)
ROOT
ATOM      1  C2' OXE d   1       0.458  -0.306  -0.536  0.00  0.00     0.078 C 
ATOM      2  C1' OXE d   1      -1.032  -0.378   1.842  0.00  0.00     0.078 C 
ATOM      3  C1  OXE d   1      -0.996   0.919   1.073  0.00  0.00    -0.078 A 
ATOM      4  C2  OXE d   1      -0.227   0.958  -0.065  0.00  0.00    -0.078 A 
ATOM      5  C3  OXE d   1      -0.204   2.114  -0.841  0.00  0.00     0.003 A 
ATOM      6  C4  OXE d   1      -0.832   3.282  -0.392  0.00  0.00    -0.002 A 
ATOM      7  C5  OXE d   1      -1.588   3.274   0.785  0.00  0.00    -0.002 A 
ATOM      8  C6  OXE d   1      -1.715   2.092   1.506  0.00  0.00     0.003 A 
ENDROOT
TORSDOF 0
ENDMDL
