MODEL 1
REMARK minimizedAffinity 0.428928643
REMARK minimizedRMSD -1
REMARK  1 active torsions:
REMARK  status: ('A' for Active; 'I' for Inactive)
REMARK    1  A    between atoms: C1_2  and  C2_3 
ROOT
ATOM      1  C2  UNL d   1      -0.849   1.528  -1.314  0.00  0.00    -0.073 A 
ATOM      2  C3  UNL d   1       0.549   1.539  -1.251  0.00  0.00    -0.002 A 
ATOM      3  C4  UNL d   1       1.229   0.564  -0.520  0.00  0.00     0.004 A 
ATOM      4  C5  UNL d   1       0.520  -0.433   0.149  0.00  0.00    -0.004 A 
ATOM      5  C6  UNL d   1      -0.877  -0.468   0.088  0.00  0.00    -0.075 A 
ATOM      6  C7  UNL d   1      -1.654  -1.533   0.804  0.00  0.00     0.076 C 
ATOM      7  C8  UNL d   1      -1.553   0.516  -0.646  0.00  0.00     0.001 A 
ENDROOT
BRANCH   1   8
ATOM      8  C1  UNL d   1      -1.588   2.575  -2.108  0.00  0.00     0.053 C 
ATOM      9  C   UNL d   1      -0.680   3.283  -3.101  0.00  0.00     0.018 C 
ENDBRANCH   1   8
TORSDOF 1
ENDMDL
