MODEL 1
REMARK minimizedAffinity -6.05081463
REMARK minimizedRMSD -1
REMARK  1 active torsions:
REMARK  status: ('A' for Active; 'I' for Inactive)
REMARK    1  A    between atoms: C1_2  and  C2_3 
ROOT
ATOM      1  C2  UNL d   1       0.119  -0.091   0.161  0.00  0.00    -0.073 A 
ATOM      2  C3  UNL d   1      -0.383  -0.139   1.466  0.00  0.00    -0.002 A 
ATOM      3  C4  UNL d   1       0.297  -0.847   2.457  0.00  0.00     0.004 A 
ATOM      4  C5  UNL d   1       1.487  -1.509   2.156  0.00  0.00    -0.004 A 
ATOM      5  C6  UNL d   1       2.011  -1.463   0.861  0.00  0.00    -0.075 A 
ATOM      6  C7  UNL d   1       3.289  -2.172   0.520  0.00  0.00     0.076 C 
ATOM      7  C8  UNL d   1       1.321  -0.752  -0.130  0.00  0.00     0.001 A 
ENDROOT
BRANCH   1   8
ATOM      8  C1  UNL d   1      -0.608   0.678  -0.912  0.00  0.00     0.053 C 
ATOM      9  C   UNL d   1       0.296   1.688  -1.601  0.00  0.00     0.018 C 
ENDBRANCH   1   8
TORSDOF 1
ENDMDL
