MODEL 1
REMARK minimizedAffinity -4.11296797
REMARK minimizedRMSD -1
REMARK  1 active torsions:
REMARK  status: ('A' for Active; 'I' for Inactive)
REMARK    1  A    between atoms: C1_2  and  C2_3 
ROOT
ATOM      1  C2  UNL d   1      -0.394   0.111  -0.176  0.00  0.00    -0.073 A 
ATOM      2  C3  UNL d   1      -1.653  -0.330   0.248  0.00  0.00    -0.002 A 
ATOM      3  C4  UNL d   1      -1.818  -0.864   1.526  0.00  0.00     0.004 A 
ATOM      4  C5  UNL d   1      -0.731  -0.957   2.395  0.00  0.00    -0.004 A 
ATOM      5  C6  UNL d   1       0.532  -0.511   1.994  0.00  0.00    -0.075 A 
ATOM      6  C7  UNL d   1       1.713  -0.606   2.915  0.00  0.00     0.076 C 
ATOM      7  C8  UNL d   1       0.691   0.022   0.708  0.00  0.00     0.001 A 
ENDROOT
BRANCH   1   8
ATOM      8  C1  UNL d   1      -0.211   0.695  -1.553  0.00  0.00     0.053 C 
ATOM      9  C   UNL d   1      -1.456   1.425  -2.032  0.00  0.00     0.018 C 
ENDBRANCH   1   8
TORSDOF 1
ENDMDL
