MODEL 1
REMARK minimizedAffinity 0.528194129
REMARK minimizedRMSD -1
REMARK  1 active torsions:
REMARK  status: ('A' for Active; 'I' for Inactive)
REMARK    1  A    between atoms: C1_2  and  C2_3 
ROOT
ATOM      1  C2  UNL d   1      -4.142   5.976  -3.509  0.00  0.00    -0.073 A 
ATOM      2  C3  UNL d   1      -4.889   5.969  -4.693  0.00  0.00    -0.002 A 
ATOM      3  C4  UNL d   1      -4.246   5.979  -5.931  0.00  0.00     0.004 A 
ATOM      4  C5  UNL d   1      -2.853   5.988  -6.000  0.00  0.00    -0.004 A 
ATOM      5  C6  UNL d   1      -2.090   5.984  -4.828  0.00  0.00    -0.075 A 
ATOM      6  C7  UNL d   1      -0.590   5.996  -4.884  0.00  0.00     0.076 C 
ATOM      7  C8  UNL d   1      -2.742   5.977  -3.588  0.00  0.00     0.001 A 
ENDROOT
BRANCH   1   8
ATOM      8  C1  UNL d   1      -4.831   5.959  -2.169  0.00  0.00     0.053 C 
ATOM      9  C   UNL d   1      -5.209   4.550  -1.740  0.00  0.00     0.018 C 
ENDBRANCH   1   8
TORSDOF 1
ENDMDL
