MODEL 1
REMARK minimizedAffinity 5.66697884
REMARK minimizedRMSD -1
REMARK  1 active torsions:
REMARK  status: ('A' for Active; 'I' for Inactive)
REMARK    1  A    between atoms: C1_2  and  C2_3 
ROOT
ATOM      1  C2  UNL d   1      -3.218   0.161   4.184  0.00  0.00    -0.073 A 
ATOM      2  C3  UNL d   1      -4.355  -0.596   4.490  0.00  0.00    -0.002 A 
ATOM      3  C4  UNL d   1      -4.841  -1.536   3.581  0.00  0.00     0.004 A 
ATOM      4  C5  UNL d   1      -4.193  -1.735   2.362  0.00  0.00    -0.004 A 
ATOM      5  C6  UNL d   1      -3.048  -0.997   2.043  0.00  0.00    -0.075 A 
ATOM      6  C7  UNL d   1      -2.340  -1.197   0.735  0.00  0.00     0.076 C 
ATOM      7  C8  UNL d   1      -2.568  -0.052   2.960  0.00  0.00     0.001 A 
ENDROOT
BRANCH   1   8
ATOM      8  C1  UNL d   1      -2.686   1.173   5.166  0.00  0.00     0.053 C 
ATOM      9  C   UNL d   1      -1.524   0.624   5.977  0.00  0.00     0.018 C 
ENDBRANCH   1   8
TORSDOF 1
ENDMDL
