MODEL 1
REMARK minimizedAffinity 17.4619751
REMARK minimizedRMSD -1
REMARK  1 active torsions:
REMARK  status: ('A' for Active; 'I' for Inactive)
REMARK    1  A    between atoms: C1_2  and  C2_3 
ROOT
ATOM      1  C2  UNL d   1      -5.449   2.000  -1.025  0.00  0.00    -0.073 A 
ATOM      2  C3  UNL d   1      -5.397   1.107   0.052  0.00  0.00    -0.002 A 
ATOM      3  C4  UNL d   1      -5.546  -0.264  -0.162  0.00  0.00     0.004 A 
ATOM      4  C5  UNL d   1      -5.740  -0.757  -1.452  0.00  0.00    -0.004 A 
ATOM      5  C6  UNL d   1      -5.783   0.119  -2.542  0.00  0.00    -0.075 A 
ATOM      6  C7  UNL d   1      -5.994  -0.395  -3.936  0.00  0.00     0.076 C 
ATOM      7  C8  UNL d   1      -5.636   1.494  -2.319  0.00  0.00     0.001 A 
ENDROOT
BRANCH   1   8
ATOM      8  C1  UNL d   1      -5.283   3.480  -0.800  0.00  0.00     0.053 C 
ATOM      9  C   UNL d   1      -4.296   4.098  -1.778  0.00  0.00     0.018 C 
ENDBRANCH   1   8
TORSDOF 1
ENDMDL
