MODEL 1
REMARK minimizedAffinity 18.1127644
REMARK minimizedRMSD -1
REMARK  1 active torsions:
REMARK  status: ('A' for Active; 'I' for Inactive)
REMARK    1  A    between atoms: C1_2  and  C2_3 
ROOT
ATOM      1  C2  UNL d   1       2.357  -0.492   2.061  0.00  0.00    -0.073 A 
ATOM      2  C3  UNL d   1       2.578  -1.474   3.033  0.00  0.00    -0.002 A 
ATOM      3  C4  UNL d   1       1.521  -2.262   3.491  0.00  0.00     0.004 A 
ATOM      4  C5  UNL d   1       0.237  -2.082   2.979  0.00  0.00    -0.004 A 
ATOM      5  C6  UNL d   1      -0.002  -1.113   1.999  0.00  0.00    -0.075 A 
ATOM      6  C7  UNL d   1      -1.378  -0.904   1.439  0.00  0.00     0.076 C 
ATOM      7  C8  UNL d   1       1.064  -0.323   1.546  0.00  0.00     0.001 A 
ENDROOT
BRANCH   1   8
ATOM      8  C1  UNL d   1       3.496   0.358   1.559  0.00  0.00     0.053 C 
ATOM      9  C   UNL d   1       3.016   1.466   0.635  0.00  0.00     0.018 C 
ENDBRANCH   1   8
TORSDOF 1
ENDMDL
