MODEL 1
REMARK minimizedAffinity 14.7563066
REMARK minimizedRMSD -1
REMARK  1 active torsions:
REMARK  status: ('A' for Active; 'I' for Inactive)
REMARK    1  A    between atoms: C1_2  and  C2_3 
ROOT
ATOM      1  C2  UNL d   1       2.946   1.873  -1.691  0.00  0.00    -0.073 A 
ATOM      2  C3  UNL d   1       1.583   2.193  -1.714  0.00  0.00    -0.002 A 
ATOM      3  C4  UNL d   1       1.060   2.973  -2.746  0.00  0.00     0.004 A 
ATOM      4  C5  UNL d   1       1.890   3.434  -3.768  0.00  0.00    -0.004 A 
ATOM      5  C6  UNL d   1       3.252   3.114  -3.769  0.00  0.00    -0.075 A 
ATOM      6  C7  UNL d   1       4.159   3.604  -4.860  0.00  0.00     0.076 C 
ATOM      7  C8  UNL d   1       3.770   2.333  -2.727  0.00  0.00     0.001 A 
ENDROOT
BRANCH   1   8
ATOM      8  C1  UNL d   1       3.514   1.026  -0.582  0.00  0.00     0.053 C 
ATOM      9  C   UNL d   1       2.667   1.094   0.679  0.00  0.00     0.018 C 
ENDBRANCH   1   8
TORSDOF 1
ENDMDL
