MODEL 1
REMARK minimizedAffinity 15.7009411
REMARK minimizedRMSD -1
REMARK  1 active torsions:
REMARK  status: ('A' for Active; 'I' for Inactive)
REMARK    1  A    between atoms: C1_2  and  C2_3 
ROOT
ATOM      1  C2  UNL d   1       5.502   3.716  -0.163  0.00  0.00    -0.073 A 
ATOM      2  C3  UNL d   1       5.998   3.782   1.144  0.00  0.00    -0.002 A 
ATOM      3  C4  UNL d   1       5.540   2.893   2.117  0.00  0.00     0.004 A 
ATOM      4  C5  UNL d   1       4.587   1.927   1.794  0.00  0.00    -0.004 A 
ATOM      5  C6  UNL d   1       4.088   1.838   0.490  0.00  0.00    -0.075 A 
ATOM      6  C7  UNL d   1       3.061   0.806   0.126  0.00  0.00     0.076 C 
ATOM      7  C8  UNL d   1       4.551   2.736  -0.481  0.00  0.00     0.001 A 
ENDROOT
BRANCH   1   8
ATOM      8  C1  UNL d   1       5.998   4.669  -1.219  0.00  0.00     0.053 C 
ATOM      9  C   UNL d   1       5.258   5.997  -1.182  0.00  0.00     0.018 C 
ENDBRANCH   1   8
TORSDOF 1
ENDMDL
