MODEL 1
REMARK minimizedAffinity 5.35078382
REMARK minimizedRMSD -1
REMARK  1 active torsions:
REMARK  status: ('A' for Active; 'I' for Inactive)
REMARK    1  A    between atoms: C1_2  and  C2_3 
ROOT
ATOM      1  C2  UNL d   1       0.400  -1.285   3.178  0.00  0.00    -0.073 A 
ATOM      2  C3  UNL d   1      -0.020  -1.857   1.972  0.00  0.00    -0.002 A 
ATOM      3  C4  UNL d   1      -1.238  -1.485   1.401  0.00  0.00     0.004 A 
ATOM      4  C5  UNL d   1      -2.044  -0.534   2.026  0.00  0.00    -0.004 A 
ATOM      5  C6  UNL d   1      -1.636   0.058   3.226  0.00  0.00    -0.075 A 
ATOM      6  C7  UNL d   1      -2.493   1.081   3.911  0.00  0.00     0.076 C 
ATOM      7  C8  UNL d   1      -0.413  -0.323   3.794  0.00  0.00     0.001 A 
ENDROOT
BRANCH   1   8
ATOM      8  C1  UNL d   1       1.717  -1.679   3.795  0.00  0.00     0.053 C 
ATOM      9  C   UNL d   1       2.121  -3.096   3.420  0.00  0.00     0.018 C 
ENDBRANCH   1   8
TORSDOF 1
ENDMDL
