MODEL 1
REMARK minimizedAffinity 6.28452635
REMARK minimizedRMSD -1
REMARK  1 active torsions:
REMARK  status: ('A' for Active; 'I' for Inactive)
REMARK    1  A    between atoms: C1_2  and  C2_3 
ROOT
ATOM      1  C2  UNL d   1       0.510  -2.436   2.602  0.00  0.00    -0.073 A 
ATOM      2  C3  UNL d   1       0.441  -3.633   1.880  0.00  0.00    -0.002 A 
ATOM      3  C4  UNL d   1      -0.604  -3.855   0.982  0.00  0.00     0.004 A 
ATOM      4  C5  UNL d   1      -1.584  -2.881   0.791  0.00  0.00    -0.004 A 
ATOM      5  C6  UNL d   1      -1.526  -1.674   1.495  0.00  0.00    -0.075 A 
ATOM      6  C7  UNL d   1      -2.574  -0.617   1.303  0.00  0.00     0.076 C 
ATOM      7  C8  UNL d   1      -0.475  -1.460   2.397  0.00  0.00     0.001 A 
ENDROOT
BRANCH   1   8
ATOM      8  C1  UNL d   1       1.640  -2.190   3.568  0.00  0.00     0.053 C 
ATOM      9  C   UNL d   1       2.864  -1.608   2.877  0.00  0.00     0.018 C 
ENDBRANCH   1   8
TORSDOF 1
ENDMDL
