MODEL 1
REMARK minimizedAffinity 9.58210087
REMARK minimizedRMSD -1
REMARK  1 active torsions:
REMARK  status: ('A' for Active; 'I' for Inactive)
REMARK    1  A    between atoms: C1_2  and  C2_3 
ROOT
ATOM      1  C2  UNL d   1      -1.356  -0.798   1.255  0.00  0.00    -0.073 A 
ATOM      2  C3  UNL d   1      -2.048  -0.059   2.222  0.00  0.00    -0.002 A 
ATOM      3  C4  UNL d   1      -3.264   0.549   1.907  0.00  0.00     0.004 A 
ATOM      4  C5  UNL d   1      -3.804   0.419   0.627  0.00  0.00    -0.004 A 
ATOM      5  C6  UNL d   1      -3.133  -0.326  -0.349  0.00  0.00    -0.075 A 
ATOM      6  C7  UNL d   1      -3.699  -0.473  -1.730  0.00  0.00     0.076 C 
ATOM      7  C8  UNL d   1      -1.911  -0.931  -0.026  0.00  0.00     0.001 A 
ENDROOT
BRANCH   1   8
ATOM      8  C1  UNL d   1      -0.046  -1.462   1.592  0.00  0.00     0.053 C 
ATOM      9  C   UNL d   1       1.099  -0.464   1.655  0.00  0.00     0.018 C 
ENDBRANCH   1   8
TORSDOF 1
ENDMDL
