MODEL 1
REMARK minimizedAffinity 20.2074108
REMARK minimizedRMSD -1
REMARK  1 active torsions:
REMARK  status: ('A' for Active; 'I' for Inactive)
REMARK    1  A    between atoms: C1_2  and  C2_3 
ROOT
ATOM      1  C2  UNL d   1      -4.905   1.882   3.592  0.00  0.00    -0.073 A 
ATOM      2  C3  UNL d   1      -6.000   1.653   2.751  0.00  0.00    -0.002 A 
ATOM      3  C4  UNL d   1      -5.822   1.030   1.515  0.00  0.00     0.004 A 
ATOM      4  C5  UNL d   1      -4.550   0.623   1.111  0.00  0.00    -0.004 A 
ATOM      5  C6  UNL d   1      -3.445   0.832   1.943  0.00  0.00    -0.075 A 
ATOM      6  C7  UNL d   1      -2.071   0.402   1.522  0.00  0.00     0.076 C 
ATOM      7  C8  UNL d   1      -3.632   1.461   3.181  0.00  0.00     0.001 A 
ENDROOT
BRANCH   1   8
ATOM      8  C1  UNL d   1      -5.094   2.548   4.930  0.00  0.00     0.053 C 
ATOM      9  C   UNL d   1      -5.479   4.012   4.788  0.00  0.00     0.018 C 
ENDBRANCH   1   8
TORSDOF 1
ENDMDL
