MODEL 1
REMARK minimizedAffinity 13.0295343
REMARK minimizedRMSD -1
REMARK  1 active torsions:
REMARK  status: ('A' for Active; 'I' for Inactive)
REMARK    1  A    between atoms: C1_2  and  C2_3 
ROOT
ATOM      1  C2  UNL d   1      -4.334   0.399   1.889  0.00  0.00    -0.073 A 
ATOM      2  C3  UNL d   1      -3.950   1.276   2.909  0.00  0.00    -0.002 A 
ATOM      3  C4  UNL d   1      -2.697   1.152   3.511  0.00  0.00     0.004 A 
ATOM      4  C5  UNL d   1      -1.813   0.156   3.094  0.00  0.00    -0.004 A 
ATOM      5  C6  UNL d   1      -2.174  -0.722   2.067  0.00  0.00    -0.075 A 
ATOM      6  C7  UNL d   1      -1.237  -1.800   1.609  0.00  0.00     0.076 C 
ATOM      7  C8  UNL d   1      -3.436  -0.593   1.470  0.00  0.00     0.001 A 
ENDROOT
BRANCH   1   8
ATOM      8  C1  UNL d   1      -5.684   0.533   1.232  0.00  0.00     0.053 C 
ATOM      9  C   UNL d   1      -5.570   0.703  -0.275  0.00  0.00     0.018 C 
ENDBRANCH   1   8
TORSDOF 1
ENDMDL
