MODEL 1
REMARK minimizedAffinity 12.9200134
REMARK minimizedRMSD -1
REMARK  1 active torsions:
REMARK  status: ('A' for Active; 'I' for Inactive)
REMARK    1  A    between atoms: C1_2  and  C2_3 
ROOT
ATOM      1  C2  UNL d   1       2.827   3.750  -3.486  0.00  0.00    -0.073 A 
ATOM      2  C3  UNL d   1       4.026   4.334  -3.061  0.00  0.00    -0.002 A 
ATOM      3  C4  UNL d   1       4.008   5.443  -2.215  0.00  0.00     0.004 A 
ATOM      4  C5  UNL d   1       2.795   5.975  -1.780  0.00  0.00    -0.004 A 
ATOM      5  C6  UNL d   1       1.586   5.399  -2.185  0.00  0.00    -0.075 A 
ATOM      6  C7  UNL d   1       0.272   5.960  -1.728  0.00  0.00     0.076 C 
ATOM      7  C8  UNL d   1       1.612   4.286  -3.037  0.00  0.00     0.001 A 
ENDROOT
BRANCH   1   8
ATOM      8  C1  UNL d   1       2.841   2.547  -4.395  0.00  0.00     0.053 C 
ATOM      9  C   UNL d   1       3.707   2.772  -5.624  0.00  0.00     0.018 C 
ENDBRANCH   1   8
TORSDOF 1
ENDMDL
