MODEL 1
REMARK minimizedAffinity 12.7587318
REMARK minimizedRMSD -1
REMARK  1 active torsions:
REMARK  status: ('A' for Active; 'I' for Inactive)
REMARK    1  A    between atoms: C1_2  and  C2_3 
ROOT
ATOM      1  C2  UNL d   1      -1.825  -2.475   1.180  0.00  0.00    -0.073 A 
ATOM      2  C3  UNL d   1      -2.192  -1.130   1.057  0.00  0.00    -0.002 A 
ATOM      3  C4  UNL d   1      -1.356  -0.124   1.543  0.00  0.00     0.004 A 
ATOM      4  C5  UNL d   1      -0.144  -0.451   2.150  0.00  0.00    -0.004 A 
ATOM      5  C6  UNL d   1       0.246  -1.789   2.272  0.00  0.00    -0.075 A 
ATOM      6  C7  UNL d   1       1.546  -2.158   2.925  0.00  0.00     0.076 C 
ATOM      7  C8  UNL d   1      -0.600  -2.794   1.784  0.00  0.00     0.001 A 
ENDROOT
BRANCH   1   8
ATOM      8  C1  UNL d   1      -2.722  -3.565   0.651  0.00  0.00     0.053 C 
ATOM      9  C   UNL d   1      -4.132  -3.465   1.211  0.00  0.00     0.018 C 
ENDBRANCH   1   8
TORSDOF 1
ENDMDL
