MODEL 1
REMARK minimizedAffinity -2.13192177
REMARK minimizedRMSD -1
REMARK  0 active torsions:
REMARK  status: ('A' for Active; 'I' for Inactive)
ROOT
ATOM      1  C2' OXE d   1       2.837  -0.701   0.608  0.00  0.00     0.078 C 
ATOM      2  C1' OXE d   1       0.307  -1.809   1.109  0.00  0.00     0.078 C 
ATOM      3  C1  OXE d   1       1.440  -2.197   2.027  0.00  0.00    -0.078 A 
ATOM      4  C2  OXE d   1       2.684  -1.687   1.746  0.00  0.00    -0.078 A 
ATOM      5  C3  OXE d   1       3.752  -1.969   2.593  0.00  0.00     0.003 A 
ATOM      6  C4  OXE d   1       3.605  -2.890   3.637  0.00  0.00    -0.002 A 
ATOM      7  C5  OXE d   1       2.355  -3.452   3.916  0.00  0.00    -0.002 A 
ATOM      8  C6  OXE d   1       1.255  -3.084   3.149  0.00  0.00     0.003 A 
ENDROOT
TORSDOF 0
ENDMDL
