MODEL 1
REMARK minimizedAffinity -0.894821525
REMARK minimizedRMSD -1
REMARK  0 active torsions:
REMARK  status: ('A' for Active; 'I' for Inactive)
ROOT
ATOM      1  C2' OXE d   1       4.144  -2.522   2.897  0.00  0.00     0.078 C 
ATOM      2  C1' OXE d   1       1.461  -3.341   2.783  0.00  0.00     0.078 C 
ATOM      3  C1  OXE d   1       1.843  -2.079   2.052  0.00  0.00    -0.078 A 
ATOM      4  C2  OXE d   1       3.148  -1.660   2.152  0.00  0.00    -0.078 A 
ATOM      5  C3  OXE d   1       3.565  -0.531   1.452  0.00  0.00     0.003 A 
ATOM      6  C4  OXE d   1       2.635   0.266   0.774  0.00  0.00    -0.002 A 
ATOM      7  C5  OXE d   1       1.293  -0.121   0.692  0.00  0.00    -0.002 A 
ATOM      8  C6  OXE d   1       0.890  -1.310   1.289  0.00  0.00     0.003 A 
ENDROOT
TORSDOF 0
ENDMDL
