MODEL 1
REMARK minimizedAffinity -2.28262925
REMARK minimizedRMSD -1
REMARK  0 active torsions:
REMARK  status: ('A' for Active; 'I' for Inactive)
ROOT
ATOM      1  C2' OXE d   1       0.089  -1.223   0.996  0.00  0.00     0.078 C 
ATOM      2  C1' OXE d   1       2.721  -0.256   0.863  0.00  0.00     0.078 C 
ATOM      3  C1  OXE d   1       2.444  -1.419   1.783  0.00  0.00    -0.078 A 
ATOM      4  C2  OXE d   1       1.145  -1.855   1.878  0.00  0.00    -0.078 A 
ATOM      5  C3  OXE d   1       0.844  -2.959   2.670  0.00  0.00     0.003 A 
ATOM      6  C4  OXE d   1       1.824  -3.532   3.490  0.00  0.00    -0.002 A 
ATOM      7  C5  OXE d   1       3.146  -3.077   3.439  0.00  0.00    -0.002 A 
ATOM      8  C6  OXE d   1       3.481  -2.051   2.561  0.00  0.00     0.003 A 
ENDROOT
TORSDOF 0
ENDMDL
