MODEL 1
REMARK minimizedAffinity 2.85036635
REMARK minimizedRMSD -1
REMARK  0 active torsions:
REMARK  status: ('A' for Active; 'I' for Inactive)
ROOT
ATOM      1  C2' OXE d   1       3.896  -2.226   2.272  0.00  0.00     0.078 C 
ATOM      2  C1' OXE d   1       1.151  -2.816   2.293  0.00  0.00     0.078 C 
ATOM      3  C1  OXE d   1       1.574  -1.450   1.812  0.00  0.00    -0.078 A 
ATOM      4  C2  OXE d   1       2.915  -1.154   1.849  0.00  0.00    -0.078 A 
ATOM      5  C3  OXE d   1       3.364   0.072   1.365  0.00  0.00     0.003 A 
ATOM      6  C4  OXE d   1       2.449   1.062   0.985  0.00  0.00    -0.002 A 
ATOM      7  C5  OXE d   1       1.076   0.795   0.978  0.00  0.00    -0.002 A 
ATOM      8  C6  OXE d   1       0.626  -0.468   1.347  0.00  0.00     0.003 A 
ENDROOT
TORSDOF 0
ENDMDL
