MODEL 1
REMARK minimizedAffinity 8.03452301
REMARK minimizedRMSD -1
REMARK  0 active torsions:
REMARK  status: ('A' for Active; 'I' for Inactive)
ROOT
ATOM      1  C2' OXE d   1       0.154   2.627   1.772  0.00  0.00     0.078 C 
ATOM      2  C1' OXE d   1       1.451   3.985  -0.315  0.00  0.00     0.078 C 
ATOM      3  C1  OXE d   1       2.118   2.753   0.244  0.00  0.00    -0.078 A 
ATOM      4  C2  OXE d   1       1.499   2.122   1.296  0.00  0.00    -0.078 A 
ATOM      5  C3  OXE d   1       2.043   0.950   1.813  0.00  0.00     0.003 A 
ATOM      6  C4  OXE d   1       3.292   0.495   1.375  0.00  0.00    -0.002 A 
ATOM      7  C5  OXE d   1       3.959   1.146   0.331  0.00  0.00    -0.002 A 
ATOM      8  C6  OXE d   1       3.366   2.249  -0.272  0.00  0.00     0.003 A 
ENDROOT
TORSDOF 0
ENDMDL
