MODEL 1
REMARK minimizedAffinity 3.29289889
REMARK minimizedRMSD -1
REMARK  0 active torsions:
REMARK  status: ('A' for Active; 'I' for Inactive)
ROOT
ATOM      1  C2' OXE d   1       1.144  -3.708   1.829  0.00  0.00     0.078 C 
ATOM      2  C1' OXE d   1      -1.042  -1.954   1.673  0.00  0.00     0.078 C 
ATOM      3  C1  OXE d   1       0.332  -1.352   1.828  0.00  0.00    -0.078 A 
ATOM      4  C2  OXE d   1       1.391  -2.219   1.950  0.00  0.00    -0.078 A 
ATOM      5  C3  OXE d   1       2.686  -1.717   2.040  0.00  0.00     0.003 A 
ATOM      6  C4  OXE d   1       2.906  -0.340   2.161  0.00  0.00    -0.002 A 
ATOM      7  C5  OXE d   1       1.837   0.559   2.079  0.00  0.00    -0.002 A 
ATOM      8  C6  OXE d   1       0.551   0.072   1.870  0.00  0.00     0.003 A 
ENDROOT
TORSDOF 0
ENDMDL
