MODEL 1
REMARK minimizedAffinity 1.2846576
REMARK minimizedRMSD -1
REMARK  0 active torsions:
REMARK  status: ('A' for Active; 'I' for Inactive)
ROOT
ATOM      1  C2' OXE d   1       1.884  -2.581  -2.551  0.00  0.00     0.078 C 
ATOM      2  C1' OXE d   1      -0.824  -1.934  -2.191  0.00  0.00     0.078 C 
ATOM      3  C1  OXE d   1       0.035  -2.080  -0.959  0.00  0.00    -0.078 A 
ATOM      4  C2  OXE d   1       1.347  -2.443  -1.143  0.00  0.00    -0.078 A 
ATOM      5  C3  OXE d   1       2.197  -2.537  -0.044  0.00  0.00     0.003 A 
ATOM      6  C4  OXE d   1       1.690  -2.418   1.256  0.00  0.00    -0.002 A 
ATOM      7  C5  OXE d   1       0.347  -2.088   1.467  0.00  0.00    -0.002 A 
ATOM      8  C6  OXE d   1      -0.482  -1.874   0.371  0.00  0.00     0.003 A 
ENDROOT
TORSDOF 0
ENDMDL
