MODEL 1
REMARK minimizedAffinity -1.71295428
REMARK minimizedRMSD -1
REMARK  0 active torsions:
REMARK  status: ('A' for Active; 'I' for Inactive)
ROOT
ATOM      1  C2' OXE d   1      -0.126  -3.349   2.547  0.00  0.00     0.078 C 
ATOM      2  C1' OXE d   1       1.416  -2.218   4.602  0.00  0.00     0.078 C 
ATOM      3  C1  OXE d   1       1.942  -2.118   3.192  0.00  0.00    -0.078 A 
ATOM      4  C2  OXE d   1       1.204  -2.716   2.198  0.00  0.00    -0.078 A 
ATOM      5  C3  OXE d   1       1.616  -2.607   0.873  0.00  0.00     0.003 A 
ATOM      6  C4  OXE d   1       2.852  -2.028   0.561  0.00  0.00    -0.002 A 
ATOM      7  C5  OXE d   1       3.638  -1.449   1.562  0.00  0.00    -0.002 A 
ATOM      8  C6  OXE d   1       3.179  -1.448   2.875  0.00  0.00     0.003 A 
ENDROOT
TORSDOF 0
ENDMDL
