MODEL 1
REMARK minimizedAffinity 1.74929845
REMARK minimizedRMSD -1
REMARK  0 active torsions:
REMARK  status: ('A' for Active; 'I' for Inactive)
ROOT
ATOM      1  C2' OXE d   1       3.275  -2.675   2.568  0.00  0.00     0.078 C 
ATOM      2  C1' OXE d   1       0.875  -2.978   3.991  0.00  0.00     0.078 C 
ATOM      3  C1  OXE d   1       0.816  -2.289   2.651  0.00  0.00    -0.078 A 
ATOM      4  C2  OXE d   1       2.002  -2.103   1.983  0.00  0.00    -0.078 A 
ATOM      5  C3  OXE d   1       1.997  -1.522   0.718  0.00  0.00     0.003 A 
ATOM      6  C4  OXE d   1       0.816  -0.987   0.188  0.00  0.00    -0.002 A 
ATOM      7  C5  OXE d   1      -0.397  -1.130   0.871  0.00  0.00    -0.002 A 
ATOM      8  C6  OXE d   1      -0.421  -1.815   2.081  0.00  0.00     0.003 A 
ENDROOT
TORSDOF 0
ENDMDL
