MODEL 1
REMARK minimizedAffinity 4.31623316
REMARK minimizedRMSD -1
REMARK  0 active torsions:
REMARK  status: ('A' for Active; 'I' for Inactive)
ROOT
ATOM      1  C2' OXE d   1       2.849   1.067   1.639  0.00  0.00     0.078 C 
ATOM      2  C1' OXE d   1       4.458  -1.191   1.202  0.00  0.00     0.078 C 
ATOM      3  C1  OXE d   1       2.974  -1.406   1.369  0.00  0.00    -0.078 A 
ATOM      4  C2  OXE d   1       2.201  -0.301   1.629  0.00  0.00    -0.078 A 
ATOM      5  C3  OXE d   1       0.819  -0.436   1.736  0.00  0.00     0.003 A 
ATOM      6  C4  OXE d   1       0.229  -1.706   1.736  0.00  0.00    -0.002 A 
ATOM      7  C5  OXE d   1       1.004  -2.849   1.512  0.00  0.00    -0.002 A 
ATOM      8  C6  OXE d   1       2.370  -2.712   1.285  0.00  0.00     0.003 A 
ENDROOT
TORSDOF 0
ENDMDL
