MODEL 1
REMARK minimizedAffinity -2.63369751
REMARK minimizedRMSD -1
REMARK  0 active torsions:
REMARK  status: ('A' for Active; 'I' for Inactive)
ROOT
ATOM      1  C   UNL d   1      -1.880   0.329  -0.889  0.00  0.00     0.023 A 
ATOM      2  C1  UNL d   1      -1.307  -0.812  -0.328  0.00  0.00     0.003 A 
ATOM      3  C2  UNL d   1      -0.012  -0.762   0.192  0.00  0.00     0.048 A 
ATOM      4  C3  UNL d   1       0.705   0.433   0.148  0.00  0.00     0.023 A 
ATOM      5  C4  UNL d   1       0.136   1.578  -0.412  0.00  0.00     0.048 A 
ATOM      6  C5  UNL d   1      -1.159   1.523  -0.931  0.00  0.00     0.003 A 
ATOM      7  I   UNL d   1       2.633   0.510   0.920  0.00  0.00    -0.146 I 
ENDROOT
TORSDOF 0
ENDMDL
