MODEL 1
REMARK minimizedAffinity -3.64997339
REMARK minimizedRMSD -1
REMARK  0 active torsions:
REMARK  status: ('A' for Active; 'I' for Inactive)
ROOT
ATOM      1  C   UNL d   1       2.941  -1.539   2.062  0.00  0.00     0.023 A 
ATOM      2  C1  UNL d   1       1.847  -2.404   2.085  0.00  0.00     0.003 A 
ATOM      3  C2  UNL d   1       0.692  -2.090   1.367  0.00  0.00     0.048 A 
ATOM      4  C3  UNL d   1       0.637  -0.910   0.627  0.00  0.00     0.023 A 
ATOM      5  C4  UNL d   1       1.730  -0.042   0.600  0.00  0.00     0.048 A 
ATOM      6  C5  UNL d   1       2.882  -0.360   1.320  0.00  0.00     0.003 A 
ATOM      7  I   UNL d   1      -1.082  -0.441  -0.443  0.00  0.00    -0.146 I 
ENDROOT
TORSDOF 0
ENDMDL
