MODEL 1
REMARK minimizedAffinity -5.08280087
REMARK minimizedRMSD -1
REMARK  0 active torsions:
REMARK  status: ('A' for Active; 'I' for Inactive)
ROOT
ATOM      1  C   UNL d   1       3.553  -1.242   1.447  0.00  0.00     0.023 A 
ATOM      2  C1  UNL d   1       2.392  -1.881   1.882  0.00  0.00     0.003 A 
ATOM      3  C2  UNL d   1       1.142  -1.428   1.455  0.00  0.00     0.048 A 
ATOM      4  C3  UNL d   1       1.060  -0.335   0.592  0.00  0.00     0.023 A 
ATOM      5  C4  UNL d   1       2.219   0.307   0.153  0.00  0.00     0.048 A 
ATOM      6  C5  UNL d   1       3.467  -0.149   0.583  0.00  0.00     0.003 A 
ATOM      7  I   UNL d   1      -0.799   0.341  -0.044  0.00  0.00    -0.146 I 
ENDROOT
TORSDOF 0
ENDMDL
