MODEL 1
REMARK minimizedAffinity -4.13695717
REMARK minimizedRMSD -1
REMARK  0 active torsions:
REMARK  status: ('A' for Active; 'I' for Inactive)
ROOT
ATOM      1  C   UNL d   1       2.850  -1.026   1.548  0.00  0.00     0.023 A 
ATOM      2  C1  UNL d   1       2.558   0.248   1.061  0.00  0.00     0.003 A 
ATOM      3  C2  UNL d   1       1.305   0.516   0.507  0.00  0.00     0.048 A 
ATOM      4  C3  UNL d   1       0.347  -0.496   0.442  0.00  0.00     0.023 A 
ATOM      5  C4  UNL d   1       0.634  -1.772   0.929  0.00  0.00     0.048 A 
ATOM      6  C5  UNL d   1       1.889  -2.035   1.482  0.00  0.00     0.003 A 
ATOM      7  I   UNL d   1      -1.519  -0.100  -0.383  0.00  0.00    -0.146 I 
ENDROOT
TORSDOF 0
ENDMDL
