MODEL 1
REMARK minimizedAffinity -2.6173532
REMARK minimizedRMSD -1
REMARK  0 active torsions:
REMARK  status: ('A' for Active; 'I' for Inactive)
ROOT
ATOM      1  C   UNL d   1      -3.106  -0.113  -3.156  0.00  0.00     0.023 A 
ATOM      2  C1  UNL d   1      -2.082  -1.048  -3.006  0.00  0.00     0.003 A 
ATOM      3  C2  UNL d   1      -1.116  -0.875  -2.013  0.00  0.00     0.048 A 
ATOM      4  C3  UNL d   1      -1.180   0.236  -1.172  0.00  0.00     0.023 A 
ATOM      5  C4  UNL d   1      -2.203   1.174  -1.318  0.00  0.00     0.048 A 
ATOM      6  C5  UNL d   1      -3.166   0.997  -2.313  0.00  0.00     0.003 A 
ATOM      7  I   UNL d   1       0.257   0.496   0.307  0.00  0.00    -0.146 I 
ENDROOT
TORSDOF 0
ENDMDL
