MODEL 1
REMARK minimizedAffinity 2.76850581
REMARK minimizedRMSD -1
REMARK  0 active torsions:
REMARK  status: ('A' for Active; 'I' for Inactive)
ROOT
ATOM      1  C   UNL d   1      -5.893   4.519  -1.831  0.00  0.00     0.023 A 
ATOM      2  C1  UNL d   1      -4.949   4.747  -2.833  0.00  0.00     0.003 A 
ATOM      3  C2  UNL d   1      -4.059   3.734  -3.199  0.00  0.00     0.048 A 
ATOM      4  C3  UNL d   1      -4.120   2.496  -2.561  0.00  0.00     0.023 A 
ATOM      5  C4  UNL d   1      -5.064   2.263  -1.559  0.00  0.00     0.048 A 
ATOM      6  C5  UNL d   1      -5.950   3.279  -1.195  0.00  0.00     0.003 A 
ATOM      7  I   UNL d   1      -2.798   0.988  -3.104  0.00  0.00    -0.146 I 
ENDROOT
TORSDOF 0
ENDMDL
