MODEL 1
REMARK minimizedAffinity -5.64486313
REMARK minimizedRMSD -1
REMARK  0 active torsions:
REMARK  status: ('A' for Active; 'I' for Inactive)
ROOT
ATOM      1  C   UNL d   1       2.554  -0.891   1.551  0.00  0.00     0.023 A 
ATOM      2  C1  UNL d   1       1.541  -1.848   1.612  0.00  0.00     0.003 A 
ATOM      3  C2  UNL d   1       0.308  -1.600   1.006  0.00  0.00     0.048 A 
ATOM      4  C3  UNL d   1       0.094  -0.394   0.340  0.00  0.00     0.023 A 
ATOM      5  C4  UNL d   1       1.106   0.566   0.276  0.00  0.00     0.048 A 
ATOM      6  C5  UNL d   1       2.337   0.315   0.884  0.00  0.00     0.003 A 
ATOM      7  I   UNL d   1      -1.740  -0.023  -0.563  0.00  0.00    -0.146 I 
ENDROOT
TORSDOF 0
ENDMDL
