MODEL 1
REMARK minimizedAffinity -2.89722991
REMARK minimizedRMSD -1
REMARK  0 active torsions:
REMARK  status: ('A' for Active; 'I' for Inactive)
ROOT
ATOM      1  C   UNL d   1      -0.051  -0.212   1.114  0.00  0.00     0.023 A 
ATOM      2  C1  UNL d   1      -1.167  -1.042   1.009  0.00  0.00     0.003 A 
ATOM      3  C2  UNL d   1      -1.889  -1.096  -0.185  0.00  0.00     0.048 A 
ATOM      4  C3  UNL d   1      -1.490  -0.317  -1.270  0.00  0.00     0.023 A 
ATOM      5  C4  UNL d   1      -0.373   0.514  -1.171  0.00  0.00     0.048 A 
ATOM      6  C5  UNL d   1       0.346   0.565   0.025  0.00  0.00     0.003 A 
ATOM      7  I   UNL d   1      -2.563  -0.396  -3.048  0.00  0.00    -0.146 I 
ENDROOT
TORSDOF 0
ENDMDL
