MODEL 1
REMARK minimizedAffinity -3.46675611
REMARK minimizedRMSD -1
REMARK  0 active torsions:
REMARK  status: ('A' for Active; 'I' for Inactive)
ROOT
ATOM      1  C   UNL d   1      -0.597   1.023  -0.278  0.00  0.00     0.172 C 
ATOM      2  N   UNL d   1       0.438   0.045  -0.036  0.00  0.00    -0.070 N 
ATOM      3  C1  UNL d   1       0.269  -1.155   0.602  0.00  0.00    -0.004 A 
ATOM      4  C2  UNL d   1       1.490  -1.793   0.630  0.00  0.00    -0.047 A 
ATOM      5  C3  UNL d   1       2.426  -0.946  -0.011  0.00  0.00    -0.047 A 
ATOM      6  C4  UNL d   1       1.747   0.185  -0.413  0.00  0.00    -0.004 A 
ENDROOT
TORSDOF 0
ENDMDL
