MODEL 1
REMARK minimizedAffinity -2.22914982
REMARK minimizedRMSD -1
REMARK  0 active torsions:
REMARK  status: ('A' for Active; 'I' for Inactive)
ROOT
ATOM      1  C   UNL d   1      -0.498   0.871  -0.647  0.00  0.00     0.172 C 
ATOM      2  N   UNL d   1       0.560  -0.028  -0.249  0.00  0.00    -0.070 N 
ATOM      3  C1  UNL d   1       0.390  -1.234   0.377  0.00  0.00    -0.004 A 
ATOM      4  C2  UNL d   1       1.638  -1.781   0.584  0.00  0.00    -0.047 A 
ATOM      5  C3  UNL d   1       2.591  -0.873   0.065  0.00  0.00    -0.047 A 
ATOM      6  C4  UNL d   1       1.896   0.204  -0.444  0.00  0.00    -0.004 A 
ENDROOT
TORSDOF 0
ENDMDL
