MODEL 1
REMARK minimizedAffinity -2.74157739
REMARK minimizedRMSD -1
REMARK  0 active torsions:
REMARK  status: ('A' for Active; 'I' for Inactive)
ROOT
ATOM      1  C   UNL d   1      -0.736   0.228   0.027  0.00  0.00     0.172 C 
ATOM      2  N   UNL d   1       0.672   0.003  -0.201  0.00  0.00    -0.070 N 
ATOM      3  C1  UNL d   1       1.405  -1.041   0.298  0.00  0.00    -0.004 A 
ATOM      4  C2  UNL d   1       2.701  -0.896  -0.146  0.00  0.00    -0.047 A 
ATOM      5  C3  UNL d   1       2.750   0.276  -0.938  0.00  0.00    -0.047 A 
ATOM      6  C4  UNL d   1       1.480   0.813  -0.954  0.00  0.00    -0.004 A 
ENDROOT
TORSDOF 0
ENDMDL
