MODEL 1
REMARK minimizedAffinity -2.21833682
REMARK minimizedRMSD -1
REMARK  0 active torsions:
REMARK  status: ('A' for Active; 'I' for Inactive)
ROOT
ATOM      1  C   UNL d   1      -0.336   1.344  -0.626  0.00  0.00     0.172 C 
ATOM      2  N   UNL d   1       0.570   0.376  -0.054  0.00  0.00    -0.070 N 
ATOM      3  C1  UNL d   1       1.932   0.500   0.013  0.00  0.00    -0.004 A 
ATOM      4  C2  UNL d   1       2.429  -0.629   0.628  0.00  0.00    -0.047 A 
ATOM      5  C3  UNL d   1       1.327  -1.461   0.939  0.00  0.00    -0.047 A 
ATOM      6  C4  UNL d   1       0.189  -0.815   0.506  0.00  0.00    -0.004 A 
ENDROOT
TORSDOF 0
ENDMDL
