MODEL 1
REMARK minimizedAffinity -1.12704396
REMARK minimizedRMSD -1
REMARK  0 active torsions:
REMARK  status: ('A' for Active; 'I' for Inactive)
ROOT
ATOM      1  C   UNL d   1      -1.047   0.376   0.154  0.00  0.00     0.172 C 
ATOM      2  N   UNL d   1      -1.424   0.874  -1.148  0.00  0.00    -0.070 N 
ATOM      3  C1  UNL d   1      -0.730   1.800  -1.880  0.00  0.00    -0.004 A 
ATOM      4  C2  UNL d   1      -1.415   2.006  -3.058  0.00  0.00    -0.047 A 
ATOM      5  C3  UNL d   1      -2.560   1.175  -3.033  0.00  0.00    -0.047 A 
ATOM      6  C4  UNL d   1      -2.541   0.486  -1.839  0.00  0.00    -0.004 A 
ENDROOT
TORSDOF 0
ENDMDL
