MODEL 1
REMARK minimizedAffinity -2.83880377
REMARK minimizedRMSD -1
REMARK  0 active torsions:
REMARK  status: ('A' for Active; 'I' for Inactive)
ROOT
ATOM      1  C   UNL d   1       0.577  -1.433   3.099  0.00  0.00     0.172 C 
ATOM      2  N   UNL d   1       1.172  -1.247   1.796  0.00  0.00    -0.070 N 
ATOM      3  C1  UNL d   1       0.706  -0.409   0.818  0.00  0.00    -0.004 A 
ATOM      4  C2  UNL d   1       1.548  -0.519  -0.268  0.00  0.00    -0.047 A 
ATOM      5  C3  UNL d   1       2.554  -1.455   0.069  0.00  0.00    -0.047 A 
ATOM      6  C4  UNL d   1       2.297  -1.890   1.352  0.00  0.00    -0.004 A 
ENDROOT
TORSDOF 0
ENDMDL
