MODEL 1
REMARK minimizedAffinity -3.07176375
REMARK minimizedRMSD -1
REMARK  0 active torsions:
REMARK  status: ('A' for Active; 'I' for Inactive)
ROOT
ATOM      1  C   UNL d   1      -0.124  -0.221  -0.342  0.00  0.00     0.172 C 
ATOM      2  N   UNL d   1      -1.057   0.521  -1.157  0.00  0.00    -0.070 N 
ATOM      3  C1  UNL d   1      -1.256   0.348  -2.501  0.00  0.00    -0.004 A 
ATOM      4  C2  UNL d   1      -2.224   1.243  -2.903  0.00  0.00    -0.047 A 
ATOM      5  C3  UNL d   1      -2.618   1.981  -1.762  0.00  0.00    -0.047 A 
ATOM      6  C4  UNL d   1      -1.880   1.514  -0.695  0.00  0.00    -0.004 A 
ENDROOT
TORSDOF 0
ENDMDL
