MODEL 1
REMARK minimizedAffinity -2.48367333
REMARK minimizedRMSD -1
REMARK  0 active torsions:
REMARK  status: ('A' for Active; 'I' for Inactive)
ROOT
ATOM      1  C   UNL d   1      -1.363  -0.779   2.475  0.00  0.00     0.172 C 
ATOM      2  N   UNL d   1      -0.741  -0.290   1.267  0.00  0.00    -0.070 N 
ATOM      3  C1  UNL d   1       0.380  -0.812   0.679  0.00  0.00    -0.004 A 
ATOM      4  C2  UNL d   1       0.650  -0.068  -0.449  0.00  0.00    -0.047 A 
ATOM      5  C3  UNL d   1      -0.342   0.937  -0.541  0.00  0.00    -0.047 A 
ATOM      6  C4  UNL d   1      -1.191   0.776   0.534  0.00  0.00    -0.004 A 
ENDROOT
TORSDOF 0
ENDMDL
