MODEL 1
REMARK minimizedAffinity -1.77526951
REMARK minimizedRMSD -1
REMARK  0 active torsions:
REMARK  status: ('A' for Active; 'I' for Inactive)
ROOT
ATOM      1  C   UNL d   1      -1.071   0.113   1.395  0.00  0.00     0.172 C 
ATOM      2  N   UNL d   1       0.208   0.117   0.725  0.00  0.00    -0.070 N 
ATOM      3  C1  UNL d   1       1.236  -0.756   0.962  0.00  0.00    -0.004 A 
ATOM      4  C2  UNL d   1       2.276  -0.422   0.122  0.00  0.00    -0.047 A 
ATOM      5  C3  UNL d   1       1.859   0.691  -0.646  0.00  0.00    -0.047 A 
ATOM      6  C4  UNL d   1       0.575   1.004  -0.253  0.00  0.00    -0.004 A 
ENDROOT
TORSDOF 0
ENDMDL
