MODEL 1
REMARK minimizedAffinity -3.24711132
REMARK minimizedRMSD -1
REMARK  0 active torsions:
REMARK  status: ('A' for Active; 'I' for Inactive)
ROOT
ATOM      1  C   UNL d   1      -0.881  -0.119  -0.017  0.00  0.00     0.172 C 
ATOM      2  N   UNL d   1      -1.316   0.902  -0.941  0.00  0.00    -0.070 N 
ATOM      3  C1  UNL d   1      -2.373   0.799  -1.805  0.00  0.00    -0.004 A 
ATOM      4  C2  UNL d   1      -2.459   1.980  -2.510  0.00  0.00    -0.047 A 
ATOM      5  C3  UNL d   1      -1.416   2.822  -2.054  0.00  0.00    -0.047 A 
ATOM      6  C4  UNL d   1      -0.725   2.129  -1.083  0.00  0.00    -0.004 A 
ENDROOT
TORSDOF 0
ENDMDL
