MODEL 1
REMARK minimizedAffinity -3.1796546
REMARK minimizedRMSD -1
REMARK  0 active torsions:
REMARK  status: ('A' for Active; 'I' for Inactive)
ROOT
ATOM      1  C   UNL d   1       0.315   0.484  -0.081  0.00  0.00     0.172 C 
ATOM      2  N   UNL d   1      -0.750   0.943  -0.941  0.00  0.00    -0.070 N 
ATOM      3  C1  UNL d   1      -1.217   2.228  -1.018  0.00  0.00    -0.004 A 
ATOM      4  C2  UNL d   1      -2.231   2.254  -1.951  0.00  0.00    -0.047 A 
ATOM      5  C3  UNL d   1      -2.379   0.939  -2.451  0.00  0.00    -0.047 A 
ATOM      6  C4  UNL d   1      -1.450   0.148  -1.809  0.00  0.00    -0.004 A 
ENDROOT
TORSDOF 0
ENDMDL
