MODEL 1
REMARK minimizedAffinity -3.62584114
REMARK minimizedRMSD -1
REMARK  0 active torsions:
REMARK  status: ('A' for Active; 'I' for Inactive)
ROOT
ATOM      1  C   UNL d   1      -0.390   0.920  -0.421  0.00  0.00     0.172 C 
ATOM      2  N   UNL d   1       0.613  -0.040  -0.024  0.00  0.00    -0.070 N 
ATOM      3  C1  UNL d   1       1.923  -0.037  -0.423  0.00  0.00    -0.004 A 
ATOM      4  C2  UNL d   1       2.548  -1.111   0.172  0.00  0.00    -0.047 A 
ATOM      5  C3  UNL d   1       1.580  -1.784   0.956  0.00  0.00    -0.047 A 
ATOM      6  C4  UNL d   1       0.391  -1.100   0.816  0.00  0.00    -0.004 A 
ENDROOT
TORSDOF 0
ENDMDL
