MODEL 1
REMARK minimizedAffinity 0.97574836
REMARK minimizedRMSD -1
REMARK  0 active torsions:
REMARK  status: ('A' for Active; 'I' for Inactive)
ROOT
ATOM      1  C   UNL d   1      -1.203  -5.996  -5.940  0.00  0.00     0.172 C 
ATOM      2  N   UNL d   1       0.094  -5.439  -5.636  0.00  0.00    -0.070 N 
ATOM      3  C1  UNL d   1       0.322  -4.278  -4.946  0.00  0.00    -0.004 A 
ATOM      4  C2  UNL d   1       1.686  -4.096  -4.868  0.00  0.00    -0.047 A 
ATOM      5  C3  UNL d   1       2.298  -5.184  -5.534  0.00  0.00    -0.047 A 
ATOM      6  C4  UNL d   1       1.289  -6.000  -6.000  0.00  0.00    -0.004 A 
ENDROOT
TORSDOF 0
ENDMDL
