MODEL 1
REMARK minimizedAffinity -2.47240686
REMARK minimizedRMSD -1
REMARK  0 active torsions:
REMARK  status: ('A' for Active; 'I' for Inactive)
ROOT
ATOM      1  C   UNL d   1      -0.325   1.179  -0.040  0.00  0.00     0.172 C 
ATOM      2  N   UNL d   1      -1.612   0.591   0.244  0.00  0.00    -0.070 N 
ATOM      3  C1  UNL d   1      -2.586   0.315  -0.679  0.00  0.00    -0.004 A 
ATOM      4  C2  UNL d   1      -3.656  -0.239  -0.011  0.00  0.00    -0.047 A 
ATOM      5  C3  UNL d   1      -3.315  -0.297   1.362  0.00  0.00    -0.047 A 
ATOM      6  C4  UNL d   1      -2.044   0.223   1.491  0.00  0.00    -0.004 A 
ENDROOT
TORSDOF 0
ENDMDL
