MODEL 1
REMARK minimizedAffinity -2.10288548
REMARK minimizedRMSD -1
REMARK  0 active torsions:
REMARK  status: ('A' for Active; 'I' for Inactive)
ROOT
ATOM      1  C   UNL d   1      -0.126   0.470   0.004  0.00  0.00     0.172 C 
ATOM      2  N   UNL d   1       1.104  -0.282   0.085  0.00  0.00    -0.070 N 
ATOM      3  C1  UNL d   1       1.988  -0.479  -0.943  0.00  0.00    -0.004 A 
ATOM      4  C2  UNL d   1       3.029  -1.244  -0.463  0.00  0.00    -0.047 A 
ATOM      5  C3  UNL d   1       2.762  -1.516   0.900  0.00  0.00    -0.047 A 
ATOM      6  C4  UNL d   1       1.564  -0.909   1.213  0.00  0.00    -0.004 A 
ENDROOT
TORSDOF 0
ENDMDL
