MODEL 1
REMARK minimizedAffinity -3.87301302
REMARK minimizedRMSD -1
REMARK  0 active torsions:
REMARK  status: ('A' for Active; 'I' for Inactive)
ROOT
ATOM      1  C   UNL d   1      -0.713   0.509  -0.156  0.00  0.00     0.172 C 
ATOM      2  N   UNL d   1       0.267  -0.455   0.287  0.00  0.00    -0.070 N 
ATOM      3  C1  UNL d   1       1.577  -0.501  -0.109  0.00  0.00    -0.004 A 
ATOM      4  C2  UNL d   1       2.176  -1.561   0.536  0.00  0.00    -0.047 A 
ATOM      5  C3  UNL d   1       1.191  -2.173   1.348  0.00  0.00    -0.047 A 
ATOM      6  C4  UNL d   1       0.019  -1.468   1.175  0.00  0.00    -0.004 A 
ENDROOT
TORSDOF 0
ENDMDL
