MODEL 1
REMARK minimizedAffinity 31.2346096
REMARK minimizedRMSD -1
REMARK  0 active torsions:
REMARK  status: ('A' for Active; 'I' for Inactive)
ROOT
ATOM      1  C   UNL d   1      -1.278  -2.354   3.401  0.00  0.00     0.124 A 
ATOM      2  C1  UNL d   1      -1.821  -1.287   4.103  0.00  0.00     0.062 A 
ATOM      3  C2  UNL d   1      -1.907  -0.031   3.510  0.00  0.00     0.162 A 
ATOM      4  C3  UNL d   1      -1.449   0.166   2.207  0.00  0.00    -0.034 A 
ATOM      5  C4  UNL d   1      -0.903  -0.912   1.508  0.00  0.00     0.162 A 
ATOM      6  C5  UNL d   1      -0.819  -2.166   2.104  0.00  0.00     0.062 A 
ATOM      7  F   UNL d   1      -0.294  -3.196   1.425  0.00  0.00    -0.097 F 
ATOM      8  F1  UNL d   1      -0.454  -0.758   0.253  0.00  0.00    -0.096 F 
ATOM      9  I   UNL d   1      -1.576   2.043   1.317  0.00  0.00    -0.060 I 
ATOM     10  F2  UNL d   1      -2.436   0.982   4.212  0.00  0.00    -0.096 F 
ATOM     11  F3  UNL d   1      -2.263  -1.466   5.355  0.00  0.00    -0.097 F 
ATOM     12  F4  UNL d   1      -1.195  -3.562   3.974  0.00  0.00    -0.092 F 
ENDROOT
TORSDOF 0
ENDMDL
