MODEL 1
REMARK minimizedAffinity 24.5315018
REMARK minimizedRMSD -1
REMARK  0 active torsions:
REMARK  status: ('A' for Active; 'I' for Inactive)
ROOT
ATOM      1  C   UNL d   1      -1.320  -3.837   1.788  0.00  0.00     0.124 A 
ATOM      2  C1  UNL d   1      -1.002  -4.720   0.765  0.00  0.00     0.062 A 
ATOM      3  C2  UNL d   1      -0.974  -4.281  -0.555  0.00  0.00     0.162 A 
ATOM      4  C3  UNL d   1      -1.264  -2.951  -0.861  0.00  0.00    -0.034 A 
ATOM      5  C4  UNL d   1      -1.584  -2.069   0.172  0.00  0.00     0.162 A 
ATOM      6  C5  UNL d   1      -1.611  -2.513   1.490  0.00  0.00     0.062 A 
ATOM      7  F   UNL d   1      -1.918  -1.658   2.477  0.00  0.00    -0.097 F 
ATOM      8  F1  UNL d   1      -1.867  -0.784  -0.087  0.00  0.00    -0.096 F 
ATOM      9  I   UNL d   1      -1.222  -2.291  -2.835  0.00  0.00    -0.060 I 
ATOM     10  F2  UNL d   1      -0.663  -5.156  -1.523  0.00  0.00    -0.096 F 
ATOM     11  F3  UNL d   1      -0.722  -6.000   1.050  0.00  0.00    -0.097 F 
ATOM     12  F4  UNL d   1      -1.348  -4.262   3.057  0.00  0.00    -0.092 F 
ENDROOT
TORSDOF 0
ENDMDL
