MODEL 1
REMARK minimizedAffinity 13.5796318
REMARK minimizedRMSD -1
REMARK  0 active torsions:
REMARK  status: ('A' for Active; 'I' for Inactive)
ROOT
ATOM      1  C   UNL d   1      -1.376  -3.278  -1.817  0.00  0.00     0.124 A 
ATOM      2  C1  UNL d   1      -1.673  -2.022  -1.306  0.00  0.00     0.062 A 
ATOM      3  C2  UNL d   1      -1.728  -1.821   0.071  0.00  0.00     0.162 A 
ATOM      4  C3  UNL d   1      -1.484  -2.879   0.946  0.00  0.00    -0.034 A 
ATOM      5  C4  UNL d   1      -1.186  -4.139   0.425  0.00  0.00     0.162 A 
ATOM      6  C5  UNL d   1      -1.133  -4.335  -0.951  0.00  0.00     0.062 A 
ATOM      7  F   UNL d   1      -0.846  -5.549  -1.443  0.00  0.00    -0.097 F 
ATOM      8  F1  UNL d   1      -0.946  -5.179   1.238  0.00  0.00    -0.096 F 
ATOM      9  I   UNL d   1      -1.565  -2.583   3.005  0.00  0.00    -0.060 I 
ATOM     10  F2  UNL d   1      -2.018  -0.597   0.537  0.00  0.00    -0.096 F 
ATOM     11  F3  UNL d   1      -1.910  -0.999  -2.140  0.00  0.00    -0.097 F 
ATOM     12  F4  UNL d   1      -1.325  -3.468  -3.141  0.00  0.00    -0.092 F 
ENDROOT
TORSDOF 0
ENDMDL
