MODEL 1
REMARK minimizedAffinity 23.9002132
REMARK minimizedRMSD -1
REMARK  0 active torsions:
REMARK  status: ('A' for Active; 'I' for Inactive)
ROOT
ATOM      1  C   UNL d   1      -1.725  -2.919   0.377  0.00  0.00     0.124 A 
ATOM      2  C1  UNL d   1      -1.035  -4.119   0.479  0.00  0.00     0.062 A 
ATOM      3  C2  UNL d   1      -1.062  -4.843   1.668  0.00  0.00     0.162 A 
ATOM      4  C3  UNL d   1      -1.781  -4.368   2.765  0.00  0.00    -0.034 A 
ATOM      5  C4  UNL d   1      -2.471  -3.160   2.655  0.00  0.00     0.162 A 
ATOM      6  C5  UNL d   1      -2.442  -2.440   1.465  0.00  0.00     0.062 A 
ATOM      7  F   UNL d   1      -3.108  -1.281   1.368  0.00  0.00    -0.097 F 
ATOM      8  F1  UNL d   1      -3.173  -2.675   3.690  0.00  0.00    -0.096 F 
ATOM      9  I   UNL d   1      -1.823  -5.447   4.544  0.00  0.00    -0.060 I 
ATOM     10  F2  UNL d   1      -0.387  -6.000   1.738  0.00  0.00    -0.096 F 
ATOM     11  F3  UNL d   1      -0.341  -4.583  -0.570  0.00  0.00    -0.097 F 
ATOM     12  F4  UNL d   1      -1.697  -2.224  -0.767  0.00  0.00    -0.092 F 
ENDROOT
TORSDOF 0
ENDMDL
