MODEL 1
REMARK minimizedAffinity 21.7752457
REMARK minimizedRMSD -1
REMARK  0 active torsions:
REMARK  status: ('A' for Active; 'I' for Inactive)
ROOT
ATOM      1  C   UNL d   1      -1.303  -2.988   1.654  0.00  0.00     0.124 A 
ATOM      2  C1  UNL d   1      -0.699  -3.922   0.824  0.00  0.00     0.062 A 
ATOM      3  C2  UNL d   1      -0.700  -3.737  -0.556  0.00  0.00     0.162 A 
ATOM      4  C3  UNL d   1      -1.307  -2.612  -1.115  0.00  0.00    -0.034 A 
ATOM      5  C4  UNL d   1      -1.913  -1.677  -0.274  0.00  0.00     0.162 A 
ATOM      6  C5  UNL d   1      -1.909  -1.867   1.104  0.00  0.00     0.062 A 
ATOM      7  F   UNL d   1      -2.493  -0.963   1.905  0.00  0.00    -0.097 F 
ATOM      8  F1  UNL d   1      -2.505  -0.585  -0.778  0.00  0.00    -0.096 F 
ATOM      9  I   UNL d   1      -1.311  -2.332  -3.177  0.00  0.00    -0.060 I 
ATOM     10  F2  UNL d   1      -0.109  -4.656  -1.334  0.00  0.00    -0.096 F 
ATOM     11  F3  UNL d   1      -0.114  -5.007   1.352  0.00  0.00    -0.097 F 
ATOM     12  F4  UNL d   1      -1.302  -3.168   2.981  0.00  0.00    -0.092 F 
ENDROOT
TORSDOF 0
ENDMDL
