MODEL 1
REMARK minimizedAffinity 25.232996
REMARK minimizedRMSD -1
REMARK  0 active torsions:
REMARK  status: ('A' for Active; 'I' for Inactive)
ROOT
ATOM      1  C   UNL d   1      -2.336  -1.819   0.411  0.00  0.00     0.124 A 
ATOM      2  C1  UNL d   1      -2.820  -0.742  -0.317  0.00  0.00     0.062 A 
ATOM      3  C2  UNL d   1      -2.642  -0.692  -1.697  0.00  0.00     0.162 A 
ATOM      4  C3  UNL d   1      -1.977  -1.725  -2.358  0.00  0.00    -0.034 A 
ATOM      5  C4  UNL d   1      -1.492  -2.806  -1.618  0.00  0.00     0.162 A 
ATOM      6  C5  UNL d   1      -1.673  -2.850  -0.240  0.00  0.00     0.062 A 
ATOM      7  F   UNL d   1      -1.205  -3.892   0.462  0.00  0.00    -0.097 F 
ATOM      8  F1  UNL d   1      -0.849  -3.816  -2.222  0.00  0.00    -0.096 F 
ATOM      9  I   UNL d   1      -1.708  -1.656  -4.421  0.00  0.00    -0.060 I 
ATOM     10  F2  UNL d   1      -3.120   0.361  -2.376  0.00  0.00    -0.096 F 
ATOM     11  F3  UNL d   1      -3.460   0.256   0.309  0.00  0.00    -0.097 F 
ATOM     12  F4  UNL d   1      -2.508  -1.864   1.738  0.00  0.00    -0.092 F 
ENDROOT
TORSDOF 0
ENDMDL
