MODEL 1
REMARK minimizedAffinity 12.3178596
REMARK minimizedRMSD -1
REMARK  0 active torsions:
REMARK  status: ('A' for Active; 'I' for Inactive)
ROOT
ATOM      1  C   UNL d   1      -0.843  -3.943  -0.138  0.00  0.00     0.124 A 
ATOM      2  C1  UNL d   1      -1.421  -2.689   0.006  0.00  0.00     0.062 A 
ATOM      3  C2  UNL d   1      -1.904  -2.278   1.245  0.00  0.00     0.162 A 
ATOM      4  C3  UNL d   1      -1.810  -3.121   2.352  0.00  0.00    -0.034 A 
ATOM      5  C4  UNL d   1      -1.228  -4.381   2.200  0.00  0.00     0.162 A 
ATOM      6  C5  UNL d   1      -0.748  -4.788   0.959  0.00  0.00     0.062 A 
ATOM      7  F   UNL d   1      -0.190  -5.999   0.823  0.00  0.00    -0.097 F 
ATOM      8  F1  UNL d   1      -1.122  -5.217   3.243  0.00  0.00    -0.096 F 
ATOM      9  I   UNL d   1      -2.530  -2.510   4.206  0.00  0.00    -0.060 I 
ATOM     10  F2  UNL d   1      -2.457  -1.061   1.354  0.00  0.00    -0.096 F 
ATOM     11  F3  UNL d   1      -1.516  -1.871  -1.053  0.00  0.00    -0.097 F 
ATOM     12  F4  UNL d   1      -0.381  -4.336  -1.331  0.00  0.00    -0.092 F 
ENDROOT
TORSDOF 0
ENDMDL
