MODEL 1
REMARK minimizedAffinity 26.9580479
REMARK minimizedRMSD -1
REMARK  0 active torsions:
REMARK  status: ('A' for Active; 'I' for Inactive)
ROOT
ATOM      1  C   UNL d   1      -1.963  -2.567   5.283  0.00  0.00     0.124 A 
ATOM      2  C1  UNL d   1      -1.208  -1.432   5.544  0.00  0.00     0.062 A 
ATOM      3  C2  UNL d   1      -1.835  -0.206   5.749  0.00  0.00     0.162 A 
ATOM      4  C3  UNL d   1      -3.225  -0.109   5.694  0.00  0.00    -0.034 A 
ATOM      5  C4  UNL d   1      -3.978  -1.255   5.430  0.00  0.00     0.162 A 
ATOM      6  C5  UNL d   1      -3.347  -2.478   5.226  0.00  0.00     0.062 A 
ATOM      7  F   UNL d   1      -4.078  -3.573   4.974  0.00  0.00    -0.097 F 
ATOM      8  F1  UNL d   1      -5.317  -1.197   5.371  0.00  0.00    -0.096 F 
ATOM      9  I   UNL d   1      -4.167   1.722   6.000  0.00  0.00    -0.060 I 
ATOM     10  F2  UNL d   1      -1.081   0.874   5.999  0.00  0.00    -0.096 F 
ATOM     11  F3  UNL d   1       0.129  -1.516   5.598  0.00  0.00    -0.097 F 
ATOM     12  F4  UNL d   1      -1.357  -3.745   5.085  0.00  0.00    -0.092 F 
ENDROOT
TORSDOF 0
ENDMDL
