MODEL 1
REMARK minimizedAffinity 11.9640627
REMARK minimizedRMSD -1
REMARK  0 active torsions:
REMARK  status: ('A' for Active; 'I' for Inactive)
ROOT
ATOM      1  C   UNL d   1      -1.099  -3.028  -1.437  0.00  0.00     0.124 A 
ATOM      2  C1  UNL d   1      -1.768  -1.991  -0.803  0.00  0.00     0.062 A 
ATOM      3  C2  UNL d   1      -1.998  -2.042   0.569  0.00  0.00     0.162 A 
ATOM      4  C3  UNL d   1      -1.557  -3.134   1.317  0.00  0.00    -0.034 A 
ATOM      5  C4  UNL d   1      -0.886  -4.174   0.671  0.00  0.00     0.162 A 
ATOM      6  C5  UNL d   1      -0.658  -4.118  -0.700  0.00  0.00     0.062 A 
ATOM      7  F   UNL d   1      -0.011  -5.121  -1.311  0.00  0.00    -0.097 F 
ATOM      8  F1  UNL d   1      -0.448  -5.239   1.359  0.00  0.00    -0.096 F 
ATOM      9  I   UNL d   1      -1.899  -3.214   3.368  0.00  0.00    -0.060 I 
ATOM     10  F2  UNL d   1      -2.647  -1.025   1.156  0.00  0.00    -0.096 F 
ATOM     11  F3  UNL d   1      -2.195  -0.937  -1.513  0.00  0.00    -0.097 F 
ATOM     12  F4  UNL d   1      -0.879  -2.977  -2.757  0.00  0.00    -0.092 F 
ENDROOT
TORSDOF 0
ENDMDL
