MODEL 1
REMARK minimizedAffinity 26.7672672
REMARK minimizedRMSD -1
REMARK  0 active torsions:
REMARK  status: ('A' for Active; 'I' for Inactive)
ROOT
ATOM      1  C   UNL d   1      -1.455  -4.249   2.060  0.00  0.00     0.124 A 
ATOM      2  C1  UNL d   1      -0.692  -4.876   1.085  0.00  0.00     0.062 A 
ATOM      3  C2  UNL d   1      -0.619  -4.341  -0.198  0.00  0.00     0.162 A 
ATOM      4  C3  UNL d   1      -1.311  -3.172  -0.514  0.00  0.00    -0.034 A 
ATOM      5  C4  UNL d   1      -2.078  -2.548   0.472  0.00  0.00     0.162 A 
ATOM      6  C5  UNL d   1      -2.148  -3.086   1.753  0.00  0.00     0.062 A 
ATOM      7  F   UNL d   1      -2.886  -2.480   2.693  0.00  0.00    -0.097 F 
ATOM      8  F1  UNL d   1      -2.756  -1.422   0.203  0.00  0.00    -0.096 F 
ATOM      9  I   UNL d   1      -1.205  -2.369  -2.431  0.00  0.00    -0.060 I 
ATOM     10  F2  UNL d   1       0.127  -4.967  -1.120  0.00  0.00    -0.096 F 
ATOM     11  F3  UNL d   1      -0.023  -6.000   1.379  0.00  0.00    -0.097 F 
ATOM     12  F4  UNL d   1      -1.525  -4.766   3.293  0.00  0.00    -0.092 F 
ENDROOT
TORSDOF 0
ENDMDL
