MODEL 1
REMARK minimizedAffinity 24.5187092
REMARK minimizedRMSD -1
REMARK  0 active torsions:
REMARK  status: ('A' for Active; 'I' for Inactive)
ROOT
ATOM      1  C   UNL d   1      -2.406   2.505  -4.756  0.00  0.00     0.124 A 
ATOM      2  C1  UNL d   1      -2.142   3.776  -4.263  0.00  0.00     0.062 A 
ATOM      3  C2  UNL d   1      -3.107   4.775  -4.352  0.00  0.00     0.162 A 
ATOM      4  C3  UNL d   1      -4.346   4.507  -4.935  0.00  0.00    -0.034 A 
ATOM      5  C4  UNL d   1      -4.603   3.227  -5.428  0.00  0.00     0.162 A 
ATOM      6  C5  UNL d   1      -3.636   2.232  -5.338  0.00  0.00     0.062 A 
ATOM      7  F   UNL d   1      -3.892   1.005  -5.814  0.00  0.00    -0.097 F 
ATOM      8  F1  UNL d   1      -5.784   2.936  -5.995  0.00  0.00    -0.096 F 
ATOM      9  I   UNL d   1      -5.792   5.998  -5.069  0.00  0.00    -0.060 I 
ATOM     10  F2  UNL d   1      -2.825   5.993  -3.868  0.00  0.00    -0.096 F 
ATOM     11  F3  UNL d   1      -0.954   4.042  -3.701  0.00  0.00    -0.097 F 
ATOM     12  F4  UNL d   1      -1.475   1.546  -4.670  0.00  0.00    -0.092 F 
ENDROOT
TORSDOF 0
ENDMDL
