MODEL 1
REMARK minimizedAffinity 26.0995235
REMARK minimizedRMSD -1
REMARK  0 active torsions:
REMARK  status: ('A' for Active; 'I' for Inactive)
ROOT
ATOM      1  C   UNL d   1       2.705   2.119  -0.368  0.00  0.00     0.124 A 
ATOM      2  C1  UNL d   1       2.445   1.058  -1.223  0.00  0.00     0.062 A 
ATOM      3  C2  UNL d   1       3.384   0.683  -2.180  0.00  0.00     0.162 A 
ATOM      4  C3  UNL d   1       4.593   1.371  -2.286  0.00  0.00    -0.034 A 
ATOM      5  C4  UNL d   1       4.847   2.438  -1.423  0.00  0.00     0.162 A 
ATOM      6  C5  UNL d   1       3.905   2.808  -0.468  0.00  0.00     0.062 A 
ATOM      7  F   UNL d   1       4.158   3.834   0.357  0.00  0.00    -0.097 F 
ATOM      8  F1  UNL d   1       6.000   3.120  -1.497  0.00  0.00    -0.096 F 
ATOM      9  I   UNL d   1       6.000   0.814  -3.715  0.00  0.00    -0.060 I 
ATOM     10  F2  UNL d   1       3.106  -0.346  -2.993  0.00  0.00    -0.096 F 
ATOM     11  F3  UNL d   1       1.285   0.391  -1.129  0.00  0.00    -0.097 F 
ATOM     12  F4  UNL d   1       1.799   2.478   0.551  0.00  0.00    -0.092 F 
ENDROOT
TORSDOF 0
ENDMDL
