MODEL 1
REMARK minimizedAffinity 21.4274635
REMARK minimizedRMSD -1
REMARK  0 active torsions:
REMARK  status: ('A' for Active; 'I' for Inactive)
ROOT
ATOM      1  C   UNL d   1       2.839   0.162   0.383  0.00  0.00     0.124 A 
ATOM      2  C1  UNL d   1       2.600   1.005  -0.694  0.00  0.00     0.062 A 
ATOM      3  C2  UNL d   1       3.064   2.317  -0.673  0.00  0.00     0.162 A 
ATOM      4  C3  UNL d   1       3.773   2.795   0.429  0.00  0.00    -0.034 A 
ATOM      5  C4  UNL d   1       4.008   1.942   1.509  0.00  0.00     0.162 A 
ATOM      6  C5  UNL d   1       3.542   0.631   1.483  0.00  0.00     0.062 A 
ATOM      7  F   UNL d   1       3.774  -0.181   2.524  0.00  0.00    -0.097 F 
ATOM      8  F1  UNL d   1       4.686   2.369   2.584  0.00  0.00    -0.096 F 
ATOM      9  I   UNL d   1       4.469   4.756   0.464  0.00  0.00    -0.060 I 
ATOM     10  F2  UNL d   1       2.819   3.108  -1.728  0.00  0.00    -0.096 F 
ATOM     11  F3  UNL d   1       1.920   0.554  -1.758  0.00  0.00    -0.097 F 
ATOM     12  F4  UNL d   1       2.390  -1.099   0.360  0.00  0.00    -0.092 F 
ENDROOT
TORSDOF 0
ENDMDL
