MODEL 1
REMARK minimizedAffinity 16.1683121
REMARK minimizedRMSD -1
REMARK  0 active torsions:
REMARK  status: ('A' for Active; 'I' for Inactive)
ROOT
ATOM      1  C   UNL d   1      -0.960  -3.757  -0.214  0.00  0.00     0.124 A 
ATOM      2  C1  UNL d   1      -1.015  -4.752   0.751  0.00  0.00     0.062 A 
ATOM      3  C2  UNL d   1      -1.472  -4.460   2.033  0.00  0.00     0.162 A 
ATOM      4  C3  UNL d   1      -1.878  -3.165   2.357  0.00  0.00    -0.034 A 
ATOM      5  C4  UNL d   1      -1.819  -2.169   1.381  0.00  0.00     0.162 A 
ATOM      6  C5  UNL d   1      -1.362  -2.466   0.101  0.00  0.00     0.062 A 
ATOM      7  F   UNL d   1      -1.309  -1.503  -0.830  0.00  0.00    -0.097 F 
ATOM      8  F1  UNL d   1      -2.201  -0.914   1.659  0.00  0.00    -0.096 F 
ATOM      9  I   UNL d   1      -2.560  -2.724   4.273  0.00  0.00    -0.060 I 
ATOM     10  F2  UNL d   1      -1.514  -5.441   2.946  0.00  0.00    -0.096 F 
ATOM     11  F3  UNL d   1      -0.627  -6.000   0.449  0.00  0.00    -0.097 F 
ATOM     12  F4  UNL d   1      -0.520  -4.041  -1.447  0.00  0.00    -0.092 F 
ENDROOT
TORSDOF 0
ENDMDL
