MODEL 1
REMARK minimizedAffinity 21.8433323
REMARK minimizedRMSD -1
REMARK  0 active torsions:
REMARK  status: ('A' for Active; 'I' for Inactive)
ROOT
ATOM      1  C   UNL d   1      -2.577  -2.217   5.231  0.00  0.00     0.124 A 
ATOM      2  C1  UNL d   1      -3.961  -2.210   5.338  0.00  0.00     0.062 A 
ATOM      3  C2  UNL d   1      -4.640  -1.016   5.557  0.00  0.00     0.162 A 
ATOM      4  C3  UNL d   1      -3.937   0.184   5.671  0.00  0.00    -0.034 A 
ATOM      5  C4  UNL d   1      -2.545   0.169   5.564  0.00  0.00     0.162 A 
ATOM      6  C5  UNL d   1      -1.871  -1.027   5.344  0.00  0.00     0.062 A 
ATOM      7  F   UNL d   1      -0.534  -1.032   5.241  0.00  0.00    -0.097 F 
ATOM      8  F1  UNL d   1      -1.838   1.304   5.668  0.00  0.00    -0.096 F 
ATOM      9  I   UNL d   1      -4.949   1.972   6.000  0.00  0.00    -0.060 I 
ATOM     10  F2  UNL d   1      -5.978  -1.039   5.656  0.00  0.00    -0.096 F 
ATOM     11  F3  UNL d   1      -4.645  -3.358   5.230  0.00  0.00    -0.097 F 
ATOM     12  F4  UNL d   1      -1.925  -3.368   5.020  0.00  0.00    -0.092 F 
ENDROOT
TORSDOF 0
ENDMDL
