MODEL 1
REMARK minimizedAffinity 13.0414209
REMARK minimizedRMSD -1
REMARK  0 active torsions:
REMARK  status: ('A' for Active; 'I' for Inactive)
ROOT
ATOM      1  C   UNL d   1      -2.468   2.518  -5.000  0.00  0.00     0.124 A 
ATOM      2  C1  UNL d   1      -3.734   2.252  -5.504  0.00  0.00     0.062 A 
ATOM      3  C2  UNL d   1      -4.710   3.244  -5.505  0.00  0.00     0.162 A 
ATOM      4  C3  UNL d   1      -4.424   4.513  -5.002  0.00  0.00    -0.034 A 
ATOM      5  C4  UNL d   1      -3.149   4.773  -4.496  0.00  0.00     0.162 A 
ATOM      6  C5  UNL d   1      -2.177   3.778  -4.497  0.00  0.00     0.062 A 
ATOM      7  F   UNL d   1      -0.955   4.037  -4.009  0.00  0.00    -0.097 F 
ATOM      8  F1  UNL d   1      -2.840   5.982  -4.004  0.00  0.00    -0.096 F 
ATOM      9  I   UNL d   1      -5.880   6.000  -5.002  0.00  0.00    -0.060 I 
ATOM     10  F2  UNL d   1      -5.924   2.959  -5.998  0.00  0.00    -0.096 F 
ATOM     11  F3  UNL d   1      -4.018   1.035  -5.990  0.00  0.00    -0.097 F 
ATOM     12  F4  UNL d   1      -1.531   1.561  -4.999  0.00  0.00    -0.092 F 
ENDROOT
TORSDOF 0
ENDMDL
