MODEL 1
REMARK minimizedAffinity 14.8626223
REMARK minimizedRMSD -1
REMARK  0 active torsions:
REMARK  status: ('A' for Active; 'I' for Inactive)
ROOT
ATOM      1  C   UNL d   1      -3.274  -0.295  -1.321  0.00  0.00     0.124 A 
ATOM      2  C1  UNL d   1      -2.753   0.198  -2.509  0.00  0.00     0.062 A 
ATOM      3  C2  UNL d   1      -1.412  -0.002  -2.821  0.00  0.00     0.162 A 
ATOM      4  C3  UNL d   1      -0.582  -0.699  -1.944  0.00  0.00    -0.034 A 
ATOM      5  C4  UNL d   1      -1.112  -1.191  -0.750  0.00  0.00     0.162 A 
ATOM      6  C5  UNL d   1      -2.454  -0.988  -0.442  0.00  0.00     0.062 A 
ATOM      7  F   UNL d   1      -2.955  -1.465   0.706  0.00  0.00    -0.097 F 
ATOM      8  F1  UNL d   1      -0.342  -1.866   0.116  0.00  0.00    -0.096 F 
ATOM      9  I   UNL d   1       1.425  -1.001  -2.407  0.00  0.00    -0.060 I 
ATOM     10  F2  UNL d   1      -0.936   0.485  -3.977  0.00  0.00    -0.096 F 
ATOM     11  F3  UNL d   1      -3.544   0.869  -3.359  0.00  0.00    -0.097 F 
ATOM     12  F4  UNL d   1      -4.565  -0.100  -1.022  0.00  0.00    -0.092 F 
ENDROOT
TORSDOF 0
ENDMDL
