MODEL 1
REMARK minimizedAffinity 7.84779263
REMARK minimizedRMSD -1
REMARK  0 active torsions:
REMARK  status: ('A' for Active; 'I' for Inactive)
ROOT
ATOM      1  C   UNL d   1      -3.397   0.164  -1.986  0.00  0.00     0.124 A 
ATOM      2  C1  UNL d   1      -2.812   0.739  -3.106  0.00  0.00     0.062 A 
ATOM      3  C2  UNL d   1      -1.441   0.621  -3.318  0.00  0.00     0.162 A 
ATOM      4  C3  UNL d   1      -0.646  -0.075  -2.407  0.00  0.00    -0.034 A 
ATOM      5  C4  UNL d   1      -1.241  -0.649  -1.283  0.00  0.00     0.162 A 
ATOM      6  C5  UNL d   1      -2.612  -0.528  -1.076  0.00  0.00     0.062 A 
ATOM      7  F   UNL d   1      -3.175  -1.084   0.007  0.00  0.00    -0.097 F 
ATOM      8  F1  UNL d   1      -0.506  -1.325  -0.387  0.00  0.00    -0.096 F 
ATOM      9  I   UNL d   1       1.404  -0.253  -2.720  0.00  0.00    -0.060 I 
ATOM     10  F2  UNL d   1      -0.903   1.186  -4.409  0.00  0.00    -0.096 F 
ATOM     11  F3  UNL d   1      -3.568   1.409  -3.987  0.00  0.00    -0.097 F 
ATOM     12  F4  UNL d   1      -4.716   0.280  -1.785  0.00  0.00    -0.092 F 
ENDROOT
TORSDOF 0
ENDMDL
