MODEL 1
REMARK minimizedAffinity 33.2194977
REMARK minimizedRMSD -1
REMARK  0 active torsions:
REMARK  status: ('A' for Active; 'I' for Inactive)
ROOT
ATOM      1  C   UNL d   1      -3.093  -1.147   1.009  0.00  0.00     0.124 A 
ATOM      2  C1  UNL d   1      -3.588  -0.710  -0.211  0.00  0.00     0.062 A 
ATOM      3  C2  UNL d   1      -2.838  -0.877  -1.371  0.00  0.00     0.162 A 
ATOM      4  C3  UNL d   1      -1.583  -1.484  -1.317  0.00  0.00    -0.034 A 
ATOM      5  C4  UNL d   1      -1.091  -1.920  -0.086  0.00  0.00     0.162 A 
ATOM      6  C5  UNL d   1      -1.845  -1.752   1.071  0.00  0.00     0.062 A 
ATOM      7  F   UNL d   1      -1.365  -2.174   2.250  0.00  0.00    -0.097 F 
ATOM      8  F1  UNL d   1       0.111  -2.508   0.003  0.00  0.00    -0.096 F 
ATOM      9  I   UNL d   1      -0.457  -1.734  -3.050  0.00  0.00    -0.060 I 
ATOM     10  F2  UNL d   1      -3.341  -0.445  -2.537  0.00  0.00    -0.096 F 
ATOM     11  F3  UNL d   1      -4.793  -0.126  -0.273  0.00  0.00    -0.097 F 
ATOM     12  F4  UNL d   1      -3.817  -0.985   2.124  0.00  0.00    -0.092 F 
ENDROOT
TORSDOF 0
ENDMDL
