MODEL 1
REMARK minimizedAffinity -4.60445976
REMARK minimizedRMSD -1
REMARK  1 active torsions:
REMARK  status: ('A' for Active; 'I' for Inactive)
REMARK    1  A    between atoms: C1_2  and  C2_3 
ROOT
ATOM      1  C2  UNL d   1       0.369  -0.159  -0.263  0.00  0.00    -0.076 A 
ATOM      2  C3  UNL d   1      -0.896   0.329  -0.635  0.00  0.00     0.004 A 
ATOM      3  C4  UNL d   1      -1.680   1.049   0.265  0.00  0.00    -0.003 A 
ATOM      4  C5  UNL d   1      -1.210   1.295   1.551  0.00  0.00     0.000 A 
ATOM      5  C6  UNL d   1       0.050   0.833   1.931  0.00  0.00     0.000 A 
ATOM      6  C7  UNL d   1       0.859   0.119   1.030  0.00  0.00    -0.073 A 
ATOM      7  C8  UNL d   1       2.207  -0.360   1.495  0.00  0.00     0.078 C 
ENDROOT
BRANCH   1   8
ATOM      8  C1  UNL d   1       1.162  -0.957  -1.273  0.00  0.00     0.053 C 
ATOM      9  C   UNL d   1       1.175  -0.308  -2.649  0.00  0.00     0.018 C 
ENDBRANCH   1   8
TORSDOF 1
ENDMDL
