MODEL 1
REMARK minimizedAffinity -5.6866436
REMARK minimizedRMSD -1
REMARK  1 active torsions:
REMARK  status: ('A' for Active; 'I' for Inactive)
REMARK    1  A    between atoms: C1_2  and  C2_3 
ROOT
ATOM      1  C2  UNL d   1       0.208   0.053   0.399  0.00  0.00    -0.076 A 
ATOM      2  C3  UNL d   1       1.210   0.480   1.288  0.00  0.00     0.004 A 
ATOM      3  C4  UNL d   1       0.894   1.237   2.415  0.00  0.00    -0.003 A 
ATOM      4  C5  UNL d   1      -0.429   1.579   2.671  0.00  0.00     0.000 A 
ATOM      5  C6  UNL d   1      -1.438   1.149   1.810  0.00  0.00     0.000 A 
ATOM      6  C7  UNL d   1      -1.138   0.371   0.678  0.00  0.00    -0.073 A 
ATOM      7  C8  UNL d   1      -2.264  -0.060  -0.221  0.00  0.00     0.078 C 
ENDROOT
BRANCH   1   8
ATOM      8  C1  UNL d   1       0.614  -0.742  -0.822  0.00  0.00     0.053 C 
ATOM      9  C   UNL d   1       1.216   0.130  -1.912  0.00  0.00     0.018 C 
ENDBRANCH   1   8
TORSDOF 1
ENDMDL
