MODEL 1
REMARK minimizedAffinity -1.92424476
REMARK minimizedRMSD -1
REMARK  1 active torsions:
REMARK  status: ('A' for Active; 'I' for Inactive)
REMARK    1  A    between atoms: C1_2  and  C2_3 
ROOT
ATOM      1  C2  UNL d   1      -0.445   0.082   1.555  0.00  0.00    -0.076 A 
ATOM      2  C3  UNL d   1       0.936   0.070   1.819  0.00  0.00     0.004 A 
ATOM      3  C4  UNL d   1       1.839  -0.447   0.893  0.00  0.00    -0.003 A 
ATOM      4  C5  UNL d   1       1.377  -0.961  -0.314  0.00  0.00     0.000 A 
ATOM      5  C6  UNL d   1       0.012  -0.942  -0.600  0.00  0.00     0.000 A 
ATOM      6  C7  UNL d   1      -0.910  -0.408   0.316  0.00  0.00    -0.073 A 
ATOM      7  C8  UNL d   1      -2.371  -0.418  -0.042  0.00  0.00     0.078 C 
ENDROOT
BRANCH   1   8
ATOM      8  C1  UNL d   1      -1.379   0.631   2.609  0.00  0.00     0.053 C 
ATOM      9  C   UNL d   1      -0.744   1.746   3.426  0.00  0.00     0.018 C 
ENDBRANCH   1   8
TORSDOF 1
ENDMDL
