MODEL 1
REMARK minimizedAffinity -5.37569141
REMARK minimizedRMSD -1
REMARK  1 active torsions:
REMARK  status: ('A' for Active; 'I' for Inactive)
REMARK    1  A    between atoms: C1_2  and  C2_3 
ROOT
ATOM      1  C2  UNL d   1      -0.507   0.281   1.623  0.00  0.00    -0.076 A 
ATOM      2  C3  UNL d   1       0.830  -0.028   1.932  0.00  0.00     0.004 A 
ATOM      3  C4  UNL d   1       1.697  -0.517   0.956  0.00  0.00    -0.003 A 
ATOM      4  C5  UNL d   1       1.242  -0.704  -0.344  0.00  0.00     0.000 A 
ATOM      5  C6  UNL d   1      -0.076  -0.387  -0.672  0.00  0.00     0.000 A 
ATOM      6  C7  UNL d   1      -0.958   0.122   0.295  0.00  0.00    -0.073 A 
ATOM      7  C8  UNL d   1      -2.370   0.442  -0.113  0.00  0.00     0.078 C 
ENDROOT
BRANCH   1   8
ATOM      8  C1  UNL d   1      -1.408   0.782   2.728  0.00  0.00     0.053 C 
ATOM      9  C   UNL d   1      -0.637   1.156   3.985  0.00  0.00     0.018 C 
ENDBRANCH   1   8
TORSDOF 1
ENDMDL
