MODEL 1
REMARK minimizedAffinity -3.88476467
REMARK minimizedRMSD -1
REMARK  1 active torsions:
REMARK  status: ('A' for Active; 'I' for Inactive)
REMARK    1  A    between atoms: C1_2  and  C2_3 
ROOT
ATOM      1  C2  UNL d   1      -0.821   0.303   1.052  0.00  0.00    -0.076 A 
ATOM      2  C3  UNL d   1       0.544   0.034   1.255  0.00  0.00     0.004 A 
ATOM      3  C4  UNL d   1       1.318  -0.542   0.250  0.00  0.00    -0.003 A 
ATOM      4  C5  UNL d   1       0.741  -0.858  -0.975  0.00  0.00     0.000 A 
ATOM      5  C6  UNL d   1      -0.607  -0.583  -1.200  0.00  0.00     0.000 A 
ATOM      6  C7  UNL d   1      -1.399   0.013  -0.202  0.00  0.00    -0.073 A 
ATOM      7  C8  UNL d   1      -2.849   0.283  -0.497  0.00  0.00     0.078 C 
ENDROOT
BRANCH   1   8
ATOM      8  C1  UNL d   1      -1.618   0.904   2.188  0.00  0.00     0.053 C 
ATOM      9  C   UNL d   1      -0.747   1.685   3.160  0.00  0.00     0.018 C 
ENDBRANCH   1   8
TORSDOF 1
ENDMDL
