MODEL 1
REMARK minimizedAffinity -5.44863224
REMARK minimizedRMSD -1
REMARK  1 active torsions:
REMARK  status: ('A' for Active; 'I' for Inactive)
REMARK    1  A    between atoms: C1_2  and  C2_3 
ROOT
ATOM      1  C2  UNL d   1      -0.051  -0.034   0.445  0.00  0.00    -0.076 A 
ATOM      2  C3  UNL d   1       0.876   0.593   1.297  0.00  0.00     0.004 A 
ATOM      3  C4  UNL d   1       0.452   1.435   2.323  0.00  0.00    -0.003 A 
ATOM      4  C5  UNL d   1      -0.906   1.665   2.515  0.00  0.00     0.000 A 
ATOM      5  C6  UNL d   1      -1.840   1.038   1.690  0.00  0.00     0.000 A 
ATOM      6  C7  UNL d   1      -1.430   0.173   0.662  0.00  0.00    -0.073 A 
ATOM      7  C8  UNL d   1      -2.480  -0.472  -0.201  0.00  0.00     0.078 C 
ENDROOT
BRANCH   1   8
ATOM      8  C1  UNL d   1       0.469  -0.915  -0.667  0.00  0.00     0.053 C 
ATOM      9  C   UNL d   1       0.883  -0.120  -1.896  0.00  0.00     0.018 C 
ENDBRANCH   1   8
TORSDOF 1
ENDMDL
