MODEL 1
REMARK minimizedAffinity -2.19083071
REMARK minimizedRMSD -1
REMARK  1 active torsions:
REMARK  status: ('A' for Active; 'I' for Inactive)
REMARK    1  A    between atoms: C1_2  and  C2_3 
ROOT
ATOM      1  C2  UNL d   1       0.083  -0.258  -0.362  0.00  0.00    -0.076 A 
ATOM      2  C3  UNL d   1      -1.273   0.099  -0.453  0.00  0.00     0.004 A 
ATOM      3  C4  UNL d   1      -1.963   0.586   0.657  0.00  0.00    -0.003 A 
ATOM      4  C5  UNL d   1      -1.307   0.725   1.875  0.00  0.00     0.000 A 
ATOM      5  C6  UNL d   1       0.044   0.392   1.979  0.00  0.00     0.000 A 
ATOM      6  C7  UNL d   1       0.758  -0.085   0.866  0.00  0.00    -0.073 A 
ATOM      7  C8  UNL d   1       2.211  -0.434   1.036  0.00  0.00     0.078 C 
ENDROOT
BRANCH   1   8
ATOM      8  C1  UNL d   1       0.772  -0.806  -1.591  0.00  0.00     0.053 C 
ATOM      9  C   UNL d   1       0.500   0.030  -2.832  0.00  0.00     0.018 C 
ENDBRANCH   1   8
TORSDOF 1
ENDMDL
