MODEL 1
REMARK minimizedAffinity -0.804491401
REMARK minimizedRMSD -1
REMARK  1 active torsions:
REMARK  status: ('A' for Active; 'I' for Inactive)
REMARK    1  A    between atoms: C1_2  and  C2_3 
ROOT
ATOM      1  C2  UNL d   1       0.154  -0.267  -1.046  0.00  0.00    -0.076 A 
ATOM      2  C3  UNL d   1       1.425   0.032  -0.524  0.00  0.00     0.004 A 
ATOM      3  C4  UNL d   1       1.625   0.156   0.850  0.00  0.00    -0.003 A 
ATOM      4  C5  UNL d   1       0.558  -0.018   1.725  0.00  0.00     0.000 A 
ATOM      5  C6  UNL d   1      -0.705  -0.333   1.226  0.00  0.00     0.000 A 
ATOM      6  C7  UNL d   1      -0.921  -0.478  -0.156  0.00  0.00    -0.073 A 
ATOM      7  C8  UNL d   1      -2.306  -0.812  -0.639  0.00  0.00     0.078 C 
ENDROOT
BRANCH   1   8
ATOM      8  C1  UNL d   1      -0.009  -0.362  -2.546  0.00  0.00     0.053 C 
ATOM      9  C   UNL d   1       1.043   0.437  -3.298  0.00  0.00     0.018 C 
ENDBRANCH   1   8
TORSDOF 1
ENDMDL
