MODEL 1
REMARK minimizedAffinity -3.22138333
REMARK minimizedRMSD -1
REMARK  1 active torsions:
REMARK  status: ('A' for Active; 'I' for Inactive)
REMARK    1  A    between atoms: C1_2  and  C2_3 
ROOT
ATOM      1  C2  UNL d   1      -0.890  -0.043   1.283  0.00  0.00    -0.076 A 
ATOM      2  C3  UNL d   1       0.465  -0.285   1.567  0.00  0.00     0.004 A 
ATOM      3  C4  UNL d   1       1.290  -0.920   0.639  0.00  0.00    -0.003 A 
ATOM      4  C5  UNL d   1       0.772  -1.323  -0.587  0.00  0.00     0.000 A 
ATOM      5  C6  UNL d   1      -0.566  -1.075  -0.892  0.00  0.00     0.000 A 
ATOM      6  C7  UNL d   1      -1.407  -0.421   0.025  0.00  0.00    -0.073 A 
ATOM      7  C8  UNL d   1      -2.843  -0.185  -0.353  0.00  0.00     0.078 C 
ENDROOT
BRANCH   1   8
ATOM      8  C1  UNL d   1      -1.743   0.625   2.339  0.00  0.00     0.053 C 
ATOM      9  C   UNL d   1      -1.063   1.837   2.955  0.00  0.00     0.018 C 
ENDBRANCH   1   8
TORSDOF 1
ENDMDL
