MODEL 1
REMARK minimizedAffinity -3.36341643
REMARK minimizedRMSD -1
REMARK  0 active torsions:
REMARK  status: ('A' for Active; 'I' for Inactive)
ROOT
ATOM      1  C2' OXE d   1      -0.629   1.430   2.929  0.00  0.00     0.078 C 
ATOM      2  C1' OXE d   1      -2.470   0.139   1.248  0.00  0.00     0.078 C 
ATOM      3  C1  OXE d   1      -1.045   0.261   0.769  0.00  0.00    -0.078 A 
ATOM      4  C2  OXE d   1      -0.162   0.935   1.577  0.00  0.00    -0.078 A 
ATOM      5  C3  OXE d   1       1.177   1.029   1.209  0.00  0.00     0.003 A 
ATOM      6  C4  OXE d   1       1.600   0.577  -0.048  0.00  0.00    -0.002 A 
ATOM      7  C5  OXE d   1       0.708  -0.077  -0.904  0.00  0.00    -0.002 A 
ATOM      8  C6  OXE d   1      -0.605  -0.281  -0.493  0.00  0.00     0.003 A 
ENDROOT
TORSDOF 0
ENDMDL
