MODEL 1
REMARK minimizedAffinity -4.03745174
REMARK minimizedRMSD -1
REMARK  0 active torsions:
REMARK  status: ('A' for Active; 'I' for Inactive)
ROOT
ATOM      1  C2' OXE d   1      -2.032  -0.101  -0.622  0.00  0.00     0.078 C 
ATOM      2  C1' OXE d   1       0.750  -0.058  -0.996  0.00  0.00     0.078 C 
ATOM      3  C1  OXE d   1       0.214   0.367   0.349  0.00  0.00    -0.078 A 
ATOM      4  C2  OXE d   1      -1.150   0.387   0.508  0.00  0.00    -0.078 A 
ATOM      5  C3  OXE d   1      -1.695   0.718   1.745  0.00  0.00     0.003 A 
ATOM      6  C4  OXE d   1      -0.874   1.178   2.781  0.00  0.00    -0.002 A 
ATOM      7  C5  OXE d   1       0.517   1.203   2.627  0.00  0.00    -0.002 A 
ATOM      8  C6  OXE d   1       1.078   0.761   1.434  0.00  0.00     0.003 A 
ENDROOT
TORSDOF 0
ENDMDL
