MODEL 1
REMARK minimizedAffinity -4.01401281
REMARK minimizedRMSD -1
REMARK  0 active torsions:
REMARK  status: ('A' for Active; 'I' for Inactive)
ROOT
ATOM      1  C2' OXE d   1      -2.011  -0.979  -0.422  0.00  0.00     0.078 C 
ATOM      2  C1' OXE d   1       0.596  -0.212  -1.125  0.00  0.00     0.078 C 
ATOM      3  C1  OXE d   1       0.053   0.272   0.196  0.00  0.00    -0.078 A 
ATOM      4  C2  OXE d   1      -1.240  -0.070   0.511  0.00  0.00    -0.078 A 
ATOM      5  C3  OXE d   1      -1.772   0.304   1.742  0.00  0.00     0.003 A 
ATOM      6  C4  OXE d   1      -1.056   1.153   2.595  0.00  0.00    -0.002 A 
ATOM      7  C5  OXE d   1       0.248   1.546   2.275  0.00  0.00    -0.002 A 
ATOM      8  C6  OXE d   1       0.832   1.080   1.102  0.00  0.00     0.003 A 
ENDROOT
TORSDOF 0
ENDMDL
