MODEL 1
REMARK minimizedAffinity -4.09266996
REMARK minimizedRMSD -1
REMARK  0 active torsions:
REMARK  status: ('A' for Active; 'I' for Inactive)
ROOT
ATOM      1  C2' OXE d   1       0.201  -0.536  -0.918  0.00  0.00     0.078 C 
ATOM      2  C1' OXE d   1       2.341  -1.317   0.723  0.00  0.00     0.078 C 
ATOM      3  C1  OXE d   1       1.140  -0.687   1.384  0.00  0.00    -0.078 A 
ATOM      4  C2  OXE d   1       0.118  -0.266   0.568  0.00  0.00    -0.078 A 
ATOM      5  C3  OXE d   1      -1.036   0.272   1.131  0.00  0.00     0.003 A 
ATOM      6  C4  OXE d   1      -1.101   0.527   2.506  0.00  0.00    -0.002 A 
ATOM      7  C5  OXE d   1      -0.055   0.142   3.351  0.00  0.00    -0.002 A 
ATOM      8  C6  OXE d   1       1.053  -0.504   2.812  0.00  0.00     0.003 A 
ENDROOT
TORSDOF 0
ENDMDL
