MODEL 1
REMARK minimizedAffinity -3.21015716
REMARK minimizedRMSD -1
REMARK  0 active torsions:
REMARK  status: ('A' for Active; 'I' for Inactive)
ROOT
ATOM      1  C2' OXE d   1       1.308  -0.178   1.542  0.00  0.00     0.078 C 
ATOM      2  C1' OXE d   1      -0.854   1.533   2.069  0.00  0.00     0.078 C 
ATOM      3  C1  OXE d   1      -0.510   1.258   0.626  0.00  0.00    -0.078 A 
ATOM      4  C2  OXE d   1       0.579   0.457   0.378  0.00  0.00    -0.078 A 
ATOM      5  C3  OXE d   1       0.906   0.127  -0.934  0.00  0.00     0.003 A 
ATOM      6  C4  OXE d   1       0.232   0.726  -2.006  0.00  0.00    -0.002 A 
ATOM      7  C5  OXE d   1      -0.854   1.577  -1.774  0.00  0.00    -0.002 A 
ATOM      8  C6  OXE d   1      -1.264   1.818  -0.468  0.00  0.00     0.003 A 
ENDROOT
TORSDOF 0
ENDMDL
