MODEL 1
REMARK minimizedAffinity -4.51528263
REMARK minimizedRMSD -1
REMARK  0 active torsions:
REMARK  status: ('A' for Active; 'I' for Inactive)
ROOT
ATOM      1  C2' OXE d   1      -2.640  -0.285   2.181  0.00  0.00     0.078 C 
ATOM      2  C1' OXE d   1      -0.477   1.313   2.984  0.00  0.00     0.078 C 
ATOM      3  C1  OXE d   1      -0.506   0.836   1.553  0.00  0.00    -0.078 A 
ATOM      4  C2  OXE d   1      -1.544   0.016   1.182  0.00  0.00    -0.078 A 
ATOM      5  C3  OXE d   1      -1.649  -0.407  -0.140  0.00  0.00     0.003 A 
ATOM      6  C4  OXE d   1      -0.626  -0.133  -1.056  0.00  0.00    -0.002 A 
ATOM      7  C5  OXE d   1       0.461   0.668  -0.687  0.00  0.00    -0.002 A 
ATOM      8  C6  OXE d   1       0.514   1.195   0.599  0.00  0.00     0.003 A 
ENDROOT
TORSDOF 0
ENDMDL
