MODEL 1
REMARK minimizedAffinity 14.1086273
REMARK minimizedRMSD -1
REMARK  1 active torsions:
REMARK  status: ('A' for Active; 'I' for Inactive)
REMARK    1  A    between atoms: C1_2  and  C2_3 
ROOT
ATOM      1  C2  UNL d   1      -3.040  -3.761   0.374  0.00  0.00    -0.076 A 
ATOM      2  C3  UNL d   1      -4.437  -3.772   0.530  0.00  0.00     0.004 A 
ATOM      3  C4  UNL d   1      -5.275  -4.095  -0.536  0.00  0.00    -0.003 A 
ATOM      4  C5  UNL d   1      -4.730  -4.413  -1.775  0.00  0.00     0.000 A 
ATOM      5  C6  UNL d   1      -3.346  -4.425  -1.943  0.00  0.00     0.000 A 
ATOM      6  C7  UNL d   1      -2.486  -4.118  -0.875  0.00  0.00    -0.073 A 
ATOM      7  C8  UNL d   1      -1.001  -4.140  -1.114  0.00  0.00     0.078 C 
ENDROOT
BRANCH   1   8
ATOM      8  C1  UNL d   1      -2.181  -3.376   1.557  0.00  0.00     0.053 C 
ATOM      9  C   UNL d   1      -2.346  -1.915   1.946  0.00  0.00     0.018 C 
ENDBRANCH   1   8
TORSDOF 1
ENDMDL
