MODEL 1
REMARK minimizedAffinity 11.2912941
REMARK minimizedRMSD -1
REMARK  1 active torsions:
REMARK  status: ('A' for Active; 'I' for Inactive)
REMARK    1  A    between atoms: C1_2  and  C2_3 
ROOT
ATOM      1  C2  UNL d   1      -2.476  -1.834   1.126  0.00  0.00    -0.076 A 
ATOM      2  C3  UNL d   1      -2.943  -1.962  -0.194  0.00  0.00     0.004 A 
ATOM      3  C4  UNL d   1      -2.771  -3.149  -0.904  0.00  0.00    -0.003 A 
ATOM      4  C5  UNL d   1      -2.131  -4.228  -0.305  0.00  0.00     0.000 A 
ATOM      5  C6  UNL d   1      -1.677  -4.125   1.010  0.00  0.00     0.000 A 
ATOM      6  C7  UNL d   1      -1.856  -2.941   1.745  0.00  0.00    -0.073 A 
ATOM      7  C8  UNL d   1      -1.341  -2.883   3.157  0.00  0.00     0.078 C 
ENDROOT
BRANCH   1   8
ATOM      8  C1  UNL d   1      -2.666  -0.513   1.836  0.00  0.00     0.053 C 
ATOM      9  C   UNL d   1      -3.204   0.571   0.916  0.00  0.00     0.018 C 
ENDBRANCH   1   8
TORSDOF 1
ENDMDL
