MODEL 1
REMARK minimizedAffinity -0.462548792
REMARK minimizedRMSD -1
REMARK  1 active torsions:
REMARK  status: ('A' for Active; 'I' for Inactive)
REMARK    1  A    between atoms: C1_2  and  C2_3 
ROOT
ATOM      1  C2  UNL d   1       0.565   1.138   0.699  0.00  0.00    -0.076 A 
ATOM      2  C3  UNL d   1       1.477   0.548  -0.193  0.00  0.00     0.004 A 
ATOM      3  C4  UNL d   1       1.039  -0.287  -1.219  0.00  0.00    -0.003 A 
ATOM      4  C5  UNL d   1      -0.319  -0.546  -1.370  0.00  0.00     0.000 A 
ATOM      5  C6  UNL d   1      -1.239   0.044  -0.504  0.00  0.00     0.000 A 
ATOM      6  C7  UNL d   1      -0.815   0.902   0.525  0.00  0.00    -0.073 A 
ATOM      7  C8  UNL d   1      -1.851   1.507   1.433  0.00  0.00     0.078 C 
ENDROOT
BRANCH   1   8
ATOM      8  C1  UNL d   1       1.101   2.014   1.809  0.00  0.00     0.053 C 
ATOM      9  C   UNL d   1       2.543   2.438   1.572  0.00  0.00     0.018 C 
ENDBRANCH   1   8
TORSDOF 1
ENDMDL
