MODEL 1
REMARK minimizedAffinity 2.10915709
REMARK minimizedRMSD -1
REMARK  1 active torsions:
REMARK  status: ('A' for Active; 'I' for Inactive)
REMARK    1  A    between atoms: C1_2  and  C2_3 
ROOT
ATOM      1  C2  UNL d   1      -5.762   3.521  -2.609  0.00  0.00    -0.076 A 
ATOM      2  C3  UNL d   1      -5.568   3.591  -3.999  0.00  0.00     0.004 A 
ATOM      3  C4  UNL d   1      -5.451   4.820  -4.647  0.00  0.00    -0.003 A 
ATOM      4  C5  UNL d   1      -5.525   5.999  -3.914  0.00  0.00     0.000 A 
ATOM      5  C6  UNL d   1      -5.700   5.948  -2.531  0.00  0.00     0.000 A 
ATOM      6  C7  UNL d   1      -5.804   4.717  -1.861  0.00  0.00    -0.073 A 
ATOM      7  C8  UNL d   1      -5.997   4.722  -0.369  0.00  0.00     0.078 C 
ENDROOT
BRANCH   1   8
ATOM      8  C1  UNL d   1      -5.910   2.161  -1.965  0.00  0.00     0.053 C 
ATOM      9  C   UNL d   1      -5.997   2.240  -0.449  0.00  0.00     0.018 C 
ENDBRANCH   1   8
TORSDOF 1
ENDMDL
