MODEL 1
REMARK minimizedAffinity 8.06561279
REMARK minimizedRMSD -1
REMARK  1 active torsions:
REMARK  status: ('A' for Active; 'I' for Inactive)
REMARK    1  A    between atoms: C1_2  and  C2_3 
ROOT
ATOM      1  C2  UNL d   1       0.288   2.210   1.491  0.00  0.00    -0.076 A 
ATOM      2  C3  UNL d   1       0.151   0.978   0.829  0.00  0.00     0.004 A 
ATOM      3  C4  UNL d   1       1.268   0.284   0.365  0.00  0.00    -0.003 A 
ATOM      4  C5  UNL d   1       2.540   0.812   0.557  0.00  0.00     0.000 A 
ATOM      5  C6  UNL d   1       2.696   2.025   1.227  0.00  0.00     0.000 A 
ATOM      6  C7  UNL d   1       1.582   2.729   1.715  0.00  0.00    -0.073 A 
ATOM      7  C8  UNL d   1       1.808   4.035   2.425  0.00  0.00     0.078 C 
ENDROOT
BRANCH   1   8
ATOM      8  C1  UNL d   1      -0.960   2.930   1.948  0.00  0.00     0.053 C 
ATOM      9  C   UNL d   1      -1.217   2.764   3.438  0.00  0.00     0.018 C 
ENDBRANCH   1   8
TORSDOF 1
ENDMDL
