MODEL 1
REMARK minimizedAffinity 6.78329515
REMARK minimizedRMSD -1
REMARK  1 active torsions:
REMARK  status: ('A' for Active; 'I' for Inactive)
REMARK    1  A    between atoms: C1_2  and  C2_3 
ROOT
ATOM      1  C2  UNL d   1       0.502   2.340  -4.640  0.00  0.00    -0.076 A 
ATOM      2  C3  UNL d   1       1.533   1.404  -4.448  0.00  0.00     0.004 A 
ATOM      3  C4  UNL d   1       2.786   1.588  -5.030  0.00  0.00    -0.003 A 
ATOM      4  C5  UNL d   1       3.029   2.711  -5.813  0.00  0.00     0.000 A 
ATOM      5  C6  UNL d   1       2.023   3.659  -6.000  0.00  0.00     0.000 A 
ATOM      6  C7  UNL d   1       0.759   3.497  -5.407  0.00  0.00    -0.073 A 
ATOM      7  C8  UNL d   1      -0.291   4.547  -5.646  0.00  0.00     0.078 C 
ENDROOT
BRANCH   1   8
ATOM      8  C1  UNL d   1      -0.845   2.074  -4.006  0.00  0.00     0.053 C 
ATOM      9  C   UNL d   1      -1.157   0.589  -3.903  0.00  0.00     0.018 C 
ENDBRANCH   1   8
TORSDOF 1
ENDMDL
