MODEL 1
REMARK minimizedAffinity 19.5828915
REMARK minimizedRMSD -1
REMARK  1 active torsions:
REMARK  status: ('A' for Active; 'I' for Inactive)
REMARK    1  A    between atoms: C1_2  and  C2_3 
ROOT
ATOM      1  C2  UNL d   1      -3.020  -3.737   0.616  0.00  0.00    -0.076 A 
ATOM      2  C3  UNL d   1      -3.758  -2.999  -0.325  0.00  0.00     0.004 A 
ATOM      3  C4  UNL d   1      -4.407  -3.632  -1.384  0.00  0.00    -0.003 A 
ATOM      4  C5  UNL d   1      -4.328  -5.013  -1.519  0.00  0.00     0.000 A 
ATOM      5  C6  UNL d   1      -3.614  -5.763  -0.585  0.00  0.00     0.000 A 
ATOM      6  C7  UNL d   1      -2.968  -5.143   0.498  0.00  0.00    -0.073 A 
ATOM      7  C8  UNL d   1      -2.208  -6.000   1.472  0.00  0.00     0.078 C 
ENDROOT
BRANCH   1   8
ATOM      8  C1  UNL d   1      -2.315  -2.994   1.728  0.00  0.00     0.053 C 
ATOM      9  C   UNL d   1      -2.869  -1.592   1.934  0.00  0.00     0.018 C 
ENDBRANCH   1   8
TORSDOF 1
ENDMDL
