MODEL 1
REMARK minimizedAffinity 9.3167305
REMARK minimizedRMSD -1
REMARK  1 active torsions:
REMARK  status: ('A' for Active; 'I' for Inactive)
REMARK    1  A    between atoms: C1_2  and  C2_3 
ROOT
ATOM      1  C2  UNL d   1      -2.841  -1.500   1.948  0.00  0.00    -0.076 A 
ATOM      2  C3  UNL d   1      -1.996  -2.278   1.138  0.00  0.00     0.004 A 
ATOM      3  C4  UNL d   1      -1.378  -3.423   1.637  0.00  0.00    -0.003 A 
ATOM      4  C5  UNL d   1      -1.597  -3.810   2.954  0.00  0.00     0.000 A 
ATOM      5  C6  UNL d   1      -2.446  -3.060   3.767  0.00  0.00     0.000 A 
ATOM      6  C7  UNL d   1      -3.089  -1.912   3.275  0.00  0.00    -0.073 A 
ATOM      7  C8  UNL d   1      -3.991  -1.137   4.197  0.00  0.00     0.078 C 
ENDROOT
BRANCH   1   8
ATOM      8  C1  UNL d   1      -3.461  -0.253   1.360  0.00  0.00     0.053 C 
ATOM      9  C   UNL d   1      -2.426   0.684   0.757  0.00  0.00     0.018 C 
ENDBRANCH   1   8
TORSDOF 1
ENDMDL
