MODEL 1
REMARK minimizedAffinity 16.0574341
REMARK minimizedRMSD -1
REMARK  1 active torsions:
REMARK  status: ('A' for Active; 'I' for Inactive)
REMARK    1  A    between atoms: C1_2  and  C2_3 
ROOT
ATOM      1  C2  UNL d   1       4.890   4.909   0.501  0.00  0.00    -0.076 A 
ATOM      2  C3  UNL d   1       4.882   5.100   1.894  0.00  0.00     0.004 A 
ATOM      3  C4  UNL d   1       5.416   4.140   2.752  0.00  0.00    -0.003 A 
ATOM      4  C5  UNL d   1       5.967   2.974   2.232  0.00  0.00     0.000 A 
ATOM      5  C6  UNL d   1       6.000   2.776   0.852  0.00  0.00     0.000 A 
ATOM      6  C7  UNL d   1       5.480   3.741  -0.028  0.00  0.00    -0.073 A 
ATOM      7  C8  UNL d   1       5.536   3.473  -1.507  0.00  0.00     0.078 C 
ENDROOT
BRANCH   1   8
ATOM      8  C1  UNL d   1       4.272   5.971  -0.379  0.00  0.00     0.053 C 
ATOM      9  C   UNL d   1       2.753   5.972  -0.313  0.00  0.00     0.018 C 
ENDBRANCH   1   8
TORSDOF 1
ENDMDL
