MODEL 1
REMARK minimizedAffinity 4.0763731
REMARK minimizedRMSD -1
REMARK  1 active torsions:
REMARK  status: ('A' for Active; 'I' for Inactive)
REMARK    1  A    between atoms: C1_2  and  C2_3 
ROOT
ATOM      1  C2  UNL d   1      -2.629  -3.371   0.308  0.00  0.00    -0.076 A 
ATOM      2  C3  UNL d   1      -3.164  -2.072   0.332  0.00  0.00     0.004 A 
ATOM      3  C4  UNL d   1      -2.942  -1.225   1.416  0.00  0.00    -0.003 A 
ATOM      4  C5  UNL d   1      -2.180  -1.663   2.494  0.00  0.00     0.000 A 
ATOM      5  C6  UNL d   1      -1.626  -2.942   2.478  0.00  0.00     0.000 A 
ATOM      6  C7  UNL d   1      -1.827  -3.803   1.386  0.00  0.00    -0.073 A 
ATOM      7  C8  UNL d   1      -1.211  -5.175   1.425  0.00  0.00     0.078 C 
ENDROOT
BRANCH   1   8
ATOM      8  C1  UNL d   1      -2.926  -4.255  -0.883  0.00  0.00     0.053 C 
ATOM      9  C   UNL d   1      -2.485  -3.630  -2.197  0.00  0.00     0.018 C 
ENDBRANCH   1   8
TORSDOF 1
ENDMDL
