MODEL 1
REMARK minimizedAffinity 4.86440754
REMARK minimizedRMSD -1
REMARK  1 active torsions:
REMARK  status: ('A' for Active; 'I' for Inactive)
REMARK    1  A    between atoms: C1_2  and  C2_3 
ROOT
ATOM      1  C2  UNL d   1      -1.236   1.735   1.828  0.00  0.00    -0.076 A 
ATOM      2  C3  UNL d   1      -2.110   2.372   2.726  0.00  0.00     0.004 A 
ATOM      3  C4  UNL d   1      -1.629   2.994   3.877  0.00  0.00    -0.003 A 
ATOM      4  C5  UNL d   1      -0.266   2.989   4.148  0.00  0.00     0.000 A 
ATOM      5  C6  UNL d   1       0.618   2.377   3.260  0.00  0.00     0.000 A 
ATOM      6  C7  UNL d   1       0.151   1.760   2.087  0.00  0.00    -0.073 A 
ATOM      7  C8  UNL d   1       1.148   1.110   1.167  0.00  0.00     0.078 C 
ENDROOT
BRANCH   1   8
ATOM      8  C1  UNL d   1      -1.818   1.054   0.610  0.00  0.00     0.053 C 
ATOM      9  C   UNL d   1      -2.494  -0.266   0.948  0.00  0.00     0.018 C 
ENDBRANCH   1   8
TORSDOF 1
ENDMDL
