MODEL 1
REMARK minimizedAffinity -0.40703395
REMARK minimizedRMSD -1
REMARK  1 active torsions:
REMARK  status: ('A' for Active; 'I' for Inactive)
REMARK    1  A    between atoms: C1_2  and  C2_3 
ROOT
ATOM      1  C2  UNL d   1      -2.829  -4.288  -1.309  0.00  0.00    -0.076 A 
ATOM      2  C3  UNL d   1      -2.728  -4.640   0.048  0.00  0.00     0.004 A 
ATOM      3  C4  UNL d   1      -2.463  -3.678   1.021  0.00  0.00    -0.003 A 
ATOM      4  C5  UNL d   1      -2.295  -2.348   0.653  0.00  0.00     0.000 A 
ATOM      5  C6  UNL d   1      -2.409  -1.978  -0.687  0.00  0.00     0.000 A 
ATOM      6  C7  UNL d   1      -2.692  -2.933  -1.678  0.00  0.00    -0.073 A 
ATOM      7  C8  UNL d   1      -2.797  -2.479  -3.109  0.00  0.00     0.078 C 
ENDROOT
BRANCH   1   8
ATOM      8  C1  UNL d   1      -3.091  -5.379  -2.322  0.00  0.00     0.053 C 
ATOM      9  C   UNL d   1      -1.924  -5.580  -3.277  0.00  0.00     0.018 C 
ENDBRANCH   1   8
TORSDOF 1
ENDMDL
