MODEL 1
REMARK minimizedAffinity -0.837998569
REMARK minimizedRMSD -1
REMARK  1 active torsions:
REMARK  status: ('A' for Active; 'I' for Inactive)
REMARK    1  A    between atoms: C1_2  and  C2_3 
ROOT
ATOM      1  C2  UNL d   1       0.151  -2.491  -0.110  0.00  0.00    -0.077 A 
ATOM      2  C3  UNL d   1      -0.012  -3.500  -1.070  0.00  0.00     0.002 A 
ATOM      3  C4  UNL d   1      -1.287  -3.851  -1.518  0.00  0.00     0.002 A 
ATOM      4  C5  UNL d   1      -2.408  -3.195  -1.014  0.00  0.00    -0.004 A 
ATOM      5  C6  UNL d   1      -2.258  -2.192  -0.058  0.00  0.00     0.002 A 
ATOM      6  C7  UNL d   1      -0.984  -1.841   0.391  0.00  0.00     0.002 A 
ENDROOT
BRANCH   1   7
ATOM      7  C1  UNL d   1       1.528  -2.078   0.337  0.00  0.00     0.055 C 
ATOM      8  C   UNL d   1       1.764  -0.593   0.102  0.00  0.00     0.019 C 
ENDBRANCH   1   7
TORSDOF 1
ENDMDL
