MODEL 1
REMARK minimizedAffinity 2.61531782
REMARK minimizedRMSD -1
REMARK  1 active torsions:
REMARK  status: ('A' for Active; 'I' for Inactive)
REMARK    1  A    between atoms: C1_2  and  C2_3 
ROOT
ATOM      1  C2  UNL d   1       2.733   2.370   1.993  0.00  0.00    -0.077 A 
ATOM      2  C3  UNL d   1       2.375   3.618   2.523  0.00  0.00     0.002 A 
ATOM      3  C4  UNL d   1       3.357   4.495   2.988  0.00  0.00     0.002 A 
ATOM      4  C5  UNL d   1       4.702   4.135   2.925  0.00  0.00    -0.004 A 
ATOM      5  C6  UNL d   1       5.067   2.895   2.403  0.00  0.00     0.002 A 
ATOM      6  C7  UNL d   1       4.087   2.017   1.938  0.00  0.00     0.002 A 
ENDROOT
BRANCH   1   7
ATOM      7  C1  UNL d   1       1.679   1.443   1.446  0.00  0.00     0.055 C 
ATOM      8  C   UNL d   1       2.217   0.617   0.287  0.00  0.00     0.019 C 
ENDBRANCH   1   7
TORSDOF 1
ENDMDL
