MODEL 1
REMARK minimizedAffinity 6.27791119
REMARK minimizedRMSD -1
REMARK  1 active torsions:
REMARK  status: ('A' for Active; 'I' for Inactive)
REMARK    1  A    between atoms: C1_2  and  C2_3 
ROOT
ATOM      1  C2  UNL d   1       2.708   2.107   1.880  0.00  0.00    -0.077 A 
ATOM      2  C3  UNL d   1       2.413   3.451   2.150  0.00  0.00     0.002 A 
ATOM      3  C4  UNL d   1       3.421   4.327   2.558  0.00  0.00     0.002 A 
ATOM      4  C5  UNL d   1       4.730   3.870   2.695  0.00  0.00    -0.004 A 
ATOM      5  C6  UNL d   1       5.033   2.535   2.430  0.00  0.00     0.002 A 
ATOM      6  C7  UNL d   1       4.027   1.658   2.023  0.00  0.00     0.002 A 
ENDROOT
BRANCH   1   7
ATOM      7  C1  UNL d   1       1.632   1.173   1.392  0.00  0.00     0.055 C 
ATOM      8  C   UNL d   1       2.125   0.316   0.235  0.00  0.00     0.019 C 
ENDBRANCH   1   7
TORSDOF 1
ENDMDL
