MODEL 1
REMARK minimizedAffinity 4.52027178
REMARK minimizedRMSD -1
REMARK  1 active torsions:
REMARK  status: ('A' for Active; 'I' for Inactive)
REMARK    1  A    between atoms: C1_2  and  C2_3 
ROOT
ATOM      1  C2  UNL d   1       1.897   0.056   0.579  0.00  0.00    -0.077 A 
ATOM      2  C3  UNL d   1       2.832   0.896   1.199  0.00  0.00     0.002 A 
ATOM      3  C4  UNL d   1       2.420   1.823   2.159  0.00  0.00     0.002 A 
ATOM      4  C5  UNL d   1       1.075   1.915   2.510  0.00  0.00    -0.004 A 
ATOM      5  C6  UNL d   1       0.138   1.085   1.896  0.00  0.00     0.002 A 
ATOM      6  C7  UNL d   1       0.547   0.159   0.936  0.00  0.00     0.002 A 
ENDROOT
BRANCH   1   7
ATOM      7  C1  UNL d   1       2.346  -0.978  -0.421  0.00  0.00     0.055 C 
ATOM      8  C   UNL d   1       3.079  -0.337  -1.590  0.00  0.00     0.019 C 
ENDBRANCH   1   7
TORSDOF 1
ENDMDL
