MODEL 1
REMARK minimizedAffinity 2.14978623
REMARK minimizedRMSD -1
REMARK  1 active torsions:
REMARK  status: ('A' for Active; 'I' for Inactive)
REMARK    1  A    between atoms: C1_2  and  C2_3 
ROOT
ATOM      1  C2  UNL d   1      -2.649  -3.889  -0.144  0.00  0.00    -0.077 A 
ATOM      2  C3  UNL d   1      -1.286  -3.844  -0.466  0.00  0.00     0.002 A 
ATOM      3  C4  UNL d   1      -0.472  -2.831   0.046  0.00  0.00     0.002 A 
ATOM      4  C5  UNL d   1      -1.012  -1.859   0.885  0.00  0.00    -0.004 A 
ATOM      5  C6  UNL d   1      -2.367  -1.893   1.209  0.00  0.00     0.002 A 
ATOM      6  C7  UNL d   1      -3.182  -2.904   0.698  0.00  0.00     0.002 A 
ENDROOT
BRANCH   1   7
ATOM      7  C1  UNL d   1      -3.518  -5.009  -0.654  0.00  0.00     0.055 C 
ATOM      8  C   UNL d   1      -4.318  -5.647   0.472  0.00  0.00     0.019 C 
ENDBRANCH   1   7
TORSDOF 1
ENDMDL
