MODEL 1
REMARK minimizedAffinity 9.48711967
REMARK minimizedRMSD -1
REMARK  1 active torsions:
REMARK  status: ('A' for Active; 'I' for Inactive)
REMARK    1  A    between atoms: C1_2  and  C2_3 
ROOT
ATOM      1  C2  UNL d   1       2.438   1.885   1.909  0.00  0.00    -0.077 A 
ATOM      2  C3  UNL d   1       2.086   3.208   2.211  0.00  0.00     0.002 A 
ATOM      3  C4  UNL d   1       3.066   4.136   2.567  0.00  0.00     0.002 A 
ATOM      4  C5  UNL d   1       4.405   3.752   2.621  0.00  0.00    -0.004 A 
ATOM      5  C6  UNL d   1       4.765   2.438   2.324  0.00  0.00     0.002 A 
ATOM      6  C7  UNL d   1       3.786   1.509   1.969  0.00  0.00     0.002 A 
ENDROOT
BRANCH   1   7
ATOM      7  C1  UNL d   1       1.388   0.895   1.477  0.00  0.00     0.055 C 
ATOM      8  C   UNL d   1       1.960  -0.135   0.514  0.00  0.00     0.019 C 
ENDBRANCH   1   7
TORSDOF 1
ENDMDL
