MODEL 1
REMARK minimizedAffinity 5.77313185
REMARK minimizedRMSD -1
REMARK  1 active torsions:
REMARK  status: ('A' for Active; 'I' for Inactive)
REMARK    1  A    between atoms: C1_2  and  C2_3 
ROOT
ATOM      1  C2  UNL d   1       3.992   4.470   2.948  0.00  0.00    -0.077 A 
ATOM      2  C3  UNL d   1       4.921   3.474   2.616  0.00  0.00     0.002 A 
ATOM      3  C4  UNL d   1       4.487   2.215   2.195  0.00  0.00     0.002 A 
ATOM      4  C5  UNL d   1       3.124   1.943   2.098  0.00  0.00    -0.004 A 
ATOM      5  C6  UNL d   1       2.192   2.927   2.427  0.00  0.00     0.002 A 
ATOM      6  C7  UNL d   1       2.624   4.185   2.850  0.00  0.00     0.002 A 
ENDROOT
BRANCH   1   7
ATOM      7  C1  UNL d   1       4.458   5.843   3.355  0.00  0.00     0.055 C 
ATOM      8  C   UNL d   1       4.463   6.000   4.869  0.00  0.00     0.019 C 
ENDBRANCH   1   7
TORSDOF 1
ENDMDL
