MODEL 1
REMARK minimizedAffinity 6.10185671
REMARK minimizedRMSD -1
REMARK  1 active torsions:
REMARK  status: ('A' for Active; 'I' for Inactive)
REMARK    1  A    between atoms: C1_2  and  C2_3 
ROOT
ATOM      1  C2  UNL d   1      -4.151  -1.710   2.509  0.00  0.00    -0.077 A 
ATOM      2  C3  UNL d   1      -3.445  -0.668   3.125  0.00  0.00     0.002 A 
ATOM      3  C4  UNL d   1      -2.159  -0.334   2.694  0.00  0.00     0.002 A 
ATOM      4  C5  UNL d   1      -1.571  -1.035   1.643  0.00  0.00    -0.004 A 
ATOM      5  C6  UNL d   1      -2.265  -2.075   1.026  0.00  0.00     0.002 A 
ATOM      6  C7  UNL d   1      -3.549  -2.410   1.456  0.00  0.00     0.002 A 
ENDROOT
BRANCH   1   7
ATOM      7  C1  UNL d   1      -5.556  -2.039   2.940  0.00  0.00     0.055 C 
ATOM      8  C   UNL d   1      -5.686  -3.503   3.335  0.00  0.00     0.019 C 
ENDBRANCH   1   7
TORSDOF 1
ENDMDL
