MODEL 1
REMARK minimizedAffinity 2.60374832
REMARK minimizedRMSD -1
REMARK  1 active torsions:
REMARK  status: ('A' for Active; 'I' for Inactive)
REMARK    1  A    between atoms: C1_2  and  C2_3 
ROOT
ATOM      1  C2  UNL d   1       0.095   1.505  -5.494  0.00  0.00    -0.077 A 
ATOM      2  C3  UNL d   1       0.674   0.702  -4.502  0.00  0.00     0.002 A 
ATOM      3  C4  UNL d   1       1.956   0.983  -4.025  0.00  0.00     0.002 A 
ATOM      4  C5  UNL d   1       2.668   2.068  -4.532  0.00  0.00    -0.004 A 
ATOM      5  C6  UNL d   1       2.101   2.871  -5.521  0.00  0.00     0.002 A 
ATOM      6  C7  UNL d   1       0.820   2.592  -5.999  0.00  0.00     0.002 A 
ENDROOT
BRANCH   1   7
ATOM      7  C1  UNL d   1      -1.307   1.233  -5.974  0.00  0.00     0.055 C 
ATOM      8  C   UNL d   1      -2.140   2.507  -6.000  0.00  0.00     0.019 C 
ENDBRANCH   1   7
TORSDOF 1
ENDMDL
