MODEL 1
REMARK minimizedAffinity 0.0111521184
REMARK minimizedRMSD -1
REMARK  1 active torsions:
REMARK  status: ('A' for Active; 'I' for Inactive)
REMARK    1  A    between atoms: C1_2  and  C2_3 
ROOT
ATOM      1  C2  UNL d   1      -1.090  -4.487  -0.791  0.00  0.00    -0.077 A 
ATOM      2  C3  UNL d   1      -1.856  -3.550  -1.500  0.00  0.00     0.002 A 
ATOM      3  C4  UNL d   1      -3.176  -3.839  -1.852  0.00  0.00     0.002 A 
ATOM      4  C5  UNL d   1      -3.742  -5.061  -1.497  0.00  0.00    -0.004 A 
ATOM      5  C6  UNL d   1      -2.988  -6.000  -0.794  0.00  0.00     0.002 A 
ATOM      6  C7  UNL d   1      -1.669  -5.714  -0.442  0.00  0.00     0.002 A 
ENDROOT
BRANCH   1   7
ATOM      7  C1  UNL d   1       0.317  -4.158  -0.366  0.00  0.00     0.055 C 
ATOM      8  C   UNL d   1       0.374  -2.835   0.384  0.00  0.00     0.019 C 
ENDBRANCH   1   7
TORSDOF 1
ENDMDL
