MODEL 1
REMARK minimizedAffinity 8.41278076
REMARK minimizedRMSD -1
REMARK  1 active torsions:
REMARK  status: ('A' for Active; 'I' for Inactive)
REMARK    1  A    between atoms: C1_2  and  C2_3 
ROOT
ATOM      1  C2  UNL d   1       3.562   1.234   1.438  0.00  0.00    -0.077 A 
ATOM      2  C3  UNL d   1       2.310   1.779   1.756  0.00  0.00     0.002 A 
ATOM      3  C4  UNL d   1       2.222   2.969   2.481  0.00  0.00     0.002 A 
ATOM      4  C5  UNL d   1       3.381   3.625   2.891  0.00  0.00    -0.004 A 
ATOM      5  C6  UNL d   1       4.630   3.090   2.581  0.00  0.00     0.002 A 
ATOM      6  C7  UNL d   1       4.720   1.900   1.858  0.00  0.00     0.002 A 
ENDROOT
BRANCH   1   7
ATOM      7  C1  UNL d   1       3.660  -0.023   0.614  0.00  0.00     0.055 C 
ATOM      8  C   UNL d   1       2.336  -0.344  -0.066  0.00  0.00     0.019 C 
ENDBRANCH   1   7
TORSDOF 1
ENDMDL
