MODEL 1
REMARK minimizedAffinity 7.21843815
REMARK minimizedRMSD -1
REMARK  1 active torsions:
REMARK  status: ('A' for Active; 'I' for Inactive)
REMARK    1  A    between atoms: C1_2  and  C2_3 
ROOT
ATOM      1  C2  UNL d   1      -2.303  -3.439  -0.930  0.00  0.00    -0.077 A 
ATOM      2  C3  UNL d   1      -1.663  -4.613  -1.350  0.00  0.00     0.002 A 
ATOM      3  C4  UNL d   1      -0.427  -4.976  -0.810  0.00  0.00     0.002 A 
ATOM      4  C5  UNL d   1       0.176  -4.172   0.155  0.00  0.00    -0.004 A 
ATOM      5  C6  UNL d   1      -0.451  -3.001   0.578  0.00  0.00     0.002 A 
ATOM      6  C7  UNL d   1      -1.686  -2.637   0.039  0.00  0.00     0.002 A 
ENDROOT
BRANCH   1   7
ATOM      7  C1  UNL d   1      -3.658  -3.071  -1.474  0.00  0.00     0.055 C 
ATOM      8  C   UNL d   1      -4.001  -1.620  -1.173  0.00  0.00     0.019 C 
ENDBRANCH   1   7
TORSDOF 1
ENDMDL
