MODEL 1
REMARK minimizedAffinity 7.36774778
REMARK minimizedRMSD -1
REMARK  1 active torsions:
REMARK  status: ('A' for Active; 'I' for Inactive)
REMARK    1  A    between atoms: C1_2  and  C2_3 
ROOT
ATOM      1  C2  UNL d   1      -1.439  -3.592  -5.458  0.00  0.00    -0.081 A 
ATOM      2  C3  UNL d   1      -0.581  -3.815  -4.375  0.00  0.00     0.006 A 
ATOM      3  C4  UNL d   1       0.168  -2.766  -3.836  0.00  0.00     0.002 A 
ATOM      4  C5  UNL d   1       0.066  -1.476  -4.367  0.00  0.00    -0.080 A 
ATOM      5  C6  UNL d   1       0.842  -0.335  -3.779  0.00  0.00     0.076 C 
ATOM      6  C7  UNL d   1      -0.778  -1.256  -5.461  0.00  0.00     0.002 A 
ATOM      7  C8  UNL d   1      -1.527  -2.305  -6.000  0.00  0.00     0.006 A 
ENDROOT
BRANCH   1   8
ATOM      8  C1  UNL d   1      -2.297  -4.707  -5.999  0.00  0.00     0.054 C 
ATOM      9  C   UNL d   1      -2.076  -6.000  -5.227  0.00  0.00     0.018 C 
ENDBRANCH   1   8
TORSDOF 1
ENDMDL
