MODEL 1
REMARK minimizedAffinity -1.51947224
REMARK minimizedRMSD -1
REMARK  1 active torsions:
REMARK  status: ('A' for Active; 'I' for Inactive)
REMARK    1  A    between atoms: C1_2  and  C2_3 
ROOT
ATOM      1  C2  UNL d   1       1.034   1.274   1.602  0.00  0.00    -0.081 A 
ATOM      2  C3  UNL d   1       1.887   1.374   0.495  0.00  0.00     0.006 A 
ATOM      3  C4  UNL d   1       2.129   0.263  -0.315  0.00  0.00     0.002 A 
ATOM      4  C5  UNL d   1       1.516  -0.964  -0.039  0.00  0.00    -0.080 A 
ATOM      5  C6  UNL d   1       1.744  -2.157  -0.919  0.00  0.00     0.076 C 
ATOM      6  C7  UNL d   1       0.678  -1.069   1.076  0.00  0.00     0.002 A 
ATOM      7  C8  UNL d   1       0.436   0.041   1.888  0.00  0.00     0.006 A 
ENDROOT
BRANCH   1   8
ATOM      8  C1  UNL d   1       0.720   2.487   2.440  0.00  0.00     0.054 C 
ATOM      9  C   UNL d   1      -0.032   3.536   1.635  0.00  0.00     0.018 C 
ENDBRANCH   1   8
TORSDOF 1
ENDMDL
