MODEL 1
REMARK minimizedAffinity -3.1078372
REMARK minimizedRMSD -1
REMARK  1 active torsions:
REMARK  status: ('A' for Active; 'I' for Inactive)
REMARK    1  A    between atoms: C1_2  and  C2_3 
ROOT
ATOM      1  C2  UNL d   1       0.569   2.009   1.063  0.00  0.00    -0.081 A 
ATOM      2  C3  UNL d   1       1.141   0.781   0.710  0.00  0.00     0.006 A 
ATOM      3  C4  UNL d   1       1.400  -0.187   1.683  0.00  0.00     0.002 A 
ATOM      4  C5  UNL d   1       1.084   0.054   3.025  0.00  0.00    -0.080 A 
ATOM      5  C6  UNL d   1       1.329  -0.988   4.075  0.00  0.00     0.076 C 
ATOM      6  C7  UNL d   1       0.528   1.287   3.381  0.00  0.00     0.002 A 
ATOM      7  C8  UNL d   1       0.269   2.255   2.408  0.00  0.00     0.006 A 
ENDROOT
BRANCH   1   8
ATOM      8  C1  UNL d   1       0.229   3.029   0.007  0.00  0.00     0.054 C 
ATOM      9  C   UNL d   1       0.166   2.394  -1.375  0.00  0.00     0.018 C 
ENDBRANCH   1   8
TORSDOF 1
ENDMDL
