MODEL 1
REMARK minimizedAffinity -4.13131285
REMARK minimizedRMSD -1
REMARK  0 active torsions:
REMARK  status: ('A' for Active; 'I' for Inactive)
ROOT
ATOM      1  C   UNL d   1       4.335   2.624  -1.128  0.00  0.00     0.078 C 
ATOM      2  C1  UNL d   1       3.730   1.276  -1.383  0.00  0.00    -0.077 A 
ATOM      3  C2  UNL d   1       3.892   0.634  -2.617  0.00  0.00    -0.001 A 
ATOM      4  C3  UNL d   1       3.316  -0.617  -2.843  0.00  0.00     0.003 A 
ATOM      5  C4  UNL d   1       2.572  -1.236  -1.840  0.00  0.00    -0.005 A 
ATOM      6  C5  UNL d   1       2.403  -0.604  -0.610  0.00  0.00     0.003 A 
ATOM      7  C6  UNL d   1       2.979   0.646  -0.382  0.00  0.00    -0.001 A 
ENDROOT
TORSDOF 0
ENDMDL
