MODEL 1
REMARK minimizedAffinity 2.8488462
REMARK minimizedRMSD -1
REMARK  0 active torsions:
REMARK  status: ('A' for Active; 'I' for Inactive)
ROOT
ATOM      1  C   UNL d   1      -5.276   3.618   1.126  0.00  0.00     0.078 C 
ATOM      2  C1  UNL d   1      -5.259   2.320   0.375  0.00  0.00    -0.077 A 
ATOM      3  C2  UNL d   1      -4.520   2.180  -0.806  0.00  0.00    -0.001 A 
ATOM      4  C3  UNL d   1      -4.521   0.969  -1.500  0.00  0.00     0.003 A 
ATOM      5  C4  UNL d   1      -5.260  -0.111  -1.021  0.00  0.00    -0.005 A 
ATOM      6  C5  UNL d   1      -6.000   0.019   0.152  0.00  0.00     0.003 A 
ATOM      7  C6  UNL d   1      -6.000   1.229   0.848  0.00  0.00    -0.001 A 
ENDROOT
TORSDOF 0
ENDMDL
