MODEL 1
REMARK minimizedAffinity 0.63167727
REMARK minimizedRMSD -1
REMARK  0 active torsions:
REMARK  status: ('A' for Active; 'I' for Inactive)
ROOT
ATOM      1  C   UNL d   1       3.746   2.215  -1.015  0.00  0.00     0.078 C 
ATOM      2  C1  UNL d   1       3.138   0.859  -1.214  0.00  0.00    -0.077 A 
ATOM      3  C2  UNL d   1       2.834   0.037  -0.121  0.00  0.00    -0.001 A 
ATOM      4  C3  UNL d   1       2.277  -1.227  -0.322  0.00  0.00     0.003 A 
ATOM      5  C4  UNL d   1       2.019  -1.681  -1.614  0.00  0.00    -0.005 A 
ATOM      6  C5  UNL d   1       2.320  -0.871  -2.707  0.00  0.00     0.003 A 
ATOM      7  C6  UNL d   1       2.877   0.393  -2.509  0.00  0.00    -0.001 A 
ENDROOT
TORSDOF 0
ENDMDL
