MODEL 1
REMARK minimizedAffinity 0.990821481
REMARK minimizedRMSD -1
REMARK  0 active torsions:
REMARK  status: ('A' for Active; 'I' for Inactive)
ROOT
ATOM      1  C   UNL d   1      -5.633   1.515   0.750  0.00  0.00     0.078 C 
ATOM      2  C1  UNL d   1      -5.148   2.830   1.284  0.00  0.00    -0.077 A 
ATOM      3  C2  UNL d   1      -3.844   3.274   1.032  0.00  0.00    -0.001 A 
ATOM      4  C3  UNL d   1      -3.403   4.496   1.543  0.00  0.00     0.003 A 
ATOM      5  C4  UNL d   1      -4.259   5.282   2.311  0.00  0.00    -0.005 A 
ATOM      6  C5  UNL d   1      -5.557   4.847   2.570  0.00  0.00     0.003 A 
ATOM      7  C6  UNL d   1      -6.000   3.626   2.059  0.00  0.00    -0.001 A 
ENDROOT
TORSDOF 0
ENDMDL
