MODEL 1
REMARK minimizedAffinity -1.05121613
REMARK minimizedRMSD -1
REMARK  0 active torsions:
REMARK  status: ('A' for Active; 'I' for Inactive)
ROOT
ATOM      1  C   UNL d   1       3.020   1.146  -0.021  0.00  0.00     0.078 C 
ATOM      2  C1  UNL d   1       2.181   0.448   1.009  0.00  0.00    -0.077 A 
ATOM      3  C2  UNL d   1       1.671   1.141   2.113  0.00  0.00    -0.001 A 
ATOM      4  C3  UNL d   1       0.900   0.477   3.068  0.00  0.00     0.003 A 
ATOM      5  C4  UNL d   1       0.634  -0.884   2.930  0.00  0.00    -0.005 A 
ATOM      6  C5  UNL d   1       1.140  -1.582   1.835  0.00  0.00     0.003 A 
ATOM      7  C6  UNL d   1       1.911  -0.919   0.879  0.00  0.00    -0.001 A 
ENDROOT
TORSDOF 0
ENDMDL
