MODEL 1
REMARK minimizedAffinity 1.05976117
REMARK minimizedRMSD -1
REMARK  0 active torsions:
REMARK  status: ('A' for Active; 'I' for Inactive)
ROOT
ATOM      1  C   UNL d   1       2.203   0.921   0.565  0.00  0.00     0.078 C 
ATOM      2  C1  UNL d   1       3.524   1.310  -0.029  0.00  0.00    -0.077 A 
ATOM      3  C2  UNL d   1       4.293   0.386  -0.747  0.00  0.00    -0.001 A 
ATOM      4  C3  UNL d   1       5.525   0.760  -1.285  0.00  0.00     0.003 A 
ATOM      5  C4  UNL d   1       6.000   2.058  -1.110  0.00  0.00    -0.005 A 
ATOM      6  C5  UNL d   1       5.243   2.984  -0.395  0.00  0.00     0.003 A 
ATOM      7  C6  UNL d   1       4.011   2.612   0.144  0.00  0.00    -0.001 A 
ENDROOT
TORSDOF 0
ENDMDL
