MODEL 1
REMARK minimizedAffinity -3.29389119
REMARK minimizedRMSD -1
REMARK  0 active torsions:
REMARK  status: ('A' for Active; 'I' for Inactive)
ROOT
ATOM      1  C   UNL d   1      -5.998  -0.100  -5.371  0.00  0.00     0.078 C 
ATOM      2  C1  UNL d   1      -5.216   0.945  -4.634  0.00  0.00    -0.077 A 
ATOM      3  C2  UNL d   1      -3.834   0.813  -4.447  0.00  0.00    -0.001 A 
ATOM      4  C3  UNL d   1      -3.120   1.789  -3.750  0.00  0.00     0.003 A 
ATOM      5  C4  UNL d   1      -3.779   2.903  -3.233  0.00  0.00    -0.005 A 
ATOM      6  C5  UNL d   1      -5.154   3.042  -3.412  0.00  0.00     0.003 A 
ATOM      7  C6  UNL d   1      -5.870   2.067  -4.109  0.00  0.00    -0.001 A 
ENDROOT
TORSDOF 0
ENDMDL
