MODEL 1
REMARK minimizedAffinity -2.10769463
REMARK minimizedRMSD -1
REMARK  0 active torsions:
REMARK  status: ('A' for Active; 'I' for Inactive)
ROOT
ATOM      1  C   UNL d   1       1.980   2.391   3.006  0.00  0.00     0.078 C 
ATOM      2  C1  UNL d   1       2.829   2.103   1.804  0.00  0.00    -0.077 A 
ATOM      3  C2  UNL d   1       2.296   1.454   0.684  0.00  0.00    -0.001 A 
ATOM      4  C3  UNL d   1       3.101   1.183  -0.424  0.00  0.00     0.003 A 
ATOM      5  C4  UNL d   1       4.444   1.556  -0.422  0.00  0.00    -0.005 A 
ATOM      6  C5  UNL d   1       4.983   2.200   0.689  0.00  0.00     0.003 A 
ATOM      7  C6  UNL d   1       4.180   2.472   1.798  0.00  0.00    -0.001 A 
ENDROOT
TORSDOF 0
ENDMDL
