MODEL 1
REMARK minimizedAffinity -2.71502352
REMARK minimizedRMSD -1
REMARK  0 active torsions:
REMARK  status: ('A' for Active; 'I' for Inactive)
ROOT
ATOM      1  C   UNL d   1      -6.000  -0.044  -4.462  0.00  0.00     0.078 C 
ATOM      2  C1  UNL d   1      -4.971   0.971  -4.062  0.00  0.00    -0.077 A 
ATOM      3  C2  UNL d   1      -5.345   2.265  -3.679  0.00  0.00    -0.001 A 
ATOM      4  C3  UNL d   1      -4.375   3.202  -3.318  0.00  0.00     0.003 A 
ATOM      5  C4  UNL d   1      -3.026   2.855  -3.337  0.00  0.00    -0.005 A 
ATOM      6  C5  UNL d   1      -2.644   1.571  -3.719  0.00  0.00     0.003 A 
ATOM      7  C6  UNL d   1      -3.612   0.632  -4.080  0.00  0.00    -0.001 A 
ENDROOT
TORSDOF 0
ENDMDL
