MODEL 1
REMARK minimizedAffinity 1.66763818
REMARK minimizedRMSD -1
REMARK  0 active torsions:
REMARK  status: ('A' for Active; 'I' for Inactive)
ROOT
ATOM      1  C   UNL d   1      -5.960   5.300   5.552  0.00  0.00     0.078 C 
ATOM      2  C1  UNL d   1      -5.669   5.005   4.111  0.00  0.00    -0.077 A 
ATOM      3  C2  UNL d   1      -5.090   5.971   3.279  0.00  0.00    -0.001 A 
ATOM      4  C3  UNL d   1      -4.834   5.686   1.938  0.00  0.00     0.003 A 
ATOM      5  C4  UNL d   1      -5.154   4.434   1.415  0.00  0.00    -0.005 A 
ATOM      6  C5  UNL d   1      -5.732   3.467   2.234  0.00  0.00     0.003 A 
ATOM      7  C6  UNL d   1      -5.989   3.751   3.576  0.00  0.00    -0.001 A 
ENDROOT
TORSDOF 0
ENDMDL
