MODEL 1
REMARK minimizedAffinity -1.00064552
REMARK minimizedRMSD -1
REMARK  0 active torsions:
REMARK  status: ('A' for Active; 'I' for Inactive)
ROOT
ATOM      1  C   UNL d   1      -5.999  -0.703  -4.745  0.00  0.00     0.078 C 
ATOM      2  C1  UNL d   1      -5.154   0.362  -4.114  0.00  0.00    -0.077 A 
ATOM      3  C2  UNL d   1      -3.758   0.254  -4.088  0.00  0.00    -0.001 A 
ATOM      4  C3  UNL d   1      -2.984   1.249  -3.488  0.00  0.00     0.003 A 
ATOM      5  C4  UNL d   1      -3.596   2.358  -2.909  0.00  0.00    -0.005 A 
ATOM      6  C5  UNL d   1      -4.985   2.473  -2.927  0.00  0.00     0.003 A 
ATOM      7  C6  UNL d   1      -5.761   1.480  -3.527  0.00  0.00    -0.001 A 
ENDROOT
TORSDOF 0
ENDMDL
