MODEL 1
REMARK minimizedAffinity 5.08846569
REMARK minimizedRMSD -1
REMARK  1 active torsions:
REMARK  status: ('A' for Active; 'I' for Inactive)
REMARK    1  A    between atoms: C3_4  and  O_7 
ROOT
ATOM      1  C   UNL d   1       4.472   0.243  -1.606  0.00  0.00    -0.033 A 
ATOM      2  C1  UNL d   1       4.416  -0.712  -2.623  0.00  0.00     0.039 A 
ATOM      3  C2  UNL d   1       3.639  -1.860  -2.463  0.00  0.00    -0.080 A 
ATOM      4  C3  UNL d   1       2.923  -2.041  -1.283  0.00  0.00     0.150 A 
ATOM      5  C4  UNL d   1       2.971  -1.092  -0.267  0.00  0.00    -0.007 A 
ATOM      6  C5  UNL d   1       3.749   0.054  -0.429  0.00  0.00     0.039 A 
ENDROOT
BRANCH   4   7
ATOM      7  O   UNL d   1       2.154  -3.148  -1.078  0.00  0.00    -0.526 OA
ATOM      8  H5  UNL d   1       2.239  -3.729  -1.852  0.00  0.00     0.418 HD
ENDBRANCH   4   7
TORSDOF 1
ENDMDL
