MODEL 1
REMARK minimizedAffinity 4.29282475
REMARK minimizedRMSD -1
REMARK  1 active torsions:
REMARK  status: ('A' for Active; 'I' for Inactive)
REMARK    1  A    between atoms: C3_4  and  O_7 
ROOT
ATOM      1  C   UNL d   1       5.998   0.900  -0.391  0.00  0.00    -0.033 A 
ATOM      2  C1  UNL d   1       6.000  -0.320   0.288  0.00  0.00     0.039 A 
ATOM      3  C2  UNL d   1       4.882  -1.155   0.231  0.00  0.00    -0.080 A 
ATOM      4  C3  UNL d   1       3.771  -0.759  -0.510  0.00  0.00     0.150 A 
ATOM      5  C4  UNL d   1       3.765   0.453  -1.192  0.00  0.00    -0.007 A 
ATOM      6  C5  UNL d   1       4.881   1.285  -1.133  0.00  0.00     0.039 A 
ENDROOT
BRANCH   4   7
ATOM      7  O   UNL d   1       2.656  -1.538  -0.592  0.00  0.00    -0.526 OA
ATOM      8  H5  UNL d   1       2.793  -2.331  -0.047  0.00  0.00     0.418 HD
ENDBRANCH   4   7
TORSDOF 1
ENDMDL
