MODEL 1
REMARK minimizedAffinity 8.38160419
REMARK minimizedRMSD -1
REMARK  1 active torsions:
REMARK  status: ('A' for Active; 'I' for Inactive)
REMARK    1  A    between atoms: C3_4  and  O_7 
ROOT
ATOM      1  C   UNL d   1      -5.877   2.052  -3.001  0.00  0.00    -0.033 A 
ATOM      2  C1  UNL d   1      -5.047   3.064  -3.485  0.00  0.00     0.039 A 
ATOM      3  C2  UNL d   1      -4.125   2.789  -4.497  0.00  0.00    -0.080 A 
ATOM      4  C3  UNL d   1      -4.044   1.499  -5.015  0.00  0.00     0.150 A 
ATOM      5  C4  UNL d   1      -4.870   0.487  -4.540  0.00  0.00    -0.007 A 
ATOM      6  C5  UNL d   1      -5.790   0.763  -3.529  0.00  0.00     0.039 A 
ENDROOT
BRANCH   4   7
ATOM      7  O   UNL d   1      -3.156   1.182  -6.000  0.00  0.00    -0.526 OA
ATOM      8  H5  UNL d   1      -2.631   1.973  -6.208  0.00  0.00     0.418 HD
ENDBRANCH   4   7
TORSDOF 1
ENDMDL
