MODEL 1
REMARK minimizedAffinity 3.74754357
REMARK minimizedRMSD -1
REMARK  1 active torsions:
REMARK  status: ('A' for Active; 'I' for Inactive)
REMARK    1  A    between atoms: C3_4  and  O_7 
ROOT
ATOM      1  C   UNL d   1       3.956  -1.384   0.704  0.00  0.00    -0.033 A 
ATOM      2  C1  UNL d   1       3.114  -1.323  -0.408  0.00  0.00     0.039 A 
ATOM      3  C2  UNL d   1       3.281  -0.315  -1.359  0.00  0.00    -0.080 A 
ATOM      4  C3  UNL d   1       4.294   0.625  -1.187  0.00  0.00     0.150 A 
ATOM      5  C4  UNL d   1       5.140   0.568  -0.084  0.00  0.00    -0.007 A 
ATOM      6  C5  UNL d   1       4.970  -0.439   0.865  0.00  0.00     0.039 A 
ENDROOT
BRANCH   4   7
ATOM      7  O   UNL d   1       4.493   1.630  -2.086  0.00  0.00    -0.526 OA
ATOM      8  H5  UNL d   1       3.817   1.560  -2.780  0.00  0.00     0.418 HD
ENDBRANCH   4   7
TORSDOF 1
ENDMDL
