MODEL 1
REMARK minimizedAffinity 10.9458065
REMARK minimizedRMSD -1
REMARK  1 active torsions:
REMARK  status: ('A' for Active; 'I' for Inactive)
REMARK    1  A    between atoms: C3_4  and  O_7 
ROOT
ATOM      1  C   UNL d   1      -2.811  -5.234  -4.532  0.00  0.00    -0.033 A 
ATOM      2  C1  UNL d   1      -1.645  -5.997  -4.612  0.00  0.00     0.039 A 
ATOM      3  C2  UNL d   1      -0.733  -5.994  -3.555  0.00  0.00    -0.080 A 
ATOM      4  C3  UNL d   1      -0.998  -5.225  -2.425  0.00  0.00     0.150 A 
ATOM      5  C4  UNL d   1      -2.159  -4.465  -2.337  0.00  0.00    -0.007 A 
ATOM      6  C5  UNL d   1      -3.069  -4.468  -3.394  0.00  0.00     0.039 A 
ENDROOT
BRANCH   4   7
ATOM      7  O   UNL d   1      -0.135  -5.186  -1.371  0.00  0.00    -0.526 OA
ATOM      8  H5  UNL d   1       0.637  -5.737  -1.584  0.00  0.00     0.418 HD
ENDBRANCH   4   7
TORSDOF 1
ENDMDL
