MODEL 1
REMARK minimizedAffinity 1.78989935
REMARK minimizedRMSD -1
REMARK  1 active torsions:
REMARK  status: ('A' for Active; 'I' for Inactive)
REMARK    1  A    between atoms: C3_4  and  O_7 
ROOT
ATOM      1  C   UNL d   1       4.911  -1.301   0.089  0.00  0.00    -0.033 A 
ATOM      2  C1  UNL d   1       3.658  -0.889  -0.368  0.00  0.00     0.039 A 
ATOM      3  C2  UNL d   1       3.490   0.397  -0.885  0.00  0.00    -0.080 A 
ATOM      4  C3  UNL d   1       4.582   1.259  -0.941  0.00  0.00     0.150 A 
ATOM      5  C4  UNL d   1       5.834   0.853  -0.492  0.00  0.00    -0.007 A 
ATOM      6  C5  UNL d   1       6.000  -0.431   0.026  0.00  0.00     0.039 A 
ENDROOT
BRANCH   4   7
ATOM      7  O   UNL d   1       4.466   2.525  -1.434  0.00  0.00    -0.526 OA
ATOM      8  H5  UNL d   1       3.538   2.675  -1.680  0.00  0.00     0.418 HD
ENDBRANCH   4   7
TORSDOF 1
ENDMDL
