MODEL 1
REMARK minimizedAffinity 9.53857803
REMARK minimizedRMSD -1
REMARK  1 active torsions:
REMARK  status: ('A' for Active; 'I' for Inactive)
REMARK    1  A    between atoms: C3_4  and  O_7 
ROOT
ATOM      1  C   UNL d   1       6.000   1.227  -0.745  0.00  0.00    -0.033 A 
ATOM      2  C1  UNL d   1       4.872   1.586  -1.485  0.00  0.00     0.039 A 
ATOM      3  C2  UNL d   1       3.742   0.766  -1.482  0.00  0.00    -0.080 A 
ATOM      4  C3  UNL d   1       3.753  -0.409  -0.735  0.00  0.00     0.150 A 
ATOM      5  C4  UNL d   1       4.872  -0.772   0.008  0.00  0.00    -0.007 A 
ATOM      6  C5  UNL d   1       5.999   0.049   0.003  0.00  0.00     0.039 A 
ENDROOT
BRANCH   4   7
ATOM      7  O   UNL d   1       2.676  -1.244  -0.705  0.00  0.00    -0.526 OA
ATOM      8  H5  UNL d   1       1.988  -0.881  -1.287  0.00  0.00     0.418 HD
ENDBRANCH   4   7
TORSDOF 1
ENDMDL
