MODEL 1
REMARK minimizedAffinity 10.2647038
REMARK minimizedRMSD -1
REMARK  1 active torsions:
REMARK  status: ('A' for Active; 'I' for Inactive)
REMARK    1  A    between atoms: C3_4  and  O_7 
ROOT
ATOM      1  C   UNL d   1       2.061   0.232   0.328  0.00  0.00    -0.033 A 
ATOM      2  C1  UNL d   1       1.189   0.516  -0.725  0.00  0.00     0.039 A 
ATOM      3  C2  UNL d   1      -0.061   1.081  -0.465  0.00  0.00    -0.080 A 
ATOM      4  C3  UNL d   1      -0.426   1.358   0.849  0.00  0.00     0.150 A 
ATOM      5  C4  UNL d   1       0.440   1.082   1.902  0.00  0.00    -0.007 A 
ATOM      6  C5  UNL d   1       1.687   0.517   1.641  0.00  0.00     0.039 A 
ENDROOT
BRANCH   4   7
ATOM      7  O   UNL d   1      -1.637   1.905   1.152  0.00  0.00    -0.526 OA
ATOM      8  H5  UNL d   1      -2.140   2.015   0.328  0.00  0.00     0.418 HD
ENDBRANCH   4   7
TORSDOF 1
ENDMDL
