MODEL 1
REMARK minimizedAffinity 3.58861041
REMARK minimizedRMSD -1
REMARK  1 active torsions:
REMARK  status: ('A' for Active; 'I' for Inactive)
REMARK    1  A    between atoms: C3_4  and  O_7 
ROOT
ATOM      1  C   UNL d   1      -0.828  -5.129   6.000  0.00  0.00    -0.033 A 
ATOM      2  C1  UNL d   1      -1.505  -4.151   5.268  0.00  0.00     0.039 A 
ATOM      3  C2  UNL d   1      -0.797  -3.292   4.426  0.00  0.00    -0.080 A 
ATOM      4  C3  UNL d   1       0.585  -3.420   4.324  0.00  0.00     0.150 A 
ATOM      5  C4  UNL d   1       1.266  -4.394   5.048  0.00  0.00    -0.007 A 
ATOM      6  C5  UNL d   1       0.557  -5.251   5.889  0.00  0.00     0.039 A 
ENDROOT
BRANCH   4   7
ATOM      7  O   UNL d   1       1.320  -2.601   3.519  0.00  0.00    -0.526 OA
ATOM      8  H5  UNL d   1       0.720  -1.959   3.104  0.00  0.00     0.418 HD
ENDBRANCH   4   7
TORSDOF 1
ENDMDL
