MODEL 1
REMARK minimizedAffinity -1.91296434
REMARK minimizedRMSD -1
REMARK  2 active torsions:
REMARK  status: ('A' for Active; 'I' for Inactive)
REMARK    1  A    between atoms: C2'_3  and  C1'_4 
REMARK    2  A    between atoms: C1'_4  and  C1_5 
ROOT
ATOM      1  C1  I4B d   1       0.408  -2.650   0.229  0.00  0.00    -0.075 A 
ATOM      2  C2  I4B d   1       0.749  -1.853  -0.835  0.00  0.00     0.003 A 
ATOM      3  C3  I4B d   1       0.559  -2.315  -2.160  0.00  0.00     0.002 A 
ATOM      4  C4  I4B d   1       0.075  -3.589  -2.374  0.00  0.00    -0.004 A 
ATOM      5  C5  I4B d   1      -0.292  -4.387  -1.293  0.00  0.00     0.002 A 
ATOM      6  C6  I4B d   1      -0.136  -3.910   0.016  0.00  0.00     0.003 A 
ENDROOT
BRANCH   1   7
ATOM      7  C1' I4B d   1       0.653  -2.144   1.615  0.00  0.00     0.060 C 
BRANCH   7   8
ATOM      8  C2' I4B d   1      -0.671  -1.671   2.181  0.00  0.00    -0.013 C 
ATOM      9  C4' I4B d   1      -0.492  -1.047   3.539  0.00  0.00     0.013 C 
ATOM     10  C3' I4B d   1      -1.266  -0.695   1.210  0.00  0.00     0.013 C 
ENDBRANCH   7   8
ENDBRANCH   1   7
TORSDOF 2
ENDMDL
