MODEL 1
REMARK minimizedAffinity 9.43494987
REMARK minimizedRMSD -1
REMARK  2 active torsions:
REMARK  status: ('A' for Active; 'I' for Inactive)
REMARK    1  A    between atoms: C2'_3  and  C1'_4 
REMARK    2  A    between atoms: C1'_4  and  C1_5 
ROOT
ATOM      1  C1  I4B d   1       0.263  -1.620  -0.973  0.00  0.00    -0.075 A 
ATOM      2  C2  I4B d   1       1.247  -2.575  -0.915  0.00  0.00     0.003 A 
ATOM      3  C3  I4B d   1       1.080  -3.722  -0.101  0.00  0.00     0.002 A 
ATOM      4  C4  I4B d   1      -0.057  -3.848   0.670  0.00  0.00    -0.004 A 
ATOM      5  C5  I4B d   1      -1.064  -2.890   0.592  0.00  0.00     0.002 A 
ATOM      6  C6  I4B d   1      -0.909  -1.775  -0.244  0.00  0.00     0.003 A 
ENDROOT
BRANCH   1   7
ATOM      7  C1' I4B d   1       0.487  -0.405  -1.817  0.00  0.00     0.060 C 
BRANCH   7   8
ATOM      8  C2' I4B d   1       0.308   0.814  -0.936  0.00  0.00    -0.013 C 
ATOM      9  C4' I4B d   1       1.551   1.664  -0.923  0.00  0.00     0.013 C 
ATOM     10  C3' I4B d   1      -0.871   1.587  -1.449  0.00  0.00     0.013 C 
ENDBRANCH   7   8
ENDBRANCH   1   7
TORSDOF 2
ENDMDL
