MODEL 1
REMARK minimizedAffinity 7.82306099
REMARK minimizedRMSD -1
REMARK  2 active torsions:
REMARK  status: ('A' for Active; 'I' for Inactive)
REMARK    1  A    between atoms: C2'_3  and  C1'_4 
REMARK    2  A    between atoms: C1'_4  and  C1_5 
ROOT
ATOM      1  C1  I4B d   1       0.291  -2.382  -0.393  0.00  0.00    -0.075 A 
ATOM      2  C2  I4B d   1       1.424  -2.874  -0.991  0.00  0.00     0.003 A 
ATOM      3  C3  I4B d   1       2.055  -2.147  -2.030  0.00  0.00     0.002 A 
ATOM      4  C4  I4B d   1       1.493  -0.966  -2.470  0.00  0.00    -0.004 A 
ATOM      5  C5  I4B d   1       0.357  -0.457  -1.848  0.00  0.00     0.002 A 
ATOM      6  C6  I4B d   1      -0.242  -1.164  -0.794  0.00  0.00     0.003 A 
ENDROOT
BRANCH   1   7
ATOM      7  C1' I4B d   1      -0.368  -3.192   0.678  0.00  0.00     0.060 C 
BRANCH   7   8
ATOM      8  C2' I4B d   1      -1.626  -2.464   1.106  0.00  0.00    -0.013 C 
ATOM      9  C4' I4B d   1      -2.861  -3.224   0.700  0.00  0.00     0.013 C 
ATOM     10  C3' I4B d   1      -1.569  -2.278   2.593  0.00  0.00     0.013 C 
ENDBRANCH   7   8
ENDBRANCH   1   7
TORSDOF 2
ENDMDL
