MODEL 1
REMARK minimizedAffinity 12.9622993
REMARK minimizedRMSD -1
REMARK  2 active torsions:
REMARK  status: ('A' for Active; 'I' for Inactive)
REMARK    1  A    between atoms: C2'_3  and  C1'_4 
REMARK    2  A    between atoms: C1'_4  and  C1_5 
ROOT
ATOM      1  C1  I4B d   1       1.298  -2.834  -2.628  0.00  0.00    -0.075 A 
ATOM      2  C2  I4B d   1       0.847  -1.644  -2.114  0.00  0.00     0.003 A 
ATOM      3  C3  I4B d   1       0.238  -1.604  -0.837  0.00  0.00     0.002 A 
ATOM      4  C4  I4B d   1       0.057  -2.777  -0.133  0.00  0.00    -0.004 A 
ATOM      5  C5  I4B d   1       0.535  -3.979  -0.645  0.00  0.00     0.002 A 
ATOM      6  C6  I4B d   1       1.171  -4.007  -1.895  0.00  0.00     0.003 A 
ENDROOT
BRANCH   1   7
ATOM      7  C1' I4B d   1       1.906  -2.845  -3.995  0.00  0.00     0.060 C 
BRANCH   7   8
ATOM      8  C2' I4B d   1       2.929  -3.961  -4.041  0.00  0.00    -0.013 C 
ATOM      9  C4' I4B d   1       2.881  -4.691  -5.358  0.00  0.00     0.013 C 
ATOM     10  C3' I4B d   1       4.282  -3.359  -3.805  0.00  0.00     0.013 C 
ENDBRANCH   7   8
ENDBRANCH   1   7
TORSDOF 2
ENDMDL
