MODEL 1
REMARK minimizedAffinity -5.37938929
REMARK minimizedRMSD -1
REMARK  2 active torsions:
REMARK  status: ('A' for Active; 'I' for Inactive)
REMARK    1  A    between atoms: C2'_3  and  C1'_4 
REMARK    2  A    between atoms: C1'_4  and  C1_5 
ROOT
ATOM      1  C1  I4B d   1       0.259  -0.888  -0.727  0.00  0.00    -0.075 A 
ATOM      2  C2  I4B d   1       0.734   0.189  -1.432  0.00  0.00     0.003 A 
ATOM      3  C3  I4B d   1       0.321   1.501  -1.093  0.00  0.00     0.002 A 
ATOM      4  C4  I4B d   1      -0.600   1.683  -0.082  0.00  0.00    -0.004 A 
ATOM      5  C5  I4B d   1      -1.063   0.592   0.646  0.00  0.00     0.002 A 
ATOM      6  C6  I4B d   1      -0.621  -0.702   0.331  0.00  0.00     0.003 A 
ENDROOT
BRANCH   1   7
ATOM      7  C1' I4B d   1       0.690  -2.262  -1.133  0.00  0.00     0.060 C 
BRANCH   7   8
ATOM      8  C2' I4B d   1       0.697  -3.134   0.106  0.00  0.00    -0.013 C 
ATOM      9  C4' I4B d   1       0.506  -4.585  -0.248  0.00  0.00     0.013 C 
ATOM     10  C3' I4B d   1       2.000  -2.917   0.817  0.00  0.00     0.013 C 
ENDBRANCH   7   8
ENDBRANCH   1   7
TORSDOF 2
ENDMDL
