MODEL 1
REMARK minimizedAffinity 11.0329456
REMARK minimizedRMSD -1
REMARK  2 active torsions:
REMARK  status: ('A' for Active; 'I' for Inactive)
REMARK    1  A    between atoms: C2'_3  and  C1'_4 
REMARK    2  A    between atoms: C1'_4  and  C1_5 
ROOT
ATOM      1  C1  I4B d   1       3.626  -3.310  -3.691  0.00  0.00    -0.075 A 
ATOM      2  C2  I4B d   1       3.105  -4.472  -4.204  0.00  0.00     0.003 A 
ATOM      3  C3  I4B d   1       3.672  -5.057  -5.362  0.00  0.00     0.002 A 
ATOM      4  C4  I4B d   1       4.719  -4.424  -6.000  0.00  0.00    -0.004 A 
ATOM      5  C5  I4B d   1       5.260  -3.258  -5.466  0.00  0.00     0.002 A 
ATOM      6  C6  I4B d   1       4.718  -2.703  -4.297  0.00  0.00     0.003 A 
ENDROOT
BRANCH   1   7
ATOM      7  C1' I4B d   1       2.982  -2.702  -2.485  0.00  0.00     0.060 C 
BRANCH   7   8
ATOM      8  C2' I4B d   1       3.864  -1.567  -2.007  0.00  0.00    -0.013 C 
ATOM      9  C4' I4B d   1       3.077  -0.293  -1.849  0.00  0.00     0.013 C 
ATOM     10  C3' I4B d   1       4.488  -1.982  -0.708  0.00  0.00     0.013 C 
ENDBRANCH   7   8
ENDBRANCH   1   7
TORSDOF 2
ENDMDL
