MODEL 1
REMARK minimizedAffinity -1.41065979
REMARK minimizedRMSD -1
REMARK  2 active torsions:
REMARK  status: ('A' for Active; 'I' for Inactive)
REMARK    1  A    between atoms: C2'_3  and  C1'_4 
REMARK    2  A    between atoms: C1'_4  and  C1_5 
ROOT
ATOM      1  C1  I4B d   1       0.406  -0.517  -0.093  0.00  0.00    -0.075 A 
ATOM      2  C2  I4B d   1       0.584  -1.836  -0.429  0.00  0.00     0.003 A 
ATOM      3  C3  I4B d   1       0.844  -2.201  -1.772  0.00  0.00     0.002 A 
ATOM      4  C4  I4B d   1       0.868  -1.226  -2.749  0.00  0.00    -0.004 A 
ATOM      5  C5  I4B d   1       0.711   0.113  -2.403  0.00  0.00     0.002 A 
ATOM      6  C6  I4B d   1       0.491   0.472  -1.065  0.00  0.00     0.003 A 
ENDROOT
BRANCH   1   7
ATOM      7  C1' I4B d   1       0.101  -0.170   1.329  0.00  0.00     0.060 C 
BRANCH   7   8
ATOM      8  C2' I4B d   1      -1.379  -0.402   1.559  0.00  0.00    -0.013 C 
ATOM      9  C4' I4B d   1      -2.209   0.653   0.877  0.00  0.00     0.013 C 
ATOM     10  C3' I4B d   1      -1.717  -1.771   1.047  0.00  0.00     0.013 C 
ENDBRANCH   7   8
ENDBRANCH   1   7
TORSDOF 2
ENDMDL
