MODEL 1
REMARK minimizedAffinity 3.14773035
REMARK minimizedRMSD -1
REMARK  1 active torsions:
REMARK  status: ('A' for Active; 'I' for Inactive)
REMARK    1  A    between atoms: C1_2  and  C2_3 
ROOT
ATOM      1  C2  UNL d   1       1.068   3.311  -0.030  0.00  0.00    -0.077 A 
ATOM      2  C3  UNL d   1       2.405   3.101   0.336  0.00  0.00     0.002 A 
ATOM      3  C4  UNL d   1       2.965   1.825   0.263  0.00  0.00     0.002 A 
ATOM      4  C5  UNL d   1       2.198   0.749  -0.181  0.00  0.00    -0.004 A 
ATOM      5  C6  UNL d   1       0.867   0.947  -0.545  0.00  0.00     0.002 A 
ATOM      6  C7  UNL d   1       0.304   2.223  -0.471  0.00  0.00     0.002 A 
ENDROOT
BRANCH   1   7
ATOM      7  C1  UNL d   1       0.476   4.696   0.002  0.00  0.00     0.055 C 
ATOM      8  C   UNL d   1      -0.859   4.710   0.733  0.00  0.00     0.019 C 
ENDBRANCH   1   7
TORSDOF 1
ENDMDL
