MODEL 1
REMARK minimizedAffinity -0.442629725
REMARK minimizedRMSD -1
REMARK  1 active torsions:
REMARK  status: ('A' for Active; 'I' for Inactive)
REMARK    1  A    between atoms: C1_2  and  C2_3 
ROOT
ATOM      1  C2  UNL d   1      -3.973   3.448  -4.972  0.00  0.00    -0.077 A 
ATOM      2  C3  UNL d   1      -2.998   2.463  -5.184  0.00  0.00     0.002 A 
ATOM      3  C4  UNL d   1      -1.975   2.271  -4.253  0.00  0.00     0.002 A 
ATOM      4  C5  UNL d   1      -1.919   3.057  -3.104  0.00  0.00    -0.004 A 
ATOM      5  C6  UNL d   1      -2.883   4.040  -2.886  0.00  0.00     0.002 A 
ATOM      6  C7  UNL d   1      -3.906   4.234  -3.815  0.00  0.00     0.002 A 
ENDROOT
BRANCH   1   7
ATOM      7  C1  UNL d   1      -5.106   3.624  -5.950  0.00  0.00     0.055 C 
ATOM      8  C   UNL d   1      -5.993   2.388  -5.997  0.00  0.00     0.019 C 
ENDBRANCH   1   7
TORSDOF 1
ENDMDL
