MODEL 1
REMARK minimizedAffinity 2.90133095
REMARK minimizedRMSD -1
REMARK  1 active torsions:
REMARK  status: ('A' for Active; 'I' for Inactive)
REMARK    1  A    between atoms: C1_2  and  C2_3 
ROOT
ATOM      1  C2  UNL d   1       2.855   2.016   1.101  0.00  0.00    -0.077 A 
ATOM      2  C3  UNL d   1       3.191   2.427   2.399  0.00  0.00     0.002 A 
ATOM      3  C4  UNL d   1       2.315   2.197   3.461  0.00  0.00     0.002 A 
ATOM      4  C5  UNL d   1       1.101   1.551   3.238  0.00  0.00    -0.004 A 
ATOM      5  C6  UNL d   1       0.757   1.140   1.951  0.00  0.00     0.002 A 
ATOM      6  C7  UNL d   1       1.631   1.370   0.887  0.00  0.00     0.002 A 
ENDROOT
BRANCH   1   7
ATOM      7  C1  UNL d   1       3.820   2.219  -0.038  0.00  0.00     0.055 C 
ATOM      8  C   UNL d   1       3.885   0.991  -0.934  0.00  0.00     0.019 C 
ENDBRANCH   1   7
TORSDOF 1
ENDMDL
