MODEL 1
REMARK minimizedAffinity 3.68929386
REMARK minimizedRMSD -1
REMARK  1 active torsions:
REMARK  status: ('A' for Active; 'I' for Inactive)
REMARK    1  A    between atoms: C1_2  and  C2_3 
ROOT
ATOM      1  C2  UNL d   1       3.546   0.915  -0.437  0.00  0.00    -0.077 A 
ATOM      2  C3  UNL d   1       4.735   0.222  -0.166  0.00  0.00     0.002 A 
ATOM      3  C4  UNL d   1       5.929   0.919   0.032  0.00  0.00     0.002 A 
ATOM      4  C5  UNL d   1       5.944   2.310  -0.035  0.00  0.00    -0.004 A 
ATOM      5  C6  UNL d   1       4.768   3.008  -0.305  0.00  0.00     0.002 A 
ATOM      6  C7  UNL d   1       3.574   2.313  -0.504  0.00  0.00     0.002 A 
ENDROOT
BRANCH   1   7
ATOM      7  C1  UNL d   1       2.248   0.168  -0.602  0.00  0.00     0.055 C 
ATOM      8  C   UNL d   1       2.432  -1.323  -0.355  0.00  0.00     0.019 C 
ENDBRANCH   1   7
TORSDOF 1
ENDMDL
