MODEL 1
REMARK minimizedAffinity 0.96048367
REMARK minimizedRMSD -1
REMARK  1 active torsions:
REMARK  status: ('A' for Active; 'I' for Inactive)
REMARK    1  A    between atoms: C1_2  and  C2_3 
ROOT
ATOM      1  C2  UNL d   1       4.156   0.909   0.006  0.00  0.00    -0.077 A 
ATOM      2  C3  UNL d   1       3.272   1.997   0.007  0.00  0.00     0.002 A 
ATOM      3  C4  UNL d   1       1.894   1.787   0.081  0.00  0.00     0.002 A 
ATOM      4  C5  UNL d   1       1.388   0.491   0.159  0.00  0.00    -0.004 A 
ATOM      5  C6  UNL d   1       2.259  -0.597   0.157  0.00  0.00     0.002 A 
ATOM      6  C7  UNL d   1       3.637  -0.389   0.082  0.00  0.00     0.002 A 
ENDROOT
BRANCH   1   7
ATOM      7  C1  UNL d   1       5.645   1.136  -0.024  0.00  0.00     0.055 C 
ATOM      8  C   UNL d   1       5.994   2.572   0.337  0.00  0.00     0.019 C 
ENDBRANCH   1   7
TORSDOF 1
ENDMDL
