MODEL 1
REMARK minimizedAffinity 3.70271587
REMARK minimizedRMSD -1
REMARK  1 active torsions:
REMARK  status: ('A' for Active; 'I' for Inactive)
REMARK    1  A    between atoms: C1_2  and  C2_3 
ROOT
ATOM      1  C2  UNL d   1       1.882   1.181   0.970  0.00  0.00    -0.077 A 
ATOM      2  C3  UNL d   1       2.511   1.968   1.945  0.00  0.00     0.002 A 
ATOM      3  C4  UNL d   1       1.976   2.062   3.231  0.00  0.00     0.002 A 
ATOM      4  C5  UNL d   1       0.811   1.369   3.554  0.00  0.00    -0.004 A 
ATOM      5  C6  UNL d   1       0.176   0.586   2.591  0.00  0.00     0.002 A 
ATOM      6  C7  UNL d   1       0.710   0.491   1.305  0.00  0.00     0.002 A 
ENDROOT
BRANCH   1   7
ATOM      7  C1  UNL d   1       2.485   1.039  -0.403  0.00  0.00     0.055 C 
ATOM      8  C   UNL d   1       3.932   1.511  -0.424  0.00  0.00     0.019 C 
ENDBRANCH   1   7
TORSDOF 1
ENDMDL
