MODEL 1
REMARK minimizedAffinity -0.0605467521
REMARK minimizedRMSD -1
REMARK  1 active torsions:
REMARK  status: ('A' for Active; 'I' for Inactive)
REMARK    1  A    between atoms: C1_2  and  C2_3 
ROOT
ATOM      1  C2  UNL d   1      -4.487   0.753  -2.630  0.00  0.00    -0.077 A 
ATOM      2  C3  UNL d   1      -4.942   2.079  -2.626  0.00  0.00     0.002 A 
ATOM      3  C4  UNL d   1      -5.695   2.564  -1.554  0.00  0.00     0.002 A 
ATOM      4  C5  UNL d   1      -5.996   1.731  -0.479  0.00  0.00    -0.004 A 
ATOM      5  C6  UNL d   1      -5.549   0.410  -0.475  0.00  0.00     0.002 A 
ATOM      6  C7  UNL d   1      -4.798  -0.076  -1.545  0.00  0.00     0.002 A 
ENDROOT
BRANCH   1   7
ATOM      7  C1  UNL d   1      -3.633   0.243  -3.761  0.00  0.00     0.055 C 
ATOM      8  C   UNL d   1      -2.158   0.519  -3.509  0.00  0.00     0.019 C 
ENDBRANCH   1   7
TORSDOF 1
ENDMDL
