MODEL 1
REMARK minimizedAffinity -0.0506686643
REMARK minimizedRMSD -1
REMARK  1 active torsions:
REMARK  status: ('A' for Active; 'I' for Inactive)
REMARK    1  A    between atoms: C1_2  and  C2_3 
ROOT
ATOM      1  C2  UNL d   1      -3.507   1.558  -3.374  0.00  0.00    -0.077 A 
ATOM      2  C3  UNL d   1      -4.045   2.732  -2.827  0.00  0.00     0.002 A 
ATOM      3  C4  UNL d   1      -5.260   3.236  -3.295  0.00  0.00     0.002 A 
ATOM      4  C5  UNL d   1      -5.948   2.572  -4.308  0.00  0.00    -0.004 A 
ATOM      5  C6  UNL d   1      -5.421   1.405  -4.859  0.00  0.00     0.002 A 
ATOM      6  C7  UNL d   1      -4.207   0.899  -4.393  0.00  0.00     0.002 A 
ENDROOT
BRANCH   1   7
ATOM      7  C1  UNL d   1      -2.222   0.984  -2.836  0.00  0.00     0.055 C 
ATOM      8  C   UNL d   1      -2.482  -0.234  -1.963  0.00  0.00     0.019 C 
ENDBRANCH   1   7
TORSDOF 1
ENDMDL
