MODEL 1
REMARK minimizedAffinity -2.10153747
REMARK minimizedRMSD -1
REMARK  1 active torsions:
REMARK  status: ('A' for Active; 'I' for Inactive)
REMARK    1  A    between atoms: C1_2  and  C2_3 
ROOT
ATOM      1  C2  UNL d   1      -4.840   0.861  -3.179  0.00  0.00    -0.077 A 
ATOM      2  C3  UNL d   1      -5.418   2.092  -2.836  0.00  0.00     0.002 A 
ATOM      3  C4  UNL d   1      -5.998   2.274  -1.579  0.00  0.00     0.002 A 
ATOM      4  C5  UNL d   1      -6.000   1.233  -0.653  0.00  0.00    -0.004 A 
ATOM      5  C6  UNL d   1      -5.429   0.005  -0.985  0.00  0.00     0.002 A 
ATOM      6  C7  UNL d   1      -4.850  -0.180  -2.241  0.00  0.00     0.002 A 
ENDROOT
BRANCH   1   7
ATOM      7  C1  UNL d   1      -4.171   0.678  -4.516  0.00  0.00     0.055 C 
ATOM      8  C   UNL d   1      -2.690   0.367  -4.356  0.00  0.00     0.019 C 
ENDBRANCH   1   7
TORSDOF 1
ENDMDL
