MODEL 1
REMARK minimizedAffinity 3.77133012
REMARK minimizedRMSD -1
REMARK  1 active torsions:
REMARK  status: ('A' for Active; 'I' for Inactive)
REMARK    1  A    between atoms: C1_2  and  C2_3 
ROOT
ATOM      1  C2  UNL d   1      -5.081   0.850  -2.235  0.00  0.00    -0.077 A 
ATOM      2  C3  UNL d   1      -4.140  -0.037  -2.775  0.00  0.00     0.002 A 
ATOM      3  C4  UNL d   1      -3.280   0.379  -3.794  0.00  0.00     0.002 A 
ATOM      4  C5  UNL d   1      -3.351   1.683  -4.278  0.00  0.00    -0.004 A 
ATOM      5  C6  UNL d   1      -4.285   2.573  -3.749  0.00  0.00     0.002 A 
ATOM      6  C7  UNL d   1      -5.146   2.159  -2.732  0.00  0.00     0.002 A 
ENDROOT
BRANCH   1   7
ATOM      7  C1  UNL d   1      -5.976   0.419  -1.103  0.00  0.00     0.055 C 
ATOM      8  C   UNL d   1      -6.000   1.456   0.010  0.00  0.00     0.019 C 
ENDBRANCH   1   7
TORSDOF 1
ENDMDL
