MODEL 1
REMARK minimizedAffinity -4.00004864
REMARK minimizedRMSD -1
REMARK  0 active torsions:
REMARK  status: ('A' for Active; 'I' for Inactive)
ROOT
ATOM      1  C1  BNZ d   1      -0.133  -0.230   0.257  0.00  0.00     0.000 A 
ATOM      2  C2  BNZ d   1       0.259  -1.441   0.761  0.00  0.00     0.000 A 
ATOM      3  C3  BNZ d   1       1.564  -1.841   0.686  0.00  0.00     0.000 A 
ATOM      4  C4  BNZ d   1       2.466  -1.049   0.073  0.00  0.00     0.000 A 
ATOM      5  C5  BNZ d   1       2.085   0.172  -0.448  0.00  0.00     0.000 A 
ATOM      6  C6  BNZ d   1       0.778   0.588  -0.336  0.00  0.00     0.000 A 
ENDROOT
TORSDOF 0
ENDMDL
