MODEL 1
REMARK minimizedAffinity -2.74175763
REMARK minimizedRMSD -1
REMARK  0 active torsions:
REMARK  status: ('A' for Active; 'I' for Inactive)
ROOT
ATOM      1  C1  BNZ d   1       2.681   0.045  -0.320  0.00  0.00     0.000 A 
ATOM      2  C2  BNZ d   1       2.772  -1.113   0.405  0.00  0.00     0.000 A 
ATOM      3  C3  BNZ d   1       1.653  -1.833   0.717  0.00  0.00     0.000 A 
ATOM      4  C4  BNZ d   1       0.442  -1.374   0.339  0.00  0.00     0.000 A 
ATOM      5  C5  BNZ d   1       0.334  -0.203  -0.384  0.00  0.00     0.000 A 
ATOM      6  C6  BNZ d   1       1.466   0.499  -0.730  0.00  0.00     0.000 A 
ENDROOT
TORSDOF 0
ENDMDL
