MODEL 1
REMARK minimizedAffinity -3.21621966
REMARK minimizedRMSD -1
REMARK  0 active torsions:
REMARK  status: ('A' for Active; 'I' for Inactive)
ROOT
ATOM      1  C1  BNZ d   1       2.943  -0.628  -0.340  0.00  0.00     0.000 A 
ATOM      2  C2  BNZ d   1       2.236   0.316  -1.036  0.00  0.00     0.000 A 
ATOM      3  C3  BNZ d   1       0.925   0.568  -0.741  0.00  0.00     0.000 A 
ATOM      4  C4  BNZ d   1       0.313  -0.151   0.222  0.00  0.00     0.000 A 
ATOM      5  C5  BNZ d   1       1.009  -1.113   0.926  0.00  0.00     0.000 A 
ATOM      6  C6  BNZ d   1       2.339  -1.337   0.652  0.00  0.00     0.000 A 
ENDROOT
TORSDOF 0
ENDMDL
