MODEL 1
REMARK minimizedAffinity -2.5150249
REMARK minimizedRMSD -1
REMARK  0 active torsions:
REMARK  status: ('A' for Active; 'I' for Inactive)
ROOT
ATOM      1  C1  BNZ d   1       0.111  -0.228   0.101  0.00  0.00     0.000 A 
ATOM      2  C2  BNZ d   1       0.374  -1.316   0.890  0.00  0.00     0.000 A 
ATOM      3  C3  BNZ d   1       1.648  -1.587   1.306  0.00  0.00     0.000 A 
ATOM      4  C4  BNZ d   1       2.661  -0.795   0.901  0.00  0.00     0.000 A 
ATOM      5  C5  BNZ d   1       2.413   0.301   0.098  0.00  0.00     0.000 A 
ATOM      6  C6  BNZ d   1       1.125   0.593  -0.287  0.00  0.00     0.000 A 
ENDROOT
TORSDOF 0
ENDMDL
