MODEL 1
REMARK minimizedAffinity -1.56833112
REMARK minimizedRMSD -1
REMARK  0 active torsions:
REMARK  status: ('A' for Active; 'I' for Inactive)
ROOT
ATOM      1  C1  BNZ d   1      -1.856   0.378  -0.882  0.00  0.00     0.000 A 
ATOM      2  C2  BNZ d   1      -2.741   0.374  -1.927  0.00  0.00     0.000 A 
ATOM      3  C3  BNZ d   1      -2.536   1.167  -3.021  0.00  0.00     0.000 A 
ATOM      4  C4  BNZ d   1      -1.470   1.992  -3.051  0.00  0.00     0.000 A 
ATOM      5  C5  BNZ d   1      -0.574   2.015  -2.002  0.00  0.00     0.000 A 
ATOM      6  C6  BNZ d   1      -0.762   1.186  -0.919  0.00  0.00     0.000 A 
ENDROOT
TORSDOF 0
ENDMDL
