MODEL 1
REMARK minimizedAffinity -3.17156816
REMARK minimizedRMSD -1
REMARK  0 active torsions:
REMARK  status: ('A' for Active; 'I' for Inactive)
ROOT
ATOM      1  C1  BNZ d   1      -0.253   1.220  -0.003  0.00  0.00     0.000 A 
ATOM      2  C2  BNZ d   1       0.919   0.554  -0.247  0.00  0.00     0.000 A 
ATOM      3  C3  BNZ d   1       1.203  -0.619   0.393  0.00  0.00     0.000 A 
ATOM      4  C4  BNZ d   1       0.336  -1.104   1.305  0.00  0.00     0.000 A 
ATOM      5  C5  BNZ d   1      -0.845  -0.439   1.570  0.00  0.00     0.000 A 
ATOM      6  C6  BNZ d   1      -1.146   0.722   0.895  0.00  0.00     0.000 A 
ENDROOT
TORSDOF 0
ENDMDL
