MODEL 1
REMARK minimizedAffinity -3.88612866
REMARK minimizedRMSD -1
REMARK  0 active torsions:
REMARK  status: ('A' for Active; 'I' for Inactive)
ROOT
ATOM      1  C1  BNZ d   1       0.113  -0.248   0.719  0.00  0.00     0.000 A 
ATOM      2  C2  BNZ d   1      -0.568  -0.479   1.884  0.00  0.00     0.000 A 
ATOM      3  C3  BNZ d   1       0.008  -1.184   2.903  0.00  0.00     0.000 A 
ATOM      4  C4  BNZ d   1       1.247  -1.691   2.741  0.00  0.00     0.000 A 
ATOM      5  C5  BNZ d   1       1.943  -1.475   1.568  0.00  0.00     0.000 A 
ATOM      6  C6  BNZ d   1       1.375  -0.731   0.559  0.00  0.00     0.000 A 
ENDROOT
TORSDOF 0
ENDMDL
