MODEL 1
REMARK minimizedAffinity -3.45412469
REMARK minimizedRMSD -1
REMARK  0 active torsions:
REMARK  status: ('A' for Active; 'I' for Inactive)
ROOT
ATOM      1  C1  BNZ d   1      -2.642   1.931  -1.761  0.00  0.00     0.000 A 
ATOM      2  C2  BNZ d   1      -2.103   1.571  -0.554  0.00  0.00     0.000 A 
ATOM      3  C3  BNZ d   1      -1.142   0.602  -0.478  0.00  0.00     0.000 A 
ATOM      4  C4  BNZ d   1      -0.751  -0.033  -1.602  0.00  0.00     0.000 A 
ATOM      5  C5  BNZ d   1      -1.292   0.312  -2.824  0.00  0.00     0.000 A 
ATOM      6  C6  BNZ d   1      -2.231   1.315  -2.902  0.00  0.00     0.000 A 
ENDROOT
TORSDOF 0
ENDMDL
