MODEL 1
REMARK minimizedAffinity -4.14637232
REMARK minimizedRMSD -1
REMARK  0 active torsions:
REMARK  status: ('A' for Active; 'I' for Inactive)
ROOT
ATOM      1  C1  BNZ d   1      -1.607   0.994  -0.807  0.00  0.00     0.000 A 
ATOM      2  C2  BNZ d   1      -0.955   2.194  -0.910  0.00  0.00     0.000 A 
ATOM      3  C3  BNZ d   1      -1.049   2.946  -2.048  0.00  0.00     0.000 A 
ATOM      4  C4  BNZ d   1      -1.760   2.479  -3.094  0.00  0.00     0.000 A 
ATOM      5  C5  BNZ d   1      -2.416   1.267  -3.009  0.00  0.00     0.000 A 
ATOM      6  C6  BNZ d   1      -2.351   0.531  -1.848  0.00  0.00     0.000 A 
ENDROOT
TORSDOF 0
ENDMDL
