MODEL 1
REMARK minimizedAffinity -4.47800016
REMARK minimizedRMSD -1
REMARK  0 active torsions:
REMARK  status: ('A' for Active; 'I' for Inactive)
ROOT
ATOM      1  C1  BNZ d   1       1.477  -1.753   0.987  0.00  0.00     0.000 A 
ATOM      2  C2  BNZ d   1       0.215  -1.223   1.043  0.00  0.00     0.000 A 
ATOM      3  C3  BNZ d   1      -0.108  -0.108   0.320  0.00  0.00     0.000 A 
ATOM      4  C4  BNZ d   1       0.840   0.497  -0.424  0.00  0.00     0.000 A 
ATOM      5  C5  BNZ d   1       2.118  -0.019  -0.483  0.00  0.00     0.000 A 
ATOM      6  C6  BNZ d   1       2.430  -1.164   0.215  0.00  0.00     0.000 A 
ENDROOT
TORSDOF 0
ENDMDL
