MODEL 1
REMARK minimizedAffinity -4.01643801
REMARK minimizedRMSD -1
REMARK  0 active torsions:
REMARK  status: ('A' for Active; 'I' for Inactive)
ROOT
ATOM      1  C1  BNZ d   1       0.605  -0.020   0.173  0.00  0.00     0.000 A 
ATOM      2  C2  BNZ d   1       0.831  -1.184   0.858  0.00  0.00     0.000 A 
ATOM      3  C3  BNZ d   1       2.104  -1.621   1.097  0.00  0.00     0.000 A 
ATOM      4  C4  BNZ d   1       3.148  -0.915   0.616  0.00  0.00     0.000 A 
ATOM      5  C5  BNZ d   1       2.937   0.256  -0.084  0.00  0.00     0.000 A 
ATOM      6  C6  BNZ d   1       1.655   0.713  -0.289  0.00  0.00     0.000 A 
ENDROOT
TORSDOF 0
ENDMDL
