MODEL 1
REMARK minimizedAffinity -2.81862831
REMARK minimizedRMSD -1
REMARK  0 active torsions:
REMARK  status: ('A' for Active; 'I' for Inactive)
ROOT
ATOM      1  C1  BNZ d   1      -0.096  -0.836   1.535  0.00  0.00     0.000 A 
ATOM      2  C2  BNZ d   1      -0.281   0.192   0.649  0.00  0.00     0.000 A 
ATOM      3  C3  BNZ d   1       0.751   0.645  -0.124  0.00  0.00     0.000 A 
ATOM      4  C4  BNZ d   1       1.975   0.097   0.019  0.00  0.00     0.000 A 
ATOM      5  C5  BNZ d   1       2.180  -0.933   0.914  0.00  0.00     0.000 A 
ATOM      6  C6  BNZ d   1       1.130  -1.413   1.662  0.00  0.00     0.000 A 
ENDROOT
TORSDOF 0
ENDMDL
