MODEL 1
REMARK minimizedAffinity -1.46863604
REMARK minimizedRMSD -1
REMARK  0 active torsions:
REMARK  status: ('A' for Active; 'I' for Inactive)
ROOT
ATOM      1  C1  BNZ d   1      -2.263  -0.513  -1.038  0.00  0.00     0.000 A 
ATOM      2  C2  BNZ d   1      -3.015  -0.011  -2.066  0.00  0.00     0.000 A 
ATOM      3  C3  BNZ d   1      -2.592   1.079  -2.774  0.00  0.00     0.000 A 
ATOM      4  C4  BNZ d   1      -1.440   1.689  -2.428  0.00  0.00     0.000 A 
ATOM      5  C5  BNZ d   1      -0.676   1.200  -1.387  0.00  0.00     0.000 A 
ATOM      6  C6  BNZ d   1      -1.085   0.079  -0.702  0.00  0.00     0.000 A 
ENDROOT
TORSDOF 0
ENDMDL
