MODEL 1
REMARK minimizedAffinity -2.24895787
REMARK minimizedRMSD -1
REMARK  0 active torsions:
REMARK  status: ('A' for Active; 'I' for Inactive)
ROOT
ATOM      1  C1  BNZ d   1      -0.335   0.661   0.369  0.00  0.00     0.000 A 
ATOM      2  C2  BNZ d   1      -0.673   0.858  -0.943  0.00  0.00     0.000 A 
ATOM      3  C3  BNZ d   1      -1.891   0.460  -1.419  0.00  0.00     0.000 A 
ATOM      4  C4  BNZ d   1      -2.752  -0.170  -0.594  0.00  0.00     0.000 A 
ATOM      5  C5  BNZ d   1      -2.422  -0.384   0.729  0.00  0.00     0.000 A 
ATOM      6  C6  BNZ d   1      -1.211   0.053   1.215  0.00  0.00     0.000 A 
ENDROOT
TORSDOF 0
ENDMDL
