MODEL 1
REMARK minimizedAffinity 2.39767718
REMARK minimizedRMSD -1
REMARK  0 active torsions:
REMARK  status: ('A' for Active; 'I' for Inactive)
ROOT
ATOM      1  C1  BNZ d   1       0.269  -4.132  -4.531  0.00  0.00     0.000 A 
ATOM      2  C2  BNZ d   1       1.638  -4.154  -4.553  0.00  0.00     0.000 A 
ATOM      3  C3  BNZ d   1       2.311  -5.077  -5.305  0.00  0.00     0.000 A 
ATOM      4  C4  BNZ d   1       1.615  -6.000  -6.000  0.00  0.00     0.000 A 
ATOM      5  C5  BNZ d   1       0.235  -5.996  -5.980  0.00  0.00     0.000 A 
ATOM      6  C6  BNZ d   1      -0.440  -5.042  -5.254  0.00  0.00     0.000 A 
ENDROOT
TORSDOF 0
ENDMDL
