MODEL 1
REMARK minimizedAffinity -2.88614202
REMARK minimizedRMSD -1
REMARK  0 active torsions:
REMARK  status: ('A' for Active; 'I' for Inactive)
ROOT
ATOM      1  C1  BNZ d   1      -2.182   0.184   1.503  0.00  0.00     0.000 A 
ATOM      2  C2  BNZ d   1      -3.367  -0.364   1.091  0.00  0.00     0.000 A 
ATOM      3  C3  BNZ d   1      -3.759  -0.284  -0.216  0.00  0.00     0.000 A 
ATOM      4  C4  BNZ d   1      -2.985   0.378  -1.100  0.00  0.00     0.000 A 
ATOM      5  C5  BNZ d   1      -1.792   0.944  -0.698  0.00  0.00     0.000 A 
ATOM      6  C6  BNZ d   1      -1.382   0.828   0.610  0.00  0.00     0.000 A 
ENDROOT
TORSDOF 0
ENDMDL
