MODEL 1
REMARK minimizedAffinity -4.79392719
REMARK minimizedRMSD -1
REMARK  0 active torsions:
REMARK  status: ('A' for Active; 'I' for Inactive)
ROOT
ATOM      1  C1  BNZ d   1       1.344  -2.149   1.586  0.00  0.00     0.000 A 
ATOM      2  C2  BNZ d   1       0.032  -1.793   1.750  0.00  0.00     0.000 A 
ATOM      3  C3  BNZ d   1      -0.561  -0.896   0.906  0.00  0.00     0.000 A 
ATOM      4  C4  BNZ d   1       0.169  -0.326  -0.075  0.00  0.00     0.000 A 
ATOM      5  C5  BNZ d   1       1.495  -0.668  -0.248  0.00  0.00     0.000 A 
ATOM      6  C6  BNZ d   1       2.078  -1.601   0.579  0.00  0.00     0.000 A 
ENDROOT
TORSDOF 0
ENDMDL
