MODEL 1
REMARK minimizedAffinity 6.44384575
REMARK minimizedRMSD -1
REMARK  2 active torsions:
REMARK  status: ('A' for Active; 'I' for Inactive)
REMARK    1  A    between atoms: C2'_3  and  C1'_4 
REMARK    2  A    between atoms: C1'_4  and  C1_5 
ROOT
ATOM      1  C1  I4B d   1       0.409   1.771   2.183  0.00  0.00    -0.075 A 
ATOM      2  C2  I4B d   1      -0.364   1.843   1.052  0.00  0.00     0.003 A 
ATOM      3  C3  I4B d   1      -0.137   2.863   0.096  0.00  0.00     0.002 A 
ATOM      4  C4  I4B d   1       0.835   3.813   0.335  0.00  0.00    -0.004 A 
ATOM      5  C5  I4B d   1       1.633   3.725   1.472  0.00  0.00     0.002 A 
ATOM      6  C6  I4B d   1       1.428   2.691   2.396  0.00  0.00     0.003 A 
ENDROOT
BRANCH   1   7
ATOM      7  C1' I4B d   1       0.120   0.701   3.187  0.00  0.00     0.060 C 
BRANCH   7   8
ATOM      8  C2' I4B d   1       1.433   0.044   3.561  0.00  0.00    -0.013 C 
ATOM      9  C4' I4B d   1       1.271  -0.857   4.757  0.00  0.00     0.013 C 
ATOM     10  C3' I4B d   1       1.924  -0.722   2.369  0.00  0.00     0.013 C 
ENDBRANCH   7   8
ENDBRANCH   1   7
TORSDOF 2
ENDMDL
