MODEL 1
REMARK minimizedAffinity 13.1851349
REMARK minimizedRMSD -1
REMARK  2 active torsions:
REMARK  status: ('A' for Active; 'I' for Inactive)
REMARK    1  A    between atoms: C2'_3  and  C1'_4 
REMARK    2  A    between atoms: C1'_4  and  C1_5 
ROOT
ATOM      1  C1  I4B d   1       5.299  -2.821  -1.450  0.00  0.00    -0.075 A 
ATOM      2  C2  I4B d   1       4.601  -1.787  -0.877  0.00  0.00     0.003 A 
ATOM      3  C3  I4B d   1       3.902  -1.986   0.338  0.00  0.00     0.002 A 
ATOM      4  C4  I4B d   1       3.886  -3.239   0.916  0.00  0.00    -0.004 A 
ATOM      5  C5  I4B d   1       4.613  -4.280   0.346  0.00  0.00     0.002 A 
ATOM      6  C6  I4B d   1       5.334  -4.067  -0.838  0.00  0.00     0.003 A 
ENDROOT
BRANCH   1   7
ATOM      7  C1' I4B d   1       5.999  -2.585  -2.751  0.00  0.00     0.060 C 
BRANCH   7   8
ATOM      8  C2' I4B d   1       5.043  -2.950  -3.868  0.00  0.00    -0.013 C 
ATOM      9  C4' I4B d   1       5.787  -3.405  -5.096  0.00  0.00     0.013 C 
ATOM     10  C3' I4B d   1       4.127  -4.024  -3.361  0.00  0.00     0.013 C 
ENDBRANCH   7   8
ENDBRANCH   1   7
TORSDOF 2
ENDMDL
