MODEL 1
REMARK minimizedAffinity 13.5439014
REMARK minimizedRMSD -1
REMARK  2 active torsions:
REMARK  status: ('A' for Active; 'I' for Inactive)
REMARK    1  A    between atoms: C2'_3  and  C1'_4 
REMARK    2  A    between atoms: C1'_4  and  C1_5 
ROOT
ATOM      1  C1  I4B d   1      -2.577   1.090  -0.442  0.00  0.00    -0.075 A 
ATOM      2  C2  I4B d   1      -3.416   0.342   0.346  0.00  0.00     0.003 A 
ATOM      3  C3  I4B d   1      -3.515   0.607   1.733  0.00  0.00     0.002 A 
ATOM      4  C4  I4B d   1      -2.724   1.588   2.296  0.00  0.00    -0.004 A 
ATOM      5  C5  I4B d   1      -1.891   2.360   1.492  0.00  0.00     0.002 A 
ATOM      6  C6  I4B d   1      -1.825   2.118   0.112  0.00  0.00     0.003 A 
ENDROOT
BRANCH   1   7
ATOM      7  C1' I4B d   1      -2.473   0.761  -1.898  0.00  0.00     0.060 C 
BRANCH   7   8
ATOM      8  C2' I4B d   1      -1.506  -0.397  -2.047  0.00  0.00    -0.013 C 
ATOM      9  C4' I4B d   1      -1.340  -0.785  -3.493  0.00  0.00     0.013 C 
ATOM     10  C3' I4B d   1      -0.197   0.012  -1.441  0.00  0.00     0.013 C 
ENDBRANCH   7   8
ENDBRANCH   1   7
TORSDOF 2
ENDMDL
