MODEL 1
REMARK minimizedAffinity -5.72783422
REMARK minimizedRMSD -1
REMARK  1 active torsions:
REMARK  status: ('A' for Active; 'I' for Inactive)
REMARK    1  A    between atoms: C1_2  and  C2_3 
ROOT
ATOM      1  C2  UNL d   1       0.041  -0.319   0.899  0.00  0.00    -0.076 A 
ATOM      2  C3  UNL d   1       1.054  -0.385  -0.074  0.00  0.00     0.004 A 
ATOM      3  C4  UNL d   1       1.897  -1.492  -0.157  0.00  0.00    -0.003 A 
ATOM      4  C5  UNL d   1       1.742  -2.550   0.731  0.00  0.00     0.000 A 
ATOM      5  C6  UNL d   1       0.731  -2.510   1.690  0.00  0.00     0.000 A 
ATOM      6  C7  UNL d   1      -0.139  -1.409   1.777  0.00  0.00    -0.073 A 
ATOM      7  C8  UNL d   1      -1.208  -1.415   2.836  0.00  0.00     0.078 C 
ENDROOT
BRANCH   1   8
ATOM      8  C1  UNL d   1      -0.826   0.918   0.959  0.00  0.00     0.053 C 
ATOM      9  C   UNL d   1      -0.959   1.603  -0.393  0.00  0.00     0.018 C 
ENDBRANCH   1   8
TORSDOF 1
ENDMDL
