MODEL 1
REMARK minimizedAffinity -4.68468142
REMARK minimizedRMSD -1
REMARK  1 active torsions:
REMARK  status: ('A' for Active; 'I' for Inactive)
REMARK    1  A    between atoms: C1_2  and  C2_3 
ROOT
ATOM      1  C2  UNL d   1       0.204   0.147   0.339  0.00  0.00    -0.076 A 
ATOM      2  C3  UNL d   1      -0.390  -0.625   1.352  0.00  0.00     0.004 A 
ATOM      3  C4  UNL d   1       0.191  -1.818   1.779  0.00  0.00    -0.003 A 
ATOM      4  C5  UNL d   1       1.376  -2.258   1.200  0.00  0.00     0.000 A 
ATOM      5  C6  UNL d   1       1.988  -1.497   0.205  0.00  0.00     0.000 A 
ATOM      6  C7  UNL d   1       1.424  -0.283  -0.225  0.00  0.00    -0.073 A 
ATOM      7  C8  UNL d   1       2.124   0.495  -1.306  0.00  0.00     0.078 C 
ENDROOT
BRANCH   1   8
ATOM      8  C1  UNL d   1      -0.486   1.418  -0.102  0.00  0.00     0.053 C 
ATOM      9  C   UNL d   1      -1.452   1.187  -1.253  0.00  0.00     0.018 C 
ENDBRANCH   1   8
TORSDOF 1
ENDMDL
