MODEL 1
REMARK minimizedAffinity -4.75044823
REMARK minimizedRMSD -1
REMARK  1 active torsions:
REMARK  status: ('A' for Active; 'I' for Inactive)
REMARK    1  A    between atoms: C1_2  and  C2_3 
ROOT
ATOM      1  C2  UNL d   1       0.330  -0.961   0.809  0.00  0.00    -0.076 A 
ATOM      2  C3  UNL d   1       1.213  -2.044   0.961  0.00  0.00     0.004 A 
ATOM      3  C4  UNL d   1       1.091  -2.924   2.035  0.00  0.00    -0.003 A 
ATOM      4  C5  UNL d   1       0.082  -2.736   2.973  0.00  0.00     0.000 A 
ATOM      5  C6  UNL d   1      -0.814  -1.678   2.828  0.00  0.00     0.000 A 
ATOM      6  C7  UNL d   1      -0.714  -0.790   1.743  0.00  0.00    -0.073 A 
ATOM      7  C8  UNL d   1      -1.704   0.338   1.639  0.00  0.00     0.078 C 
ENDROOT
BRANCH   1   8
ATOM      8  C1  UNL d   1       0.529  -0.023  -0.360  0.00  0.00     0.053 C 
ATOM      9  C   UNL d   1       1.417   1.162  -0.013  0.00  0.00     0.018 C 
ENDBRANCH   1   8
TORSDOF 1
ENDMDL
