MODEL 1
REMARK minimizedAffinity -4.39020252
REMARK minimizedRMSD -1
REMARK  1 active torsions:
REMARK  status: ('A' for Active; 'I' for Inactive)
REMARK    1  A    between atoms: C1_2  and  C2_3 
ROOT
ATOM      1  C2  UNL d   1      -1.071   2.656  -2.842  0.00  0.00    -0.076 A 
ATOM      2  C3  UNL d   1      -0.269   3.785  -2.600  0.00  0.00     0.004 A 
ATOM      3  C4  UNL d   1       0.312   4.491  -3.651  0.00  0.00    -0.003 A 
ATOM      4  C5  UNL d   1       0.100   4.081  -4.963  0.00  0.00     0.000 A 
ATOM      5  C6  UNL d   1      -0.707   2.974  -5.223  0.00  0.00     0.000 A 
ATOM      6  C7  UNL d   1      -1.314   2.260  -4.175  0.00  0.00    -0.073 A 
ATOM      7  C8  UNL d   1      -2.169   1.070  -4.512  0.00  0.00     0.078 C 
ENDROOT
BRANCH   1   8
ATOM      8  C1  UNL d   1      -1.653   1.914  -1.660  0.00  0.00     0.053 C 
ATOM      9  C   UNL d   1      -0.612   1.086  -0.922  0.00  0.00     0.018 C 
ENDBRANCH   1   8
TORSDOF 1
ENDMDL
