MODEL 1
REMARK minimizedAffinity -4.55619907
REMARK minimizedRMSD -1
REMARK  1 active torsions:
REMARK  status: ('A' for Active; 'I' for Inactive)
REMARK    1  A    between atoms: C1_2  and  C2_3 
ROOT
ATOM      1  C2  UNL d   1      -0.921   2.582  -2.502  0.00  0.00    -0.076 A 
ATOM      2  C3  UNL d   1      -0.154   3.752  -2.356  0.00  0.00     0.004 A 
ATOM      3  C4  UNL d   1       0.214   4.511  -3.465  0.00  0.00    -0.003 A 
ATOM      4  C5  UNL d   1      -0.179   4.115  -4.738  0.00  0.00     0.000 A 
ATOM      5  C6  UNL d   1      -0.955   2.967  -4.900  0.00  0.00     0.000 A 
ATOM      6  C7  UNL d   1      -1.348   2.199  -3.791  0.00  0.00    -0.073 A 
ATOM      7  C8  UNL d   1      -2.180   0.967  -4.024  0.00  0.00     0.078 C 
ENDROOT
BRANCH   1   8
ATOM      8  C1  UNL d   1      -1.267   1.784  -1.265  0.00  0.00     0.053 C 
ATOM      9  C   UNL d   1      -0.105   0.933  -0.777  0.00  0.00     0.018 C 
ENDBRANCH   1   8
TORSDOF 1
ENDMDL
