MODEL 1
REMARK minimizedAffinity -5.81955051
REMARK minimizedRMSD -1
REMARK  1 active torsions:
REMARK  status: ('A' for Active; 'I' for Inactive)
REMARK    1  A    between atoms: C1_2  and  C2_3 
ROOT
ATOM      1  C2  UNL d   1      -0.953   2.803  -2.860  0.00  0.00    -0.076 A 
ATOM      2  C3  UNL d   1      -0.191   3.911  -2.451  0.00  0.00     0.004 A 
ATOM      3  C4  UNL d   1       0.419   4.747  -3.386  0.00  0.00    -0.003 A 
ATOM      4  C5  UNL d   1       0.275   4.488  -4.745  0.00  0.00     0.000 A 
ATOM      5  C6  UNL d   1      -0.493   3.404  -5.168  0.00  0.00     0.000 A 
ATOM      6  C7  UNL d   1      -1.127   2.561  -4.240  0.00  0.00    -0.073 A 
ATOM      7  C8  UNL d   1      -1.938   1.402  -4.752  0.00  0.00     0.078 C 
ENDROOT
BRANCH   1   8
ATOM      8  C1  UNL d   1      -1.568   1.916  -1.801  0.00  0.00     0.053 C 
ATOM      9  C   UNL d   1      -2.896   2.454  -1.290  0.00  0.00     0.018 C 
ENDBRANCH   1   8
TORSDOF 1
ENDMDL
