MODEL 1
REMARK minimizedAffinity -4.85712719
REMARK minimizedRMSD -1
REMARK  1 active torsions:
REMARK  status: ('A' for Active; 'I' for Inactive)
REMARK    1  A    between atoms: C1_2  and  C2_3 
ROOT
ATOM      1  C2  UNL d   1      -1.060   2.217  -1.974  0.00  0.00    -0.076 A 
ATOM      2  C3  UNL d   1      -0.014   2.997  -2.497  0.00  0.00     0.004 A 
ATOM      3  C4  UNL d   1      -0.057   3.469  -3.807  0.00  0.00    -0.003 A 
ATOM      4  C5  UNL d   1      -1.147   3.169  -4.617  0.00  0.00     0.000 A 
ATOM      5  C6  UNL d   1      -2.202   2.411  -4.110  0.00  0.00     0.000 A 
ATOM      6  C7  UNL d   1      -2.182   1.941  -2.785  0.00  0.00    -0.073 A 
ATOM      7  C8  UNL d   1      -3.344   1.123  -2.292  0.00  0.00     0.078 C 
ENDROOT
BRANCH   1   8
ATOM      8  C1  UNL d   1      -0.946   1.710  -0.554  0.00  0.00     0.053 C 
ATOM      9  C   UNL d   1       0.230   0.765  -0.365  0.00  0.00     0.018 C 
ENDBRANCH   1   8
TORSDOF 1
ENDMDL
