MODEL 1
REMARK minimizedAffinity -4.86148977
REMARK minimizedRMSD -1
REMARK  1 active torsions:
REMARK  status: ('A' for Active; 'I' for Inactive)
REMARK    1  A    between atoms: C1_2  and  C2_3 
ROOT
ATOM      1  C2  UNL d   1      -0.611   2.493  -2.818  0.00  0.00    -0.076 A 
ATOM      2  C3  UNL d   1      -1.527   2.321  -3.870  0.00  0.00     0.004 A 
ATOM      3  C4  UNL d   1      -2.595   1.433  -3.753  0.00  0.00    -0.003 A 
ATOM      4  C5  UNL d   1      -2.765   0.703  -2.582  0.00  0.00     0.000 A 
ATOM      5  C6  UNL d   1      -1.876   0.875  -1.521  0.00  0.00     0.000 A 
ATOM      6  C7  UNL d   1      -0.803   1.778  -1.617  0.00  0.00    -0.073 A 
ATOM      7  C8  UNL d   1       0.129   1.918  -0.444  0.00  0.00     0.078 C 
ENDROOT
BRANCH   1   8
ATOM      8  C1  UNL d   1       0.544   3.450  -3.012  0.00  0.00     0.053 C 
ATOM      9  C   UNL d   1       0.584   4.037  -4.415  0.00  0.00     0.018 C 
ENDBRANCH   1   8
TORSDOF 1
ENDMDL
