MODEL 1
REMARK minimizedAffinity -5.13952017
REMARK minimizedRMSD -1
REMARK  1 active torsions:
REMARK  status: ('A' for Active; 'I' for Inactive)
REMARK    1  A    between atoms: C1_2  and  C2_3 
ROOT
ATOM      1  C2  UNL d   1      -0.705   2.117  -2.244  0.00  0.00    -0.076 A 
ATOM      2  C3  UNL d   1       0.412   2.856  -2.671  0.00  0.00     0.004 A 
ATOM      3  C4  UNL d   1       0.440   3.451  -3.931  0.00  0.00    -0.003 A 
ATOM      4  C5  UNL d   1      -0.649   3.317  -4.785  0.00  0.00     0.000 A 
ATOM      5  C6  UNL d   1      -1.773   2.602  -4.371  0.00  0.00     0.000 A 
ATOM      6  C7  UNL d   1      -1.823   2.010  -3.098  0.00  0.00    -0.073 A 
ATOM      7  C8  UNL d   1      -3.058   1.245  -2.706  0.00  0.00     0.078 C 
ENDROOT
BRANCH   1   8
ATOM      8  C1  UNL d   1      -0.667   1.471  -0.877  0.00  0.00     0.053 C 
ATOM      9  C   UNL d   1       0.581   0.628  -0.666  0.00  0.00     0.018 C 
ENDBRANCH   1   8
TORSDOF 1
ENDMDL
