MODEL 1
REMARK minimizedAffinity -5.94926596
REMARK minimizedRMSD -1
REMARK  1 active torsions:
REMARK  status: ('A' for Active; 'I' for Inactive)
REMARK    1  A    between atoms: C1_2  and  C2_3 
ROOT
ATOM      1  C2  UNL d   1      -1.057   2.566  -2.528  0.00  0.00    -0.076 A 
ATOM      2  C3  UNL d   1      -0.186   3.627  -2.225  0.00  0.00     0.004 A 
ATOM      3  C4  UNL d   1       0.217   4.528  -3.209  0.00  0.00    -0.003 A 
ATOM      4  C5  UNL d   1      -0.246   4.383  -4.512  0.00  0.00     0.000 A 
ATOM      5  C6  UNL d   1      -1.124   3.347  -4.827  0.00  0.00     0.000 A 
ATOM      6  C7  UNL d   1      -1.553   2.440  -3.843  0.00  0.00    -0.073 A 
ATOM      7  C8  UNL d   1      -2.496   1.337  -4.239  0.00  0.00     0.078 C 
ENDROOT
BRANCH   1   8
ATOM      8  C1  UNL d   1      -1.438   1.605  -1.425  0.00  0.00     0.053 C 
ATOM      9  C   UNL d   1      -0.344   1.455  -0.379  0.00  0.00     0.018 C 
ENDBRANCH   1   8
TORSDOF 1
ENDMDL
