MODEL 1
REMARK minimizedAffinity -3.25342536
REMARK minimizedRMSD -1
REMARK  1 active torsions:
REMARK  status: ('A' for Active; 'I' for Inactive)
REMARK    1  A    between atoms: C1_2  and  C2_3 
ROOT
ATOM      1  C2  UNL d   1       0.166   0.218   0.948  0.00  0.00    -0.076 A 
ATOM      2  C3  UNL d   1       1.212   0.094   0.017  0.00  0.00     0.004 A 
ATOM      3  C4  UNL d   1       2.160  -0.922   0.134  0.00  0.00    -0.003 A 
ATOM      4  C5  UNL d   1       2.076  -1.830   1.184  0.00  0.00     0.000 A 
ATOM      5  C6  UNL d   1       1.035  -1.732   2.106  0.00  0.00     0.000 A 
ATOM      6  C7  UNL d   1       0.062  -0.724   1.993  0.00  0.00    -0.073 A 
ATOM      7  C8  UNL d   1      -1.036  -0.662   3.019  0.00  0.00     0.078 C 
ENDROOT
BRANCH   1   8
ATOM      8  C1  UNL d   1      -0.816   1.356   0.785  0.00  0.00     0.053 C 
ATOM      9  C   UNL d   1      -0.906   1.848  -0.651  0.00  0.00     0.018 C 
ENDBRANCH   1   8
TORSDOF 1
ENDMDL
