MODEL 1
REMARK minimizedAffinity -1.75451064
REMARK minimizedRMSD -1
REMARK  1 active torsions:
REMARK  status: ('A' for Active; 'I' for Inactive)
REMARK    1  A    between atoms: C1_2  and  C2_3 
ROOT
ATOM      1  C2  UNL d   1       0.060   0.397   0.049  0.00  0.00    -0.076 A 
ATOM      2  C3  UNL d   1       1.290   0.246  -0.614  0.00  0.00     0.004 A 
ATOM      3  C4  UNL d   1       2.295  -0.563  -0.085  0.00  0.00    -0.003 A 
ATOM      4  C5  UNL d   1       2.085  -1.235   1.114  0.00  0.00     0.000 A 
ATOM      5  C6  UNL d   1       0.864  -1.110   1.776  0.00  0.00     0.000 A 
ATOM      6  C7  UNL d   1      -0.165  -0.311   1.248  0.00  0.00    -0.073 A 
ATOM      7  C8  UNL d   1      -1.460  -0.208   2.007  0.00  0.00     0.078 C 
ENDROOT
BRANCH   1   8
ATOM      8  C1  UNL d   1      -0.982   1.309  -0.558  0.00  0.00     0.053 C 
ATOM      9  C   UNL d   1      -0.430   2.144  -1.703  0.00  0.00     0.018 C 
ENDBRANCH   1   8
TORSDOF 1
ENDMDL
