MODEL 1
REMARK minimizedAffinity -3.40575242
REMARK minimizedRMSD -1
REMARK  1 active torsions:
REMARK  status: ('A' for Active; 'I' for Inactive)
REMARK    1  A    between atoms: N_2  and  C1_3 
ROOT
ATOM      1  C1  UNL d   1      -0.720   0.595   0.076  0.00  0.00     0.143 A 
ATOM      2  C2  UNL d   1      -0.108  -0.642   0.307  0.00  0.00    -0.057 A 
ATOM      3  C3  UNL d   1       1.198  -0.898  -0.129  0.00  0.00     0.033 A 
ATOM      4  C4  UNL d   1       1.906   0.071  -0.832  0.00  0.00    -0.042 A 
ATOM      5  C5  UNL d   1       1.308   1.298  -1.095  0.00  0.00     0.033 A 
ATOM      6  C6  UNL d   1       0.007   1.551  -0.651  0.00  0.00    -0.057 A 
ENDROOT
BRANCH   1   7
ATOM      7  N   UNL d   1      -2.050   0.876   0.397  0.00  0.00    -0.732 N 
ATOM      8  C   UNL d   1      -2.656   0.314   1.585  0.00  0.00     0.284 C 
ATOM      9  H3  UNL d   1      -2.293   1.849   0.227  0.00  0.00     0.395 HD
ENDBRANCH   1   7
TORSDOF 1
ENDMDL
