MODEL 1
REMARK minimizedAffinity -2.66635156
REMARK minimizedRMSD -1
REMARK  1 active torsions:
REMARK  status: ('A' for Active; 'I' for Inactive)
REMARK    1  A    between atoms: N_2  and  C1_3 
ROOT
ATOM      1  C1  UNL d   1       0.965  -1.286  -1.168  0.00  0.00     0.143 A 
ATOM      2  C2  UNL d   1       1.306  -0.064  -0.579  0.00  0.00    -0.057 A 
ATOM      3  C3  UNL d   1       0.452   0.564   0.336  0.00  0.00     0.033 A 
ATOM      4  C4  UNL d   1      -0.775  -0.007   0.657  0.00  0.00    -0.042 A 
ATOM      5  C5  UNL d   1      -1.146  -1.208   0.064  0.00  0.00     0.033 A 
ATOM      6  C6  UNL d   1      -0.286  -1.834  -0.844  0.00  0.00    -0.057 A 
ENDROOT
BRANCH   1   7
ATOM      7  N   UNL d   1       1.726  -1.911  -2.159  0.00  0.00    -0.732 N 
ATOM      8  C   UNL d   1       1.092  -2.464  -3.336  0.00  0.00     0.284 C 
ATOM      9  H3  UNL d   1       2.597  -1.420  -2.347  0.00  0.00     0.395 HD
ENDBRANCH   1   7
TORSDOF 1
ENDMDL
