MODEL 1
REMARK minimizedAffinity -3.71835494
REMARK minimizedRMSD -1
REMARK  1 active torsions:
REMARK  status: ('A' for Active; 'I' for Inactive)
REMARK    1  A    between atoms: N_2  and  C1_3 
ROOT
ATOM      1  C1  UNL d   1       0.013   0.147  -0.168  0.00  0.00     0.143 A 
ATOM      2  C2  UNL d   1       1.394   0.066   0.045  0.00  0.00    -0.057 A 
ATOM      3  C3  UNL d   1       2.261   1.057  -0.430  0.00  0.00     0.033 A 
ATOM      4  C4  UNL d   1       1.765   2.135  -1.155  0.00  0.00    -0.042 A 
ATOM      5  C5  UNL d   1       0.399   2.223  -1.401  0.00  0.00     0.033 A 
ATOM      6  C6  UNL d   1      -0.463   1.234  -0.918  0.00  0.00    -0.057 A 
ENDROOT
BRANCH   1   7
ATOM      7  N   UNL d   1      -0.890  -0.855   0.193  0.00  0.00    -0.732 N 
ATOM      8  C   UNL d   1      -0.684  -2.222  -0.234  0.00  0.00     0.284 C 
ATOM      9  H3  UNL d   1      -1.206  -0.764   1.156  0.00  0.00     0.395 HD
ENDBRANCH   1   7
TORSDOF 1
ENDMDL
