MODEL 1
REMARK minimizedAffinity -2.22333956
REMARK minimizedRMSD -1
REMARK  1 active torsions:
REMARK  status: ('A' for Active; 'I' for Inactive)
REMARK    1  A    between atoms: N_2  and  C1_3 
ROOT
ATOM      1  C1  UNL d   1      -0.270  -0.091   0.272  0.00  0.00     0.143 A 
ATOM      2  C2  UNL d   1       0.500   0.192  -0.861  0.00  0.00    -0.057 A 
ATOM      3  C3  UNL d   1       1.714  -0.464  -1.096  0.00  0.00     0.033 A 
ATOM      4  C4  UNL d   1       2.196  -1.397  -0.184  0.00  0.00    -0.042 A 
ATOM      5  C5  UNL d   1       1.460  -1.675   0.962  0.00  0.00     0.033 A 
ATOM      6  C6  UNL d   1       0.245  -1.022   1.188  0.00  0.00    -0.057 A 
ENDROOT
BRANCH   1   7
ATOM      7  N   UNL d   1      -1.436   0.598   0.612  0.00  0.00    -0.732 N 
ATOM      8  C   UNL d   1      -1.656   1.052   1.968  0.00  0.00     0.284 C 
ATOM      9  H3  UNL d   1      -1.712   1.270  -0.101  0.00  0.00     0.395 HD
ENDBRANCH   1   7
TORSDOF 1
ENDMDL
