MODEL 1
REMARK minimizedAffinity -4.40435171
REMARK minimizedRMSD -1
REMARK  1 active torsions:
REMARK  status: ('A' for Active; 'I' for Inactive)
REMARK    1  A    between atoms: N_2  and  C1_3 
ROOT
ATOM      1  C1  UNL d   1       0.432  -0.590   0.186  0.00  0.00     0.143 A 
ATOM      2  C2  UNL d   1       1.018  -1.618  -0.560  0.00  0.00    -0.057 A 
ATOM      3  C3  UNL d   1       2.158  -1.390  -1.340  0.00  0.00     0.033 A 
ATOM      4  C4  UNL d   1       2.717  -0.118  -1.411  0.00  0.00    -0.042 A 
ATOM      5  C5  UNL d   1       2.136   0.924  -0.698  0.00  0.00     0.033 A 
ATOM      6  C6  UNL d   1       1.002   0.689   0.085  0.00  0.00    -0.057 A 
ENDROOT
BRANCH   1   7
ATOM      7  N   UNL d   1      -0.759  -0.730   0.903  0.00  0.00    -0.732 N 
ATOM      8  C   UNL d   1      -1.607   0.415   1.155  0.00  0.00     0.284 C 
ATOM      9  H3  UNL d   1      -1.266  -1.576   0.652  0.00  0.00     0.395 HD
ENDBRANCH   1   7
TORSDOF 1
ENDMDL
