MODEL 1
REMARK minimizedAffinity -3.70042682
REMARK minimizedRMSD -1
REMARK  1 active torsions:
REMARK  status: ('A' for Active; 'I' for Inactive)
REMARK    1  A    between atoms: N_2  and  C1_3 
ROOT
ATOM      1  C1  UNL d   1       0.497   0.175  -0.989  0.00  0.00     0.143 A 
ATOM      2  C2  UNL d   1       0.359   1.434  -1.584  0.00  0.00    -0.057 A 
ATOM      3  C3  UNL d   1       1.188   1.833  -2.640  0.00  0.00     0.033 A 
ATOM      4  C4  UNL d   1       2.192   0.987  -3.101  0.00  0.00    -0.042 A 
ATOM      5  C5  UNL d   1       2.363  -0.258  -2.508  0.00  0.00     0.033 A 
ATOM      6  C6  UNL d   1       1.528  -0.653  -1.458  0.00  0.00    -0.057 A 
ENDROOT
BRANCH   1   7
ATOM      7  N   UNL d   1      -0.231  -0.240   0.129  0.00  0.00    -0.732 N 
ATOM      8  C   UNL d   1      -1.388   0.507   0.575  0.00  0.00     0.284 C 
ATOM      9  H3  UNL d   1      -0.351  -1.250   0.161  0.00  0.00     0.395 HD
ENDBRANCH   1   7
TORSDOF 1
ENDMDL
