MODEL 1
REMARK minimizedAffinity -5.5516901
REMARK minimizedRMSD -1
REMARK  1 active torsions:
REMARK  status: ('A' for Active; 'I' for Inactive)
REMARK    1  A    between atoms: N_2  and  C1_3 
ROOT
ATOM      1  C1  UNL d   1       0.922   0.248  -0.696  0.00  0.00     0.143 A 
ATOM      2  C2  UNL d   1       2.010   1.032  -1.093  0.00  0.00    -0.057 A 
ATOM      3  C3  UNL d   1       3.081   0.480  -1.806  0.00  0.00     0.033 A 
ATOM      4  C4  UNL d   1       3.097  -0.877  -2.110  0.00  0.00    -0.042 A 
ATOM      5  C5  UNL d   1       2.038  -1.681  -1.703  0.00  0.00     0.033 A 
ATOM      6  C6  UNL d   1       0.968  -1.122  -0.997  0.00  0.00    -0.057 A 
ENDROOT
BRANCH   1   7
ATOM      7  N   UNL d   1      -0.126   0.717   0.100  0.00  0.00    -0.732 N 
ATOM      8  C   UNL d   1      -1.441   0.119   0.016  0.00  0.00     0.284 C 
ATOM      9  H3  UNL d   1       0.174   0.932   1.049  0.00  0.00     0.395 HD
ENDBRANCH   1   7
TORSDOF 1
ENDMDL
