MODEL 1
REMARK minimizedAffinity -3.08277011
REMARK minimizedRMSD -1
REMARK  1 active torsions:
REMARK  status: ('A' for Active; 'I' for Inactive)
REMARK    1  A    between atoms: N_2  and  C1_3 
ROOT
ATOM      1  C1  UNL d   1       1.462  -1.690  -1.278  0.00  0.00     0.143 A 
ATOM      2  C2  UNL d   1       2.230  -0.567  -1.603  0.00  0.00    -0.057 A 
ATOM      3  C3  UNL d   1       2.006   0.670  -0.986  0.00  0.00     0.033 A 
ATOM      4  C4  UNL d   1       0.987   0.812  -0.050  0.00  0.00    -0.042 A 
ATOM      5  C5  UNL d   1       0.195  -0.285   0.271  0.00  0.00     0.033 A 
ATOM      6  C6  UNL d   1       0.428  -1.519  -0.345  0.00  0.00    -0.057 A 
ENDROOT
BRANCH   1   7
ATOM      7  N   UNL d   1       1.572  -2.922  -1.928  0.00  0.00    -0.732 N 
ATOM      8  C   UNL d   1       1.272  -3.040  -3.339  0.00  0.00     0.284 C 
ATOM      9  H3  UNL d   1       2.392  -3.446  -1.632  0.00  0.00     0.395 HD
ENDBRANCH   1   7
TORSDOF 1
ENDMDL
