MODEL 1
REMARK minimizedAffinity -4.8838439
REMARK minimizedRMSD -1
REMARK  1 active torsions:
REMARK  status: ('A' for Active; 'I' for Inactive)
REMARK    1  A    between atoms: N_2  and  C1_3 
ROOT
ATOM      1  C1  UNL d   1       0.529   0.002  -0.556  0.00  0.00     0.143 A 
ATOM      2  C2  UNL d   1       1.234  -1.124  -0.117  0.00  0.00    -0.057 A 
ATOM      3  C3  UNL d   1       2.465  -1.476  -0.683  0.00  0.00     0.033 A 
ATOM      4  C4  UNL d   1       3.001  -0.723  -1.722  0.00  0.00    -0.042 A 
ATOM      5  C5  UNL d   1       2.306   0.386  -2.192  0.00  0.00     0.033 A 
ATOM      6  C6  UNL d   1       1.080   0.737  -1.618  0.00  0.00    -0.057 A 
ENDROOT
BRANCH   1   7
ATOM      7  N   UNL d   1      -0.746   0.349  -0.102  0.00  0.00    -0.732 N 
ATOM      8  C   UNL d   1      -1.067   0.288   1.308  0.00  0.00     0.284 C 
ATOM      9  H3  UNL d   1      -1.119   1.166  -0.579  0.00  0.00     0.395 HD
ENDBRANCH   1   7
TORSDOF 1
ENDMDL
