MODEL 1
REMARK minimizedAffinity -2.28415513
REMARK minimizedRMSD -1
REMARK  1 active torsions:
REMARK  status: ('A' for Active; 'I' for Inactive)
REMARK    1  A    between atoms: N_2  and  C1_3 
ROOT
ATOM      1  C1  UNL d   1      -1.071   0.509   0.979  0.00  0.00     0.143 A 
ATOM      2  C2  UNL d   1      -2.121  -0.240   1.520  0.00  0.00    -0.057 A 
ATOM      3  C3  UNL d   1      -2.770   0.162   2.694  0.00  0.00     0.033 A 
ATOM      4  C4  UNL d   1      -2.359   1.308   3.366  0.00  0.00    -0.042 A 
ATOM      5  C5  UNL d   1      -1.300   2.055   2.860  0.00  0.00     0.033 A 
ATOM      6  C6  UNL d   1      -0.661   1.652   1.684  0.00  0.00    -0.057 A 
ENDROOT
BRANCH   1   7
ATOM      7  N   UNL d   1      -0.322   0.110  -0.130  0.00  0.00    -0.732 N 
ATOM      8  C   UNL d   1       1.077   0.464  -0.242  0.00  0.00     0.284 C 
ATOM      9  H3  UNL d   1      -0.534  -0.843  -0.420  0.00  0.00     0.395 HD
ENDBRANCH   1   7
TORSDOF 1
ENDMDL
