MODEL 1
REMARK minimizedAffinity -4.43663883
REMARK minimizedRMSD -1
REMARK  1 active torsions:
REMARK  status: ('A' for Active; 'I' for Inactive)
REMARK    1  A    between atoms: N_2  and  C1_3 
ROOT
ATOM      1  C1  UNL d   1       0.545  -1.079  -0.544  0.00  0.00     0.143 A 
ATOM      2  C2  UNL d   1      -0.121   0.151  -0.575  0.00  0.00    -0.057 A 
ATOM      3  C3  UNL d   1       0.542   1.328  -0.944  0.00  0.00     0.033 A 
ATOM      4  C4  UNL d   1       1.896   1.300  -1.261  0.00  0.00    -0.042 A 
ATOM      5  C5  UNL d   1       2.585   0.093  -1.213  0.00  0.00     0.033 A 
ATOM      6  C6  UNL d   1       1.915  -1.080  -0.851  0.00  0.00    -0.057 A 
ENDROOT
BRANCH   1   7
ATOM      7  N   UNL d   1      -0.034  -2.266  -0.091  0.00  0.00    -0.732 N 
ATOM      8  C   UNL d   1      -1.414  -2.577  -0.397  0.00  0.00     0.284 C 
ATOM      9  H3  UNL d   1       0.597  -3.060  -0.168  0.00  0.00     0.395 HD
ENDBRANCH   1   7
TORSDOF 1
ENDMDL
