MODEL 1
REMARK minimizedAffinity -3.35940623
REMARK minimizedRMSD -1
REMARK  1 active torsions:
REMARK  status: ('A' for Active; 'I' for Inactive)
REMARK    1  A    between atoms: N_2  and  C1_3 
ROOT
ATOM      1  C1  UNL d   1       1.338   0.171  -0.486  0.00  0.00     0.143 A 
ATOM      2  C2  UNL d   1       0.991   1.328  -1.193  0.00  0.00    -0.057 A 
ATOM      3  C3  UNL d   1      -0.232   1.973  -0.976  0.00  0.00     0.033 A 
ATOM      4  C4  UNL d   1      -1.147   1.454  -0.066  0.00  0.00    -0.042 A 
ATOM      5  C5  UNL d   1      -0.835   0.291   0.630  0.00  0.00     0.033 A 
ATOM      6  C6  UNL d   1       0.392  -0.344   0.414  0.00  0.00    -0.057 A 
ENDROOT
BRANCH   1   7
ATOM      7  N   UNL d   1       2.496  -0.571  -0.728  0.00  0.00    -0.732 N 
ATOM      8  C   UNL d   1       2.558  -1.502  -1.833  0.00  0.00     0.284 C 
ATOM      9  H3  UNL d   1       3.343  -0.021  -0.600  0.00  0.00     0.395 HD
ENDBRANCH   1   7
TORSDOF 1
ENDMDL
