MODEL 1
REMARK minimizedAffinity 0.515508533
REMARK minimizedRMSD -1
REMARK  0 active torsions:
REMARK  status: ('A' for Active; 'I' for Inactive)
ROOT
ATOM      1  C   UNL d   1      -1.902   5.227   3.882  0.00  0.00    -0.002 A 
ATOM      2  C1  UNL d   1      -1.948   5.331   5.265  0.00  0.00     0.010 A 
ATOM      3  C2  UNL d   1      -0.783   5.568   5.998  0.00  0.00     0.041 A 
ATOM      4  C3  UNL d   1       0.439   5.702   5.311  0.00  0.00    -0.075 A 
ATOM      5  S   UNL d   1       1.992   5.997   6.000  0.00  0.00     0.015 SA
ATOM      6  C4  UNL d   1       2.752   5.993   4.474  0.00  0.00     0.022 A 
ATOM      7  C5  UNL d   1       1.858   5.774   3.453  0.00  0.00     0.026 A 
ATOM      8  C6  UNL d   1       0.510   5.603   3.918  0.00  0.00    -0.082 A 
ATOM      9  C7  UNL d   1      -0.688   5.362   3.204  0.00  0.00     0.045 A 
ENDROOT
TORSDOF 0
ENDMDL
