MODEL 1
REMARK minimizedAffinity -0.346143901
REMARK minimizedRMSD -1
REMARK  0 active torsions:
REMARK  status: ('A' for Active; 'I' for Inactive)
ROOT
ATOM      1  C   UNL d   1      -0.836   5.663   5.101  0.00  0.00    -0.002 A 
ATOM      2  C1  UNL d   1      -0.670   5.192   3.806  0.00  0.00     0.010 A 
ATOM      3  C2  UNL d   1       0.608   5.005   3.277  0.00  0.00     0.041 A 
ATOM      4  C3  UNL d   1       1.728   5.299   4.080  0.00  0.00    -0.075 A 
ATOM      5  S   UNL d   1       3.389   5.145   3.643  0.00  0.00     0.015 SA
ATOM      6  C4  UNL d   1       3.917   5.700   5.166  0.00  0.00     0.022 A 
ATOM      7  C5  UNL d   1       2.865   6.000   5.999  0.00  0.00     0.026 A 
ATOM      8  C6  UNL d   1       1.586   5.773   5.387  0.00  0.00    -0.082 A 
ATOM      9  C7  UNL d   1       0.277   5.954   5.894  0.00  0.00     0.045 A 
ENDROOT
TORSDOF 0
ENDMDL
