MODEL 1
REMARK minimizedAffinity 12.5952978
REMARK minimizedRMSD -1
REMARK  0 active torsions:
REMARK  status: ('A' for Active; 'I' for Inactive)
ROOT
ATOM      1  C   UNL d   1       0.527   5.991   5.283  0.00  0.00    -0.002 A 
ATOM      2  C1  UNL d   1       0.678   5.396   4.039  0.00  0.00     0.010 A 
ATOM      3  C2  UNL d   1      -0.354   4.637   3.485  0.00  0.00     0.041 A 
ATOM      4  C3  UNL d   1      -1.553   4.486   4.208  0.00  0.00    -0.075 A 
ATOM      5  S   UNL d   1      -2.953   3.602   3.727  0.00  0.00     0.015 SA
ATOM      6  C4  UNL d   1      -3.785   3.994   5.162  0.00  0.00     0.022 A 
ATOM      7  C5  UNL d   1      -3.028   4.779   5.999  0.00  0.00     0.026 A 
ATOM      8  C6  UNL d   1      -1.730   5.076   5.463  0.00  0.00    -0.082 A 
ATOM      9  C7  UNL d   1      -0.664   5.839   5.998  0.00  0.00     0.045 A 
ENDROOT
TORSDOF 0
ENDMDL
