MODEL 1
REMARK minimizedAffinity 2.91871309
REMARK minimizedRMSD -1
REMARK  0 active torsions:
REMARK  status: ('A' for Active; 'I' for Inactive)
ROOT
ATOM      1  C   UNL d   1       3.477   5.973   3.856  0.00  0.00    -0.002 A 
ATOM      2  C1  UNL d   1       3.514   5.940   5.243  0.00  0.00     0.010 A 
ATOM      3  C2  UNL d   1       2.332   5.892   5.984  0.00  0.00     0.041 A 
ATOM      4  C3  UNL d   1       1.099   5.874   5.301  0.00  0.00    -0.075 A 
ATOM      5  S   UNL d   1      -0.476   5.815   6.000  0.00  0.00     0.015 SA
ATOM      6  C4  UNL d   1      -1.235   5.831   4.474  0.00  0.00     0.022 A 
ATOM      7  C5  UNL d   1      -0.324   5.880   3.445  0.00  0.00     0.026 A 
ATOM      8  C6  UNL d   1       1.036   5.905   3.905  0.00  0.00    -0.082 A 
ATOM      9  C7  UNL d   1       2.253   5.955   3.182  0.00  0.00     0.045 A 
ENDROOT
TORSDOF 0
ENDMDL
