MODEL 1
REMARK minimizedAffinity 2.94935179
REMARK minimizedRMSD -1
REMARK  0 active torsions:
REMARK  status: ('A' for Active; 'I' for Inactive)
ROOT
ATOM      1  C   UNL d   1       0.445  -5.502   3.062  0.00  0.00    -0.002 A 
ATOM      2  C1  UNL d   1       1.717  -5.993   3.321  0.00  0.00     0.010 A 
ATOM      3  C2  UNL d   1       2.846  -5.325   2.844  0.00  0.00     0.041 A 
ATOM      4  C3  UNL d   1       2.675  -4.143   2.097  0.00  0.00    -0.075 A 
ATOM      5  S   UNL d   1       3.912  -3.156   1.413  0.00  0.00     0.015 SA
ATOM      6  C4  UNL d   1       2.781  -2.059   0.762  0.00  0.00     0.022 A 
ATOM      7  C5  UNL d   1       1.487  -2.422   1.050  0.00  0.00     0.026 A 
ATOM      8  C6  UNL d   1       1.404  -3.628   1.824  0.00  0.00    -0.082 A 
ATOM      9  C7  UNL d   1       0.278  -4.329   2.321  0.00  0.00     0.045 A 
ENDROOT
TORSDOF 0
ENDMDL
