MODEL 1
REMARK minimizedAffinity -0.650085092
REMARK minimizedRMSD -1
REMARK  0 active torsions:
REMARK  status: ('A' for Active; 'I' for Inactive)
ROOT
ATOM      1  C   UNL d   1       0.719   5.006   4.126  0.00  0.00    -0.002 A 
ATOM      2  C1  UNL d   1       0.744   5.655   5.352  0.00  0.00     0.010 A 
ATOM      3  C2  UNL d   1      -0.445   5.997   5.999  0.00  0.00     0.041 A 
ATOM      4  C3  UNL d   1      -1.672   5.671   5.388  0.00  0.00    -0.075 A 
ATOM      5  S   UNL d   1      -3.254   5.991   5.995  0.00  0.00     0.015 SA
ATOM      6  C4  UNL d   1      -4.000   5.273   4.641  0.00  0.00     0.022 A 
ATOM      7  C5  UNL d   1      -3.080   4.796   3.738  0.00  0.00     0.026 A 
ATOM      8  C6  UNL d   1      -1.723   5.017   4.154  0.00  0.00    -0.082 A 
ATOM      9  C7  UNL d   1      -0.500   4.685   3.523  0.00  0.00     0.045 A 
ENDROOT
TORSDOF 0
ENDMDL
