MODEL 1
REMARK minimizedAffinity -2.6156702
REMARK minimizedRMSD -1
REMARK  0 active torsions:
REMARK  status: ('A' for Active; 'I' for Inactive)
ROOT
ATOM      1  C   UNL d   1       1.481   4.959   5.134  0.00  0.00    -0.002 A 
ATOM      2  C1  UNL d   1       2.100   5.943   5.892  0.00  0.00     0.010 A 
ATOM      3  C2  UNL d   1       3.492   6.000   5.982  0.00  0.00     0.041 A 
ATOM      4  C3  UNL d   1       4.260   5.042   5.290  0.00  0.00    -0.075 A 
ATOM      5  S   UNL d   1       5.979   4.917   5.253  0.00  0.00     0.015 SA
ATOM      6  C4  UNL d   1       5.932   3.555   4.230  0.00  0.00     0.022 A 
ATOM      7  C5  UNL d   1       4.645   3.191   3.914  0.00  0.00     0.026 A 
ATOM      8  C6  UNL d   1       3.660   4.042   4.519  0.00  0.00    -0.082 A 
ATOM      9  C7  UNL d   1       2.246   4.011   4.449  0.00  0.00     0.045 A 
ENDROOT
TORSDOF 0
ENDMDL
