MODEL 1
REMARK minimizedAffinity -5.84587002
REMARK minimizedRMSD -1
REMARK  2 active torsions:
REMARK  status: ('A' for Active; 'I' for Inactive)
REMARK    1  A    between atoms: C1_2  and  C2_3 
REMARK    2  A    between atoms: C2_3  and  C3_4 
ROOT
ATOM      1  C3  UNL d   1       0.112   0.106  -0.012  0.00  0.00    -0.075 A 
ATOM      2  C4  UNL d   1       1.173   0.420   0.849  0.00  0.00     0.002 A 
ATOM      3  C5  UNL d   1       2.230  -0.474   1.026  0.00  0.00     0.002 A 
ATOM      4  C6  UNL d   1       2.234  -1.694   0.354  0.00  0.00    -0.004 A 
ATOM      5  C7  UNL d   1       1.177  -2.023  -0.492  0.00  0.00     0.002 A 
ATOM      6  C8  UNL d   1       0.120  -1.129  -0.674  0.00  0.00     0.002 A 
ENDROOT
BRANCH   1   7
ATOM      7  C2  UNL d   1      -1.020   1.082  -0.231  0.00  0.00     0.056 C 
BRANCH   7   8
ATOM      8  C1  UNL d   1      -2.405   0.428  -0.288  0.00  0.00     0.007 C 
ATOM      9  C   UNL d   1      -3.429   1.111   0.608  0.00  0.00     0.009 C 
ENDBRANCH   7   8
ENDBRANCH   1   7
TORSDOF 2
ENDMDL
