MODEL 1
REMARK minimizedAffinity -4.33557081
REMARK minimizedRMSD -1
REMARK  2 active torsions:
REMARK  status: ('A' for Active; 'I' for Inactive)
REMARK    1  A    between atoms: C1_2  and  C2_3 
REMARK    2  A    between atoms: C2_3  and  C3_4 
ROOT
ATOM      1  C3  UNL d   1       0.052   0.072   0.089  0.00  0.00    -0.075 A 
ATOM      2  C4  UNL d   1      -0.050  -1.163  -0.568  0.00  0.00     0.002 A 
ATOM      3  C5  UNL d   1       0.923  -2.145  -0.382  0.00  0.00     0.002 A 
ATOM      4  C6  UNL d   1       2.012  -1.903   0.452  0.00  0.00    -0.004 A 
ATOM      5  C7  UNL d   1       2.131  -0.673   1.097  0.00  0.00     0.002 A 
ATOM      6  C8  UNL d   1       1.157   0.310   0.916  0.00  0.00     0.002 A 
ENDROOT
BRANCH   1   7
ATOM      7  C2  UNL d   1      -1.013   1.129  -0.085  0.00  0.00     0.056 C 
BRANCH   7   8
ATOM      8  C1  UNL d   1      -2.428   0.652   0.259  0.00  0.00     0.007 C 
ATOM      9  C   UNL d   1      -2.991   1.298   1.518  0.00  0.00     0.009 C 
ENDBRANCH   7   8
ENDBRANCH   1   7
TORSDOF 2
ENDMDL
