MODEL 1
REMARK minimizedAffinity -2.25907683
REMARK minimizedRMSD -1
REMARK  2 active torsions:
REMARK  status: ('A' for Active; 'I' for Inactive)
REMARK    1  A    between atoms: C1_2  and  C2_3 
REMARK    2  A    between atoms: C2_3  and  C3_4 
ROOT
ATOM      1  C3  UNL d   1      -1.831   0.465  -0.200  0.00  0.00    -0.075 A 
ATOM      2  C4  UNL d   1      -2.099   1.788   0.181  0.00  0.00     0.002 A 
ATOM      3  C5  UNL d   1      -3.316   2.122   0.775  0.00  0.00     0.002 A 
ATOM      4  C6  UNL d   1      -4.283   1.142   0.987  0.00  0.00    -0.004 A 
ATOM      5  C7  UNL d   1      -4.035  -0.173   0.597  0.00  0.00     0.002 A 
ATOM      6  C8  UNL d   1      -2.816  -0.510   0.006  0.00  0.00     0.002 A 
ENDROOT
BRANCH   1   7
ATOM      7  C2  UNL d   1      -0.504   0.092  -0.817  0.00  0.00     0.056 C 
BRANCH   7   8
ATOM      8  C1  UNL d   1      -0.305  -1.415  -1.004  0.00  0.00     0.007 C 
ATOM      9  C   UNL d   1       0.991  -1.930  -0.393  0.00  0.00     0.009 C 
ENDBRANCH   7   8
ENDBRANCH   1   7
TORSDOF 2
ENDMDL
