MODEL 1
REMARK minimizedAffinity -3.28729391
REMARK minimizedRMSD -1
REMARK  2 active torsions:
REMARK  status: ('A' for Active; 'I' for Inactive)
REMARK    1  A    between atoms: C1_2  and  C2_3 
REMARK    2  A    between atoms: C2_3  and  C3_4 
ROOT
ATOM      1  C3  UNL d   1      -0.024  -0.027  -0.186  0.00  0.00    -0.075 A 
ATOM      2  C4  UNL d   1       1.366   0.157  -0.197  0.00  0.00     0.002 A 
ATOM      3  C5  UNL d   1       2.224  -0.938  -0.309  0.00  0.00     0.002 A 
ATOM      4  C6  UNL d   1       1.705  -2.227  -0.400  0.00  0.00    -0.004 A 
ATOM      5  C7  UNL d   1       0.326  -2.423  -0.373  0.00  0.00     0.002 A 
ATOM      6  C8  UNL d   1      -0.535  -1.329  -0.265  0.00  0.00     0.002 A 
ENDROOT
BRANCH   1   7
ATOM      7  C2  UNL d   1      -0.959   1.156  -0.094  0.00  0.00     0.056 C 
BRANCH   7   8
ATOM      8  C1  UNL d   1      -2.427   0.775   0.125  0.00  0.00     0.007 C 
ATOM      9  C   UNL d   1      -3.122   1.641   1.167  0.00  0.00     0.009 C 
ENDBRANCH   7   8
ENDBRANCH   1   7
TORSDOF 2
ENDMDL
