MODEL 1
REMARK minimizedAffinity -3.0365479
REMARK minimizedRMSD -1
REMARK  2 active torsions:
REMARK  status: ('A' for Active; 'I' for Inactive)
REMARK    1  A    between atoms: C1_2  and  C2_3 
REMARK    2  A    between atoms: C2_3  and  C3_4 
ROOT
ATOM      1  C3  UNL d   1       1.919  -0.311   0.397  0.00  0.00    -0.075 A 
ATOM      2  C4  UNL d   1       0.816   0.131   1.142  0.00  0.00     0.002 A 
ATOM      3  C5  UNL d   1      -0.482  -0.195   0.747  0.00  0.00     0.002 A 
ATOM      4  C6  UNL d   1      -0.693  -0.957  -0.401  0.00  0.00    -0.004 A 
ATOM      5  C7  UNL d   1       0.394  -1.387  -1.157  0.00  0.00     0.002 A 
ATOM      6  C8  UNL d   1       1.694  -1.066  -0.762  0.00  0.00     0.002 A 
ENDROOT
BRANCH   1   7
ATOM      7  C2  UNL d   1       3.327   0.013   0.836  0.00  0.00     0.056 C 
BRANCH   7   8
ATOM      8  C1  UNL d   1       3.991   1.131   0.025  0.00  0.00     0.007 C 
ATOM      9  C   UNL d   1       3.566   2.525   0.465  0.00  0.00     0.009 C 
ENDBRANCH   7   8
ENDBRANCH   1   7
TORSDOF 2
ENDMDL
