MODEL 1
REMARK minimizedAffinity -5.23609686
REMARK minimizedRMSD -1
REMARK  2 active torsions:
REMARK  status: ('A' for Active; 'I' for Inactive)
REMARK    1  A    between atoms: C1_2  and  C2_3 
REMARK    2  A    between atoms: C2_3  and  C3_4 
ROOT
ATOM      1  C3  UNL d   1      -0.877   0.117  -0.153  0.00  0.00    -0.075 A 
ATOM      2  C4  UNL d   1       0.300   0.100   0.609  0.00  0.00     0.002 A 
ATOM      3  C5  UNL d   1       1.235  -0.922   0.446  0.00  0.00     0.002 A 
ATOM      4  C6  UNL d   1       1.001  -1.944  -0.471  0.00  0.00    -0.004 A 
ATOM      5  C7  UNL d   1      -0.172  -1.946  -1.222  0.00  0.00     0.002 A 
ATOM      6  C8  UNL d   1      -1.108  -0.922  -1.065  0.00  0.00     0.002 A 
ENDROOT
BRANCH   1   7
ATOM      7  C2  UNL d   1      -1.879   1.237  -0.003  0.00  0.00     0.056 C 
BRANCH   7   8
ATOM      8  C1  UNL d   1      -3.319   0.835  -0.341  0.00  0.00     0.007 C 
ATOM      9  C   UNL d   1      -4.267   0.945   0.846  0.00  0.00     0.009 C 
ENDBRANCH   7   8
ENDBRANCH   1   7
TORSDOF 2
ENDMDL
