MODEL 1
REMARK minimizedAffinity -5.32570362
REMARK minimizedRMSD -1
REMARK  2 active torsions:
REMARK  status: ('A' for Active; 'I' for Inactive)
REMARK    1  A    between atoms: C1_2  and  C2_3 
REMARK    2  A    between atoms: C2_3  and  C3_4 
ROOT
ATOM      1  C3  UNL d   1      -0.811   1.133  -0.303  0.00  0.00    -0.075 A 
ATOM      2  C4  UNL d   1      -0.799  -0.265  -0.192  0.00  0.00     0.002 A 
ATOM      3  C5  UNL d   1       0.365  -0.936   0.184  0.00  0.00     0.002 A 
ATOM      4  C6  UNL d   1       1.532  -0.221   0.443  0.00  0.00    -0.004 A 
ATOM      5  C7  UNL d   1       1.536   1.167   0.320  0.00  0.00     0.002 A 
ATOM      6  C8  UNL d   1       0.372   1.841  -0.052  0.00  0.00     0.002 A 
ENDROOT
BRANCH   1   7
ATOM      7  C2  UNL d   1      -2.075   1.868  -0.681  0.00  0.00     0.056 C 
BRANCH   7   8
ATOM      8  C1  UNL d   1      -3.350   1.262  -0.086  0.00  0.00     0.007 C 
ATOM      9  C   UNL d   1      -3.913   2.069   1.076  0.00  0.00     0.009 C 
ENDBRANCH   7   8
ENDBRANCH   1   7
TORSDOF 2
ENDMDL
