MODEL 1
REMARK minimizedAffinity 16.0715561
REMARK minimizedRMSD -1
REMARK  0 active torsions:
REMARK  status: ('A' for Active; 'I' for Inactive)
ROOT
ATOM      1  C   UNL d   1       1.148   5.706   4.851  0.00  0.00     0.023 A 
ATOM      2  C1  UNL d   1       1.913   5.935   5.995  0.00  0.00     0.003 A 
ATOM      3  C2  UNL d   1       3.281   5.658   5.989  0.00  0.00     0.048 A 
ATOM      4  C3  UNL d   1       3.880   5.153   4.835  0.00  0.00     0.023 A 
ATOM      5  C4  UNL d   1       3.119   4.923   3.688  0.00  0.00     0.048 A 
ATOM      6  C5  UNL d   1       1.751   5.200   3.699  0.00  0.00     0.003 A 
ATOM      7  I   UNL d   1       5.917   4.741   4.824  0.00  0.00    -0.146 I 
ENDROOT
TORSDOF 0
ENDMDL
