MODEL 1
REMARK minimizedAffinity 7.15561104
REMARK minimizedRMSD -1
REMARK  0 active torsions:
REMARK  status: ('A' for Active; 'I' for Inactive)
ROOT
ATOM      1  C   UNL d   1      -1.513  -3.077  -1.055  0.00  0.00     0.023 A 
ATOM      2  C1  UNL d   1      -1.241  -4.096  -0.143  0.00  0.00     0.003 A 
ATOM      3  C2  UNL d   1      -1.216  -3.821   1.226  0.00  0.00     0.048 A 
ATOM      4  C3  UNL d   1      -1.465  -2.524   1.675  0.00  0.00     0.023 A 
ATOM      5  C4  UNL d   1      -1.738  -1.502   0.766  0.00  0.00     0.048 A 
ATOM      6  C5  UNL d   1      -1.761  -1.781  -0.602  0.00  0.00     0.003 A 
ATOM      7  I   UNL d   1      -1.428  -2.112   3.712  0.00  0.00    -0.146 I 
ENDROOT
TORSDOF 0
ENDMDL
