MODEL 1
REMARK minimizedAffinity 14.093523
REMARK minimizedRMSD -1
REMARK  0 active torsions:
REMARK  status: ('A' for Active; 'I' for Inactive)
ROOT
ATOM      1  C   UNL d   1       4.295   1.929   0.065  0.00  0.00     0.023 A 
ATOM      2  C1  UNL d   1       5.254   1.602   1.024  0.00  0.00     0.003 A 
ATOM      3  C2  UNL d   1       5.006   1.853   2.375  0.00  0.00     0.048 A 
ATOM      4  C3  UNL d   1       3.796   2.431   2.760  0.00  0.00     0.023 A 
ATOM      5  C4  UNL d   1       2.833   2.758   1.804  0.00  0.00     0.048 A 
ATOM      6  C5  UNL d   1       3.086   2.506   0.455  0.00  0.00     0.003 A 
ATOM      7  I   UNL d   1       3.425   2.805   4.771  0.00  0.00    -0.146 I 
ENDROOT
TORSDOF 0
ENDMDL
