MODEL 1
REMARK minimizedAffinity 11.4491587
REMARK minimizedRMSD -1
REMARK  0 active torsions:
REMARK  status: ('A' for Active; 'I' for Inactive)
ROOT
ATOM      1  C   UNL d   1      -1.365  -3.048   1.532  0.00  0.00     0.023 A 
ATOM      2  C1  UNL d   1      -0.618  -3.811   0.635  0.00  0.00     0.003 A 
ATOM      3  C2  UNL d   1      -0.565  -3.453  -0.714  0.00  0.00     0.048 A 
ATOM      4  C3  UNL d   1      -1.260  -2.329  -1.158  0.00  0.00     0.023 A 
ATOM      5  C4  UNL d   1      -2.007  -1.561  -0.264  0.00  0.00     0.048 A 
ATOM      6  C5  UNL d   1      -2.059  -1.924   1.083  0.00  0.00     0.003 A 
ATOM      7  I   UNL d   1      -1.182  -1.793  -3.165  0.00  0.00    -0.146 I 
ENDROOT
TORSDOF 0
ENDMDL
