MODEL 1
REMARK minimizedAffinity 10.2412186
REMARK minimizedRMSD -1
REMARK  0 active torsions:
REMARK  status: ('A' for Active; 'I' for Inactive)
ROOT
ATOM      1  C   UNL d   1      -4.842   1.109   5.951  0.00  0.00     0.023 A 
ATOM      2  C1  UNL d   1      -3.515   1.540   5.934  0.00  0.00     0.003 A 
ATOM      3  C2  UNL d   1      -3.223   2.905   5.946  0.00  0.00     0.048 A 
ATOM      4  C3  UNL d   1      -4.262   3.835   5.976  0.00  0.00     0.023 A 
ATOM      5  C4  UNL d   1      -5.591   3.409   5.995  0.00  0.00     0.048 A 
ATOM      6  C5  UNL d   1      -5.878   2.043   5.981  0.00  0.00     0.003 A 
ATOM      7  I   UNL d   1      -3.828   5.867   5.994  0.00  0.00    -0.146 I 
ENDROOT
TORSDOF 0
ENDMDL
