MODEL 1
REMARK minimizedAffinity 6.64775419
REMARK minimizedRMSD -1
REMARK  0 active torsions:
REMARK  status: ('A' for Active; 'I' for Inactive)
ROOT
ATOM      1  C   UNL d   1      -2.128  -1.730   0.338  0.00  0.00     0.023 A 
ATOM      2  C1  UNL d   1      -2.617  -2.317   1.506  0.00  0.00     0.003 A 
ATOM      3  C2  UNL d   1      -2.107  -3.543   1.939  0.00  0.00     0.048 A 
ATOM      4  C3  UNL d   1      -1.108  -4.176   1.201  0.00  0.00     0.023 A 
ATOM      5  C4  UNL d   1      -0.615  -3.592   0.033  0.00  0.00     0.048 A 
ATOM      6  C5  UNL d   1      -1.128  -2.367  -0.397  0.00  0.00     0.003 A 
ATOM      7  I   UNL d   1      -0.347  -6.000   1.843  0.00  0.00    -0.146 I 
ENDROOT
TORSDOF 0
ENDMDL
