MODEL 1
REMARK minimizedAffinity 11.4284554
REMARK minimizedRMSD -1
REMARK  0 active torsions:
REMARK  status: ('A' for Active; 'I' for Inactive)
ROOT
ATOM      1  C   UNL d   1      -5.410   5.708  -5.219  0.00  0.00     0.023 A 
ATOM      2  C1  UNL d   1      -4.488   5.999  -4.213  0.00  0.00     0.003 A 
ATOM      3  C2  UNL d   1      -3.456   5.103  -3.930  0.00  0.00     0.048 A 
ATOM      4  C3  UNL d   1      -3.351   3.917  -4.656  0.00  0.00     0.023 A 
ATOM      5  C4  UNL d   1      -4.270   3.622  -5.664  0.00  0.00     0.048 A 
ATOM      6  C5  UNL d   1      -5.301   4.521  -5.944  0.00  0.00     0.003 A 
ATOM      7  I   UNL d   1      -1.815   2.581  -4.236  0.00  0.00    -0.146 I 
ENDROOT
TORSDOF 0
ENDMDL
