MODEL 1
REMARK minimizedAffinity 6.06765985
REMARK minimizedRMSD -1
REMARK  0 active torsions:
REMARK  status: ('A' for Active; 'I' for Inactive)
ROOT
ATOM      1  C   UNL d   1      -0.433  -4.252   0.531  0.00  0.00     0.023 A 
ATOM      2  C1  UNL d   1      -0.578  -3.642  -0.715  0.00  0.00     0.003 A 
ATOM      3  C2  UNL d   1      -1.391  -2.514  -0.852  0.00  0.00     0.048 A 
ATOM      4  C3  UNL d   1      -2.055  -2.002   0.262  0.00  0.00     0.023 A 
ATOM      5  C4  UNL d   1      -1.912  -2.609   1.511  0.00  0.00     0.048 A 
ATOM      6  C5  UNL d   1      -1.099  -3.736   1.642  0.00  0.00     0.003 A 
ATOM      7  I   UNL d   1      -3.265  -0.324   0.061  0.00  0.00    -0.146 I 
ENDROOT
TORSDOF 0
ENDMDL
