MODEL 1
REMARK minimizedAffinity 8.36843491
REMARK minimizedRMSD -1
REMARK  0 active torsions:
REMARK  status: ('A' for Active; 'I' for Inactive)
ROOT
ATOM      1  C   UNL d   1       1.826   1.437  -1.228  0.00  0.00     0.023 A 
ATOM      2  C1  UNL d   1       1.915   1.508  -2.619  0.00  0.00     0.003 A 
ATOM      3  C2  UNL d   1       3.103   1.157  -3.263  0.00  0.00     0.048 A 
ATOM      4  C3  UNL d   1       4.198   0.734  -2.511  0.00  0.00     0.023 A 
ATOM      5  C4  UNL d   1       4.114   0.660  -1.119  0.00  0.00     0.048 A 
ATOM      6  C5  UNL d   1       2.924   1.013  -0.480  0.00  0.00     0.003 A 
ATOM      7  I   UNL d   1       5.968   0.211  -3.467  0.00  0.00    -0.146 I 
ENDROOT
TORSDOF 0
ENDMDL
