MODEL 1
REMARK minimizedAffinity 6.57611465
REMARK minimizedRMSD -1
REMARK  0 active torsions:
REMARK  status: ('A' for Active; 'I' for Inactive)
ROOT
ATOM      1  C   UNL d   1      -5.239   1.630   5.996  0.00  0.00     0.023 A 
ATOM      2  C1  UNL d   1      -3.892   1.971   5.872  0.00  0.00     0.003 A 
ATOM      3  C2  UNL d   1      -2.925   0.971   5.753  0.00  0.00     0.048 A 
ATOM      4  C3  UNL d   1      -3.311  -0.368   5.757  0.00  0.00     0.023 A 
ATOM      5  C4  UNL d   1      -4.658  -0.715   5.880  0.00  0.00     0.048 A 
ATOM      6  C5  UNL d   1      -5.621   0.288   6.000  0.00  0.00     0.003 A 
ATOM      7  I   UNL d   1      -1.873  -1.858   5.579  0.00  0.00    -0.146 I 
ENDROOT
TORSDOF 0
ENDMDL
