MODEL 1
REMARK minimizedAffinity 5.37007618
REMARK minimizedRMSD -1
REMARK  0 active torsions:
REMARK  status: ('A' for Active; 'I' for Inactive)
ROOT
ATOM      1  C   UNL d   1      -5.999   5.404  -5.333  0.00  0.00     0.023 A 
ATOM      2  C1  UNL d   1      -5.093   6.000  -4.455  0.00  0.00     0.003 A 
ATOM      3  C2  UNL d   1      -3.841   5.419  -4.242  0.00  0.00     0.048 A 
ATOM      4  C3  UNL d   1      -3.502   4.243  -4.910  0.00  0.00     0.023 A 
ATOM      5  C4  UNL d   1      -4.405   3.644  -5.790  0.00  0.00     0.048 A 
ATOM      6  C5  UNL d   1      -5.656   4.228  -6.000  0.00  0.00     0.003 A 
ATOM      7  I   UNL d   1      -1.639   3.377  -4.595  0.00  0.00    -0.146 I 
ENDROOT
TORSDOF 0
ENDMDL
