MODEL 1
REMARK minimizedAffinity 15.1376066
REMARK minimizedRMSD -1
REMARK  0 active torsions:
REMARK  status: ('A' for Active; 'I' for Inactive)
ROOT
ATOM      1  C   UNL d   1      -0.582  -2.739   4.726  0.00  0.00     0.023 A 
ATOM      2  C1  UNL d   1      -1.901  -2.612   4.290  0.00  0.00     0.003 A 
ATOM      3  C2  UNL d   1      -2.654  -1.493   4.654  0.00  0.00     0.048 A 
ATOM      4  C3  UNL d   1      -2.080  -0.504   5.452  0.00  0.00     0.023 A 
ATOM      5  C4  UNL d   1      -0.761  -0.627   5.890  0.00  0.00     0.048 A 
ATOM      6  C5  UNL d   1      -0.013  -1.747   5.525  0.00  0.00     0.003 A 
ATOM      7  I   UNL d   1      -3.198   1.162   5.995  0.00  0.00    -0.146 I 
ENDROOT
TORSDOF 0
ENDMDL
