MODEL 1
REMARK minimizedAffinity 10.5131721
REMARK minimizedRMSD -1
REMARK  0 active torsions:
REMARK  status: ('A' for Active; 'I' for Inactive)
ROOT
ATOM      1  C   UNL d   1      -5.305   4.381   0.665  0.00  0.00     0.023 A 
ATOM      2  C1  UNL d   1      -4.435   3.677  -0.168  0.00  0.00     0.003 A 
ATOM      3  C2  UNL d   1      -4.196   4.125  -1.469  0.00  0.00     0.048 A 
ATOM      4  C3  UNL d   1      -4.830   5.279  -1.930  0.00  0.00     0.023 A 
ATOM      5  C4  UNL d   1      -5.701   5.986  -1.100  0.00  0.00     0.048 A 
ATOM      6  C5  UNL d   1      -5.938   5.534   0.199  0.00  0.00     0.003 A 
ATOM      7  I   UNL d   1      -4.476   5.948  -3.866  0.00  0.00    -0.146 I 
ENDROOT
TORSDOF 0
ENDMDL
