MODEL 1
REMARK minimizedAffinity 9.67420292
REMARK minimizedRMSD -1
REMARK  0 active torsions:
REMARK  status: ('A' for Active; 'I' for Inactive)
ROOT
ATOM      1  C   UNL d   1      -1.709  -1.523   0.017  0.00  0.00     0.023 A 
ATOM      2  C1  UNL d   1      -2.120  -1.930   1.287  0.00  0.00     0.003 A 
ATOM      3  C2  UNL d   1      -1.817  -3.214   1.742  0.00  0.00     0.048 A 
ATOM      4  C3  UNL d   1      -1.101  -4.087   0.923  0.00  0.00     0.023 A 
ATOM      5  C4  UNL d   1      -0.687  -3.684  -0.347  0.00  0.00     0.048 A 
ATOM      6  C5  UNL d   1      -0.993  -2.399  -0.798  0.00  0.00     0.003 A 
ATOM      7  I   UNL d   1      -0.649  -6.000   1.599  0.00  0.00    -0.146 I 
ENDROOT
TORSDOF 0
ENDMDL
