MODEL 1
REMARK minimizedAffinity 8.46260166
REMARK minimizedRMSD -1
REMARK  0 active torsions:
REMARK  status: ('A' for Active; 'I' for Inactive)
ROOT
ATOM      1  C   UNL d   1      -5.084   1.711   5.907  0.00  0.00     0.023 A 
ATOM      2  C1  UNL d   1      -5.500   0.382   5.999  0.00  0.00     0.003 A 
ATOM      3  C2  UNL d   1      -4.579  -0.653   5.823  0.00  0.00     0.048 A 
ATOM      4  C3  UNL d   1      -3.244  -0.352   5.556  0.00  0.00     0.023 A 
ATOM      5  C4  UNL d   1      -2.823   0.975   5.464  0.00  0.00     0.048 A 
ATOM      6  C5  UNL d   1      -3.747   2.007   5.640  0.00  0.00     0.003 A 
ATOM      7  I   UNL d   1      -1.871  -1.891   5.294  0.00  0.00    -0.146 I 
ENDROOT
TORSDOF 0
ENDMDL
