MODEL 1
REMARK minimizedAffinity 4.2842226
REMARK minimizedRMSD -1
REMARK  0 active torsions:
REMARK  status: ('A' for Active; 'I' for Inactive)
ROOT
ATOM      1  C   UNL d   1      -2.360   2.831  -4.856  0.00  0.00     0.023 A 
ATOM      2  C1  UNL d   1      -3.445   2.494  -5.665  0.00  0.00     0.003 A 
ATOM      3  C2  UNL d   1      -4.490   3.401  -5.849  0.00  0.00     0.048 A 
ATOM      4  C3  UNL d   1      -4.444   4.645  -5.221  0.00  0.00     0.023 A 
ATOM      5  C4  UNL d   1      -3.360   4.988  -4.411  0.00  0.00     0.048 A 
ATOM      6  C5  UNL d   1      -2.318   4.077  -4.229  0.00  0.00     0.003 A 
ATOM      7  I   UNL d   1      -5.999   5.998  -5.492  0.00  0.00    -0.146 I 
ENDROOT
TORSDOF 0
ENDMDL
