MODEL 1
REMARK minimizedAffinity 3.52488637
REMARK minimizedRMSD -1
REMARK  0 active torsions:
REMARK  status: ('A' for Active; 'I' for Inactive)
ROOT
ATOM      1  C   UNL d   1      -3.262  -0.175  -2.181  0.00  0.00     0.023 A 
ATOM      2  C1  UNL d   1      -2.627   0.407  -3.278  0.00  0.00     0.003 A 
ATOM      3  C2  UNL d   1      -1.237   0.545  -3.289  0.00  0.00     0.048 A 
ATOM      4  C3  UNL d   1      -0.489   0.099  -2.200  0.00  0.00     0.023 A 
ATOM      5  C4  UNL d   1      -1.121  -0.485  -1.101  0.00  0.00     0.048 A 
ATOM      6  C5  UNL d   1      -2.510  -0.620  -1.093  0.00  0.00     0.003 A 
ATOM      7  I   UNL d   1       1.579   0.304  -2.215  0.00  0.00    -0.146 I 
ENDROOT
TORSDOF 0
ENDMDL
