MODEL 1
REMARK minimizedAffinity 19.824152
REMARK minimizedRMSD -1
REMARK  0 active torsions:
REMARK  status: ('A' for Active; 'I' for Inactive)
ROOT
ATOM      1  C   UNL d   1      -0.447  -1.684  -2.134  0.00  0.00     0.023 A 
ATOM      2  C1  UNL d   1      -0.421  -2.008  -0.777  0.00  0.00     0.003 A 
ATOM      3  C2  UNL d   1      -1.557  -1.812   0.011  0.00  0.00     0.048 A 
ATOM      4  C3  UNL d   1      -2.716  -1.292  -0.564  0.00  0.00     0.023 A 
ATOM      5  C4  UNL d   1      -2.747  -0.968  -1.922  0.00  0.00     0.048 A 
ATOM      6  C5  UNL d   1      -1.608  -1.165  -2.705  0.00  0.00     0.003 A 
ATOM      7  I   UNL d   1      -4.408  -0.999   0.606  0.00  0.00    -0.146 I 
ENDROOT
TORSDOF 0
ENDMDL
