MODEL 1
REMARK minimizedAffinity 8.37768841
REMARK minimizedRMSD -1
REMARK  0 active torsions:
REMARK  status: ('A' for Active; 'I' for Inactive)
ROOT
ATOM      1  C   UNL d   1      -5.319   4.881   4.043  0.00  0.00     0.124 A 
ATOM      2  C1  UNL d   1      -5.324   3.732   4.821  0.00  0.00     0.062 A 
ATOM      3  C2  UNL d   1      -4.654   2.591   4.390  0.00  0.00     0.162 A 
ATOM      4  C3  UNL d   1      -3.972   2.593   3.173  0.00  0.00    -0.034 A 
ATOM      5  C4  UNL d   1      -3.972   3.752   2.395  0.00  0.00     0.162 A 
ATOM      6  C5  UNL d   1      -4.643   4.890   2.831  0.00  0.00     0.062 A 
ATOM      7  F   UNL d   1      -4.637   5.999   2.077  0.00  0.00    -0.097 F 
ATOM      8  F1  UNL d   1      -3.326   3.789   1.220  0.00  0.00    -0.096 F 
ATOM      9  I   UNL d   1      -2.969   0.889   2.524  0.00  0.00    -0.060 I 
ATOM     10  F2  UNL d   1      -4.676   1.495   5.163  0.00  0.00    -0.096 F 
ATOM     11  F3  UNL d   1      -5.977   3.721   5.992  0.00  0.00    -0.097 F 
ATOM     12  F4  UNL d   1      -5.965   5.977   4.460  0.00  0.00    -0.092 F 
ENDROOT
TORSDOF 0
ENDMDL
