MODEL 1
REMARK minimizedAffinity 15.1881018
REMARK minimizedRMSD -1
REMARK  0 active torsions:
REMARK  status: ('A' for Active; 'I' for Inactive)
ROOT
ATOM      1  C   UNL d   1      -4.360   2.707   1.451  0.00  0.00     0.124 A 
ATOM      2  C1  UNL d   1      -4.855   3.975   1.181  0.00  0.00     0.062 A 
ATOM      3  C2  UNL d   1      -5.324   4.778   2.217  0.00  0.00     0.162 A 
ATOM      4  C3  UNL d   1      -5.299   4.316   3.532  0.00  0.00    -0.034 A 
ATOM      5  C4  UNL d   1      -4.801   3.038   3.796  0.00  0.00     0.162 A 
ATOM      6  C5  UNL d   1      -4.333   2.240   2.757  0.00  0.00     0.062 A 
ATOM      7  F   UNL d   1      -3.856   1.014   3.019  0.00  0.00    -0.097 F 
ATOM      8  F1  UNL d   1      -4.763   2.563   5.049  0.00  0.00    -0.096 F 
ATOM      9  I   UNL d   1      -5.999   5.513   5.084  0.00  0.00    -0.060 I 
ATOM     10  F2  UNL d   1      -5.796   6.000   1.927  0.00  0.00    -0.096 F 
ATOM     11  F3  UNL d   1      -4.882   4.428  -0.081  0.00  0.00    -0.097 F 
ATOM     12  F4  UNL d   1      -3.910   1.936   0.452  0.00  0.00    -0.092 F 
ENDROOT
TORSDOF 0
ENDMDL
