MODEL 1
REMARK minimizedAffinity 3.17813826
REMARK minimizedRMSD -1
REMARK  0 active torsions:
REMARK  status: ('A' for Active; 'I' for Inactive)
ROOT
ATOM      1  C   UNL d   1       2.003   0.742   4.298  0.00  0.00     0.124 A 
ATOM      2  C1  UNL d   1       1.962   2.127   4.222  0.00  0.00     0.062 A 
ATOM      3  C2  UNL d   1       2.207   2.770   3.012  0.00  0.00     0.162 A 
ATOM      4  C3  UNL d   1       2.494   2.027   1.867  0.00  0.00    -0.034 A 
ATOM      5  C4  UNL d   1       2.534   0.634   1.951  0.00  0.00     0.162 A 
ATOM      6  C5  UNL d   1       2.289  -0.003   3.163  0.00  0.00     0.062 A 
ATOM      7  F   UNL d   1       2.329  -1.342   3.234  0.00  0.00    -0.097 F 
ATOM      8  F1  UNL d   1       2.808  -0.110   0.869  0.00  0.00    -0.096 F 
ATOM      9  I   UNL d   1       2.861   2.984   0.055  0.00  0.00    -0.060 I 
ATOM     10  F2  UNL d   1       2.161   4.109   2.968  0.00  0.00    -0.096 F 
ATOM     11  F3  UNL d   1       1.686   2.849   5.318  0.00  0.00    -0.097 F 
ATOM     12  F4  UNL d   1       1.768   0.126   5.464  0.00  0.00    -0.092 F 
ENDROOT
TORSDOF 0
ENDMDL
