MODEL 1
REMARK minimizedAffinity -0.499325186
REMARK minimizedRMSD -1
REMARK  0 active torsions:
REMARK  status: ('A' for Active; 'I' for Inactive)
ROOT
ATOM      1  C   UNL d   1      -3.934   2.530   2.645  0.00  0.00     0.124 A 
ATOM      2  C1  UNL d   1      -4.152   3.795   2.117  0.00  0.00     0.062 A 
ATOM      3  C2  UNL d   1      -4.742   4.787   2.895  0.00  0.00     0.162 A 
ATOM      4  C3  UNL d   1      -5.117   4.518   4.211  0.00  0.00    -0.034 A 
ATOM      5  C4  UNL d   1      -4.895   3.244   4.736  0.00  0.00     0.162 A 
ATOM      6  C5  UNL d   1      -4.305   2.256   3.954  0.00  0.00     0.062 A 
ATOM      7  F   UNL d   1      -4.095   1.035   4.466  0.00  0.00    -0.097 F 
ATOM      8  F1  UNL d   1      -5.244   2.951   5.998  0.00  0.00    -0.096 F 
ATOM      9  I   UNL d   1      -6.000   5.998   5.378  0.00  0.00    -0.060 I 
ATOM     10  F2  UNL d   1      -4.942   6.000   2.358  0.00  0.00    -0.096 F 
ATOM     11  F3  UNL d   1      -3.795   4.063   0.852  0.00  0.00    -0.097 F 
ATOM     12  F4  UNL d   1      -3.367   1.578   1.894  0.00  0.00    -0.092 F 
ENDROOT
TORSDOF 0
ENDMDL
