MODEL 1
REMARK minimizedAffinity 5.81095362
REMARK minimizedRMSD -1
REMARK  0 active torsions:
REMARK  status: ('A' for Active; 'I' for Inactive)
ROOT
ATOM      1  C   UNL d   1      -3.925   3.805   1.466  0.00  0.00     0.124 A 
ATOM      2  C1  UNL d   1      -3.757   2.730   2.329  0.00  0.00     0.062 A 
ATOM      3  C2  UNL d   1      -4.343   2.748   3.591  0.00  0.00     0.162 A 
ATOM      4  C3  UNL d   1      -5.104   3.843   3.999  0.00  0.00    -0.034 A 
ATOM      5  C4  UNL d   1      -5.269   4.920   3.126  0.00  0.00     0.162 A 
ATOM      6  C5  UNL d   1      -4.681   4.898   1.866  0.00  0.00     0.062 A 
ATOM      7  F   UNL d   1      -4.845   5.937   1.033  0.00  0.00    -0.097 F 
ATOM      8  F1  UNL d   1      -5.995   5.989   3.486  0.00  0.00    -0.096 F 
ATOM      9  I   UNL d   1      -5.982   3.873   5.886  0.00  0.00    -0.060 I 
ATOM     10  F2  UNL d   1      -4.163   1.696   4.404  0.00  0.00    -0.096 F 
ATOM     11  F3  UNL d   1      -3.026   1.673   1.946  0.00  0.00    -0.097 F 
ATOM     12  F4  UNL d   1      -3.360   3.786   0.253  0.00  0.00    -0.092 F 
ENDROOT
TORSDOF 0
ENDMDL
