MODEL 1
REMARK minimizedAffinity 13.472312
REMARK minimizedRMSD -1
REMARK  0 active torsions:
REMARK  status: ('A' for Active; 'I' for Inactive)
ROOT
ATOM      1  C   UNL d   1      -3.454   5.130   2.577  0.00  0.00     0.124 A 
ATOM      2  C1  UNL d   1      -2.856   5.098   3.829  0.00  0.00     0.062 A 
ATOM      3  C2  UNL d   1      -3.309   4.208   4.798  0.00  0.00     0.162 A 
ATOM      4  C3  UNL d   1      -4.365   3.340   4.519  0.00  0.00    -0.034 A 
ATOM      5  C4  UNL d   1      -4.961   3.379   3.257  0.00  0.00     0.162 A 
ATOM      6  C5  UNL d   1      -4.505   4.270   2.292  0.00  0.00     0.062 A 
ATOM      7  F   UNL d   1      -5.084   4.300   1.082  0.00  0.00    -0.097 F 
ATOM      8  F1  UNL d   1      -5.979   2.559   2.955  0.00  0.00    -0.096 F 
ATOM      9  I   UNL d   1      -5.044   2.007   5.965  0.00  0.00    -0.060 I 
ATOM     10  F2  UNL d   1      -2.712   4.199   6.000  0.00  0.00    -0.096 F 
ATOM     11  F3  UNL d   1      -1.840   5.928   4.107  0.00  0.00    -0.097 F 
ATOM     12  F4  UNL d   1      -3.017   5.988   1.646  0.00  0.00    -0.092 F 
ENDROOT
TORSDOF 0
ENDMDL
