MODEL 1
REMARK minimizedAffinity 5.21977711
REMARK minimizedRMSD -1
REMARK  0 active torsions:
REMARK  status: ('A' for Active; 'I' for Inactive)
ROOT
ATOM      1  C   UNL d   1      -4.061   2.845   2.408  0.00  0.00     0.124 A 
ATOM      2  C1  UNL d   1      -4.661   4.063   2.123  0.00  0.00     0.062 A 
ATOM      3  C2  UNL d   1      -5.216   4.826   3.147  0.00  0.00     0.162 A 
ATOM      4  C3  UNL d   1      -5.172   4.373   4.466  0.00  0.00    -0.034 A 
ATOM      5  C4  UNL d   1      -4.567   3.146   4.744  0.00  0.00     0.162 A 
ATOM      6  C5  UNL d   1      -4.015   2.387   3.717  0.00  0.00     0.062 A 
ATOM      7  F   UNL d   1      -3.435   1.210   3.993  0.00  0.00    -0.097 F 
ATOM      8  F1  UNL d   1      -4.508   2.680   6.000  0.00  0.00    -0.096 F 
ATOM      9  I   UNL d   1      -6.000   5.510   5.999  0.00  0.00    -0.060 I 
ATOM     10  F2  UNL d   1      -5.790   6.000   2.843  0.00  0.00    -0.096 F 
ATOM     11  F3  UNL d   1      -4.708   4.507   0.859  0.00  0.00    -0.097 F 
ATOM     12  F4  UNL d   1      -3.529   2.112   1.421  0.00  0.00    -0.092 F 
ENDROOT
TORSDOF 0
ENDMDL
