MODEL 1
REMARK minimizedAffinity 5.14642096
REMARK minimizedRMSD -1
REMARK  0 active torsions:
REMARK  status: ('A' for Active; 'I' for Inactive)
ROOT
ATOM      1  C   UNL d   1      -4.318   2.606   2.450  0.00  0.00     0.124 A 
ATOM      2  C1  UNL d   1      -4.390   2.337   3.810  0.00  0.00     0.062 A 
ATOM      3  C2  UNL d   1      -4.866   3.305   4.690  0.00  0.00     0.162 A 
ATOM      4  C3  UNL d   1      -5.275   4.550   4.213  0.00  0.00    -0.034 A 
ATOM      5  C4  UNL d   1      -5.199   4.813   2.844  0.00  0.00     0.162 A 
ATOM      6  C5  UNL d   1      -4.722   3.843   1.969  0.00  0.00     0.062 A 
ATOM      7  F   UNL d   1      -4.653   4.104   0.655  0.00  0.00    -0.097 F 
ATOM      8  F1  UNL d   1      -5.584   6.000   2.351  0.00  0.00    -0.096 F 
ATOM      9  I   UNL d   1      -5.988   6.000   5.526  0.00  0.00    -0.060 I 
ATOM     10  F2  UNL d   1      -4.925   3.018   5.999  0.00  0.00    -0.096 F 
ATOM     11  F3  UNL d   1      -4.000   1.143   4.278  0.00  0.00    -0.097 F 
ATOM     12  F4  UNL d   1      -3.859   1.673   1.606  0.00  0.00    -0.092 F 
ENDROOT
TORSDOF 0
ENDMDL
