MODEL 1
REMARK minimizedAffinity 6.07979584
REMARK minimizedRMSD -1
REMARK  0 active torsions:
REMARK  status: ('A' for Active; 'I' for Inactive)
ROOT
ATOM      1  C   UNL d   1      -5.120   2.482   4.465  0.00  0.00     0.124 A 
ATOM      2  C1  UNL d   1      -4.704   3.776   4.748  0.00  0.00     0.062 A 
ATOM      3  C2  UNL d   1      -4.720   4.749   3.753  0.00  0.00     0.162 A 
ATOM      4  C3  UNL d   1      -5.154   4.433   2.465  0.00  0.00    -0.034 A 
ATOM      5  C4  UNL d   1      -5.569   3.129   2.188  0.00  0.00     0.162 A 
ATOM      6  C5  UNL d   1      -5.552   2.160   3.186  0.00  0.00     0.062 A 
ATOM      7  F   UNL d   1      -5.954   0.911   2.911  0.00  0.00    -0.097 F 
ATOM      8  F1  UNL d   1      -5.992   2.791   0.961  0.00  0.00    -0.096 F 
ATOM      9  I   UNL d   1      -5.178   5.886   0.975  0.00  0.00    -0.060 I 
ATOM     10  F2  UNL d   1      -4.312   5.991   4.054  0.00  0.00    -0.096 F 
ATOM     11  F3  UNL d   1      -4.285   4.089   5.982  0.00  0.00    -0.097 F 
ATOM     12  F4  UNL d   1      -5.103   1.547   5.424  0.00  0.00    -0.092 F 
ENDROOT
TORSDOF 0
ENDMDL
