MODEL 1
REMARK minimizedAffinity 11.6344681
REMARK minimizedRMSD -1
REMARK  0 active torsions:
REMARK  status: ('A' for Active; 'I' for Inactive)
ROOT
ATOM      1  C   UNL d   1      -4.159   2.833   2.295  0.00  0.00     0.124 A 
ATOM      2  C1  UNL d   1      -4.048   2.419   3.615  0.00  0.00     0.062 A 
ATOM      3  C2  UNL d   1      -4.571   3.202   4.641  0.00  0.00     0.162 A 
ATOM      4  C3  UNL d   1      -5.210   4.407   4.350  0.00  0.00    -0.034 A 
ATOM      5  C4  UNL d   1      -5.317   4.817   3.020  0.00  0.00     0.162 A 
ATOM      6  C5  UNL d   1      -4.793   4.031   1.999  0.00  0.00     0.062 A 
ATOM      7  F   UNL d   1      -4.901   4.433   0.724  0.00  0.00    -0.097 F 
ATOM      8  F1  UNL d   1      -5.926   5.970   2.705  0.00  0.00    -0.096 F 
ATOM      9  I   UNL d   1      -5.993   5.580   5.880  0.00  0.00    -0.060 I 
ATOM     10  F2  UNL d   1      -4.449   2.777   5.907  0.00  0.00    -0.096 F 
ATOM     11  F3  UNL d   1      -3.435   1.262   3.905  0.00  0.00    -0.097 F 
ATOM     12  F4  UNL d   1      -3.655   2.078   1.311  0.00  0.00    -0.092 F 
ENDROOT
TORSDOF 0
ENDMDL
