MODEL 1
REMARK minimizedAffinity 11.8745174
REMARK minimizedRMSD -1
REMARK  0 active torsions:
REMARK  status: ('A' for Active; 'I' for Inactive)
ROOT
ATOM      1  C   UNL d   1      -3.748   3.178   2.389  0.00  0.00     0.124 A 
ATOM      2  C1  UNL d   1      -4.561   4.265   2.100  0.00  0.00     0.062 A 
ATOM      3  C2  UNL d   1      -5.202   4.952   3.127  0.00  0.00     0.162 A 
ATOM      4  C3  UNL d   1      -5.033   4.555   4.453  0.00  0.00    -0.034 A 
ATOM      5  C4  UNL d   1      -4.214   3.460   4.736  0.00  0.00     0.162 A 
ATOM      6  C5  UNL d   1      -3.576   2.776   3.706  0.00  0.00     0.062 A 
ATOM      7  F   UNL d   1      -2.791   1.726   3.988  0.00  0.00    -0.097 F 
ATOM      8  F1  UNL d   1      -4.029   3.051   6.000  0.00  0.00    -0.096 F 
ATOM      9  I   UNL d   1      -5.990   5.580   5.991  0.00  0.00    -0.060 I 
ATOM     10  F2  UNL d   1      -5.982   5.999   2.818  0.00  0.00    -0.096 F 
ATOM     11  F3  UNL d   1      -4.730   4.655   0.828  0.00  0.00    -0.097 F 
ATOM     12  F4  UNL d   1      -3.133   2.518   1.399  0.00  0.00    -0.092 F 
ENDROOT
TORSDOF 0
ENDMDL
