MODEL 1
REMARK minimizedAffinity 5.16035366
REMARK minimizedRMSD -1
REMARK  0 active torsions:
REMARK  status: ('A' for Active; 'I' for Inactive)
ROOT
ATOM      1  C   UNL d   1      -3.829   2.714   2.477  0.00  0.00     0.124 A 
ATOM      2  C1  UNL d   1      -4.305   3.951   2.065  0.00  0.00     0.062 A 
ATOM      3  C2  UNL d   1      -4.911   4.808   2.979  0.00  0.00     0.162 A 
ATOM      4  C3  UNL d   1      -5.043   4.432   4.315  0.00  0.00    -0.034 A 
ATOM      5  C4  UNL d   1      -4.563   3.186   4.722  0.00  0.00     0.162 A 
ATOM      6  C5  UNL d   1      -3.959   2.333   3.805  0.00  0.00     0.062 A 
ATOM      7  F   UNL d   1      -3.500   1.138   4.205  0.00  0.00    -0.097 F 
ATOM      8  F1  UNL d   1      -4.674   2.792   6.000  0.00  0.00    -0.096 F 
ATOM      9  I   UNL d   1      -5.948   5.711   5.685  0.00  0.00    -0.060 I 
ATOM     10  F2  UNL d   1      -5.361   5.997   2.552  0.00  0.00    -0.096 F 
ATOM     11  F3  UNL d   1      -4.182   4.321   0.782  0.00  0.00    -0.097 F 
ATOM     12  F4  UNL d   1      -3.248   1.891   1.595  0.00  0.00    -0.092 F 
ENDROOT
TORSDOF 0
ENDMDL
