MODEL 1
REMARK minimizedAffinity 5.27438545
REMARK minimizedRMSD -1
REMARK  0 active torsions:
REMARK  status: ('A' for Active; 'I' for Inactive)
ROOT
ATOM      1  C   UNL d   1      -3.645   3.104   2.413  0.00  0.00     0.124 A 
ATOM      2  C1  UNL d   1      -3.561   2.676   3.730  0.00  0.00     0.062 A 
ATOM      3  C2  UNL d   1      -4.232   3.368   4.735  0.00  0.00     0.162 A 
ATOM      4  C3  UNL d   1      -4.994   4.494   4.425  0.00  0.00    -0.034 A 
ATOM      5  C4  UNL d   1      -5.074   4.918   3.098  0.00  0.00     0.162 A 
ATOM      6  C5  UNL d   1      -4.401   4.224   2.098  0.00  0.00     0.062 A 
ATOM      7  F   UNL d   1      -4.484   4.638   0.825  0.00  0.00    -0.097 F 
ATOM      8  F1  UNL d   1      -5.798   5.997   2.765  0.00  0.00    -0.096 F 
ATOM      9  I   UNL d   1      -5.999   5.530   5.924  0.00  0.00    -0.060 I 
ATOM     10  F2  UNL d   1      -4.132   2.932   6.000  0.00  0.00    -0.096 F 
ATOM     11  F3  UNL d   1      -2.830   1.595   4.038  0.00  0.00    -0.097 F 
ATOM     12  F4  UNL d   1      -2.997   2.437   1.448  0.00  0.00    -0.092 F 
ENDROOT
TORSDOF 0
ENDMDL
