MODEL 1
REMARK minimizedAffinity 4.57189322
REMARK minimizedRMSD -1
REMARK  0 active torsions:
REMARK  status: ('A' for Active; 'I' for Inactive)
ROOT
ATOM      1  C   UNL d   1      -4.091   4.915   2.443  0.00  0.00     0.124 A 
ATOM      2  C1  UNL d   1      -3.757   4.972   3.789  0.00  0.00     0.062 A 
ATOM      3  C2  UNL d   1      -4.177   3.969   4.658  0.00  0.00     0.162 A 
ATOM      4  C3  UNL d   1      -4.936   2.900   4.183  0.00  0.00    -0.034 A 
ATOM      5  C4  UNL d   1      -5.270   2.850   2.829  0.00  0.00     0.162 A 
ATOM      6  C5  UNL d   1      -4.847   3.855   1.965  0.00  0.00     0.062 A 
ATOM      7  F   UNL d   1      -5.172   3.798   0.665  0.00  0.00    -0.097 F 
ATOM      8  F1  UNL d   1      -5.999   1.836   2.339  0.00  0.00    -0.096 F 
ATOM      9  I   UNL d   1      -5.567   1.398   5.479  0.00  0.00    -0.060 I 
ATOM     10  F2  UNL d   1      -3.839   4.050   5.954  0.00  0.00    -0.096 F 
ATOM     11  F3  UNL d   1      -3.027   5.996   4.255  0.00  0.00    -0.097 F 
ATOM     12  F4  UNL d   1      -3.686   5.882   1.610  0.00  0.00    -0.092 F 
ENDROOT
TORSDOF 0
ENDMDL
