MODEL 1
REMARK minimizedAffinity 2.52360225
REMARK minimizedRMSD -1
REMARK  0 active torsions:
REMARK  status: ('A' for Active; 'I' for Inactive)
ROOT
ATOM      1  C   UNL d   1      -3.782   2.995   2.414  0.00  0.00     0.124 A 
ATOM      2  C1  UNL d   1      -4.494   4.090   1.945  0.00  0.00     0.062 A 
ATOM      3  C2  UNL d   1      -5.127   4.949   2.839  0.00  0.00     0.162 A 
ATOM      4  C3  UNL d   1      -5.050   4.716   4.212  0.00  0.00    -0.034 A 
ATOM      5  C4  UNL d   1      -4.333   3.612   4.676  0.00  0.00     0.162 A 
ATOM      6  C5  UNL d   1      -3.702   2.757   3.778  0.00  0.00     0.062 A 
ATOM      7  F   UNL d   1      -3.015   1.700   4.234  0.00  0.00    -0.097 F 
ATOM      8  F1  UNL d   1      -4.239   3.359   5.990  0.00  0.00    -0.096 F 
ATOM      9  I   UNL d   1      -5.995   5.998   5.552  0.00  0.00    -0.060 I 
ATOM     10  F2  UNL d   1      -5.808   6.000   2.357  0.00  0.00    -0.096 F 
ATOM     11  F3  UNL d   1      -4.573   4.322   0.626  0.00  0.00    -0.097 F 
ATOM     12  F4  UNL d   1      -3.175   2.170   1.551  0.00  0.00    -0.092 F 
ENDROOT
TORSDOF 0
ENDMDL
