MODEL 1
REMARK minimizedAffinity -5.95020628
REMARK minimizedRMSD -1
REMARK  0 active torsions:
REMARK  status: ('A' for Active; 'I' for Inactive)
ROOT
ATOM      1  C1  DEN d   1       0.360  -0.643   1.364  0.00  0.00     0.130 A 
ATOM      2  C2  DEN d   1       1.158  -0.905   0.169  0.00  0.00    -0.031 A 
ATOM      3  C3  DEN d   1       0.860   0.151  -0.819  0.00  0.00     0.027 A 
ATOM      4  C4  DEN d   1      -0.748   2.158  -0.614  0.00  0.00     0.027 A 
ATOM      5  C5  DEN d   1      -1.653   2.791   0.207  0.00  0.00    -0.003 A 
ATOM      6  C6  DEN d   1      -1.974   2.310   1.449  0.00  0.00     0.001 A 
ATOM      7  C7  DEN d   1      -1.351   1.186   1.923  0.00  0.00     0.017 A 
ATOM      8  C8  DEN d   1      -0.442   0.537   1.097  0.00  0.00    -0.094 A 
ATOM      9  C9  DEN d   1      -0.122   1.047  -0.150  0.00  0.00    -0.072 A 
ENDROOT
TORSDOF 0
ENDMDL
