MODEL 1
REMARK minimizedAffinity -4.53149414
REMARK minimizedRMSD -1
REMARK  0 active torsions:
REMARK  status: ('A' for Active; 'I' for Inactive)
ROOT
ATOM      1  C1  DEN d   1       0.333  -1.014   0.071  0.00  0.00     0.130 A 
ATOM      2  C2  DEN d   1       1.010  -0.229  -0.957  0.00  0.00    -0.031 A 
ATOM      3  C3  DEN d   1       0.667   1.192  -0.746  0.00  0.00     0.027 A 
ATOM      4  C4  DEN d   1      -0.835   2.247   1.067  0.00  0.00     0.027 A 
ATOM      5  C5  DEN d   1      -1.637   1.980   2.154  0.00  0.00    -0.003 A 
ATOM      6  C6  DEN d   1      -1.865   0.705   2.599  0.00  0.00     0.001 A 
ATOM      7  C7  DEN d   1      -1.247  -0.350   1.981  0.00  0.00     0.017 A 
ATOM      8  C8  DEN d   1      -0.442  -0.090   0.879  0.00  0.00    -0.094 A 
ATOM      9  C9  DEN d   1      -0.215   1.207   0.453  0.00  0.00    -0.072 A 
ENDROOT
TORSDOF 0
ENDMDL
