MODEL 1
REMARK minimizedAffinity -6.65710783
REMARK minimizedRMSD -1
REMARK  0 active torsions:
REMARK  status: ('A' for Active; 'I' for Inactive)
ROOT
ATOM      1  C1  DEN d   1      -0.086   0.026   0.937  0.00  0.00     0.130 A 
ATOM      2  C2  DEN d   1       0.899  -0.140  -0.128  0.00  0.00    -0.031 A 
ATOM      3  C3  DEN d   1       0.876   1.077  -0.964  0.00  0.00     0.027 A 
ATOM      4  C4  DEN d   1      -0.576   3.193  -0.711  0.00  0.00     0.027 A 
ATOM      5  C5  DEN d   1      -1.567   3.792   0.035  0.00  0.00    -0.003 A 
ATOM      6  C6  DEN d   1      -2.152   3.169   1.105  0.00  0.00     0.001 A 
ATOM      7  C7  DEN d   1      -1.720   1.927   1.487  0.00  0.00     0.017 A 
ATOM      8  C8  DEN d   1      -0.727   1.313   0.735  0.00  0.00    -0.094 A 
ATOM      9  C9  DEN d   1      -0.139   1.964  -0.336  0.00  0.00    -0.072 A 
ENDROOT
TORSDOF 0
ENDMDL
