MODEL 1
REMARK minimizedAffinity -5.20709276
REMARK minimizedRMSD -1
REMARK  0 active torsions:
REMARK  status: ('A' for Active; 'I' for Inactive)
ROOT
ATOM      1  C1  DEN d   1       0.853  -0.855   1.341  0.00  0.00     0.130 A 
ATOM      2  C2  DEN d   1       1.254  -1.142  -0.034  0.00  0.00    -0.031 A 
ATOM      3  C3  DEN d   1       0.413  -0.326  -0.934  0.00  0.00     0.027 A 
ATOM      4  C4  DEN d   1      -1.456   1.347  -0.335  0.00  0.00     0.027 A 
ATOM      5  C5  DEN d   1      -2.163   1.917   0.701  0.00  0.00    -0.003 A 
ATOM      6  C6  DEN d   1      -1.939   1.581   2.009  0.00  0.00     0.001 A 
ATOM      7  C7  DEN d   1      -0.954   0.682   2.320  0.00  0.00     0.017 A 
ATOM      8  C8  DEN d   1      -0.242   0.097   1.281  0.00  0.00    -0.094 A 
ATOM      9  C9  DEN d   1      -0.474   0.459  -0.035  0.00  0.00    -0.072 A 
ENDROOT
TORSDOF 0
ENDMDL
