MODEL 1
REMARK minimizedAffinity -2.7415657
REMARK minimizedRMSD -1
REMARK  0 active torsions:
REMARK  status: ('A' for Active; 'I' for Inactive)
ROOT
ATOM      1  C1  DEN d   1       0.727   0.164  -0.725  0.00  0.00     0.130 A 
ATOM      2  C2  DEN d   1       0.752  -1.114  -0.018  0.00  0.00    -0.031 A 
ATOM      3  C3  DEN d   1      -0.094  -0.986   1.186  0.00  0.00     0.027 A 
ATOM      4  C4  DEN d   1      -1.435   1.054   2.017  0.00  0.00     0.027 A 
ATOM      5  C5  DEN d   1      -1.756   2.368   1.757  0.00  0.00    -0.003 A 
ATOM      6  C6  DEN d   1      -1.249   3.045   0.679  0.00  0.00     0.001 A 
ATOM      7  C7  DEN d   1      -0.429   2.395  -0.205  0.00  0.00     0.017 A 
ATOM      8  C8  DEN d   1      -0.095   1.072   0.054  0.00  0.00    -0.094 A 
ATOM      9  C9  DEN d   1      -0.627   0.402   1.143  0.00  0.00    -0.072 A 
ENDROOT
TORSDOF 0
ENDMDL
