MODEL 1
REMARK minimizedAffinity 0.454345733
REMARK minimizedRMSD -1
REMARK  0 active torsions:
REMARK  status: ('A' for Active; 'I' for Inactive)
ROOT
ATOM      1  C1  DEN d   1       0.601   0.003  -1.365  0.00  0.00     0.130 A 
ATOM      2  C2  DEN d   1       1.182  -1.332  -1.262  0.00  0.00    -0.031 A 
ATOM      3  C3  DEN d   1       0.827  -1.884   0.061  0.00  0.00     0.027 A 
ATOM      4  C4  DEN d   1      -0.562  -0.806   1.948  0.00  0.00     0.027 A 
ATOM      5  C5  DEN d   1      -1.257   0.321   2.327  0.00  0.00    -0.003 A 
ATOM      6  C6  DEN d   1      -1.351   1.426   1.523  0.00  0.00     0.001 A 
ATOM      7  C7  DEN d   1      -0.779   1.410   0.278  0.00  0.00     0.017 A 
ATOM      8  C8  DEN d   1      -0.071   0.279  -0.108  0.00  0.00    -0.094 A 
ATOM      9  C9  DEN d   1       0.003  -0.832   0.714  0.00  0.00    -0.072 A 
ENDROOT
TORSDOF 0
ENDMDL
