MODEL 1
REMARK minimizedAffinity -6.02119589
REMARK minimizedRMSD -1
REMARK  0 active torsions:
REMARK  status: ('A' for Active; 'I' for Inactive)
ROOT
ATOM      1  C1  DEN d   1       0.764   0.225  -0.812  0.00  0.00     0.130 A 
ATOM      2  C2  DEN d   1       0.427  -0.899   0.057  0.00  0.00    -0.031 A 
ATOM      3  C3  DEN d   1      -0.567  -0.431   1.044  0.00  0.00     0.027 A 
ATOM      4  C4  DEN d   1      -1.614   1.911   1.306  0.00  0.00     0.027 A 
ATOM      5  C5  DEN d   1      -1.631   3.196   0.809  0.00  0.00    -0.003 A 
ATOM      6  C6  DEN d   1      -0.832   3.586  -0.233  0.00  0.00     0.001 A 
ATOM      7  C7  DEN d   1      -0.015   2.670  -0.841  0.00  0.00     0.017 A 
ATOM      8  C8  DEN d   1       0.013   1.375  -0.341  0.00  0.00    -0.094 A 
ATOM      9  C9  DEN d   1      -0.811   0.997   0.706  0.00  0.00    -0.072 A 
ENDROOT
TORSDOF 0
ENDMDL
