MODEL 1
REMARK minimizedAffinity -5.91212988
REMARK minimizedRMSD -1
REMARK  0 active torsions:
REMARK  status: ('A' for Active; 'I' for Inactive)
ROOT
ATOM      1  C1  DEN d   1       0.712   0.607  -1.247  0.00  0.00     0.130 A 
ATOM      2  C2  DEN d   1       0.544  -0.572  -0.402  0.00  0.00    -0.031 A 
ATOM      3  C3  DEN d   1      -0.503  -0.272   0.596  0.00  0.00     0.027 A 
ATOM      4  C4  DEN d   1      -1.875   1.889   0.909  0.00  0.00     0.027 A 
ATOM      5  C5  DEN d   1      -2.079   3.167   0.439  0.00  0.00    -0.003 A 
ATOM      6  C6  DEN d   1      -1.349   3.690  -0.595  0.00  0.00     0.001 A 
ATOM      7  C7  DEN d   1      -0.411   2.914  -1.224  0.00  0.00     0.017 A 
ATOM      8  C8  DEN d   1      -0.195   1.626  -0.751  0.00  0.00    -0.094 A 
ATOM      9  C9  DEN d   1      -0.952   1.112   0.288  0.00  0.00    -0.072 A 
ENDROOT
TORSDOF 0
ENDMDL
