MODEL 1
REMARK minimizedAffinity -3.70188022
REMARK minimizedRMSD -1
REMARK  0 active torsions:
REMARK  status: ('A' for Active; 'I' for Inactive)
ROOT
ATOM      1  C1  DEN d   1      -0.563  -0.555  -1.485  0.00  0.00     0.130 A 
ATOM      2  C2  DEN d   1       0.749  -1.159  -1.267  0.00  0.00    -0.031 A 
ATOM      3  C3  DEN d   1       1.200  -0.792   0.090  0.00  0.00     0.027 A 
ATOM      4  C4  DEN d   1       0.000   0.641   1.867  0.00  0.00     0.027 A 
ATOM      5  C5  DEN d   1      -1.130   1.380   2.137  0.00  0.00    -0.003 A 
ATOM      6  C6  DEN d   1      -2.127   1.553   1.214  0.00  0.00     0.001 A 
ATOM      7  C7  DEN d   1      -2.034   0.941  -0.008  0.00  0.00     0.017 A 
ATOM      8  C8  DEN d   1      -0.894   0.200  -0.290  0.00  0.00    -0.094 A 
ATOM      9  C9  DEN d   1       0.098   0.027   0.661  0.00  0.00    -0.072 A 
ENDROOT
TORSDOF 0
ENDMDL
