MODEL 1
REMARK minimizedAffinity -4.29898405
REMARK minimizedRMSD -1
REMARK  0 active torsions:
REMARK  status: ('A' for Active; 'I' for Inactive)
ROOT
ATOM      1  C1  DEN d   1      -1.772   1.913  -0.006  0.00  0.00     0.130 A 
ATOM      2  C2  DEN d   1      -2.317   2.056   1.342  0.00  0.00    -0.031 A 
ATOM      3  C3  DEN d   1      -1.608   1.107   2.224  0.00  0.00     0.027 A 
ATOM      4  C4  DEN d   1       0.274  -0.557   1.639  0.00  0.00     0.027 A 
ATOM      5  C5  DEN d   1       1.061  -1.048   0.622  0.00  0.00    -0.003 A 
ATOM      6  C6  DEN d   1       0.937  -0.616  -0.672  0.00  0.00     0.001 A 
ATOM      7  C7  DEN d   1       0.035   0.370  -0.974  0.00  0.00     0.017 A 
ATOM      8  C8  DEN d   1      -0.767   0.866   0.045  0.00  0.00    -0.094 A 
ATOM      9  C9  DEN d   1      -0.618   0.424   1.349  0.00  0.00    -0.072 A 
ENDROOT
TORSDOF 0
ENDMDL
