MODEL 1
REMARK minimizedAffinity -3.06346631
REMARK minimizedRMSD -1
REMARK  0 active torsions:
REMARK  status: ('A' for Active; 'I' for Inactive)
ROOT
ATOM      1  C1  DEN d   1      -0.668  -0.176  -1.060  0.00  0.00     0.130 A 
ATOM      2  C2  DEN d   1       0.149   0.215   0.086  0.00  0.00    -0.031 A 
ATOM      3  C3  DEN d   1       1.222  -0.787   0.244  0.00  0.00     0.027 A 
ATOM      4  C4  DEN d   1       1.698  -2.892  -1.169  0.00  0.00     0.027 A 
ATOM      5  C5  DEN d   1       1.270  -3.646  -2.239  0.00  0.00    -0.003 A 
ATOM      6  C6  DEN d   1       0.155  -3.318  -2.964  0.00  0.00     0.001 A 
ATOM      7  C7  DEN d   1      -0.544  -2.181  -2.656  0.00  0.00     0.017 A 
ATOM      8  C8  DEN d   1      -0.123  -1.419  -1.574  0.00  0.00    -0.094 A 
ATOM      9  C9  DEN d   1       1.013  -1.761  -0.861  0.00  0.00    -0.072 A 
ENDROOT
TORSDOF 0
ENDMDL
