MODEL 1
REMARK minimizedAffinity -3.45256615
REMARK minimizedRMSD -1
REMARK  0 active torsions:
REMARK  status: ('A' for Active; 'I' for Inactive)
ROOT
ATOM      1  C1  DEN d   1       0.804  -0.963  -0.257  0.00  0.00     0.130 A 
ATOM      2  C2  DEN d   1       0.656  -0.524  -1.642  0.00  0.00    -0.031 A 
ATOM      3  C3  DEN d   1      -0.312   0.591  -1.666  0.00  0.00     0.027 A 
ATOM      4  C4  DEN d   1      -1.584   1.678   0.297  0.00  0.00     0.027 A 
ATOM      5  C5  DEN d   1      -1.794   1.638   1.657  0.00  0.00    -0.003 A 
ATOM      6  C6  DEN d   1      -1.184   0.715   2.464  0.00  0.00     0.001 A 
ATOM      7  C7  DEN d   1      -0.299  -0.180   1.923  0.00  0.00     0.017 A 
ATOM      8  C8  DEN d   1      -0.087  -0.151   0.551  0.00  0.00    -0.094 A 
ATOM      9  C9  DEN d   1      -0.704   0.799  -0.246  0.00  0.00    -0.072 A 
ENDROOT
TORSDOF 0
ENDMDL
