MODEL 1
REMARK minimizedAffinity -4.98272896
REMARK minimizedRMSD -1
REMARK  0 active torsions:
REMARK  status: ('A' for Active; 'I' for Inactive)
ROOT
ATOM      1  C1  DEN d   1       0.886   0.743  -1.046  0.00  0.00     0.130 A 
ATOM      2  C2  DEN d   1       0.818  -0.524  -0.323  0.00  0.00    -0.031 A 
ATOM      3  C3  DEN d   1      -0.161  -0.373   0.772  0.00  0.00     0.027 A 
ATOM      4  C4  DEN d   1      -1.577   1.686   1.411  0.00  0.00     0.027 A 
ATOM      5  C5  DEN d   1      -1.856   2.998   1.097  0.00  0.00    -0.003 A 
ATOM      6  C6  DEN d   1      -1.221   3.655   0.076  0.00  0.00     0.001 A 
ATOM      7  C7  DEN d   1      -0.307   2.988  -0.696  0.00  0.00     0.017 A 
ATOM      8  C8  DEN d   1      -0.015   1.668  -0.381  0.00  0.00    -0.094 A 
ATOM      9  C9  DEN d   1      -0.676   1.017   0.647  0.00  0.00    -0.072 A 
ENDROOT
TORSDOF 0
ENDMDL
