MODEL 1
REMARK minimizedAffinity -5.93375111
REMARK minimizedRMSD -1
REMARK  0 active torsions:
REMARK  status: ('A' for Active; 'I' for Inactive)
ROOT
ATOM      1  C1  DEN d   1      -0.749  -0.406   1.123  0.00  0.00     0.130 A 
ATOM      2  C2  DEN d   1       0.455  -0.740   0.368  0.00  0.00    -0.031 A 
ATOM      3  C3  DEN d   1       0.905   0.476  -0.338  0.00  0.00     0.027 A 
ATOM      4  C4  DEN d   1      -0.139   2.835  -0.331  0.00  0.00     0.027 A 
ATOM      5  C5  DEN d   1      -1.175   3.603   0.153  0.00  0.00    -0.003 A 
ATOM      6  C6  DEN d   1      -2.153   3.084   0.960  0.00  0.00     0.001 A 
ATOM      7  C7  DEN d   1      -2.090   1.771   1.344  0.00  0.00     0.017 A 
ATOM      8  C8  DEN d   1      -1.052   0.989   0.854  0.00  0.00    -0.094 A 
ATOM      9  C9  DEN d   1      -0.067   1.535   0.050  0.00  0.00    -0.072 A 
ENDROOT
TORSDOF 0
ENDMDL
