MODEL 1
REMARK minimizedAffinity -4.85372448
REMARK minimizedRMSD -1
REMARK  0 active torsions:
REMARK  status: ('A' for Active; 'I' for Inactive)
ROOT
ATOM      1  C1  DEN d   1      -1.488   3.073   0.885  0.00  0.00     0.130 A 
ATOM      2  C2  DEN d   1      -0.894   3.643  -0.321  0.00  0.00    -0.031 A 
ATOM      3  C3  DEN d   1      -0.090   2.592  -0.976  0.00  0.00     0.027 A 
ATOM      4  C4  DEN d   1       0.287   0.147  -0.245  0.00  0.00     0.027 A 
ATOM      5  C5  DEN d   1      -0.002  -0.794   0.719  0.00  0.00    -0.003 A 
ATOM      6  C6  DEN d   1      -0.772  -0.504   1.814  0.00  0.00     0.001 A 
ATOM      7  C7  DEN d   1      -1.318   0.745   1.949  0.00  0.00     0.017 A 
ATOM      8  C8  DEN d   1      -1.025   1.701   0.986  0.00  0.00    -0.094 A 
ATOM      9  C9  DEN d   1      -0.254   1.385  -0.120  0.00  0.00    -0.072 A 
ENDROOT
TORSDOF 0
ENDMDL
