MODEL 1
REMARK minimizedAffinity -5.86342192
REMARK minimizedRMSD -1
REMARK  0 active torsions:
REMARK  status: ('A' for Active; 'I' for Inactive)
ROOT
ATOM      1  C1  DEN d   1       0.525  -0.198  -0.669  0.00  0.00     0.130 A 
ATOM      2  C2  DEN d   1       0.405  -1.308   0.272  0.00  0.00    -0.031 A 
ATOM      3  C3  DEN d   1      -0.450  -0.867   1.392  0.00  0.00     0.027 A 
ATOM      4  C4  DEN d   1      -1.599   1.414   1.755  0.00  0.00     0.027 A 
ATOM      5  C5  DEN d   1      -1.780   2.676   1.232  0.00  0.00    -0.003 A 
ATOM      6  C6  DEN d   1      -1.183   3.075   0.066  0.00  0.00     0.001 A 
ATOM      7  C7  DEN d   1      -0.412   2.190  -0.640  0.00  0.00     0.017 A 
ATOM      8  C8  DEN d   1      -0.219   0.919  -0.115  0.00  0.00    -0.094 A 
ATOM      9  C9  DEN d   1      -0.841   0.530   1.059  0.00  0.00    -0.072 A 
ENDROOT
TORSDOF 0
ENDMDL
