MODEL 1
REMARK minimizedAffinity 10.4830952
REMARK minimizedRMSD -1
REMARK  0 active torsions:
REMARK  status: ('A' for Active; 'I' for Inactive)
ROOT
ATOM      1  C   UNL d   1       1.411  -1.707  -1.312  0.00  0.00    -0.002 A 
ATOM      2  C1  UNL d   1       1.537  -0.458  -1.903  0.00  0.00     0.010 A 
ATOM      3  C2  UNL d   1       2.391   0.503  -1.358  0.00  0.00     0.041 A 
ATOM      4  C3  UNL d   1       3.126   0.183  -0.199  0.00  0.00    -0.075 A 
ATOM      5  S   UNL d   1       4.233   1.201   0.643  0.00  0.00     0.015 SA
ATOM      6  C4  UNL d   1       4.567   0.001   1.807  0.00  0.00     0.022 A 
ATOM      7  C5  UNL d   1       3.858  -1.154   1.574  0.00  0.00     0.026 A 
ATOM      8  C6  UNL d   1       3.017  -1.069   0.413  0.00  0.00    -0.082 A 
ATOM      9  C7  UNL d   1       2.142  -2.021  -0.163  0.00  0.00     0.045 A 
ENDROOT
TORSDOF 0
ENDMDL
