MODEL 1
REMARK minimizedAffinity 13.3246956
REMARK minimizedRMSD -1
REMARK  0 active torsions:
REMARK  status: ('A' for Active; 'I' for Inactive)
ROOT
ATOM      1  C   UNL d   1       3.743   0.337  -1.002  0.00  0.00    -0.002 A 
ATOM      2  C1  UNL d   1       3.619   0.298   0.379  0.00  0.00     0.010 A 
ATOM      3  C2  UNL d   1       2.358   0.304   0.979  0.00  0.00     0.041 A 
ATOM      4  C3  UNL d   1       1.213   0.347   0.160  0.00  0.00    -0.075 A 
ATOM      5  S   UNL d   1      -0.433   0.361   0.673  0.00  0.00     0.015 SA
ATOM      6  C4  UNL d   1      -1.010   0.417  -0.930  0.00  0.00     0.022 A 
ATOM      7  C5  UNL d   1       0.014   0.426  -1.847  0.00  0.00     0.026 A 
ATOM      8  C6  UNL d   1       1.312   0.385  -1.234  0.00  0.00    -0.082 A 
ATOM      9  C7  UNL d   1       2.605   0.379  -1.812  0.00  0.00     0.045 A 
ENDROOT
TORSDOF 0
ENDMDL
