MODEL 1
REMARK minimizedAffinity -4.66335678
REMARK minimizedRMSD -1
REMARK  1 active torsions:
REMARK  status: ('A' for Active; 'I' for Inactive)
REMARK    1  A    between atoms: C3_4  and  O_7 
ROOT
ATOM      1  C   UNL d   1      -0.114  -0.711  -0.374  0.00  0.00    -0.033 A 
ATOM      2  C1  UNL d   1      -1.471  -0.390  -0.307  0.00  0.00     0.039 A 
ATOM      3  C2  UNL d   1      -1.934   0.492   0.672  0.00  0.00    -0.080 A 
ATOM      4  C3  UNL d   1      -1.030   1.045   1.575  0.00  0.00     0.150 A 
ATOM      5  C4  UNL d   1       0.324   0.732   1.511  0.00  0.00    -0.007 A 
ATOM      6  C5  UNL d   1       0.783  -0.149   0.534  0.00  0.00     0.039 A 
ENDROOT
BRANCH   4   7
ATOM      7  O   UNL d   1      -1.435   1.907   2.551  0.00  0.00    -0.526 OA
ATOM      8  H5  UNL d   1      -2.400   2.007   2.492  0.00  0.00     0.418 HD
ENDBRANCH   4   7
TORSDOF 1
ENDMDL
