MODEL 1
REMARK minimizedAffinity -4.84897375
REMARK minimizedRMSD -1
REMARK  1 active torsions:
REMARK  status: ('A' for Active; 'I' for Inactive)
REMARK    1  A    between atoms: C3_4  and  O_7 
ROOT
ATOM      1  C   UNL d   1      -0.725  -0.092  -0.103  0.00  0.00    -0.033 A 
ATOM      2  C1  UNL d   1      -1.882  -0.103   0.679  0.00  0.00     0.039 A 
ATOM      3  C2  UNL d   1      -1.901   0.557   1.909  0.00  0.00    -0.080 A 
ATOM      4  C3  UNL d   1      -0.760   1.226   2.344  0.00  0.00     0.150 A 
ATOM      5  C4  UNL d   1       0.394   1.245   1.568  0.00  0.00    -0.007 A 
ATOM      6  C5  UNL d   1       0.412   0.584   0.341  0.00  0.00     0.039 A 
ENDROOT
BRANCH   4   7
ATOM      7  O   UNL d   1      -0.730   1.881   3.539  0.00  0.00    -0.526 OA
ATOM      8  H5  UNL d   1      -1.588   1.758   3.979  0.00  0.00     0.418 HD
ENDBRANCH   4   7
TORSDOF 1
ENDMDL
