MODEL 1
REMARK minimizedAffinity -5.03694248
REMARK minimizedRMSD -1
REMARK  1 active torsions:
REMARK  status: ('A' for Active; 'I' for Inactive)
REMARK    1  A    between atoms: C3_4  and  O_7 
ROOT
ATOM      1  C   UNL d   1       0.417  -0.662  -0.220  0.00  0.00    -0.033 A 
ATOM      2  C1  UNL d   1       1.337  -0.335   0.778  0.00  0.00     0.039 A 
ATOM      3  C2  UNL d   1       0.929   0.402   1.891  0.00  0.00    -0.080 A 
ATOM      4  C3  UNL d   1      -0.400   0.805   1.995  0.00  0.00     0.150 A 
ATOM      5  C4  UNL d   1      -1.322   0.480   1.006  0.00  0.00    -0.007 A 
ATOM      6  C5  UNL d   1      -0.913  -0.256  -0.106  0.00  0.00     0.039 A 
ENDROOT
BRANCH   4   7
ATOM      7  O   UNL d   1      -0.844   1.530   3.060  0.00  0.00    -0.526 OA
ATOM      8  H5  UNL d   1      -0.090   1.705   3.649  0.00  0.00     0.418 HD
ENDBRANCH   4   7
TORSDOF 1
ENDMDL
