MODEL 1
REMARK minimizedAffinity -5.45102596
REMARK minimizedRMSD -1
REMARK  1 active torsions:
REMARK  status: ('A' for Active; 'I' for Inactive)
REMARK    1  A    between atoms: C3_4  and  O_7 
ROOT
ATOM      1  C   UNL d   1      -1.014   1.190   2.274  0.00  0.00    -0.033 A 
ATOM      2  C1  UNL d   1      -0.372   0.892   1.070  0.00  0.00     0.039 A 
ATOM      3  C2  UNL d   1       0.878   0.272   1.078  0.00  0.00    -0.080 A 
ATOM      4  C3  UNL d   1       1.475  -0.046   2.295  0.00  0.00     0.150 A 
ATOM      5  C4  UNL d   1       0.840   0.245   3.498  0.00  0.00    -0.007 A 
ATOM      6  C5  UNL d   1      -0.408   0.865   3.488  0.00  0.00     0.039 A 
ENDROOT
BRANCH   4   7
ATOM      7  O   UNL d   1       2.697  -0.648   2.353  0.00  0.00    -0.526 OA
ATOM      8  H5  UNL d   1       3.028  -0.761   1.447  0.00  0.00     0.418 HD
ENDBRANCH   4   7
TORSDOF 1
ENDMDL
