MODEL 1
REMARK minimizedAffinity -3.97554731
REMARK minimizedRMSD -1
REMARK  1 active torsions:
REMARK  status: ('A' for Active; 'I' for Inactive)
REMARK    1  A    between atoms: C3_4  and  O_7 
ROOT
ATOM      1  C   UNL d   1      -0.009  -1.863  -0.410  0.00  0.00    -0.033 A 
ATOM      2  C1  UNL d   1       0.886  -1.190   0.423  0.00  0.00     0.039 A 
ATOM      3  C2  UNL d   1       0.411  -0.281   1.371  0.00  0.00    -0.080 A 
ATOM      4  C3  UNL d   1      -0.959  -0.056   1.476  0.00  0.00     0.150 A 
ATOM      5  C4  UNL d   1      -1.856  -0.727   0.651  0.00  0.00    -0.007 A 
ATOM      6  C5  UNL d   1      -1.380  -1.633  -0.295  0.00  0.00     0.039 A 
ENDROOT
BRANCH   4   7
ATOM      7  O   UNL d   1      -1.469   0.825   2.382  0.00  0.00    -0.526 OA
ATOM      8  H5  UNL d   1      -0.730   1.235   2.863  0.00  0.00     0.418 HD
ENDBRANCH   4   7
TORSDOF 1
ENDMDL
