MODEL 1
REMARK minimizedAffinity -4.06126499
REMARK minimizedRMSD -1
REMARK  1 active torsions:
REMARK  status: ('A' for Active; 'I' for Inactive)
REMARK    1  A    between atoms: C3_4  and  O_7 
ROOT
ATOM      1  C   UNL d   1      -0.208  -0.568  -3.948  0.00  0.00    -0.033 A 
ATOM      2  C1  UNL d   1       0.376  -0.035  -2.798  0.00  0.00     0.039 A 
ATOM      3  C2  UNL d   1       0.994   1.216  -2.842  0.00  0.00    -0.080 A 
ATOM      4  C3  UNL d   1       1.020   1.924  -4.040  0.00  0.00     0.150 A 
ATOM      5  C4  UNL d   1       0.437   1.400  -5.190  0.00  0.00    -0.007 A 
ATOM      6  C5  UNL d   1      -0.179   0.150  -5.144  0.00  0.00     0.039 A 
ENDROOT
BRANCH   4   7
ATOM      7  O   UNL d   1       1.616   3.146  -4.133  0.00  0.00    -0.526 OA
ATOM      8  H5  UNL d   1       2.001   3.368  -3.269  0.00  0.00     0.418 HD
ENDBRANCH   4   7
TORSDOF 1
ENDMDL
