MODEL 1
REMARK minimizedAffinity -4.51226711
REMARK minimizedRMSD -1
REMARK  1 active torsions:
REMARK  status: ('A' for Active; 'I' for Inactive)
REMARK    1  A    between atoms: C3_4  and  O_7 
ROOT
ATOM      1  C   UNL d   1      -0.921   0.445   0.490  0.00  0.00    -0.033 A 
ATOM      2  C1  UNL d   1      -0.779  -0.670  -0.339  0.00  0.00     0.039 A 
ATOM      3  C2  UNL d   1       0.307  -1.531  -0.173  0.00  0.00    -0.080 A 
ATOM      4  C3  UNL d   1       1.242  -1.268   0.824  0.00  0.00     0.150 A 
ATOM      5  C4  UNL d   1       1.105  -0.161   1.656  0.00  0.00    -0.007 A 
ATOM      6  C5  UNL d   1       0.020   0.698   1.488  0.00  0.00     0.039 A 
ENDROOT
BRANCH   4   7
ATOM      7  O   UNL d   1       2.322  -2.077   1.021  0.00  0.00    -0.526 OA
ATOM      8  H5  UNL d   1       2.301  -2.785   0.355  0.00  0.00     0.418 HD
ENDBRANCH   4   7
TORSDOF 1
ENDMDL
