MODEL 1
REMARK minimizedAffinity -2.76254416
REMARK minimizedRMSD -1
REMARK  1 active torsions:
REMARK  status: ('A' for Active; 'I' for Inactive)
REMARK    1  A    between atoms: C3_4  and  O_7 
ROOT
ATOM      1  C   UNL d   1       0.275   1.949   2.421  0.00  0.00    -0.033 A 
ATOM      2  C1  UNL d   1      -0.894   1.351   2.895  0.00  0.00     0.039 A 
ATOM      3  C2  UNL d   1      -1.542   0.379   2.131  0.00  0.00    -0.080 A 
ATOM      4  C3  UNL d   1      -1.011   0.013   0.897  0.00  0.00     0.150 A 
ATOM      5  C4  UNL d   1       0.155   0.603   0.420  0.00  0.00    -0.007 A 
ATOM      6  C5  UNL d   1       0.801   1.574   1.184  0.00  0.00     0.039 A 
ENDROOT
BRANCH   4   7
ATOM      7  O   UNL d   1      -1.611  -0.927   0.113  0.00  0.00    -0.526 OA
ATOM      8  H5  UNL d   1      -2.421  -1.226   0.558  0.00  0.00     0.418 HD
ENDBRANCH   4   7
TORSDOF 1
ENDMDL
