MODEL 1
REMARK minimizedAffinity 4.29213524
REMARK minimizedRMSD -1
REMARK  1 active torsions:
REMARK  status: ('A' for Active; 'I' for Inactive)
REMARK    1  A    between atoms: C1_2  and  C2_3 
ROOT
ATOM      1  C2  UNL d   1      -2.096   1.483   0.168  0.00  0.00    -0.076 A 
ATOM      2  C3  UNL d   1      -0.859   2.092  -0.105  0.00  0.00     0.004 A 
ATOM      3  C4  UNL d   1       0.321   1.599   0.449  0.00  0.00    -0.003 A 
ATOM      4  C5  UNL d   1       0.283   0.489   1.286  0.00  0.00     0.000 A 
ATOM      5  C6  UNL d   1      -0.933  -0.138   1.555  0.00  0.00     0.000 A 
ATOM      6  C7  UNL d   1      -2.130   0.336   0.990  0.00  0.00    -0.073 A 
ATOM      7  C8  UNL d   1      -3.414  -0.375   1.319  0.00  0.00     0.078 C 
ENDROOT
BRANCH   1   8
ATOM      8  C1  UNL d   1      -3.346   2.078  -0.440  0.00  0.00     0.053 C 
ATOM      9  C   UNL d   1      -3.155   2.471  -1.897  0.00  0.00     0.018 C 
ENDBRANCH   1   8
TORSDOF 1
ENDMDL
