MODEL 1
REMARK minimizedAffinity 1.39512432
REMARK minimizedRMSD -1
REMARK  1 active torsions:
REMARK  status: ('A' for Active; 'I' for Inactive)
REMARK    1  A    between atoms: C1_2  and  C2_3 
ROOT
ATOM      1  C2  UNL d   1      -0.267   2.358   1.215  0.00  0.00    -0.076 A 
ATOM      2  C3  UNL d   1       0.354   3.337   0.421  0.00  0.00     0.004 A 
ATOM      3  C4  UNL d   1       0.173   3.361  -0.961  0.00  0.00    -0.003 A 
ATOM      4  C5  UNL d   1      -0.631   2.405  -1.571  0.00  0.00     0.000 A 
ATOM      5  C6  UNL d   1      -1.269   1.436  -0.797  0.00  0.00     0.000 A 
ATOM      6  C7  UNL d   1      -1.111   1.408   0.599  0.00  0.00    -0.073 A 
ATOM      7  C8  UNL d   1      -1.817   0.338   1.385  0.00  0.00     0.078 C 
ENDROOT
BRANCH   1   8
ATOM      8  C1  UNL d   1      -0.013   2.366   2.706  0.00  0.00     0.053 C 
ATOM      9  C   UNL d   1       1.358   1.816   3.066  0.00  0.00     0.018 C 
ENDBRANCH   1   8
TORSDOF 1
ENDMDL
