MODEL 1
REMARK minimizedAffinity 9.72962952
REMARK minimizedRMSD -1
REMARK  1 active torsions:
REMARK  status: ('A' for Active; 'I' for Inactive)
REMARK    1  A    between atoms: C1_2  and  C2_3 
ROOT
ATOM      1  C2  UNL d   1       3.443   1.654   0.122  0.00  0.00    -0.076 A 
ATOM      2  C3  UNL d   1       2.253   0.942   0.350  0.00  0.00     0.004 A 
ATOM      3  C4  UNL d   1       1.467   1.198   1.472  0.00  0.00    -0.003 A 
ATOM      4  C5  UNL d   1       1.858   2.172   2.384  0.00  0.00     0.000 A 
ATOM      5  C6  UNL d   1       3.026   2.901   2.164  0.00  0.00     0.000 A 
ATOM      6  C7  UNL d   1       3.822   2.666   1.030  0.00  0.00    -0.073 A 
ATOM      7  C8  UNL d   1       5.075   3.477   0.846  0.00  0.00     0.078 C 
ENDROOT
BRANCH   1   8
ATOM      8  C1  UNL d   1       4.269   1.313  -1.098  0.00  0.00     0.053 C 
ATOM      9  C   UNL d   1       3.433   0.714  -2.218  0.00  0.00     0.018 C 
ENDBRANCH   1   8
TORSDOF 1
ENDMDL
