MODEL 1
REMARK minimizedAffinity 9.02259731
REMARK minimizedRMSD -1
REMARK  1 active torsions:
REMARK  status: ('A' for Active; 'I' for Inactive)
REMARK    1  A    between atoms: C1_2  and  C2_3 
ROOT
ATOM      1  C2  UNL d   1       0.873   2.255   1.828  0.00  0.00    -0.076 A 
ATOM      2  C3  UNL d   1      -0.134   2.264   0.847  0.00  0.00     0.004 A 
ATOM      3  C4  UNL d   1      -1.438   2.643   1.161  0.00  0.00    -0.003 A 
ATOM      4  C5  UNL d   1      -1.756   3.019   2.461  0.00  0.00     0.000 A 
ATOM      5  C6  UNL d   1      -0.766   3.033   3.443  0.00  0.00     0.000 A 
ATOM      6  C7  UNL d   1       0.558   2.669   3.139  0.00  0.00    -0.073 A 
ATOM      7  C8  UNL d   1       1.584   2.696   4.238  0.00  0.00     0.078 C 
ENDROOT
BRANCH   1   8
ATOM      8  C1  UNL d   1       2.263   1.808   1.434  0.00  0.00     0.053 C 
ATOM      9  C   UNL d   1       2.256   0.510   0.641  0.00  0.00     0.018 C 
ENDBRANCH   1   8
TORSDOF 1
ENDMDL
