MODEL 1
REMARK minimizedAffinity 5.05924368
REMARK minimizedRMSD -1
REMARK  1 active torsions:
REMARK  status: ('A' for Active; 'I' for Inactive)
REMARK    1  A    between atoms: C1_2  and  C2_3 
ROOT
ATOM      1  C2  UNL d   1      -0.128   1.709   0.866  0.00  0.00    -0.076 A 
ATOM      2  C3  UNL d   1      -0.143   2.716  -0.115  0.00  0.00     0.004 A 
ATOM      3  C4  UNL d   1      -1.201   2.826  -1.015  0.00  0.00    -0.003 A 
ATOM      4  C5  UNL d   1      -2.263   1.931  -0.948  0.00  0.00     0.000 A 
ATOM      5  C6  UNL d   1      -2.274   0.937   0.030  0.00  0.00     0.000 A 
ATOM      6  C7  UNL d   1      -1.223   0.822   0.955  0.00  0.00    -0.073 A 
ATOM      7  C8  UNL d   1      -1.283  -0.272   1.985  0.00  0.00     0.078 C 
ENDROOT
BRANCH   1   8
ATOM      8  C1  UNL d   1       1.059   1.622   1.797  0.00  0.00     0.053 C 
ATOM      9  C   UNL d   1       2.241   0.900   1.169  0.00  0.00     0.018 C 
ENDBRANCH   1   8
TORSDOF 1
ENDMDL
