MODEL 1
REMARK minimizedAffinity 4.08887768
REMARK minimizedRMSD -1
REMARK  1 active torsions:
REMARK  status: ('A' for Active; 'I' for Inactive)
REMARK    1  A    between atoms: C1_2  and  C2_3 
ROOT
ATOM      1  C2  UNL d   1       0.267   2.017   0.608  0.00  0.00    -0.076 A 
ATOM      2  C3  UNL d   1       0.201   1.643  -0.745  0.00  0.00     0.004 A 
ATOM      3  C4  UNL d   1      -0.928   1.008  -1.260  0.00  0.00    -0.003 A 
ATOM      4  C5  UNL d   1      -2.010   0.737  -0.429  0.00  0.00     0.000 A 
ATOM      5  C6  UNL d   1      -1.968   1.117   0.912  0.00  0.00     0.000 A 
ATOM      6  C7  UNL d   1      -0.844   1.773   1.442  0.00  0.00    -0.073 A 
ATOM      7  C8  UNL d   1      -0.851   2.155   2.897  0.00  0.00     0.078 C 
ENDROOT
BRANCH   1   8
ATOM      8  C1  UNL d   1       1.529   2.678   1.116  0.00  0.00     0.053 C 
ATOM      9  C   UNL d   1       2.635   1.676   1.409  0.00  0.00     0.018 C 
ENDBRANCH   1   8
TORSDOF 1
ENDMDL
