MODEL 1
REMARK minimizedAffinity -1.62191868
REMARK minimizedRMSD -1
REMARK  1 active torsions:
REMARK  status: ('A' for Active; 'I' for Inactive)
REMARK    1  A    between atoms: C1_2  and  C2_3 
ROOT
ATOM      1  C2  UNL d   1       1.315   2.532   2.411  0.00  0.00    -0.076 A 
ATOM      2  C3  UNL d   1       2.109   1.797   1.514  0.00  0.00     0.004 A 
ATOM      3  C4  UNL d   1       1.530   0.964   0.559  0.00  0.00    -0.003 A 
ATOM      4  C5  UNL d   1       0.146   0.853   0.484  0.00  0.00     0.000 A 
ATOM      5  C6  UNL d   1      -0.658   1.588   1.354  0.00  0.00     0.000 A 
ATOM      6  C7  UNL d   1      -0.091   2.446   2.312  0.00  0.00    -0.073 A 
ATOM      7  C8  UNL d   1      -1.005   3.211   3.229  0.00  0.00     0.078 C 
ENDROOT
BRANCH   1   8
ATOM      8  C1  UNL d   1       2.000   3.399   3.443  0.00  0.00     0.053 C 
ATOM      9  C   UNL d   1       2.930   4.426   2.817  0.00  0.00     0.018 C 
ENDBRANCH   1   8
TORSDOF 1
ENDMDL
