MODEL 1
REMARK minimizedAffinity 6.57590103
REMARK minimizedRMSD -1
REMARK  1 active torsions:
REMARK  status: ('A' for Active; 'I' for Inactive)
REMARK    1  A    between atoms: C1_2  and  C2_3 
ROOT
ATOM      1  C2  UNL d   1       0.788   1.364   1.185  0.00  0.00    -0.076 A 
ATOM      2  C3  UNL d   1       1.680   2.093   1.990  0.00  0.00     0.004 A 
ATOM      3  C4  UNL d   1       1.225   2.820   3.089  0.00  0.00    -0.003 A 
ATOM      4  C5  UNL d   1      -0.130   2.829   3.402  0.00  0.00     0.000 A 
ATOM      5  C6  UNL d   1      -1.027   2.097   2.625  0.00  0.00     0.000 A 
ATOM      6  C7  UNL d   1      -0.582   1.346   1.523  0.00  0.00    -0.073 A 
ATOM      7  C8  UNL d   1      -1.595   0.580   0.716  0.00  0.00     0.078 C 
ENDROOT
BRANCH   1   8
ATOM      8  C1  UNL d   1       1.335   0.617  -0.010  0.00  0.00     0.053 C 
ATOM      9  C   UNL d   1       1.805   1.550  -1.115  0.00  0.00     0.018 C 
ENDBRANCH   1   8
TORSDOF 1
ENDMDL
