MODEL 1
REMARK minimizedAffinity 5.51207876
REMARK minimizedRMSD -1
REMARK  1 active torsions:
REMARK  status: ('A' for Active; 'I' for Inactive)
REMARK    1  A    between atoms: C1_2  and  C2_3 
ROOT
ATOM      1  C2  UNL d   1       3.875   3.975   1.656  0.00  0.00    -0.076 A 
ATOM      2  C3  UNL d   1       4.627   3.378   0.629  0.00  0.00     0.004 A 
ATOM      3  C4  UNL d   1       5.638   4.083  -0.023  0.00  0.00    -0.003 A 
ATOM      4  C5  UNL d   1       5.913   5.396   0.342  0.00  0.00     0.000 A 
ATOM      5  C6  UNL d   1       5.189   5.998   1.370  0.00  0.00     0.000 A 
ATOM      6  C7  UNL d   1       4.178   5.297   2.049  0.00  0.00    -0.073 A 
ATOM      7  C8  UNL d   1       3.424   5.998   3.146  0.00  0.00     0.078 C 
ENDROOT
BRANCH   1   8
ATOM      8  C1  UNL d   1       2.773   3.171   2.308  0.00  0.00     0.053 C 
ATOM      9  C   UNL d   1       2.414   1.925   1.515  0.00  0.00     0.018 C 
ENDBRANCH   1   8
TORSDOF 1
ENDMDL
