MODEL 1
REMARK minimizedAffinity 7.11500597
REMARK minimizedRMSD -1
REMARK  1 active torsions:
REMARK  status: ('A' for Active; 'I' for Inactive)
REMARK    1  A    between atoms: C1_2  and  C2_3 
ROOT
ATOM      1  C2  UNL d   1      -0.592   1.224   1.128  0.00  0.00    -0.076 A 
ATOM      2  C3  UNL d   1       0.424   0.608   0.377  0.00  0.00     0.004 A 
ATOM      3  C4  UNL d   1       1.767   0.897   0.614  0.00  0.00    -0.003 A 
ATOM      4  C5  UNL d   1       2.116   1.805   1.608  0.00  0.00     0.000 A 
ATOM      5  C6  UNL d   1       1.121   2.412   2.374  0.00  0.00     0.000 A 
ATOM      6  C7  UNL d   1      -0.236   2.120   2.158  0.00  0.00    -0.073 A 
ATOM      7  C8  UNL d   1      -1.267   2.808   3.011  0.00  0.00     0.078 C 
ENDROOT
BRANCH   1   8
ATOM      8  C1  UNL d   1      -2.032   0.892   0.807  0.00  0.00     0.053 C 
ATOM      9  C   UNL d   1      -2.423  -0.505   1.261  0.00  0.00     0.018 C 
ENDBRANCH   1   8
TORSDOF 1
ENDMDL
