MODEL 1
REMARK minimizedAffinity 4.24078751
REMARK minimizedRMSD -1
REMARK  1 active torsions:
REMARK  status: ('A' for Active; 'I' for Inactive)
REMARK    1  A    between atoms: C1_2  and  C2_3 
ROOT
ATOM      1  C2  UNL d   1       1.210   1.228   0.774  0.00  0.00    -0.076 A 
ATOM      2  C3  UNL d   1      -0.188   1.301   0.900  0.00  0.00     0.004 A 
ATOM      3  C4  UNL d   1      -0.779   2.065   1.905  0.00  0.00    -0.003 A 
ATOM      4  C5  UNL d   1       0.019   2.769   2.800  0.00  0.00     0.000 A 
ATOM      5  C6  UNL d   1       1.407   2.722   2.679  0.00  0.00     0.000 A 
ATOM      6  C7  UNL d   1       2.018   1.970   1.661  0.00  0.00    -0.073 A 
ATOM      7  C8  UNL d   1       3.520   1.950   1.581  0.00  0.00     0.078 C 
ENDROOT
BRANCH   1   8
ATOM      8  C1  UNL d   1       1.794   0.361  -0.318  0.00  0.00     0.053 C 
ATOM      9  C   UNL d   1       2.017   1.126  -1.613  0.00  0.00     0.018 C 
ENDBRANCH   1   8
TORSDOF 1
ENDMDL
