MODEL 1
REMARK minimizedAffinity 3.10966063
REMARK minimizedRMSD -1
REMARK  1 active torsions:
REMARK  status: ('A' for Active; 'I' for Inactive)
REMARK    1  A    between atoms: C1_2  and  C2_3 
ROOT
ATOM      1  C2  UNL d   1      -4.084   1.433  -3.230  0.00  0.00    -0.076 A 
ATOM      2  C3  UNL d   1      -3.287   0.452  -2.614  0.00  0.00     0.004 A 
ATOM      3  C4  UNL d   1      -3.451   0.137  -1.267  0.00  0.00    -0.003 A 
ATOM      4  C5  UNL d   1      -4.415   0.796  -0.512  0.00  0.00     0.000 A 
ATOM      5  C6  UNL d   1      -5.227   1.759  -1.111  0.00  0.00     0.000 A 
ATOM      6  C7  UNL d   1      -5.086   2.078  -2.473  0.00  0.00    -0.073 A 
ATOM      7  C8  UNL d   1      -5.984   3.129  -3.065  0.00  0.00     0.078 C 
ENDROOT
BRANCH   1   8
ATOM      8  C1  UNL d   1      -3.843   1.753  -4.688  0.00  0.00     0.053 C 
ATOM      9  C   UNL d   1      -3.240   3.134  -4.890  0.00  0.00     0.018 C 
ENDBRANCH   1   8
TORSDOF 1
ENDMDL
