MODEL 1
REMARK minimizedAffinity -0.0327390619
REMARK minimizedRMSD -1
REMARK  1 active torsions:
REMARK  status: ('A' for Active; 'I' for Inactive)
REMARK    1  A    between atoms: C1_2  and  C2_3 
ROOT
ATOM      1  C2  UNL d   1       1.171   2.019   1.519  0.00  0.00    -0.076 A 
ATOM      2  C3  UNL d   1       0.987   1.450   0.247  0.00  0.00     0.004 A 
ATOM      3  C4  UNL d   1      -0.278   1.061  -0.189  0.00  0.00    -0.003 A 
ATOM      4  C5  UNL d   1      -1.381   1.234   0.640  0.00  0.00     0.000 A 
ATOM      5  C6  UNL d   1      -1.220   1.814   1.898  0.00  0.00     0.000 A 
ATOM      6  C7  UNL d   1       0.046   2.227   2.347  0.00  0.00    -0.073 A 
ATOM      7  C8  UNL d   1       0.163   2.840   3.715  0.00  0.00     0.078 C 
ENDROOT
BRANCH   1   8
ATOM      8  C1  UNL d   1       2.570   2.398   1.948  0.00  0.00     0.053 C 
ATOM      9  C   UNL d   1       2.820   3.896   1.868  0.00  0.00     0.018 C 
ENDBRANCH   1   8
TORSDOF 1
ENDMDL
