MODEL 1
REMARK minimizedAffinity 2.344069
REMARK minimizedRMSD -1
REMARK  1 active torsions:
REMARK  status: ('A' for Active; 'I' for Inactive)
REMARK    1  A    between atoms: C1_2  and  C2_3 
ROOT
ATOM      1  C2  UNL d   1       1.286   2.711   2.266  0.00  0.00    -0.076 A 
ATOM      2  C3  UNL d   1       2.181   1.972   1.473  0.00  0.00     0.004 A 
ATOM      3  C4  UNL d   1       1.720   1.010   0.577  0.00  0.00    -0.003 A 
ATOM      4  C5  UNL d   1       0.355   0.771   0.458  0.00  0.00     0.000 A 
ATOM      5  C6  UNL d   1      -0.549   1.507   1.224  0.00  0.00     0.000 A 
ATOM      6  C7  UNL d   1      -0.101   2.492   2.121  0.00  0.00    -0.073 A 
ATOM      7  C8  UNL d   1      -1.119   3.252   2.926  0.00  0.00     0.078 C 
ENDROOT
BRANCH   1   8
ATOM      8  C1  UNL d   1       1.846   3.723   3.240  0.00  0.00     0.053 C 
ATOM      9  C   UNL d   1       2.859   4.655   2.594  0.00  0.00     0.018 C 
ENDBRANCH   1   8
TORSDOF 1
ENDMDL
