MODEL 1
REMARK minimizedAffinity 5.12242317
REMARK minimizedRMSD -1
REMARK  1 active torsions:
REMARK  status: ('A' for Active; 'I' for Inactive)
REMARK    1  A    between atoms: C1_2  and  C2_3 
ROOT
ATOM      1  C2  UNL d   1       0.706   2.102   1.349  0.00  0.00    -0.076 A 
ATOM      2  C3  UNL d   1      -0.642   1.737   1.504  0.00  0.00     0.004 A 
ATOM      3  C4  UNL d   1      -1.352   2.083   2.652  0.00  0.00    -0.003 A 
ATOM      4  C5  UNL d   1      -0.725   2.802   3.664  0.00  0.00     0.000 A 
ATOM      5  C6  UNL d   1       0.607   3.188   3.520  0.00  0.00     0.000 A 
ATOM      6  C7  UNL d   1       1.332   2.861   2.361  0.00  0.00    -0.073 A 
ATOM      7  C8  UNL d   1       2.768   3.298   2.261  0.00  0.00     0.078 C 
ENDROOT
BRANCH   1   8
ATOM      8  C1  UNL d   1       1.433   1.675   0.094  0.00  0.00     0.053 C 
ATOM      9  C   UNL d   1       2.137   0.336   0.255  0.00  0.00     0.018 C 
ENDBRANCH   1   8
TORSDOF 1
ENDMDL
