MODEL 1
REMARK minimizedAffinity 5.01689959
REMARK minimizedRMSD -1
REMARK  1 active torsions:
REMARK  status: ('A' for Active; 'I' for Inactive)
REMARK    1  A    between atoms: C1_2  and  C2_3 
ROOT
ATOM      1  C2  UNL d   1       1.486   2.541   2.197  0.00  0.00    -0.076 A 
ATOM      2  C3  UNL d   1       2.497   1.841   1.515  0.00  0.00     0.004 A 
ATOM      3  C4  UNL d   1       2.183   0.840   0.598  0.00  0.00    -0.003 A 
ATOM      4  C5  UNL d   1       0.853   0.523   0.346  0.00  0.00     0.000 A 
ATOM      5  C6  UNL d   1      -0.163   1.219   1.000  0.00  0.00     0.000 A 
ATOM      6  C7  UNL d   1       0.136   2.242   1.916  0.00  0.00    -0.073 A 
ATOM      7  C8  UNL d   1      -1.000   2.956   2.597  0.00  0.00     0.078 C 
ENDROOT
BRANCH   1   8
ATOM      8  C1  UNL d   1       1.887   3.598   3.201  0.00  0.00     0.053 C 
ATOM      9  C   UNL d   1       2.859   4.613   2.621  0.00  0.00     0.018 C 
ENDBRANCH   1   8
TORSDOF 1
ENDMDL
