MODEL 1
REMARK minimizedAffinity 8.65372086
REMARK minimizedRMSD -1
REMARK  1 active torsions:
REMARK  status: ('A' for Active; 'I' for Inactive)
REMARK    1  A    between atoms: C1_2  and  C2_3 
ROOT
ATOM      1  C2  UNL d   1      -0.259   1.470   1.164  0.00  0.00    -0.076 A 
ATOM      2  C3  UNL d   1       0.965   0.928   0.735  0.00  0.00     0.004 A 
ATOM      3  C4  UNL d   1       2.164   1.292   1.345  0.00  0.00    -0.003 A 
ATOM      4  C5  UNL d   1       2.159   2.203   2.394  0.00  0.00     0.000 A 
ATOM      5  C6  UNL d   1       0.953   2.738   2.845  0.00  0.00     0.000 A 
ATOM      6  C7  UNL d   1      -0.267   2.369   2.252  0.00  0.00    -0.073 A 
ATOM      7  C8  UNL d   1      -1.538   2.981   2.774  0.00  0.00     0.078 C 
ENDROOT
BRANCH   1   8
ATOM      8  C1  UNL d   1      -1.525   1.058   0.447  0.00  0.00     0.053 C 
ATOM      9  C   UNL d   1      -2.168  -0.175   1.062  0.00  0.00     0.018 C 
ENDBRANCH   1   8
TORSDOF 1
ENDMDL
