MODEL 1
REMARK minimizedAffinity 0.469614357
REMARK minimizedRMSD -1
REMARK  1 active torsions:
REMARK  status: ('A' for Active; 'I' for Inactive)
REMARK    1  A    between atoms: C3_4  and  O_7 
ROOT
ATOM      1  C   UNL d   1       3.553   1.689   0.083  0.00  0.00    -0.033 A 
ATOM      2  C1  UNL d   1       4.110   2.100  -1.130  0.00  0.00     0.039 A 
ATOM      3  C2  UNL d   1       3.281   2.444  -2.200  0.00  0.00    -0.080 A 
ATOM      4  C3  UNL d   1       1.900   2.373  -2.044  0.00  0.00     0.150 A 
ATOM      5  C4  UNL d   1       1.338   1.967  -0.838  0.00  0.00    -0.007 A 
ATOM      6  C5  UNL d   1       2.167   1.624   0.229  0.00  0.00     0.039 A 
ENDROOT
BRANCH   4   7
ATOM      7  O   UNL d   1       1.050   2.693  -3.061  0.00  0.00    -0.526 OA
ATOM      8  H5  UNL d   1       1.580   2.928  -3.842  0.00  0.00     0.418 HD
ENDBRANCH   4   7
TORSDOF 1
ENDMDL
