MODEL 1
REMARK minimizedAffinity -0.0160483997
REMARK minimizedRMSD -1
REMARK  1 active torsions:
REMARK  status: ('A' for Active; 'I' for Inactive)
REMARK    1  A    between atoms: C3_4  and  O_7 
ROOT
ATOM      1  C   UNL d   1      -2.769  -1.264   1.609  0.00  0.00    -0.033 A 
ATOM      2  C1  UNL d   1      -3.824  -0.881   2.439  0.00  0.00     0.039 A 
ATOM      3  C2  UNL d   1      -3.610   0.044   3.462  0.00  0.00    -0.080 A 
ATOM      4  C3  UNL d   1      -2.338   0.579   3.644  0.00  0.00     0.150 A 
ATOM      5  C4  UNL d   1      -1.283   0.206   2.819  0.00  0.00    -0.007 A 
ATOM      6  C5  UNL d   1      -1.498  -0.719   1.798  0.00  0.00     0.039 A 
ENDROOT
BRANCH   4   7
ATOM      7  O   UNL d   1      -2.079   1.482   4.633  0.00  0.00    -0.526 OA
ATOM      8  H5  UNL d   1      -2.895   1.624   5.141  0.00  0.00     0.418 HD
ENDBRANCH   4   7
TORSDOF 1
ENDMDL
