MODEL 1
REMARK minimizedAffinity 6.43542671
REMARK minimizedRMSD -1
REMARK  1 active torsions:
REMARK  status: ('A' for Active; 'I' for Inactive)
REMARK    1  A    between atoms: C3_4  and  O_7 
ROOT
ATOM      1  C   UNL d   1      -4.701  -4.762   6.000  0.00  0.00    -0.033 A 
ATOM      2  C1  UNL d   1      -4.602  -3.565   5.288  0.00  0.00     0.039 A 
ATOM      3  C2  UNL d   1      -4.542  -3.583   3.893  0.00  0.00    -0.080 A 
ATOM      4  C3  UNL d   1      -4.582  -4.803   3.223  0.00  0.00     0.150 A 
ATOM      5  C4  UNL d   1      -4.684  -5.999   3.926  0.00  0.00    -0.007 A 
ATOM      6  C5  UNL d   1      -4.743  -5.979   5.319  0.00  0.00     0.039 A 
ENDROOT
BRANCH   4   7
ATOM      7  O   UNL d   1      -4.522  -4.872   1.863  0.00  0.00    -0.526 OA
ATOM      8  H5  UNL d   1      -4.424  -3.970   1.514  0.00  0.00     0.418 HD
ENDBRANCH   4   7
TORSDOF 1
ENDMDL
