MODEL 1
REMARK minimizedAffinity 5.53501987
REMARK minimizedRMSD -1
REMARK  1 active torsions:
REMARK  status: ('A' for Active; 'I' for Inactive)
REMARK    1  A    between atoms: C3_4  and  O_7 
ROOT
ATOM      1  C   UNL d   1      -3.026  -1.349   0.600  0.00  0.00    -0.033 A 
ATOM      2  C1  UNL d   1      -3.924  -0.395   1.085  0.00  0.00     0.039 A 
ATOM      3  C2  UNL d   1      -3.599   0.361   2.212  0.00  0.00    -0.080 A 
ATOM      4  C3  UNL d   1      -2.375   0.156   2.844  0.00  0.00     0.150 A 
ATOM      5  C4  UNL d   1      -1.475  -0.790   2.364  0.00  0.00    -0.007 A 
ATOM      6  C5  UNL d   1      -1.802  -1.545   1.238  0.00  0.00     0.039 A 
ENDROOT
BRANCH   4   7
ATOM      7  O   UNL d   1      -2.016   0.867   3.950  0.00  0.00    -0.526 OA
ATOM      8  H5  UNL d   1      -2.747   1.462   4.184  0.00  0.00     0.418 HD
ENDBRANCH   4   7
TORSDOF 1
ENDMDL
