MODEL 1
REMARK minimizedAffinity 11.786829
REMARK minimizedRMSD -1
REMARK  1 active torsions:
REMARK  status: ('A' for Active; 'I' for Inactive)
REMARK    1  A    between atoms: C3_4  and  O_7 
ROOT
ATOM      1  C   UNL d   1       4.997   4.090  -2.236  0.00  0.00    -0.033 A 
ATOM      2  C1  UNL d   1       3.785   3.413  -2.383  0.00  0.00     0.039 A 
ATOM      3  C2  UNL d   1       3.376   2.975  -3.644  0.00  0.00    -0.080 A 
ATOM      4  C3  UNL d   1       4.188   3.219  -4.748  0.00  0.00     0.150 A 
ATOM      5  C4  UNL d   1       5.398   3.889  -4.609  0.00  0.00    -0.007 A 
ATOM      6  C5  UNL d   1       5.805   4.327  -3.349  0.00  0.00     0.039 A 
ENDROOT
BRANCH   4   7
ATOM      7  O   UNL d   1       3.828   2.814  -6.000  0.00  0.00    -0.526 OA
ATOM      8  H5  UNL d   1       2.955   2.391  -5.947  0.00  0.00     0.418 HD
ENDBRANCH   4   7
TORSDOF 1
ENDMDL
