MODEL 1
REMARK minimizedAffinity 15.8309784
REMARK minimizedRMSD -1
REMARK  1 active torsions:
REMARK  status: ('A' for Active; 'I' for Inactive)
REMARK    1  A    between atoms: C3_4  and  O_7 
ROOT
ATOM      1  C   UNL d   1      -1.235  -2.157   0.977  0.00  0.00    -0.033 A 
ATOM      2  C1  UNL d   1      -2.522  -1.630   0.851  0.00  0.00     0.039 A 
ATOM      3  C2  UNL d   1      -2.873  -0.467   1.539  0.00  0.00    -0.080 A 
ATOM      4  C3  UNL d   1      -1.928   0.160   2.348  0.00  0.00     0.150 A 
ATOM      5  C4  UNL d   1      -0.643  -0.358   2.475  0.00  0.00    -0.007 A 
ATOM      6  C5  UNL d   1      -0.296  -1.520   1.788  0.00  0.00     0.039 A 
ENDROOT
BRANCH   4   7
ATOM      7  O   UNL d   1      -2.226   1.294   3.043  0.00  0.00    -0.526 OA
ATOM      8  H5  UNL d   1      -3.157   1.519   2.882  0.00  0.00     0.418 HD
ENDBRANCH   4   7
TORSDOF 1
ENDMDL
