MODEL 1
REMARK minimizedAffinity 1.38158727
REMARK minimizedRMSD -1
REMARK  1 active torsions:
REMARK  status: ('A' for Active; 'I' for Inactive)
REMARK    1  A    between atoms: C3_4  and  O_7 
ROOT
ATOM      1  C   UNL d   1      -4.840   0.942   5.748  0.00  0.00    -0.033 A 
ATOM      2  C1  UNL d   1      -4.799  -0.433   5.987  0.00  0.00     0.039 A 
ATOM      3  C2  UNL d   1      -4.785  -1.329   4.916  0.00  0.00    -0.080 A 
ATOM      4  C3  UNL d   1      -4.811  -0.838   3.614  0.00  0.00     0.150 A 
ATOM      5  C4  UNL d   1      -4.848   0.530   3.368  0.00  0.00    -0.007 A 
ATOM      6  C5  UNL d   1      -4.863   1.424   4.439  0.00  0.00     0.039 A 
ENDROOT
BRANCH   4   7
ATOM      7  O   UNL d   1      -4.804  -1.674   2.537  0.00  0.00    -0.526 OA
ATOM      8  H5  UNL d   1      -4.806  -2.591   2.859  0.00  0.00     0.418 HD
ENDBRANCH   4   7
TORSDOF 1
ENDMDL
