MODEL 1
REMARK minimizedAffinity 7.44300079
REMARK minimizedRMSD -1
REMARK  1 active torsions:
REMARK  status: ('A' for Active; 'I' for Inactive)
REMARK    1  A    between atoms: C3_4  and  O_7 
ROOT
ATOM      1  C   UNL d   1      -0.203  -4.889  -4.511  0.00  0.00    -0.033 A 
ATOM      2  C1  UNL d   1      -0.806  -4.516  -3.309  0.00  0.00     0.039 A 
ATOM      3  C2  UNL d   1      -2.128  -4.883  -3.046  0.00  0.00    -0.080 A 
ATOM      4  C3  UNL d   1      -2.833  -5.622  -3.992  0.00  0.00     0.150 A 
ATOM      5  C4  UNL d   1      -2.237  -5.999  -5.190  0.00  0.00    -0.007 A 
ATOM      6  C5  UNL d   1      -0.918  -5.632  -5.452  0.00  0.00     0.039 A 
ENDROOT
BRANCH   4   7
ATOM      7  O   UNL d   1      -4.126  -5.999  -3.782  0.00  0.00    -0.526 OA
ATOM      8  H5  UNL d   1      -4.415  -5.643  -2.925  0.00  0.00     0.418 HD
ENDBRANCH   4   7
TORSDOF 1
ENDMDL
