MODEL 1
REMARK minimizedAffinity 8.14715099
REMARK minimizedRMSD -1
REMARK  1 active torsions:
REMARK  status: ('A' for Active; 'I' for Inactive)
REMARK    1  A    between atoms: C3_4  and  O_7 
ROOT
ATOM      1  C   UNL d   1      -5.824  -6.000   3.922  0.00  0.00    -0.033 A 
ATOM      2  C1  UNL d   1      -5.999  -5.650   2.582  0.00  0.00     0.039 A 
ATOM      3  C2  UNL d   1      -5.447  -4.467   2.089  0.00  0.00    -0.080 A 
ATOM      4  C3  UNL d   1      -4.720  -3.643   2.945  0.00  0.00     0.150 A 
ATOM      5  C4  UNL d   1      -4.538  -3.987   4.280  0.00  0.00    -0.007 A 
ATOM      6  C5  UNL d   1      -5.092  -5.169   4.771  0.00  0.00     0.039 A 
ENDROOT
BRANCH   4   7
ATOM      7  O   UNL d   1      -4.166  -2.476   2.511  0.00  0.00    -0.526 OA
ATOM      8  H5  UNL d   1      -4.398  -2.354   1.575  0.00  0.00     0.418 HD
ENDBRANCH   4   7
TORSDOF 1
ENDMDL
