MODEL 1
REMARK minimizedAffinity 2.68671966
REMARK minimizedRMSD -1
REMARK  1 active torsions:
REMARK  status: ('A' for Active; 'I' for Inactive)
REMARK    1  A    between atoms: C3_4  and  O_7 
ROOT
ATOM      1  C   UNL d   1      -2.305  -5.613  -5.002  0.00  0.00    -0.033 A 
ATOM      2  C1  UNL d   1      -1.916  -5.224  -3.719  0.00  0.00     0.039 A 
ATOM      3  C2  UNL d   1      -0.565  -5.223  -3.367  0.00  0.00    -0.080 A 
ATOM      4  C3  UNL d   1       0.386  -5.613  -4.306  0.00  0.00     0.150 A 
ATOM      5  C4  UNL d   1       0.006  -5.999  -5.588  0.00  0.00    -0.007 A 
ATOM      6  C5  UNL d   1      -1.344  -6.000  -5.937  0.00  0.00     0.039 A 
ENDROOT
BRANCH   4   7
ATOM      7  O   UNL d   1       1.716  -5.634  -4.008  0.00  0.00    -0.526 OA
ATOM      8  H5  UNL d   1       1.827  -5.371  -3.079  0.00  0.00     0.418 HD
ENDBRANCH   4   7
TORSDOF 1
ENDMDL
