MODEL 1
REMARK minimizedAffinity 8.71882057
REMARK minimizedRMSD -1
REMARK  1 active torsions:
REMARK  status: ('A' for Active; 'I' for Inactive)
REMARK    1  A    between atoms: C3_4  and  O_7 
ROOT
ATOM      1  C   UNL d   1      -2.150  -1.418   0.862  0.00  0.00    -0.033 A 
ATOM      2  C1  UNL d   1      -3.339  -0.774   1.208  0.00  0.00     0.039 A 
ATOM      3  C2  UNL d   1      -3.350   0.170   2.237  0.00  0.00    -0.080 A 
ATOM      4  C3  UNL d   1      -2.167   0.460   2.911  0.00  0.00     0.150 A 
ATOM      5  C4  UNL d   1      -0.977  -0.175   2.568  0.00  0.00    -0.007 A 
ATOM      6  C5  UNL d   1      -0.969  -1.118   1.541  0.00  0.00     0.039 A 
ENDROOT
BRANCH   4   7
ATOM      7  O   UNL d   1      -2.129   1.370   3.925  0.00  0.00    -0.526 OA
ATOM      8  H5  UNL d   1      -3.029   1.707   4.070  0.00  0.00     0.418 HD
ENDBRANCH   4   7
TORSDOF 1
ENDMDL
