MODEL 1
REMARK minimizedAffinity 9.02150631
REMARK minimizedRMSD -1
REMARK  1 active torsions:
REMARK  status: ('A' for Active; 'I' for Inactive)
REMARK    1  A    between atoms: C3_4  and  O_7 
ROOT
ATOM      1  C   UNL d   1      -4.944  -4.792   6.000  0.00  0.00    -0.033 A 
ATOM      2  C1  UNL d   1      -4.940  -3.582   5.303  0.00  0.00     0.039 A 
ATOM      3  C2  UNL d   1      -4.974  -3.578   3.907  0.00  0.00    -0.080 A 
ATOM      4  C3  UNL d   1      -5.013  -4.789   3.221  0.00  0.00     0.150 A 
ATOM      5  C4  UNL d   1      -5.022  -5.998   3.910  0.00  0.00    -0.007 A 
ATOM      6  C5  UNL d   1      -4.987  -6.000   5.303  0.00  0.00     0.039 A 
ENDROOT
BRANCH   4   7
ATOM      7  O   UNL d   1      -5.043  -4.836   1.859  0.00  0.00    -0.526 OA
ATOM      8  H5  UNL d   1      -5.003  -3.927   1.519  0.00  0.00     0.418 HD
ENDBRANCH   4   7
TORSDOF 1
ENDMDL
