MODEL 1
REMARK minimizedAffinity 6.45582199
REMARK minimizedRMSD -1
REMARK  1 active torsions:
REMARK  status: ('A' for Active; 'I' for Inactive)
REMARK    1  A    between atoms: C3_4  and  O_7 
ROOT
ATOM      1  C   UNL d   1      -2.842   1.022   3.278  0.00  0.00    -0.033 A 
ATOM      2  C1  UNL d   1      -3.779   0.505   2.380  0.00  0.00     0.039 A 
ATOM      3  C2  UNL d   1      -3.459  -0.605   1.596  0.00  0.00    -0.080 A 
ATOM      4  C3  UNL d   1      -2.201  -1.188   1.718  0.00  0.00     0.150 A 
ATOM      5  C4  UNL d   1      -1.264  -0.681   2.613  0.00  0.00    -0.007 A 
ATOM      6  C5  UNL d   1      -1.585   0.427   3.395  0.00  0.00     0.039 A 
ENDROOT
BRANCH   4   7
ATOM      7  O   UNL d   1      -1.841  -2.270   0.971  0.00  0.00    -0.526 OA
ATOM      8  H5  UNL d   1      -2.578  -2.492   0.377  0.00  0.00     0.418 HD
ENDBRANCH   4   7
TORSDOF 1
ENDMDL
