MODEL 1
REMARK minimizedAffinity 2.01360989
REMARK minimizedRMSD -1
REMARK  1 active torsions:
REMARK  status: ('A' for Active; 'I' for Inactive)
REMARK    1  A    between atoms: C3_4  and  O_7 
ROOT
ATOM      1  C   UNL d   1      -2.455  -5.243  -4.993  0.00  0.00    -0.033 A 
ATOM      2  C1  UNL d   1      -2.048  -4.478  -3.898  0.00  0.00     0.039 A 
ATOM      3  C2  UNL d   1      -0.708  -4.473  -3.506  0.00  0.00    -0.080 A 
ATOM      4  C3  UNL d   1       0.215  -5.234  -4.219  0.00  0.00     0.150 A 
ATOM      5  C4  UNL d   1      -0.182  -5.995  -5.313  0.00  0.00    -0.007 A 
ATOM      6  C5  UNL d   1      -1.521  -6.000  -5.702  0.00  0.00     0.039 A 
ENDROOT
BRANCH   4   7
ATOM      7  O   UNL d   1       1.533  -5.264  -3.872  0.00  0.00    -0.526 OA
ATOM      8  H5  UNL d   1       1.655  -4.714  -3.080  0.00  0.00     0.418 HD
ENDBRANCH   4   7
TORSDOF 1
ENDMDL
