MODEL 1
REMARK minimizedAffinity 0.703594148
REMARK minimizedRMSD -1
REMARK  1 active torsions:
REMARK  status: ('A' for Active; 'I' for Inactive)
REMARK    1  A    between atoms: C3_4  and  O_7 
ROOT
ATOM      1  C   UNL d   1      -2.024   1.371   4.710  0.00  0.00    -0.033 A 
ATOM      2  C1  UNL d   1      -1.412   0.603   5.703  0.00  0.00     0.039 A 
ATOM      3  C2  UNL d   1      -0.346  -0.239   5.378  0.00  0.00    -0.080 A 
ATOM      4  C3  UNL d   1       0.099  -0.302   4.061  0.00  0.00     0.150 A 
ATOM      5  C4  UNL d   1      -0.504   0.464   3.068  0.00  0.00    -0.007 A 
ATOM      6  C5  UNL d   1      -1.569   1.303   3.393  0.00  0.00     0.039 A 
ENDROOT
BRANCH   4   7
ATOM      7  O   UNL d   1       1.132  -1.112   3.695  0.00  0.00    -0.526 OA
ATOM      8  H5  UNL d   1       1.431  -1.602   4.479  0.00  0.00     0.418 HD
ENDBRANCH   4   7
TORSDOF 1
ENDMDL
