MODEL 1
REMARK minimizedAffinity 1.76897526
REMARK minimizedRMSD -1
REMARK  1 active torsions:
REMARK  status: ('A' for Active; 'I' for Inactive)
REMARK    1  A    between atoms: C3_4  and  O_7 
ROOT
ATOM      1  C   UNL d   1      -5.656  -4.085   5.999  0.00  0.00    -0.033 A 
ATOM      2  C1  UNL d   1      -5.362  -3.299   4.883  0.00  0.00     0.039 A 
ATOM      3  C2  UNL d   1      -5.378  -3.864   3.606  0.00  0.00    -0.080 A 
ATOM      4  C3  UNL d   1      -5.691  -5.212   3.459  0.00  0.00     0.150 A 
ATOM      5  C4  UNL d   1      -5.988  -6.000   4.566  0.00  0.00    -0.007 A 
ATOM      6  C5  UNL d   1      -5.971  -5.435   5.840  0.00  0.00     0.039 A 
ENDROOT
BRANCH   4   7
ATOM      7  O   UNL d   1      -5.715  -5.809   2.233  0.00  0.00    -0.526 OA
ATOM      8  H5  UNL d   1      -5.461  -5.150   1.565  0.00  0.00     0.418 HD
ENDBRANCH   4   7
TORSDOF 1
ENDMDL
