MODEL 1
REMARK minimizedAffinity 16.249258
REMARK minimizedRMSD -1
REMARK  1 active torsions:
REMARK  status: ('A' for Active; 'I' for Inactive)
REMARK    1  A    between atoms: C3_4  and  O_7 
ROOT
ATOM      1  C   UNL d   1       1.252   1.781  -1.432  0.00  0.00    -0.033 A 
ATOM      2  C1  UNL d   1       2.584   1.378  -1.318  0.00  0.00     0.039 A 
ATOM      3  C2  UNL d   1       3.505   1.718  -2.311  0.00  0.00    -0.080 A 
ATOM      4  C3  UNL d   1       3.083   2.460  -3.410  0.00  0.00     0.150 A 
ATOM      5  C4  UNL d   1       1.758   2.867  -3.528  0.00  0.00    -0.007 A 
ATOM      6  C5  UNL d   1       0.839   2.527  -2.536  0.00  0.00     0.039 A 
ENDROOT
BRANCH   4   7
ATOM      7  O   UNL d   1       3.944   2.811  -4.407  0.00  0.00    -0.526 OA
ATOM      8  H5  UNL d   1       4.818   2.436  -4.205  0.00  0.00     0.418 HD
ENDBRANCH   4   7
TORSDOF 1
ENDMDL
