MODEL 1
REMARK minimizedAffinity 7.61590385
REMARK minimizedRMSD -1
REMARK  1 active torsions:
REMARK  status: ('A' for Active; 'I' for Inactive)
REMARK    1  A    between atoms: C3_4  and  O_7 
ROOT
ATOM      1  C   UNL d   1      -5.808   1.265   1.157  0.00  0.00    -0.033 A 
ATOM      2  C1  UNL d   1      -5.622   1.978  -0.029  0.00  0.00     0.039 A 
ATOM      3  C2  UNL d   1      -5.622   1.309  -1.254  0.00  0.00    -0.080 A 
ATOM      4  C3  UNL d   1      -5.810  -0.070  -1.281  0.00  0.00     0.150 A 
ATOM      5  C4  UNL d   1      -5.999  -0.786  -0.103  0.00  0.00    -0.007 A 
ATOM      6  C5  UNL d   1      -5.998  -0.117   1.120  0.00  0.00     0.039 A 
ENDROOT
BRANCH   4   7
ATOM      7  O   UNL d   1      -5.813  -0.766  -2.453  0.00  0.00    -0.526 OA
ATOM      8  H5  UNL d   1      -5.642  -0.145  -3.180  0.00  0.00     0.418 HD
ENDBRANCH   4   7
TORSDOF 1
ENDMDL
