MODEL 1
REMARK minimizedAffinity -4.92692709
REMARK minimizedRMSD -1
REMARK  1 active torsions:
REMARK  status: ('A' for Active; 'I' for Inactive)
REMARK    1  A    between atoms: C1_2  and  C2_3 
ROOT
ATOM      1  C2  UNL d   1       0.776  -1.640   0.233  0.00  0.00    -0.081 A 
ATOM      2  C3  UNL d   1       0.406  -0.350  -0.165  0.00  0.00     0.006 A 
ATOM      3  C4  UNL d   1      -0.637   0.318   0.481  0.00  0.00     0.002 A 
ATOM      4  C5  UNL d   1      -1.321  -0.289   1.539  0.00  0.00    -0.080 A 
ATOM      5  C6  UNL d   1      -2.422   0.430   2.261  0.00  0.00     0.076 C 
ATOM      6  C7  UNL d   1      -0.963  -1.585   1.925  0.00  0.00     0.002 A 
ATOM      7  C8  UNL d   1       0.079  -2.254   1.280  0.00  0.00     0.006 A 
ENDROOT
BRANCH   1   8
ATOM      8  C1  UNL d   1       1.943  -2.338  -0.419  0.00  0.00     0.054 C 
ATOM      9  C   UNL d   1       3.251  -2.002   0.282  0.00  0.00     0.018 C 
ENDBRANCH   1   8
TORSDOF 1
ENDMDL
