MODEL 1
REMARK minimizedAffinity -1.70415211
REMARK minimizedRMSD -1
REMARK  0 active torsions:
REMARK  status: ('A' for Active; 'I' for Inactive)
ROOT
ATOM      1  N1  IND d   1       0.224   1.368   0.006  0.00  0.00    -0.196 N 
ATOM      2  C2  IND d   1      -1.017   0.850  -0.240  0.00  0.00     0.054 A 
ATOM      3  C3  IND d   1      -0.937  -0.482  -0.456  0.00  0.00    -0.031 A 
ATOM      4  C4  IND d   1       1.114  -2.035  -0.354  0.00  0.00     0.051 A 
ATOM      5  C5  IND d   1       2.472  -2.017  -0.201  0.00  0.00    -0.031 A 
ATOM      6  C6  IND d   1       3.164  -0.846   0.036  0.00  0.00     0.015 A 
ATOM      7  C7  IND d   1       2.519   0.353   0.141  0.00  0.00    -0.016 A 
ATOM      8  C8  IND d   1       1.141   0.340  -0.021  0.00  0.00    -0.047 A 
ATOM      9  C9  IND d   1       0.438  -0.839  -0.304  0.00  0.00    -0.096 A 
ATOM     10  HN1 IND d   1       0.402   2.196   0.152  0.00  0.00     0.298 HD
ENDROOT
TORSDOF 0
ENDMDL
