MODEL 1
REMARK minimizedAffinity -3.22107029
REMARK minimizedRMSD -1
REMARK  0 active torsions:
REMARK  status: ('A' for Active; 'I' for Inactive)
ROOT
ATOM      1  N1  IND d   1       2.439  -0.156   0.720  0.00  0.00    -0.196 N 
ATOM      2  C2  IND d   1       2.793  -1.476   0.693  0.00  0.00     0.054 A 
ATOM      3  C3  IND d   1       1.745  -2.236   0.303  0.00  0.00    -0.031 A 
ATOM      4  C4  IND d   1      -0.613  -1.515  -0.437  0.00  0.00     0.051 A 
ATOM      5  C5  IND d   1      -1.419  -0.417  -0.545  0.00  0.00    -0.031 A 
ATOM      6  C6  IND d   1      -0.971   0.851  -0.233  0.00  0.00     0.015 A 
ATOM      7  C7  IND d   1       0.310   1.069   0.190  0.00  0.00    -0.016 A 
ATOM      8  C8  IND d   1       1.130  -0.045   0.307  0.00  0.00    -0.047 A 
ATOM      9  C9  IND d   1       0.667  -1.338   0.032  0.00  0.00    -0.096 A 
ATOM     10  HN1 IND d   1       2.949   0.495   0.955  0.00  0.00     0.298 HD
ENDROOT
TORSDOF 0
ENDMDL
