MODEL 1
REMARK minimizedAffinity -4.87922287
REMARK minimizedRMSD -1
REMARK  0 active torsions:
REMARK  status: ('A' for Active; 'I' for Inactive)
ROOT
ATOM      1  N1  IND d   1      -1.989   0.939   2.042  0.00  0.00    -0.196 N 
ATOM      2  C2  IND d   1      -2.977   1.797   1.647  0.00  0.00     0.054 A 
ATOM      3  C3  IND d   1      -2.981   1.921   0.301  0.00  0.00    -0.031 A 
ATOM      4  C4  IND d   1      -1.522   0.732  -1.456  0.00  0.00     0.051 A 
ATOM      5  C5  IND d   1      -0.456  -0.115  -1.576  0.00  0.00    -0.031 A 
ATOM      6  C6  IND d   1       0.164  -0.667  -0.474  0.00  0.00     0.015 A 
ATOM      7  C7  IND d   1      -0.268  -0.400   0.794  0.00  0.00    -0.016 A 
ATOM      8  C8  IND d   1      -1.345   0.465   0.921  0.00  0.00    -0.047 A 
ATOM      9  C9  IND d   1      -1.952   1.062  -0.192  0.00  0.00    -0.096 A 
ATOM     10  HN1 IND d   1      -1.801   0.731   2.855  0.00  0.00     0.298 HD
ENDROOT
TORSDOF 0
ENDMDL
