MODEL 1
REMARK minimizedAffinity -3.97488952
REMARK minimizedRMSD -1
REMARK  0 active torsions:
REMARK  status: ('A' for Active; 'I' for Inactive)
ROOT
ATOM      1  N1  IND d   1      -0.849  -0.313  -1.314  0.00  0.00    -0.196 N 
ATOM      2  C2  IND d   1      -1.241   0.979  -1.101  0.00  0.00     0.054 A 
ATOM      3  C3  IND d   1      -0.423   1.577  -0.207  0.00  0.00    -0.031 A 
ATOM      4  C4  IND d   1       1.681   0.656   0.957  0.00  0.00     0.051 A 
ATOM      5  C5  IND d   1       2.416  -0.486   1.107  0.00  0.00    -0.031 A 
ATOM      6  C6  IND d   1       2.095  -1.652   0.443  0.00  0.00     0.015 A 
ATOM      7  C7  IND d   1       1.029  -1.716  -0.410  0.00  0.00    -0.016 A 
ATOM      8  C8  IND d   1       0.277  -0.560  -0.560  0.00  0.00    -0.047 A 
ATOM      9  C9  IND d   1       0.572   0.614   0.145  0.00  0.00    -0.096 A 
ATOM     10  HN1 IND d   1      -1.240  -0.877  -1.833  0.00  0.00     0.298 HD
ENDROOT
TORSDOF 0
ENDMDL
