MODEL 1
REMARK minimizedAffinity -5.3082099
REMARK minimizedRMSD -1
REMARK  0 active torsions:
REMARK  status: ('A' for Active; 'I' for Inactive)
ROOT
ATOM      1  N1  IND d   1      -0.239   1.011  -0.555  0.00  0.00    -0.196 N 
ATOM      2  C2  IND d   1      -0.797  -0.218  -0.772  0.00  0.00     0.054 A 
ATOM      3  C3  IND d   1       0.155  -1.178  -0.744  0.00  0.00    -0.031 A 
ATOM      4  C4  IND d   1       2.674  -0.970  -0.256  0.00  0.00     0.051 A 
ATOM      5  C5  IND d   1       3.656  -0.045  -0.035  0.00  0.00    -0.031 A 
ATOM      6  C6  IND d   1       3.383   1.306   0.028  0.00  0.00     0.015 A 
ATOM      7  C7  IND d   1       2.112   1.784  -0.117  0.00  0.00    -0.016 A 
ATOM      8  C8  IND d   1       1.114   0.848  -0.349  0.00  0.00    -0.047 A 
ATOM      9  C9  IND d   1       1.390  -0.521  -0.456  0.00  0.00    -0.096 A 
ATOM     10  HN1 IND d   1      -0.662   1.760  -0.548  0.00  0.00     0.298 HD
ENDROOT
TORSDOF 0
ENDMDL
