MODEL 1
REMARK minimizedAffinity -4.60394239
REMARK minimizedRMSD -1
REMARK  0 active torsions:
REMARK  status: ('A' for Active; 'I' for Inactive)
ROOT
ATOM      1  N1  IND d   1      -0.311   0.876  -0.400  0.00  0.00    -0.196 N 
ATOM      2  C2  IND d   1      -1.105  -0.232  -0.500  0.00  0.00     0.054 A 
ATOM      3  C3  IND d   1      -0.366  -1.355  -0.355  0.00  0.00    -0.031 A 
ATOM      4  C4  IND d   1       2.144  -1.607   0.156  0.00  0.00     0.051 A 
ATOM      5  C5  IND d   1       3.293  -0.879   0.299  0.00  0.00    -0.031 A 
ATOM      6  C6  IND d   1       3.298   0.498   0.217  0.00  0.00     0.015 A 
ATOM      7  C7  IND d   1       2.149   1.203  -0.000  0.00  0.00    -0.016 A 
ATOM      8  C8  IND d   1       0.982   0.468  -0.153  0.00  0.00    -0.047 A 
ATOM      9  C9  IND d   1       0.977  -0.932  -0.113  0.00  0.00    -0.096 A 
ATOM     10  HN1 IND d   1      -0.574   1.691  -0.479  0.00  0.00     0.298 HD
ENDROOT
TORSDOF 0
ENDMDL
