MODEL 1
REMARK minimizedAffinity -3.11206889
REMARK minimizedRMSD -1
REMARK  0 active torsions:
REMARK  status: ('A' for Active; 'I' for Inactive)
ROOT
ATOM      1  N1  IND d   1      -0.877   1.965  -0.372  0.00  0.00    -0.196 N 
ATOM      2  C2  IND d   1      -1.826   1.025  -0.662  0.00  0.00     0.054 A 
ATOM      3  C3  IND d   1      -1.298  -0.217  -0.577  0.00  0.00    -0.031 A 
ATOM      4  C4  IND d   1       1.071  -0.944   0.121  0.00  0.00     0.051 A 
ATOM      5  C5  IND d   1       2.301  -0.442   0.442  0.00  0.00    -0.031 A 
ATOM      6  C6  IND d   1       2.538   0.916   0.513  0.00  0.00     0.015 A 
ATOM      7  C7  IND d   1       1.547   1.826   0.275  0.00  0.00    -0.016 A 
ATOM      8  C8  IND d   1       0.299   1.320  -0.059  0.00  0.00    -0.047 A 
ATOM      9  C9  IND d   1       0.063  -0.056  -0.174  0.00  0.00    -0.096 A 
ATOM     10  HN1 IND d   1      -0.995   2.817  -0.383  0.00  0.00     0.298 HD
ENDROOT
TORSDOF 0
ENDMDL
