MODEL 1
REMARK minimizedAffinity -5.06868267
REMARK minimizedRMSD -1
REMARK  1 active torsions:
REMARK  status: ('A' for Active; 'I' for Inactive)
REMARK    1  A    between atoms: C3_4  and  O_7 
ROOT
ATOM      1  C   UNL d   1       0.914  -0.783   2.367  0.00  0.00    -0.033 A 
ATOM      2  C1  UNL d   1      -0.419  -0.403   2.197  0.00  0.00     0.039 A 
ATOM      3  C2  UNL d   1      -0.884  -0.031   0.934  0.00  0.00    -0.080 A 
ATOM      4  C3  UNL d   1      -0.009  -0.044  -0.148  0.00  0.00     0.150 A 
ATOM      5  C4  UNL d   1       1.319  -0.425   0.014  0.00  0.00    -0.007 A 
ATOM      6  C5  UNL d   1       1.783  -0.795   1.275  0.00  0.00     0.039 A 
ENDROOT
BRANCH   4   7
ATOM      7  O   UNL d   1      -0.416   0.315  -1.399  0.00  0.00    -0.526 OA
ATOM      8  H5  UNL d   1      -1.350   0.581  -1.354  0.00  0.00     0.418 HD
ENDBRANCH   4   7
TORSDOF 1
ENDMDL
