MODEL 1
REMARK minimizedAffinity -3.70732999
REMARK minimizedRMSD -1
REMARK  1 active torsions:
REMARK  status: ('A' for Active; 'I' for Inactive)
REMARK    1  A    between atoms: C3_4  and  O_7 
ROOT
ATOM      1  C   UNL d   1      -1.756   3.732  -2.610  0.00  0.00    -0.033 A 
ATOM      2  C1  UNL d   1      -2.369   2.642  -3.232  0.00  0.00     0.039 A 
ATOM      3  C2  UNL d   1      -1.907   1.347  -2.990  0.00  0.00    -0.080 A 
ATOM      4  C3  UNL d   1      -0.834   1.155  -2.124  0.00  0.00     0.150 A 
ATOM      5  C4  UNL d   1      -0.221   2.236  -1.498  0.00  0.00    -0.007 A 
ATOM      6  C5  UNL d   1      -0.683   3.528  -1.742  0.00  0.00     0.039 A 
ENDROOT
BRANCH   4   7
ATOM      7  O   UNL d   1      -0.345  -0.090  -1.861  0.00  0.00    -0.526 OA
ATOM      8  H5  UNL d   1      -0.848  -0.735  -2.385  0.00  0.00     0.418 HD
ENDBRANCH   4   7
TORSDOF 1
ENDMDL
