MODEL 1
REMARK minimizedAffinity -3.63195896
REMARK minimizedRMSD -1
REMARK  1 active torsions:
REMARK  status: ('A' for Active; 'I' for Inactive)
REMARK    1  A    between atoms: C3_4  and  O_7 
ROOT
ATOM      1  C   UNL d   1      -1.111   0.075   1.420  0.00  0.00    -0.033 A 
ATOM      2  C1  UNL d   1      -0.058  -0.600   2.041  0.00  0.00     0.039 A 
ATOM      3  C2  UNL d   1       1.025  -1.055   1.286  0.00  0.00    -0.080 A 
ATOM      4  C3  UNL d   1       1.043  -0.828  -0.088  0.00  0.00     0.150 A 
ATOM      5  C4  UNL d   1      -0.001  -0.153  -0.712  0.00  0.00    -0.007 A 
ATOM      6  C5  UNL d   1      -1.081   0.299   0.044  0.00  0.00     0.039 A 
ENDROOT
BRANCH   4   7
ATOM      7  O   UNL d   1       2.075  -1.257  -0.867  0.00  0.00    -0.526 OA
ATOM      8  H5  UNL d   1       2.709  -1.732  -0.305  0.00  0.00     0.418 HD
ENDBRANCH   4   7
TORSDOF 1
ENDMDL
