MODEL 1
REMARK minimizedAffinity -4.47587681
REMARK minimizedRMSD -1
REMARK  1 active torsions:
REMARK  status: ('A' for Active; 'I' for Inactive)
REMARK    1  A    between atoms: C3_4  and  O_7 
ROOT
ATOM      1  C   UNL d   1       1.149  -0.679   0.635  0.00  0.00    -0.033 A 
ATOM      2  C1  UNL d   1       0.697   0.624   0.852  0.00  0.00     0.039 A 
ATOM      3  C2  UNL d   1      -0.220   1.202  -0.027  0.00  0.00    -0.080 A 
ATOM      4  C3  UNL d   1      -0.678   0.468  -1.118  0.00  0.00     0.150 A 
ATOM      5  C4  UNL d   1      -0.236  -0.832  -1.338  0.00  0.00    -0.007 A 
ATOM      6  C5  UNL d   1       0.681  -1.408  -0.460  0.00  0.00     0.039 A 
ENDROOT
BRANCH   4   7
ATOM      7  O   UNL d   1      -1.570   0.992  -2.006  0.00  0.00    -0.526 OA
ATOM      8  H5  UNL d   1      -1.765   1.907  -1.743  0.00  0.00     0.418 HD
ENDBRANCH   4   7
TORSDOF 1
ENDMDL
