MODEL 1
REMARK minimizedAffinity -4.41996002
REMARK minimizedRMSD -1
REMARK  1 active torsions:
REMARK  status: ('A' for Active; 'I' for Inactive)
REMARK    1  A    between atoms: C3_4  and  O_7 
ROOT
ATOM      1  C   UNL d   1       1.670  -1.839   1.722  0.00  0.00    -0.033 A 
ATOM      2  C1  UNL d   1       0.567  -1.063   2.084  0.00  0.00     0.039 A 
ATOM      3  C2  UNL d   1      -0.077  -0.273   1.129  0.00  0.00    -0.080 A 
ATOM      4  C3  UNL d   1       0.390  -0.269  -0.182  0.00  0.00     0.150 A 
ATOM      5  C4  UNL d   1       1.486  -1.042  -0.551  0.00  0.00    -0.007 A 
ATOM      6  C5  UNL d   1       2.129  -1.829   0.404  0.00  0.00     0.039 A 
ENDROOT
BRANCH   4   7
ATOM      7  O   UNL d   1      -0.203   0.489  -1.147  0.00  0.00    -0.526 OA
ATOM      8  H5  UNL d   1      -0.928   0.992  -0.741  0.00  0.00     0.418 HD
ENDBRANCH   4   7
TORSDOF 1
ENDMDL
