MODEL 1
REMARK minimizedAffinity 0.0440649875
REMARK minimizedRMSD -1
REMARK  1 active torsions:
REMARK  status: ('A' for Active; 'I' for Inactive)
REMARK    1  A    between atoms: C3_4  and  O_7 
ROOT
ATOM      1  C   UNL d   1       0.608   0.151  -1.314  0.00  0.00    -0.033 A 
ATOM      2  C1  UNL d   1       1.734  -0.610  -0.993  0.00  0.00     0.039 A 
ATOM      3  C2  UNL d   1       1.945  -1.026   0.323  0.00  0.00    -0.080 A 
ATOM      4  C3  UNL d   1       1.023  -0.677   1.306  0.00  0.00     0.150 A 
ATOM      5  C4  UNL d   1      -0.103   0.076   0.992  0.00  0.00    -0.007 A 
ATOM      6  C5  UNL d   1      -0.312   0.492  -0.322  0.00  0.00     0.039 A 
ENDROOT
BRANCH   4   7
ATOM      7  O   UNL d   1       1.188  -1.057   2.605  0.00  0.00    -0.526 OA
ATOM      8  H5  UNL d   1       2.024  -1.547   2.678  0.00  0.00     0.418 HD
ENDBRANCH   4   7
TORSDOF 1
ENDMDL
