MODEL 1
REMARK minimizedAffinity -2.86834955
REMARK minimizedRMSD -1
REMARK  1 active torsions:
REMARK  status: ('A' for Active; 'I' for Inactive)
REMARK    1  A    between atoms: C3_4  and  O_7 
ROOT
ATOM      1  C   UNL d   1      -0.329   0.750  -0.720  0.00  0.00    -0.033 A 
ATOM      2  C1  UNL d   1       0.576  -0.309  -0.628  0.00  0.00     0.039 A 
ATOM      3  C2  UNL d   1       0.670  -1.049   0.552  0.00  0.00    -0.080 A 
ATOM      4  C3  UNL d   1      -0.145  -0.720   1.632  0.00  0.00     0.150 A 
ATOM      5  C4  UNL d   1      -1.052   0.332   1.546  0.00  0.00    -0.007 A 
ATOM      6  C5  UNL d   1      -1.144   1.070   0.366  0.00  0.00     0.039 A 
ENDROOT
BRANCH   4   7
ATOM      7  O   UNL d   1      -0.086  -1.410   2.806  0.00  0.00    -0.526 OA
ATOM      8  H5  UNL d   1       0.605  -2.089   2.729  0.00  0.00     0.418 HD
ENDBRANCH   4   7
TORSDOF 1
ENDMDL
