MODEL 1
REMARK minimizedAffinity -3.68463969
REMARK minimizedRMSD -1
REMARK  1 active torsions:
REMARK  status: ('A' for Active; 'I' for Inactive)
REMARK    1  A    between atoms: C3_4  and  O_7 
ROOT
ATOM      1  C   UNL d   1       0.241  -0.835   1.219  0.00  0.00    -0.033 A 
ATOM      2  C1  UNL d   1      -1.076  -0.381   1.129  0.00  0.00     0.039 A 
ATOM      3  C2  UNL d   1      -1.483   0.369   0.024  0.00  0.00    -0.080 A 
ATOM      4  C3  UNL d   1      -0.565   0.656  -0.983  0.00  0.00     0.150 A 
ATOM      5  C4  UNL d   1       0.747   0.203  -0.902  0.00  0.00    -0.007 A 
ATOM      6  C5  UNL d   1       1.152  -0.545   0.203  0.00  0.00     0.039 A 
ENDROOT
BRANCH   4   7
ATOM      7  O   UNL d   1      -0.915   1.389  -2.078  0.00  0.00    -0.526 OA
ATOM      8  H5  UNL d   1      -1.844   1.658  -1.985  0.00  0.00     0.418 HD
ENDBRANCH   4   7
TORSDOF 1
ENDMDL
