MODEL 1
REMARK minimizedAffinity -2.36770248
REMARK minimizedRMSD -1
REMARK  2 active torsions:
REMARK  status: ('A' for Active; 'I' for Inactive)
REMARK    1  A    between atoms: C1_2  and  C2_3 
REMARK    2  A    between atoms: C2_3  and  C3_4 
ROOT
ATOM      1  C3  UNL d   1       4.586  -4.472   2.733  0.00  0.00    -0.075 A 
ATOM      2  C4  UNL d   1       3.429  -3.825   2.275  0.00  0.00     0.002 A 
ATOM      3  C5  UNL d   1       3.139  -3.773   0.911  0.00  0.00     0.002 A 
ATOM      4  C6  UNL d   1       4.005  -4.356  -0.011  0.00  0.00    -0.004 A 
ATOM      5  C7  UNL d   1       5.166  -4.986   0.432  0.00  0.00     0.002 A 
ATOM      6  C8  UNL d   1       5.457  -5.044   1.796  0.00  0.00     0.002 A 
ENDROOT
BRANCH   1   7
ATOM      7  C2  UNL d   1       4.890  -4.558   4.210  0.00  0.00     0.056 C 
BRANCH   7   8
ATOM      8  C1  UNL d   1       4.834  -3.210   4.937  0.00  0.00     0.007 C 
ATOM      9  C   UNL d   1       5.994  -2.999   5.900  0.00  0.00     0.009 C 
ENDBRANCH   7   8
ENDBRANCH   1   7
TORSDOF 2
ENDMDL
