MODEL 1
REMARK minimizedAffinity 1.21337688
REMARK minimizedRMSD -1
REMARK  2 active torsions:
REMARK  status: ('A' for Active; 'I' for Inactive)
REMARK    1  A    between atoms: C1_2  and  C2_3 
REMARK    2  A    between atoms: C2_3  and  C3_4 
ROOT
ATOM      1  C3  UNL d   1       4.951   2.814  -5.251  0.00  0.00    -0.075 A 
ATOM      2  C4  UNL d   1       5.679   1.862  -5.981  0.00  0.00     0.002 A 
ATOM      3  C5  UNL d   1       6.000   0.629  -5.413  0.00  0.00     0.002 A 
ATOM      4  C6  UNL d   1       5.608   0.336  -4.109  0.00  0.00    -0.004 A 
ATOM      5  C7  UNL d   1       4.899   1.280  -3.369  0.00  0.00     0.002 A 
ATOM      6  C8  UNL d   1       4.573   2.513  -3.936  0.00  0.00     0.002 A 
ENDROOT
BRANCH   1   7
ATOM      7  C2  UNL d   1       4.575   4.139  -5.870  0.00  0.00     0.056 C 
BRANCH   7   8
ATOM      8  C1  UNL d   1       3.086   4.482  -5.752  0.00  0.00     0.007 C 
ATOM      9  C   UNL d   1       2.823   5.976  -5.617  0.00  0.00     0.009 C 
ENDBRANCH   7   8
ENDBRANCH   1   7
TORSDOF 2
ENDMDL
