MODEL 1
REMARK minimizedAffinity 4.1880517
REMARK minimizedRMSD -1
REMARK  2 active torsions:
REMARK  status: ('A' for Active; 'I' for Inactive)
REMARK    1  A    between atoms: C1_2  and  C2_3 
REMARK    2  A    between atoms: C2_3  and  C3_4 
ROOT
ATOM      1  C3  UNL d   1       2.984  -3.486   1.129  0.00  0.00    -0.075 A 
ATOM      2  C4  UNL d   1       1.659  -3.679   1.547  0.00  0.00     0.002 A 
ATOM      3  C5  UNL d   1       0.670  -2.753   1.216  0.00  0.00     0.002 A 
ATOM      4  C6  UNL d   1       0.993  -1.620   0.473  0.00  0.00    -0.004 A 
ATOM      5  C7  UNL d   1       2.309  -1.409   0.067  0.00  0.00     0.002 A 
ATOM      6  C8  UNL d   1       3.300  -2.337   0.393  0.00  0.00     0.002 A 
ENDROOT
BRANCH   1   7
ATOM      7  C2  UNL d   1       4.054  -4.500   1.458  0.00  0.00     0.056 C 
BRANCH   7   8
ATOM      8  C1  UNL d   1       5.358  -4.307   0.678  0.00  0.00     0.007 C 
ATOM      9  C   UNL d   1       5.999  -5.618   0.244  0.00  0.00     0.009 C 
ENDBRANCH   7   8
ENDBRANCH   1   7
TORSDOF 2
ENDMDL
