MODEL 1
REMARK minimizedAffinity 4.70095205
REMARK minimizedRMSD -1
REMARK  2 active torsions:
REMARK  status: ('A' for Active; 'I' for Inactive)
REMARK    1  A    between atoms: C1_2  and  C2_3 
REMARK    2  A    between atoms: C2_3  and  C3_4 
ROOT
ATOM      1  C3  UNL d   1      -3.523   0.344  -5.391  0.00  0.00    -0.075 A 
ATOM      2  C4  UNL d   1      -3.144   1.652  -5.056  0.00  0.00     0.002 A 
ATOM      3  C5  UNL d   1      -4.094   2.673  -5.003  0.00  0.00     0.002 A 
ATOM      4  C6  UNL d   1      -5.429   2.402  -5.294  0.00  0.00    -0.004 A 
ATOM      5  C7  UNL d   1      -5.814   1.110  -5.644  0.00  0.00     0.002 A 
ATOM      6  C8  UNL d   1      -4.866   0.086  -5.693  0.00  0.00     0.002 A 
ENDROOT
BRANCH   1   7
ATOM      7  C2  UNL d   1      -2.505  -0.771  -5.421  0.00  0.00     0.056 C 
BRANCH   7   8
ATOM      8  C1  UNL d   1      -2.382  -1.539  -4.100  0.00  0.00     0.007 C 
ATOM      9  C   UNL d   1      -2.588  -0.661  -2.873  0.00  0.00     0.009 C 
ENDBRANCH   7   8
ENDBRANCH   1   7
TORSDOF 2
ENDMDL
