MODEL 1
REMARK minimizedAffinity 3.53950739
REMARK minimizedRMSD -1
REMARK  2 active torsions:
REMARK  status: ('A' for Active; 'I' for Inactive)
REMARK    1  A    between atoms: C1_2  and  C2_3 
REMARK    2  A    between atoms: C2_3  and  C3_4 
ROOT
ATOM      1  C3  UNL d   1      -3.777   0.388  -4.716  0.00  0.00    -0.075 A 
ATOM      2  C4  UNL d   1      -4.075  -0.613  -5.651  0.00  0.00     0.002 A 
ATOM      3  C5  UNL d   1      -4.486  -1.878  -5.228  0.00  0.00     0.002 A 
ATOM      4  C6  UNL d   1      -4.595  -2.160  -3.868  0.00  0.00    -0.004 A 
ATOM      5  C7  UNL d   1      -4.286  -1.177  -2.930  0.00  0.00     0.002 A 
ATOM      6  C8  UNL d   1      -3.878   0.090  -3.350  0.00  0.00     0.002 A 
ENDROOT
BRANCH   1   7
ATOM      7  C2  UNL d   1      -3.359   1.767  -5.167  0.00  0.00     0.056 C 
BRANCH   7   8
ATOM      8  C1  UNL d   1      -3.831   2.895  -4.244  0.00  0.00     0.007 C 
ATOM      9  C   UNL d   1      -2.696   3.550  -3.468  0.00  0.00     0.009 C 
ENDBRANCH   7   8
ENDBRANCH   1   7
TORSDOF 2
ENDMDL
