MODEL 1
REMARK minimizedAffinity 1.84762859
REMARK minimizedRMSD -1
REMARK  2 active torsions:
REMARK  status: ('A' for Active; 'I' for Inactive)
REMARK    1  A    between atoms: C1_2  and  C2_3 
REMARK    2  A    between atoms: C2_3  and  C3_4 
ROOT
ATOM      1  C3  UNL d   1      -4.962   0.213  -4.950  0.00  0.00    -0.075 A 
ATOM      2  C4  UNL d   1      -5.045  -0.501  -3.746  0.00  0.00     0.002 A 
ATOM      3  C5  UNL d   1      -4.117  -1.499  -3.449  0.00  0.00     0.002 A 
ATOM      4  C6  UNL d   1      -3.102  -1.803  -4.354  0.00  0.00    -0.004 A 
ATOM      5  C7  UNL d   1      -3.020  -1.111  -5.560  0.00  0.00     0.002 A 
ATOM      6  C8  UNL d   1      -3.945  -0.109  -5.858  0.00  0.00     0.002 A 
ENDROOT
BRANCH   1   7
ATOM      7  C2  UNL d   1      -5.946   1.314  -5.264  0.00  0.00     0.056 C 
BRANCH   7   8
ATOM      8  C1  UNL d   1      -5.328   2.515  -5.989  0.00  0.00     0.007 C 
ATOM      9  C   UNL d   1      -5.991   3.839  -5.631  0.00  0.00     0.009 C 
ENDBRANCH   7   8
ENDBRANCH   1   7
TORSDOF 2
ENDMDL
