MODEL 1
REMARK minimizedAffinity -0.0277164076
REMARK minimizedRMSD -1
REMARK  2 active torsions:
REMARK  status: ('A' for Active; 'I' for Inactive)
REMARK    1  A    between atoms: C1_2  and  C2_3 
REMARK    2  A    between atoms: C2_3  and  C3_4 
ROOT
ATOM      1  C3  UNL d   1      -3.398  -0.908  -4.411  0.00  0.00    -0.075 A 
ATOM      2  C4  UNL d   1      -4.064  -0.978  -3.179  0.00  0.00     0.002 A 
ATOM      3  C5  UNL d   1      -5.309  -0.372  -3.012  0.00  0.00     0.002 A 
ATOM      4  C6  UNL d   1      -5.899   0.318  -4.068  0.00  0.00    -0.004 A 
ATOM      5  C7  UNL d   1      -5.239   0.408  -5.292  0.00  0.00     0.002 A 
ATOM      6  C8  UNL d   1      -3.995  -0.201  -5.464  0.00  0.00     0.002 A 
ENDROOT
BRANCH   1   7
ATOM      7  C2  UNL d   1      -2.063  -1.586  -4.608  0.00  0.00     0.056 C 
BRANCH   7   8
ATOM      8  C1  UNL d   1      -1.875  -2.201  -5.999  0.00  0.00     0.007 C 
ATOM      9  C   UNL d   1      -1.836  -3.724  -5.981  0.00  0.00     0.009 C 
ENDBRANCH   7   8
ENDBRANCH   1   7
TORSDOF 2
ENDMDL
