MODEL 1
REMARK minimizedAffinity 2.11658359
REMARK minimizedRMSD -1
REMARK  2 active torsions:
REMARK  status: ('A' for Active; 'I' for Inactive)
REMARK    1  A    between atoms: C1_2  and  C2_3 
REMARK    2  A    between atoms: C2_3  and  C3_4 
ROOT
ATOM      1  C3  UNL d   1      -4.430   0.204  -4.741  0.00  0.00    -0.075 A 
ATOM      2  C4  UNL d   1      -4.247  -0.481  -3.532  0.00  0.00     0.002 A 
ATOM      3  C5  UNL d   1      -3.158  -1.335  -3.359  0.00  0.00     0.002 A 
ATOM      4  C6  UNL d   1      -2.245  -1.523  -4.395  0.00  0.00    -0.004 A 
ATOM      5  C7  UNL d   1      -2.426  -0.859  -5.607  0.00  0.00     0.002 A 
ATOM      6  C8  UNL d   1      -3.512  -0.001  -5.780  0.00  0.00     0.002 A 
ENDROOT
BRANCH   1   7
ATOM      7  C2  UNL d   1      -5.591   1.153  -4.924  0.00  0.00     0.056 C 
BRANCH   7   8
ATOM      8  C1  UNL d   1      -5.216   2.632  -4.783  0.00  0.00     0.007 C 
ATOM      9  C   UNL d   1      -3.986   2.859  -3.914  0.00  0.00     0.009 C 
ENDBRANCH   7   8
ENDBRANCH   1   7
TORSDOF 2
ENDMDL
