MODEL 1
REMARK minimizedAffinity -1.43077815
REMARK minimizedRMSD -1
REMARK  2 active torsions:
REMARK  status: ('A' for Active; 'I' for Inactive)
REMARK    1  A    between atoms: C1_2  and  C2_3 
REMARK    2  A    between atoms: C2_3  and  C3_4 
ROOT
ATOM      1  C3  UNL d   1       4.407  -3.609   2.953  0.00  0.00    -0.075 A 
ATOM      2  C4  UNL d   1       5.216  -3.728   1.815  0.00  0.00     0.002 A 
ATOM      3  C5  UNL d   1       4.755  -3.300   0.569  0.00  0.00     0.002 A 
ATOM      4  C6  UNL d   1       3.477  -2.759   0.445  0.00  0.00    -0.004 A 
ATOM      5  C7  UNL d   1       2.658  -2.652   1.567  0.00  0.00     0.002 A 
ATOM      6  C8  UNL d   1       3.119  -3.075   2.815  0.00  0.00     0.002 A 
ENDROOT
BRANCH   1   7
ATOM      7  C2  UNL d   1       4.911  -4.043   4.309  0.00  0.00     0.056 C 
BRANCH   7   8
ATOM      8  C1  UNL d   1       5.910  -3.070   4.943  0.00  0.00     0.007 C 
ATOM      9  C   UNL d   1       5.283  -2.170   6.000  0.00  0.00     0.009 C 
ENDBRANCH   7   8
ENDBRANCH   1   7
TORSDOF 2
ENDMDL
