MODEL 1
REMARK minimizedAffinity 9.36625767
REMARK minimizedRMSD -1
REMARK  2 active torsions:
REMARK  status: ('A' for Active; 'I' for Inactive)
REMARK    1  A    between atoms: C1_2  and  C2_3 
REMARK    2  A    between atoms: C2_3  and  C3_4 
ROOT
ATOM      1  C3  UNL d   1      -4.491   0.743  -4.892  0.00  0.00    -0.075 A 
ATOM      2  C4  UNL d   1      -3.657   0.534  -6.000  0.00  0.00     0.002 A 
ATOM      3  C5  UNL d   1      -2.701  -0.482  -5.986  0.00  0.00     0.002 A 
ATOM      4  C6  UNL d   1      -2.560  -1.294  -4.862  0.00  0.00    -0.004 A 
ATOM      5  C7  UNL d   1      -3.371  -1.085  -3.749  0.00  0.00     0.002 A 
ATOM      6  C8  UNL d   1      -4.332  -0.072  -3.762  0.00  0.00     0.002 A 
ENDROOT
BRANCH   1   7
ATOM      7  C2  UNL d   1      -5.547   1.821  -4.912  0.00  0.00     0.056 C 
BRANCH   7   8
ATOM      8  C1  UNL d   1      -4.984   3.246  -4.960  0.00  0.00     0.007 C 
ATOM      9  C   UNL d   1      -3.702   3.412  -4.155  0.00  0.00     0.009 C 
ENDBRANCH   7   8
ENDBRANCH   1   7
TORSDOF 2
ENDMDL
