MODEL 1
REMARK minimizedAffinity 0.706610322
REMARK minimizedRMSD -1
REMARK  2 active torsions:
REMARK  status: ('A' for Active; 'I' for Inactive)
REMARK    1  A    between atoms: C1_2  and  C2_3 
REMARK    2  A    between atoms: C2_3  and  C3_4 
ROOT
ATOM      1  C3  UNL d   1       0.594   0.425  -1.745  0.00  0.00    -0.075 A 
ATOM      2  C4  UNL d   1       1.691   1.283  -1.909  0.00  0.00     0.002 A 
ATOM      3  C5  UNL d   1       1.978   1.835  -3.157  0.00  0.00     0.002 A 
ATOM      4  C6  UNL d   1       1.181   1.529  -4.258  0.00  0.00    -0.004 A 
ATOM      5  C7  UNL d   1       0.099   0.664  -4.110  0.00  0.00     0.002 A 
ATOM      6  C8  UNL d   1      -0.194   0.114  -2.861  0.00  0.00     0.002 A 
ENDROOT
BRANCH   1   7
ATOM      7  C2  UNL d   1       0.260  -0.152  -0.390  0.00  0.00     0.056 C 
BRANCH   7   8
ATOM      8  C1  UNL d   1       1.139  -1.340   0.016  0.00  0.00     0.007 C 
ATOM      9  C   UNL d   1       2.312  -0.943   0.903  0.00  0.00     0.009 C 
ENDBRANCH   7   8
ENDBRANCH   1   7
TORSDOF 2
ENDMDL
