MODEL 1
REMARK minimizedAffinity -5.20692015
REMARK minimizedRMSD -1
REMARK  2 active torsions:
REMARK  status: ('A' for Active; 'I' for Inactive)
REMARK    1  A    between atoms: C1_2  and  C2_3 
REMARK    2  A    between atoms: C2_3  and  C3_4 
ROOT
ATOM      1  C3  UNL d   1       0.023   0.129   0.384  0.00  0.00    -0.075 A 
ATOM      2  C4  UNL d   1       1.189   0.033   1.158  0.00  0.00     0.002 A 
ATOM      3  C5  UNL d   1       1.213   0.517   2.466  0.00  0.00     0.002 A 
ATOM      4  C6  UNL d   1       0.078   1.113   3.012  0.00  0.00    -0.004 A 
ATOM      5  C7  UNL d   1      -1.080   1.229   2.247  0.00  0.00     0.002 A 
ATOM      6  C8  UNL d   1      -1.108   0.741   0.940  0.00  0.00     0.002 A 
ENDROOT
BRANCH   1   7
ATOM      7  C2  UNL d   1      -0.018  -0.420  -1.022  0.00  0.00     0.056 C 
BRANCH   7   8
ATOM      8  C1  UNL d   1       1.310  -0.303  -1.777  0.00  0.00     0.007 C 
ATOM      9  C   UNL d   1       1.133  -0.006  -3.260  0.00  0.00     0.009 C 
ENDBRANCH   7   8
ENDBRANCH   1   7
TORSDOF 2
ENDMDL
