MODEL 1
REMARK minimizedAffinity -2.45574594
REMARK minimizedRMSD -1
REMARK  2 active torsions:
REMARK  status: ('A' for Active; 'I' for Inactive)
REMARK    1  A    between atoms: C1_2  and  C2_3 
REMARK    2  A    between atoms: C2_3  and  C3_4 
ROOT
ATOM      1  C3  UNL d   1      -0.137  -0.305  -0.670  0.00  0.00    -0.075 A 
ATOM      2  C4  UNL d   1      -1.510  -0.097  -0.475  0.00  0.00     0.002 A 
ATOM      3  C5  UNL d   1      -1.989   0.362   0.753  0.00  0.00     0.002 A 
ATOM      4  C6  UNL d   1      -1.106   0.609   1.801  0.00  0.00    -0.004 A 
ATOM      5  C7  UNL d   1       0.259   0.390   1.623  0.00  0.00     0.002 A 
ATOM      6  C8  UNL d   1       0.742  -0.065   0.395  0.00  0.00     0.002 A 
ENDROOT
BRANCH   1   7
ATOM      7  C2  UNL d   1       0.392  -0.773  -2.005  0.00  0.00     0.056 C 
BRANCH   7   8
ATOM      8  C1  UNL d   1       1.192   0.288  -2.766  0.00  0.00     0.007 C 
ATOM      9  C   UNL d   1       1.173   0.088  -4.275  0.00  0.00     0.009 C 
ENDBRANCH   7   8
ENDBRANCH   1   7
TORSDOF 2
ENDMDL
