MODEL 1
REMARK minimizedAffinity -1.97647977
REMARK minimizedRMSD -1
REMARK  3 active torsions:
REMARK  status: ('A' for Active; 'I' for Inactive)
REMARK    1  A    between atoms: C3'_2  and  C2'_3 
REMARK    2  A    between atoms: C2'_3  and  C1'_4 
REMARK    3  A    between atoms: C1'_4  and  C1_5 
ROOT
ATOM      1  C1  N4B d   1       0.612   2.052   0.137  0.00  0.00    -0.075 A 
ATOM      2  C2  N4B d   1       0.246   3.207   0.864  0.00  0.00     0.002 A 
ATOM      3  C3  N4B d   1       1.216   4.066   1.321  0.00  0.00     0.002 A 
ATOM      4  C4  N4B d   1       2.552   3.782   1.081  0.00  0.00    -0.004 A 
ATOM      5  C5  N4B d   1       2.895   2.678   0.356  0.00  0.00     0.002 A 
ATOM      6  C6  N4B d   1       1.931   1.808  -0.113  0.00  0.00     0.002 A 
ENDROOT
BRANCH   1   7
ATOM      7  C1' N4B d   1      -0.407   1.039  -0.308  0.00  0.00     0.057 C 
BRANCH   7   8
ATOM      8  C2' N4B d   1      -0.047  -0.324   0.276  0.00  0.00     0.009 C 
BRANCH   8   9
ATOM      9  C3' N4B d   1      -1.171  -0.893   1.125  0.00  0.00     0.004 C 
ATOM     10  C4' N4B d   1      -1.391  -2.357   0.891  0.00  0.00     0.003 C 
ENDBRANCH   8   9
ENDBRANCH   7   8
ENDBRANCH   1   7
TORSDOF 3
ENDMDL
