MODEL 1
REMARK minimizedAffinity -2.42479038
REMARK minimizedRMSD -1
REMARK  3 active torsions:
REMARK  status: ('A' for Active; 'I' for Inactive)
REMARK    1  A    between atoms: C3'_2  and  C2'_3 
REMARK    2  A    between atoms: C2'_3  and  C1'_4 
REMARK    3  A    between atoms: C1'_4  and  C1_5 
ROOT
ATOM      1  C1  N4B d   1       0.653   1.846  -0.511  0.00  0.00    -0.075 A 
ATOM      2  C2  N4B d   1       2.054   1.848  -0.684  0.00  0.00     0.002 A 
ATOM      3  C3  N4B d   1       2.821   2.803  -0.062  0.00  0.00     0.002 A 
ATOM      4  C4  N4B d   1       2.209   3.772   0.720  0.00  0.00    -0.004 A 
ATOM      5  C5  N4B d   1       0.857   3.747   0.902  0.00  0.00     0.002 A 
ATOM      6  C6  N4B d   1       0.075   2.791   0.286  0.00  0.00     0.002 A 
ENDROOT
BRANCH   1   7
ATOM      7  C1' N4B d   1      -0.236   0.874  -1.240  0.00  0.00     0.057 C 
BRANCH   7   8
ATOM      8  C2' N4B d   1       0.403   0.520  -2.580  0.00  0.00     0.009 C 
BRANCH   8   9
ATOM      9  C3' N4B d   1       0.708  -0.964  -2.689  0.00  0.00     0.004 C 
ATOM     10  C4' N4B d   1       1.595  -1.457  -1.584  0.00  0.00     0.003 C 
ENDBRANCH   8   9
ENDBRANCH   7   8
ENDBRANCH   1   7
TORSDOF 3
ENDMDL
