MODEL 1
REMARK minimizedAffinity -5.09928083
REMARK minimizedRMSD -1
REMARK  3 active torsions:
REMARK  status: ('A' for Active; 'I' for Inactive)
REMARK    1  A    between atoms: C3'_2  and  C2'_3 
REMARK    2  A    between atoms: C2'_3  and  C1'_4 
REMARK    3  A    between atoms: C1'_4  and  C1_5 
ROOT
ATOM      1  C1  N4B d   1      -0.211  -0.684  -0.130  0.00  0.00    -0.075 A 
ATOM      2  C2  N4B d   1       0.805  -1.558  -0.576  0.00  0.00     0.002 A 
ATOM      3  C3  N4B d   1       0.889  -2.830  -0.065  0.00  0.00     0.002 A 
ATOM      4  C4  N4B d   1      -0.015  -3.242   0.902  0.00  0.00    -0.004 A 
ATOM      5  C5  N4B d   1      -1.009  -2.400   1.308  0.00  0.00     0.002 A 
ATOM      6  C6  N4B d   1      -1.108  -1.121   0.801  0.00  0.00     0.002 A 
ENDROOT
BRANCH   1   7
ATOM      7  C1' N4B d   1      -0.291   0.744  -0.596  0.00  0.00     0.057 C 
BRANCH   7   8
ATOM      8  C2' N4B d   1       0.264   1.658   0.492  0.00  0.00     0.009 C 
BRANCH   8   9
ATOM      9  C3' N4B d   1       1.772   1.810   0.393  0.00  0.00     0.004 C 
ATOM     10  C4' N4B d   1       2.292   2.968   1.192  0.00  0.00     0.003 C 
ENDBRANCH   8   9
ENDBRANCH   7   8
ENDBRANCH   1   7
TORSDOF 3
ENDMDL
