MODEL 1
REMARK minimizedAffinity -5.9566679
REMARK minimizedRMSD -1
REMARK  3 active torsions:
REMARK  status: ('A' for Active; 'I' for Inactive)
REMARK    1  A    between atoms: C3'_2  and  C2'_3 
REMARK    2  A    between atoms: C2'_3  and  C1'_4 
REMARK    3  A    between atoms: C1'_4  and  C1_5 
ROOT
ATOM      1  C1  N4B d   1       0.927   0.795   0.380  0.00  0.00    -0.075 A 
ATOM      2  C2  N4B d   1       2.041   1.077   1.201  0.00  0.00     0.002 A 
ATOM      3  C3  N4B d   1       2.503   2.366   1.311  0.00  0.00     0.002 A 
ATOM      4  C4  N4B d   1       1.882   3.380   0.598  0.00  0.00    -0.004 A 
ATOM      5  C5  N4B d   1       0.792   3.103  -0.173  0.00  0.00     0.002 A 
ATOM      6  C6  N4B d   1       0.313   1.813  -0.290  0.00  0.00     0.002 A 
ENDROOT
BRANCH   1   7
ATOM      7  C1' N4B d   1       0.438  -0.611   0.161  0.00  0.00     0.057 C 
BRANCH   7   8
ATOM      8  C2' N4B d   1      -0.748  -0.879   1.083  0.00  0.00     0.009 C 
BRANCH   8   9
ATOM      9  C3' N4B d   1      -0.783  -2.320   1.560  0.00  0.00     0.004 C 
ATOM     10  C4' N4B d   1      -0.026  -3.249   0.658  0.00  0.00     0.003 C 
ENDBRANCH   8   9
ENDBRANCH   7   8
ENDBRANCH   1   7
TORSDOF 3
ENDMDL
