MODEL 1
REMARK minimizedAffinity -4.38412476
REMARK minimizedRMSD -1
REMARK  3 active torsions:
REMARK  status: ('A' for Active; 'I' for Inactive)
REMARK    1  A    between atoms: C3'_2  and  C2'_3 
REMARK    2  A    between atoms: C2'_3  and  C1'_4 
REMARK    3  A    between atoms: C1'_4  and  C1_5 
ROOT
ATOM      1  C1  N4B d   1      -0.210  -0.230   0.021  0.00  0.00    -0.075 A 
ATOM      2  C2  N4B d   1      -1.387  -0.514   0.747  0.00  0.00     0.002 A 
ATOM      3  C3  N4B d   1      -1.688  -1.809   1.088  0.00  0.00     0.002 A 
ATOM      4  C4  N4B d   1      -0.840  -2.836   0.700  0.00  0.00    -0.004 A 
ATOM      5  C5  N4B d   1       0.308  -2.551   0.020  0.00  0.00     0.002 A 
ATOM      6  C6  N4B d   1       0.625  -1.252  -0.326  0.00  0.00     0.002 A 
ENDROOT
BRANCH   1   7
ATOM      7  C1' N4B d   1       0.118   1.161  -0.449  0.00  0.00     0.057 C 
BRANCH   7   8
ATOM      8  C2' N4B d   1       0.169   2.097   0.755  0.00  0.00     0.009 C 
BRANCH   8   9
ATOM      9  C3' N4B d   1       0.833   3.421   0.417  0.00  0.00     0.004 C 
ATOM     10  C4' N4B d   1       2.279   3.463   0.811  0.00  0.00     0.003 C 
ENDBRANCH   8   9
ENDBRANCH   7   8
ENDBRANCH   1   7
TORSDOF 3
ENDMDL
