MODEL 1
REMARK minimizedAffinity 5.2637825
REMARK minimizedRMSD -1
REMARK  3 active torsions:
REMARK  status: ('A' for Active; 'I' for Inactive)
REMARK    1  A    between atoms: C3'_2  and  C2'_3 
REMARK    2  A    between atoms: C2'_3  and  C1'_4 
REMARK    3  A    between atoms: C1'_4  and  C1_5 
ROOT
ATOM      1  C1  N4B d   1       1.020   3.656   1.876  0.00  0.00    -0.075 A 
ATOM      2  C2  N4B d   1       2.080   4.133   1.074  0.00  0.00     0.002 A 
ATOM      3  C3  N4B d   1       2.960   3.247   0.501  0.00  0.00     0.002 A 
ATOM      4  C4  N4B d   1       2.812   1.888   0.731  0.00  0.00    -0.004 A 
ATOM      5  C5  N4B d   1       1.771   1.433   1.487  0.00  0.00     0.002 A 
ATOM      6  C6  N4B d   1       0.876   2.312   2.065  0.00  0.00     0.002 A 
ENDROOT
BRANCH   1   7
ATOM      7  C1' N4B d   1       0.084   4.590   2.593  0.00  0.00     0.057 C 
BRANCH   7   8
ATOM      8  C2' N4B d   1      -1.215   4.703   1.800  0.00  0.00     0.009 C 
BRANCH   8   9
ATOM      9  C3' N4B d   1      -1.965   5.985   2.118  0.00  0.00     0.004 C 
ATOM     10  C4' N4B d   1      -2.526   6.000   3.509  0.00  0.00     0.003 C 
ENDBRANCH   8   9
ENDBRANCH   7   8
ENDBRANCH   1   7
TORSDOF 3
ENDMDL
