MODEL 1
REMARK minimizedAffinity -4.89897346
REMARK minimizedRMSD -1
REMARK  3 active torsions:
REMARK  status: ('A' for Active; 'I' for Inactive)
REMARK    1  A    between atoms: C3'_2  and  C2'_3 
REMARK    2  A    between atoms: C2'_3  and  C1'_4 
REMARK    3  A    between atoms: C1'_4  and  C1_5 
ROOT
ATOM      1  C1  N4B d   1       0.224   0.944   0.041  0.00  0.00    -0.075 A 
ATOM      2  C2  N4B d   1       0.816   2.104   0.587  0.00  0.00     0.002 A 
ATOM      3  C3  N4B d   1       1.996   2.580   0.071  0.00  0.00     0.002 A 
ATOM      4  C4  N4B d   1       2.609   1.906  -0.975  0.00  0.00    -0.004 A 
ATOM      5  C5  N4B d   1       2.018   0.801  -1.513  0.00  0.00     0.002 A 
ATOM      6  C6  N4B d   1       0.830   0.313  -1.007  0.00  0.00     0.002 A 
ENDROOT
BRANCH   1   7
ATOM      7  C1' N4B d   1      -1.021   0.336   0.628  0.00  0.00     0.057 C 
BRANCH   7   8
ATOM      8  C2' N4B d   1      -0.639  -0.888   1.454  0.00  0.00     0.009 C 
BRANCH   8   9
ATOM      9  C3' N4B d   1      -1.050  -2.183   0.775  0.00  0.00     0.004 C 
ATOM     10  C4' N4B d   1      -0.347  -3.382   1.338  0.00  0.00     0.003 C 
ENDBRANCH   8   9
ENDBRANCH   7   8
ENDBRANCH   1   7
TORSDOF 3
ENDMDL
