MODEL 1
REMARK minimizedAffinity 1.17414093
REMARK minimizedRMSD -1
REMARK  0 active torsions:
REMARK  status: ('A' for Active; 'I' for Inactive)
ROOT
ATOM      1  C   UNL d   1       1.853   0.354  -1.836  0.00  0.00    -0.002 A 
ATOM      2  C1  UNL d   1       0.809   0.538  -2.732  0.00  0.00     0.010 A 
ATOM      3  C2  UNL d   1      -0.517   0.447  -2.305  0.00  0.00     0.041 A 
ATOM      4  C3  UNL d   1      -0.779   0.168  -0.949  0.00  0.00    -0.075 A 
ATOM      5  S   UNL d   1      -2.324   0.011  -0.200  0.00  0.00     0.015 SA
ATOM      6  C4  UNL d   1      -1.634  -0.302   1.327  0.00  0.00     0.022 A 
ATOM      7  C5  UNL d   1      -0.260  -0.292   1.284  0.00  0.00     0.026 A 
ATOM      8  C6  UNL d   1       0.256  -0.020  -0.028  0.00  0.00    -0.082 A 
ATOM      9  C7  UNL d   1       1.590   0.077  -0.492  0.00  0.00     0.045 A 
ENDROOT
TORSDOF 0
ENDMDL
