MODEL 1
REMARK minimizedAffinity -3.14745545
REMARK minimizedRMSD -1
REMARK  0 active torsions:
REMARK  status: ('A' for Active; 'I' for Inactive)
ROOT
ATOM      1  C   UNL d   1       2.006   0.412  -2.478  0.00  0.00    -0.002 A 
ATOM      2  C1  UNL d   1       1.031  -0.457  -2.947  0.00  0.00     0.010 A 
ATOM      3  C2  UNL d   1      -0.095  -0.745  -2.172  0.00  0.00     0.041 A 
ATOM      4  C3  UNL d   1      -0.226  -0.137  -0.908  0.00  0.00    -0.075 A 
ATOM      5  S   UNL d   1      -1.519  -0.340   0.214  0.00  0.00     0.015 SA
ATOM      6  C4  UNL d   1      -0.808   0.722   1.341  0.00  0.00     0.022 A 
ATOM      7  C5  UNL d   1       0.388   1.228   0.889  0.00  0.00     0.026 A 
ATOM      8  C6  UNL d   1       0.743   0.742  -0.415  0.00  0.00    -0.082 A 
ATOM      9  C7  UNL d   1       1.873   1.012  -1.224  0.00  0.00     0.045 A 
ENDROOT
TORSDOF 0
ENDMDL
