MODEL 1
REMARK minimizedAffinity -0.402412385
REMARK minimizedRMSD -1
REMARK  0 active torsions:
REMARK  status: ('A' for Active; 'I' for Inactive)
ROOT
ATOM      1  C   UNL d   1      -3.414   0.947   1.856  0.00  0.00    -0.002 A 
ATOM      2  C1  UNL d   1      -3.593  -0.338   1.366  0.00  0.00     0.010 A 
ATOM      3  C2  UNL d   1      -2.596  -0.955   0.608  0.00  0.00     0.041 A 
ATOM      4  C3  UNL d   1      -1.403  -0.251   0.350  0.00  0.00    -0.075 A 
ATOM      5  S   UNL d   1      -0.043  -0.806  -0.554  0.00  0.00     0.015 SA
ATOM      6  C4  UNL d   1       0.807   0.651  -0.309  0.00  0.00     0.022 A 
ATOM      7  C5  UNL d   1       0.087   1.550   0.441  0.00  0.00     0.026 A 
ATOM      8  C6  UNL d   1      -1.199   1.045   0.834  0.00  0.00    -0.082 A 
ATOM      9  C7  UNL d   1      -2.230   1.642   1.598  0.00  0.00     0.045 A 
ENDROOT
TORSDOF 0
ENDMDL
