MODEL 1
REMARK minimizedAffinity -0.0735178143
REMARK minimizedRMSD -1
REMARK  0 active torsions:
REMARK  status: ('A' for Active; 'I' for Inactive)
ROOT
ATOM      1  C   UNL d   1       0.887   0.348   0.169  0.00  0.00    -0.002 A 
ATOM      2  C1  UNL d   1       0.147   0.766  -0.928  0.00  0.00     0.010 A 
ATOM      3  C2  UNL d   1      -1.239   0.909  -0.837  0.00  0.00     0.041 A 
ATOM      4  C3  UNL d   1      -1.874   0.622   0.387  0.00  0.00    -0.075 A 
ATOM      5  S   UNL d   1      -3.560   0.726   0.733  0.00  0.00     0.015 SA
ATOM      6  C4  UNL d   1      -3.338   0.219   2.344  0.00  0.00     0.022 A 
ATOM      7  C5  UNL d   1      -2.016  -0.029   2.629  0.00  0.00     0.026 A 
ATOM      8  C6  UNL d   1      -1.150   0.200   1.506  0.00  0.00    -0.082 A 
ATOM      9  C7  UNL d   1       0.253   0.065   1.382  0.00  0.00     0.045 A 
ENDROOT
TORSDOF 0
ENDMDL
