MODEL 1
REMARK minimizedAffinity 0.453875482
REMARK minimizedRMSD -1
REMARK  0 active torsions:
REMARK  status: ('A' for Active; 'I' for Inactive)
ROOT
ATOM      1  C   UNL d   1       0.359  -3.105  -0.839  0.00  0.00    -0.002 A 
ATOM      2  C1  UNL d   1       0.365  -2.288  -1.961  0.00  0.00     0.010 A 
ATOM      3  C2  UNL d   1       0.057  -0.931  -1.853  0.00  0.00     0.041 A 
ATOM      4  C3  UNL d   1      -0.258  -0.402  -0.586  0.00  0.00    -0.075 A 
ATOM      5  S   UNL d   1      -0.666   1.231  -0.214  0.00  0.00     0.015 SA
ATOM      6  C4  UNL d   1      -0.857   0.884   1.444  0.00  0.00     0.022 A 
ATOM      7  C5  UNL d   1      -0.620  -0.441   1.724  0.00  0.00     0.026 A 
ATOM      8  C6  UNL d   1      -0.270  -1.204   0.559  0.00  0.00    -0.082 A 
ATOM      9  C7  UNL d   1       0.045  -2.577   0.416  0.00  0.00     0.045 A 
ENDROOT
TORSDOF 0
ENDMDL
