MODEL 1
REMARK minimizedAffinity -2.9440124
REMARK minimizedRMSD -1
REMARK  0 active torsions:
REMARK  status: ('A' for Active; 'I' for Inactive)
ROOT
ATOM      1  C   UNL d   1       1.397   0.471  -2.677  0.00  0.00    -0.002 A 
ATOM      2  C1  UNL d   1       1.044   1.612  -1.969  0.00  0.00     0.010 A 
ATOM      3  C2  UNL d   1       0.401   1.511  -0.734  0.00  0.00     0.041 A 
ATOM      4  C3  UNL d   1       0.116   0.232  -0.217  0.00  0.00    -0.075 A 
ATOM      5  S   UNL d   1      -0.664  -0.135   1.276  0.00  0.00     0.015 SA
ATOM      6  C4  UNL d   1      -0.547  -1.815   1.010  0.00  0.00     0.022 A 
ATOM      7  C5  UNL d   1       0.069  -2.106  -0.184  0.00  0.00     0.026 A 
ATOM      8  C6  UNL d   1       0.462  -0.931  -0.911  0.00  0.00    -0.082 A 
ATOM      9  C7  UNL d   1       1.113  -0.796  -2.160  0.00  0.00     0.045 A 
ENDROOT
TORSDOF 0
ENDMDL
