MODEL 1
REMARK minimizedAffinity -3.64950657
REMARK minimizedRMSD -1
REMARK  0 active torsions:
REMARK  status: ('A' for Active; 'I' for Inactive)
ROOT
ATOM      1  C   UNL d   1       1.889  -1.170  -2.710  0.00  0.00    -0.002 A 
ATOM      2  C1  UNL d   1       1.262  -2.317  -2.246  0.00  0.00     0.010 A 
ATOM      3  C2  UNL d   1       0.425  -2.267  -1.130  0.00  0.00     0.041 A 
ATOM      4  C3  UNL d   1       0.225  -1.032  -0.483  0.00  0.00    -0.075 A 
ATOM      5  S   UNL d   1      -0.757  -0.730   0.902  0.00  0.00     0.015 SA
ATOM      6  C4  UNL d   1      -0.369   0.929   0.909  0.00  0.00     0.022 A 
ATOM      7  C5  UNL d   1       0.489   1.262  -0.113  0.00  0.00     0.026 A 
ATOM      8  C6  UNL d   1       0.845   0.138  -0.932  0.00  0.00    -0.082 A 
ATOM      9  C7  UNL d   1       1.689   0.054  -2.066  0.00  0.00     0.045 A 
ENDROOT
TORSDOF 0
ENDMDL
