MODEL 1
REMARK minimizedAffinity -1.93875456
REMARK minimizedRMSD -1
REMARK  0 active torsions:
REMARK  status: ('A' for Active; 'I' for Inactive)
ROOT
ATOM      1  C   UNL d   1      -0.613  -0.173   0.571  0.00  0.00    -0.002 A 
ATOM      2  C1  UNL d   1       0.130   0.905   1.030  0.00  0.00     0.010 A 
ATOM      3  C2  UNL d   1       1.193   1.408   0.277  0.00  0.00     0.041 A 
ATOM      4  C3  UNL d   1       1.497   0.805  -0.959  0.00  0.00    -0.075 A 
ATOM      5  S   UNL d   1       2.753   1.252  -2.052  0.00  0.00     0.015 SA
ATOM      6  C4  UNL d   1       2.332   0.023  -3.156  0.00  0.00     0.022 A 
ATOM      7  C5  UNL d   1       1.262  -0.720  -2.716  0.00  0.00     0.026 A 
ATOM      8  C6  UNL d   1       0.763  -0.282  -1.443  0.00  0.00    -0.082 A 
ATOM      9  C7  UNL d   1      -0.308  -0.769  -0.656  0.00  0.00     0.045 A 
ENDROOT
TORSDOF 0
ENDMDL
