MODEL 1
REMARK minimizedAffinity -4.67131615
REMARK minimizedRMSD -1
REMARK  0 active torsions:
REMARK  status: ('A' for Active; 'I' for Inactive)
ROOT
ATOM      1  C   UNL d   1       0.423  -2.389  -2.120  0.00  0.00    -0.002 A 
ATOM      2  C1  UNL d   1       0.674  -1.111  -2.598  0.00  0.00     0.010 A 
ATOM      3  C2  UNL d   1       0.564  -0.003  -1.755  0.00  0.00     0.041 A 
ATOM      4  C3  UNL d   1       0.195  -0.204  -0.410  0.00  0.00    -0.075 A 
ATOM      5  S   UNL d   1      -0.002   1.003   0.806  0.00  0.00     0.015 SA
ATOM      6  C4  UNL d   1      -0.423  -0.150   1.988  0.00  0.00     0.022 A 
ATOM      7  C5  UNL d   1      -0.419  -1.430   1.484  0.00  0.00     0.026 A 
ATOM      8  C6  UNL d   1      -0.062  -1.482   0.094  0.00  0.00    -0.082 A 
ATOM      9  C7  UNL d   1       0.057  -2.584  -0.786  0.00  0.00     0.045 A 
ENDROOT
TORSDOF 0
ENDMDL
