MODEL 1
REMARK minimizedAffinity -4.89582968
REMARK minimizedRMSD -1
REMARK  1 active torsions:
REMARK  status: ('A' for Active; 'I' for Inactive)
REMARK    1  A    between atoms: C1_2  and  C2_3 
ROOT
ATOM      1  C2  UNL d   1      -0.041   0.812   0.656  0.00  0.00    -0.077 A 
ATOM      2  C3  UNL d   1       0.500   1.515  -0.429  0.00  0.00     0.002 A 
ATOM      3  C4  UNL d   1       0.400   2.906  -0.490  0.00  0.00     0.002 A 
ATOM      4  C5  UNL d   1      -0.236   3.606   0.533  0.00  0.00    -0.004 A 
ATOM      5  C6  UNL d   1      -0.778   2.915   1.617  0.00  0.00     0.002 A 
ATOM      6  C7  UNL d   1      -0.680   1.525   1.678  0.00  0.00     0.002 A 
ENDROOT
BRANCH   1   7
ATOM      7  C1  UNL d   1       0.109  -0.685   0.748  0.00  0.00     0.055 C 
ATOM      8  C   UNL d   1       0.667  -1.265  -0.543  0.00  0.00     0.019 C 
ENDBRANCH   1   7
TORSDOF 1
ENDMDL
