MODEL 1
REMARK minimizedAffinity -4.52258539
REMARK minimizedRMSD -1
REMARK  1 active torsions:
REMARK  status: ('A' for Active; 'I' for Inactive)
REMARK    1  A    between atoms: C1_2  and  C2_3 
ROOT
ATOM      1  C2  UNL d   1      -0.293   2.252   1.507  0.00  0.00    -0.077 A 
ATOM      2  C3  UNL d   1      -1.068   1.692   2.532  0.00  0.00     0.002 A 
ATOM      3  C4  UNL d   1      -1.202   0.307   2.641  0.00  0.00     0.002 A 
ATOM      4  C5  UNL d   1      -0.560  -0.530   1.730  0.00  0.00    -0.004 A 
ATOM      5  C6  UNL d   1       0.212   0.017   0.706  0.00  0.00     0.002 A 
ATOM      6  C7  UNL d   1       0.346   1.402   0.596  0.00  0.00     0.002 A 
ENDROOT
BRANCH   1   7
ATOM      7  C1  UNL d   1      -0.107   3.744   1.418  0.00  0.00     0.055 C 
ATOM      8  C   UNL d   1       0.892   4.241   2.453  0.00  0.00     0.019 C 
ENDBRANCH   1   7
TORSDOF 1
ENDMDL
