MODEL 1
REMARK minimizedAffinity -2.82160068
REMARK minimizedRMSD -1
REMARK  1 active torsions:
REMARK  status: ('A' for Active; 'I' for Inactive)
REMARK    1  A    between atoms: C1_2  and  C2_3 
ROOT
ATOM      1  C2  UNL d   1      -0.465   1.244   0.919  0.00  0.00    -0.077 A 
ATOM      2  C3  UNL d   1      -0.213  -0.117   1.145  0.00  0.00     0.002 A 
ATOM      3  C4  UNL d   1       0.595  -0.841   0.266  0.00  0.00     0.002 A 
ATOM      4  C5  UNL d   1       1.160  -0.213  -0.841  0.00  0.00    -0.004 A 
ATOM      5  C6  UNL d   1       0.914   1.140  -1.076  0.00  0.00     0.002 A 
ATOM      6  C7  UNL d   1       0.106   1.865  -0.199  0.00  0.00     0.002 A 
ENDROOT
BRANCH   1   7
ATOM      7  C1  UNL d   1      -1.296   2.038   1.892  0.00  0.00     0.055 C 
ATOM      8  C   UNL d   1      -1.191   3.532   1.620  0.00  0.00     0.019 C 
ENDBRANCH   1   7
TORSDOF 1
ENDMDL
