MODEL 1
REMARK minimizedAffinity -4.56176567
REMARK minimizedRMSD -1
REMARK  1 active torsions:
REMARK  status: ('A' for Active; 'I' for Inactive)
REMARK    1  A    between atoms: C1_2  and  C2_3 
ROOT
ATOM      1  C2  UNL d   1      -0.485  -0.704  -0.237  0.00  0.00    -0.077 A 
ATOM      2  C3  UNL d   1       0.335  -1.285   0.741  0.00  0.00     0.002 A 
ATOM      3  C4  UNL d   1       0.368  -0.762   2.035  0.00  0.00     0.002 A 
ATOM      4  C5  UNL d   1      -0.419   0.339   2.364  0.00  0.00    -0.004 A 
ATOM      5  C6  UNL d   1      -1.236   0.925   1.398  0.00  0.00     0.002 A 
ATOM      6  C7  UNL d   1      -1.270   0.405   0.104  0.00  0.00     0.002 A 
ENDROOT
BRANCH   1   7
ATOM      7  C1  UNL d   1      -0.560  -1.296  -1.620  0.00  0.00     0.055 C 
ATOM      8  C   UNL d   1      -0.574  -2.817  -1.571  0.00  0.00     0.019 C 
ENDBRANCH   1   7
TORSDOF 1
ENDMDL
