MODEL 1
REMARK minimizedAffinity 1.41827118
REMARK minimizedRMSD -1
REMARK  1 active torsions:
REMARK  status: ('A' for Active; 'I' for Inactive)
REMARK    1  A    between atoms: C1_2  and  C2_3 
ROOT
ATOM      1  C2  UNL d   1       0.042   0.510   1.754  0.00  0.00    -0.077 A 
ATOM      2  C3  UNL d   1       0.773   1.132   0.733  0.00  0.00     0.002 A 
ATOM      3  C4  UNL d   1       1.096   0.433  -0.431  0.00  0.00     0.002 A 
ATOM      4  C5  UNL d   1       0.690  -0.891  -0.587  0.00  0.00    -0.004 A 
ATOM      5  C6  UNL d   1      -0.036  -1.520   0.425  0.00  0.00     0.002 A 
ATOM      6  C7  UNL d   1      -0.359  -0.822   1.589  0.00  0.00     0.002 A 
ENDROOT
BRANCH   1   7
ATOM      7  C1  UNL d   1      -0.350   1.278   2.989  0.00  0.00     0.055 C 
ATOM      8  C   UNL d   1      -1.071   2.570   2.632  0.00  0.00     0.019 C 
ENDBRANCH   1   7
TORSDOF 1
ENDMDL
