MODEL 1
REMARK minimizedAffinity -4.60529709
REMARK minimizedRMSD -1
REMARK  1 active torsions:
REMARK  status: ('A' for Active; 'I' for Inactive)
REMARK    1  A    between atoms: C1_2  and  C2_3 
ROOT
ATOM      1  C2  UNL d   1       0.942  -1.719  -1.148  0.00  0.00    -0.077 A 
ATOM      2  C3  UNL d   1       0.629  -1.312  -2.453  0.00  0.00     0.002 A 
ATOM      3  C4  UNL d   1       0.252  -2.251  -3.415  0.00  0.00     0.002 A 
ATOM      4  C5  UNL d   1       0.181  -3.602  -3.082  0.00  0.00    -0.004 A 
ATOM      5  C6  UNL d   1       0.492  -4.017  -1.788  0.00  0.00     0.002 A 
ATOM      6  C7  UNL d   1       0.870  -3.081  -0.825  0.00  0.00     0.002 A 
ENDROOT
BRANCH   1   7
ATOM      7  C1  UNL d   1       1.301  -0.703  -0.096  0.00  0.00     0.055 C 
ATOM      8  C   UNL d   1       0.109  -0.384   0.795  0.00  0.00     0.019 C 
ENDBRANCH   1   7
TORSDOF 1
ENDMDL
