MODEL 1
REMARK minimizedAffinity -0.191440612
REMARK minimizedRMSD -1
REMARK  2 active torsions:
REMARK  status: ('A' for Active; 'I' for Inactive)
REMARK    1  A    between atoms: C1_2  and  C2_3 
REMARK    2  A    between atoms: C2_3  and  C3_4 
ROOT
ATOM      1  C3  UNL d   1      -3.494   0.073  -6.000  0.00  0.00    -0.075 A 
ATOM      2  C4  UNL d   1      -2.356   0.893  -5.999  0.00  0.00     0.002 A 
ATOM      3  C5  UNL d   1      -2.483   2.282  -5.975  0.00  0.00     0.002 A 
ATOM      4  C6  UNL d   1      -3.747   2.868  -5.963  0.00  0.00    -0.004 A 
ATOM      5  C7  UNL d   1      -4.884   2.064  -5.981  0.00  0.00     0.002 A 
ATOM      6  C8  UNL d   1      -4.760   0.674  -6.000  0.00  0.00     0.002 A 
ENDROOT
BRANCH   1   7
ATOM      7  C2  UNL d   1      -3.363  -1.431  -5.995  0.00  0.00     0.056 C 
BRANCH   7   8
ATOM      8  C1  UNL d   1      -4.185  -2.126  -4.904  0.00  0.00     0.007 C 
ATOM      9  C   UNL d   1      -4.598  -3.544  -5.275  0.00  0.00     0.009 C 
ENDBRANCH   7   8
ENDBRANCH   1   7
TORSDOF 2
ENDMDL
