MODEL 1
REMARK minimizedAffinity 1.99819994
REMARK minimizedRMSD -1
REMARK  2 active torsions:
REMARK  status: ('A' for Active; 'I' for Inactive)
REMARK    1  A    between atoms: C1_2  and  C2_3 
REMARK    2  A    between atoms: C2_3  and  C3_4 
ROOT
ATOM      1  C3  UNL d   1       1.583  -0.757  -1.350  0.00  0.00    -0.075 A 
ATOM      2  C4  UNL d   1       2.375   0.386  -1.530  0.00  0.00     0.002 A 
ATOM      3  C5  UNL d   1       1.991   1.608  -0.976  0.00  0.00     0.002 A 
ATOM      4  C6  UNL d   1       0.809   1.704  -0.246  0.00  0.00    -0.004 A 
ATOM      5  C7  UNL d   1       0.006   0.579  -0.076  0.00  0.00     0.002 A 
ATOM      6  C8  UNL d   1       0.389  -0.646  -0.625  0.00  0.00     0.002 A 
ENDROOT
BRANCH   1   7
ATOM      7  C2  UNL d   1       2.008  -2.089  -1.922  0.00  0.00     0.056 C 
BRANCH   7   8
ATOM      8  C1  UNL d   1       3.288  -2.655  -1.299  0.00  0.00     0.007 C 
ATOM      9  C   UNL d   1       3.638  -4.047  -1.807  0.00  0.00     0.009 C 
ENDBRANCH   7   8
ENDBRANCH   1   7
TORSDOF 2
ENDMDL
