MODEL 1
REMARK minimizedAffinity 5.46663666
REMARK minimizedRMSD -1
REMARK  2 active torsions:
REMARK  status: ('A' for Active; 'I' for Inactive)
REMARK    1  A    between atoms: C1_2  and  C2_3 
REMARK    2  A    between atoms: C2_3  and  C3_4 
ROOT
ATOM      1  C3  UNL d   1      -2.638  -0.642   0.124  0.00  0.00    -0.075 A 
ATOM      2  C4  UNL d   1      -3.712  -1.431   0.560  0.00  0.00     0.002 A 
ATOM      3  C5  UNL d   1      -4.774  -0.859   1.260  0.00  0.00     0.002 A 
ATOM      4  C6  UNL d   1      -4.772   0.506   1.542  0.00  0.00    -0.004 A 
ATOM      5  C7  UNL d   1      -3.702   1.297   1.129  0.00  0.00     0.002 A 
ATOM      6  C8  UNL d   1      -2.640   0.727   0.424  0.00  0.00     0.002 A 
ENDROOT
BRANCH   1   7
ATOM      7  C2  UNL d   1      -1.500  -1.250  -0.659  0.00  0.00     0.056 C 
BRANCH   7   8
ATOM      8  C1  UNL d   1      -1.737  -1.293  -2.173  0.00  0.00     0.007 C 
ATOM      9  C   UNL d   1      -0.469  -1.561  -2.972  0.00  0.00     0.009 C 
ENDBRANCH   7   8
ENDBRANCH   1   7
TORSDOF 2
ENDMDL
