MODEL 1
REMARK minimizedAffinity -0.0111856256
REMARK minimizedRMSD -1
REMARK  2 active torsions:
REMARK  status: ('A' for Active; 'I' for Inactive)
REMARK    1  A    between atoms: C1_2  and  C2_3 
REMARK    2  A    between atoms: C2_3  and  C3_4 
ROOT
ATOM      1  C3  UNL d   1      -3.538   3.184  -5.971  0.00  0.00    -0.075 A 
ATOM      2  C4  UNL d   1      -3.528   4.586  -5.921  0.00  0.00     0.002 A 
ATOM      3  C5  UNL d   1      -4.725   5.301  -5.873  0.00  0.00     0.002 A 
ATOM      4  C6  UNL d   1      -5.944   4.626  -5.885  0.00  0.00    -0.004 A 
ATOM      5  C7  UNL d   1      -5.966   3.235  -5.951  0.00  0.00     0.002 A 
ATOM      6  C8  UNL d   1      -4.769   2.517  -5.995  0.00  0.00     0.002 A 
ENDROOT
BRANCH   1   7
ATOM      7  C2  UNL d   1      -2.245   2.403  -5.993  0.00  0.00     0.056 C 
BRANCH   7   8
ATOM      8  C1  UNL d   1      -2.342   1.019  -5.343  0.00  0.00     0.007 C 
ATOM      9  C   UNL d   1      -3.392   0.125  -5.989  0.00  0.00     0.009 C 
ENDBRANCH   7   8
ENDBRANCH   1   7
TORSDOF 2
ENDMDL
