MODEL 1
REMARK minimizedAffinity 1.09668493
REMARK minimizedRMSD -1
REMARK  2 active torsions:
REMARK  status: ('A' for Active; 'I' for Inactive)
REMARK    1  A    between atoms: C1_2  and  C2_3 
REMARK    2  A    between atoms: C2_3  and  C3_4 
ROOT
ATOM      1  C3  UNL d   1      -4.244  -3.292  -5.202  0.00  0.00    -0.075 A 
ATOM      2  C4  UNL d   1      -3.025  -3.981  -5.125  0.00  0.00     0.002 A 
ATOM      3  C5  UNL d   1      -2.945  -5.325  -5.492  0.00  0.00     0.002 A 
ATOM      4  C6  UNL d   1      -4.083  -5.998  -5.930  0.00  0.00    -0.004 A 
ATOM      5  C7  UNL d   1      -5.303  -5.329  -5.995  0.00  0.00     0.002 A 
ATOM      6  C8  UNL d   1      -5.384  -3.983  -5.633  0.00  0.00     0.002 A 
ENDROOT
BRANCH   1   7
ATOM      7  C2  UNL d   1      -4.330  -1.830  -4.834  0.00  0.00     0.056 C 
BRANCH   7   8
ATOM      8  C1  UNL d   1      -3.109  -1.008  -5.257  0.00  0.00     0.007 C 
ATOM      9  C   UNL d   1      -3.366   0.493  -5.257  0.00  0.00     0.009 C 
ENDBRANCH   7   8
ENDBRANCH   1   7
TORSDOF 2
ENDMDL
