MODEL 1
REMARK minimizedAffinity -2.0642345
REMARK minimizedRMSD -1
REMARK  2 active torsions:
REMARK  status: ('A' for Active; 'I' for Inactive)
REMARK    1  A    between atoms: C1_2  and  C2_3 
REMARK    2  A    between atoms: C2_3  and  C3_4 
ROOT
ATOM      1  C3  UNL d   1       1.051  -0.453  -1.718  0.00  0.00    -0.075 A 
ATOM      2  C4  UNL d   1       2.026   0.525  -1.477  0.00  0.00     0.002 A 
ATOM      3  C5  UNL d   1       2.021   1.253  -0.286  0.00  0.00     0.002 A 
ATOM      4  C6  UNL d   1       1.037   1.019   0.672  0.00  0.00    -0.004 A 
ATOM      5  C7  UNL d   1       0.053   0.061   0.436  0.00  0.00     0.002 A 
ATOM      6  C8  UNL d   1       0.059  -0.671  -0.753  0.00  0.00     0.002 A 
ENDROOT
BRANCH   1   7
ATOM      7  C2  UNL d   1       1.069  -1.264  -2.992  0.00  0.00     0.056 C 
BRANCH   7   8
ATOM      8  C1  UNL d   1       0.868  -2.768  -2.777  0.00  0.00     0.007 C 
ATOM      9  C   UNL d   1       1.951  -3.617  -3.428  0.00  0.00     0.009 C 
ENDBRANCH   7   8
ENDBRANCH   1   7
TORSDOF 2
ENDMDL
