MODEL 1
REMARK minimizedAffinity -0.917540252
REMARK minimizedRMSD -1
REMARK  2 active torsions:
REMARK  status: ('A' for Active; 'I' for Inactive)
REMARK    1  A    between atoms: C1_2  and  C2_3 
REMARK    2  A    between atoms: C2_3  and  C3_4 
ROOT
ATOM      1  C3  UNL d   1      -4.593   2.253  -5.854  0.00  0.00    -0.075 A 
ATOM      2  C4  UNL d   1      -4.871   0.885  -5.988  0.00  0.00     0.002 A 
ATOM      3  C5  UNL d   1      -3.855  -0.061  -5.846  0.00  0.00     0.002 A 
ATOM      4  C6  UNL d   1      -2.551   0.348  -5.578  0.00  0.00    -0.004 A 
ATOM      5  C7  UNL d   1      -2.260   1.705  -5.459  0.00  0.00     0.002 A 
ATOM      6  C8  UNL d   1      -3.275   2.654  -5.597  0.00  0.00     0.002 A 
ENDROOT
BRANCH   1   7
ATOM      7  C2  UNL d   1      -5.693   3.280  -5.977  0.00  0.00     0.056 C 
BRANCH   7   8
ATOM      8  C1  UNL d   1      -5.380   4.615  -5.292  0.00  0.00     0.007 C 
ATOM      9  C   UNL d   1      -6.000   5.813  -6.000  0.00  0.00     0.009 C 
ENDBRANCH   7   8
ENDBRANCH   1   7
TORSDOF 2
ENDMDL
