MODEL 1
REMARK minimizedAffinity -0.565001667
REMARK minimizedRMSD -1
REMARK  2 active torsions:
REMARK  status: ('A' for Active; 'I' for Inactive)
REMARK    1  A    between atoms: C1_2  and  C2_3 
REMARK    2  A    between atoms: C2_3  and  C3_4 
ROOT
ATOM      1  C3  UNL d   1       1.910   0.748  -1.122  0.00  0.00    -0.075 A 
ATOM      2  C4  UNL d   1       1.114   0.376  -0.030  0.00  0.00     0.002 A 
ATOM      3  C5  UNL d   1       0.273  -0.735  -0.112  0.00  0.00     0.002 A 
ATOM      4  C6  UNL d   1       0.211  -1.479  -1.287  0.00  0.00    -0.004 A 
ATOM      5  C7  UNL d   1       0.985  -1.108  -2.385  0.00  0.00     0.002 A 
ATOM      6  C8  UNL d   1       1.830  -0.000  -2.304  0.00  0.00     0.002 A 
ENDROOT
BRANCH   1   7
ATOM      7  C2  UNL d   1       2.844   1.931  -1.030  0.00  0.00     0.056 C 
BRANCH   7   8
ATOM      8  C1  UNL d   1       2.378   3.019  -0.057  0.00  0.00     0.007 C 
ATOM      9  C   UNL d   1       2.925   2.838   1.353  0.00  0.00     0.009 C 
ENDBRANCH   7   8
ENDBRANCH   1   7
TORSDOF 2
ENDMDL
