MODEL 1
REMARK minimizedAffinity 6.58614397
REMARK minimizedRMSD -1
REMARK  2 active torsions:
REMARK  status: ('A' for Active; 'I' for Inactive)
REMARK    1  A    between atoms: C1_2  and  C2_3 
REMARK    2  A    between atoms: C2_3  and  C3_4 
ROOT
ATOM      1  C3  UNL d   1      -4.071   0.778  -5.842  0.00  0.00    -0.075 A 
ATOM      2  C4  UNL d   1      -2.701   1.063  -5.744  0.00  0.00     0.002 A 
ATOM      3  C5  UNL d   1      -2.249   2.382  -5.758  0.00  0.00     0.002 A 
ATOM      4  C6  UNL d   1      -3.157   3.432  -5.880  0.00  0.00    -0.004 A 
ATOM      5  C7  UNL d   1      -4.519   3.160  -5.994  0.00  0.00     0.002 A 
ATOM      6  C8  UNL d   1      -4.974   1.841  -5.976  0.00  0.00     0.002 A 
ENDROOT
BRANCH   1   7
ATOM      7  C2  UNL d   1      -4.569  -0.647  -5.798  0.00  0.00     0.056 C 
BRANCH   7   8
ATOM      8  C1  UNL d   1      -5.935  -0.809  -5.123  0.00  0.00     0.007 C 
ATOM      9  C   UNL d   1      -5.976  -1.953  -4.118  0.00  0.00     0.009 C 
ENDBRANCH   7   8
ENDBRANCH   1   7
TORSDOF 2
ENDMDL
