MODEL 1
REMARK minimizedAffinity -1.20234561
REMARK minimizedRMSD -1
REMARK  2 active torsions:
REMARK  status: ('A' for Active; 'I' for Inactive)
REMARK    1  A    between atoms: C1_2  and  C2_3 
REMARK    2  A    between atoms: C2_3  and  C3_4 
ROOT
ATOM      1  C3  UNL d   1      -3.293   3.544  -5.908  0.00  0.00    -0.075 A 
ATOM      2  C4  UNL d   1      -4.467   2.778  -5.950  0.00  0.00     0.002 A 
ATOM      3  C5  UNL d   1      -5.716   3.398  -5.997  0.00  0.00     0.002 A 
ATOM      4  C6  UNL d   1      -5.808   4.788  -5.993  0.00  0.00    -0.004 A 
ATOM      5  C7  UNL d   1      -4.649   5.559  -5.935  0.00  0.00     0.002 A 
ATOM      6  C8  UNL d   1      -3.398   4.942  -5.892  0.00  0.00     0.002 A 
ENDROOT
BRANCH   1   7
ATOM      7  C2  UNL d   1      -1.937   2.880  -5.886  0.00  0.00     0.056 C 
BRANCH   7   8
ATOM      8  C1  UNL d   1      -1.967   1.416  -5.434  0.00  0.00     0.007 C 
ATOM      9  C   UNL d   1      -3.151   0.639  -5.995  0.00  0.00     0.009 C 
ENDBRANCH   7   8
ENDBRANCH   1   7
TORSDOF 2
ENDMDL
