MODEL 1
REMARK minimizedAffinity -2.50246787
REMARK minimizedRMSD -1
REMARK  0 active torsions:
REMARK  status: ('A' for Active; 'I' for Inactive)
ROOT
ATOM      1  C   UNL d   1       0.662  -0.938  -0.694  0.00  0.00     0.172 C 
ATOM      2  N   UNL d   1       0.055  -0.019   0.240  0.00  0.00    -0.070 N 
ATOM      3  C1  UNL d   1      -0.663   1.099  -0.092  0.00  0.00    -0.004 A 
ATOM      4  C2  UNL d   1      -1.070   1.703   1.078  0.00  0.00    -0.047 A 
ATOM      5  C3  UNL d   1      -0.578   0.922   2.151  0.00  0.00    -0.047 A 
ATOM      6  C4  UNL d   1       0.115  -0.138   1.604  0.00  0.00    -0.004 A 
ENDROOT
TORSDOF 0
ENDMDL
