MODEL 1
REMARK minimizedAffinity -2.28584433
REMARK minimizedRMSD -1
REMARK  0 active torsions:
REMARK  status: ('A' for Active; 'I' for Inactive)
ROOT
ATOM      1  C   UNL d   1       0.984   0.036  -0.908  0.00  0.00     0.172 C 
ATOM      2  N   UNL d   1       0.253   0.591   0.207  0.00  0.00    -0.070 N 
ATOM      3  C1  UNL d   1      -0.141  -0.095   1.325  0.00  0.00    -0.004 A 
ATOM      4  C2  UNL d   1      -0.809   0.786   2.148  0.00  0.00    -0.047 A 
ATOM      5  C3  UNL d   1      -0.818   2.045   1.501  0.00  0.00    -0.047 A 
ATOM      6  C4  UNL d   1      -0.154   1.896   0.302  0.00  0.00    -0.004 A 
ENDROOT
TORSDOF 0
ENDMDL
