MODEL 1
REMARK minimizedAffinity -1.20448387
REMARK minimizedRMSD -1
REMARK  0 active torsions:
REMARK  status: ('A' for Active; 'I' for Inactive)
ROOT
ATOM      1  C   UNL d   1      -1.278   1.278  -0.293  0.00  0.00     0.172 C 
ATOM      2  N   UNL d   1      -0.203   0.336  -0.085  0.00  0.00    -0.070 N 
ATOM      3  C1  UNL d   1       0.743  -0.013  -1.011  0.00  0.00    -0.004 A 
ATOM      4  C2  UNL d   1       1.587  -0.933  -0.426  0.00  0.00    -0.047 A 
ATOM      5  C3  UNL d   1       1.131  -1.145   0.897  0.00  0.00    -0.047 A 
ATOM      6  C4  UNL d   1       0.022  -0.347   1.082  0.00  0.00    -0.004 A 
ENDROOT
TORSDOF 0
ENDMDL
