MODEL 1
REMARK minimizedAffinity -2.73756599
REMARK minimizedRMSD -1
REMARK  0 active torsions:
REMARK  status: ('A' for Active; 'I' for Inactive)
ROOT
ATOM      1  C   UNL d   1       0.711   1.095  -1.540  0.00  0.00     0.172 C 
ATOM      2  N   UNL d   1       0.161   0.703  -0.264  0.00  0.00    -0.070 N 
ATOM      3  C1  UNL d   1      -0.807   1.379   0.430  0.00  0.00    -0.004 A 
ATOM      4  C2  UNL d   1      -1.056   0.683   1.593  0.00  0.00    -0.047 A 
ATOM      5  C3  UNL d   1      -0.207  -0.449   1.600  0.00  0.00    -0.047 A 
ATOM      6  C4  UNL d   1       0.535  -0.413   0.438  0.00  0.00    -0.004 A 
ENDROOT
TORSDOF 0
ENDMDL
