MODEL 1
REMARK minimizedAffinity -0.241238743
REMARK minimizedRMSD -1
REMARK  0 active torsions:
REMARK  status: ('A' for Active; 'I' for Inactive)
ROOT
ATOM      1  C   UNL d   1      -1.318   1.974   1.001  0.00  0.00     0.172 C 
ATOM      2  N   UNL d   1      -0.530   1.026   0.249  0.00  0.00    -0.070 N 
ATOM      3  C1  UNL d   1       0.082   1.271  -0.951  0.00  0.00    -0.004 A 
ATOM      4  C2  UNL d   1       0.732   0.118  -1.337  0.00  0.00    -0.047 A 
ATOM      5  C3  UNL d   1       0.501  -0.853  -0.334  0.00  0.00    -0.047 A 
ATOM      6  C4  UNL d   1      -0.283  -0.265   0.636  0.00  0.00    -0.004 A 
ENDROOT
TORSDOF 0
ENDMDL
