MODEL 1
REMARK minimizedAffinity -1.55457366
REMARK minimizedRMSD -1
REMARK  0 active torsions:
REMARK  status: ('A' for Active; 'I' for Inactive)
ROOT
ATOM      1  C   UNL d   1       0.726  -0.569  -0.771  0.00  0.00     0.172 C 
ATOM      2  N   UNL d   1      -0.034   0.211   0.177  0.00  0.00    -0.070 N 
ATOM      3  C1  UNL d   1      -0.447   1.504  -0.002  0.00  0.00    -0.004 A 
ATOM      4  C2  UNL d   1      -1.142   1.885   1.126  0.00  0.00    -0.047 A 
ATOM      5  C3  UNL d   1      -1.145   0.783   2.013  0.00  0.00    -0.047 A 
ATOM      6  C4  UNL d   1      -0.453  -0.240   1.401  0.00  0.00    -0.004 A 
ENDROOT
TORSDOF 0
ENDMDL
