MODEL 1
REMARK minimizedAffinity -2.00833178
REMARK minimizedRMSD -1
REMARK  0 active torsions:
REMARK  status: ('A' for Active; 'I' for Inactive)
ROOT
ATOM      1  C   UNL d   1       0.977  -1.024  -0.831  0.00  0.00     0.172 C 
ATOM      2  N   UNL d   1       0.163  -0.429   0.202  0.00  0.00    -0.070 N 
ATOM      3  C1  UNL d   1      -0.100  -0.980   1.428  0.00  0.00    -0.004 A 
ATOM      4  C2  UNL d   1      -0.911  -0.106   2.119  0.00  0.00    -0.047 A 
ATOM      5  C3  UNL d   1      -1.145   1.009   1.278  0.00  0.00    -0.047 A 
ATOM      6  C4  UNL d   1      -0.468   0.782   0.098  0.00  0.00    -0.004 A 
ENDROOT
TORSDOF 0
ENDMDL
