MODEL 1
REMARK minimizedAffinity 0.308318615
REMARK minimizedRMSD -1
REMARK  0 active torsions:
REMARK  status: ('A' for Active; 'I' for Inactive)
ROOT
ATOM      1  C   UNL d   1       0.475  -0.939   1.027  0.00  0.00     0.172 C 
ATOM      2  N   UNL d   1       0.471   0.155   0.084  0.00  0.00    -0.070 N 
ATOM      3  C1  UNL d   1       1.404   0.367  -0.897  0.00  0.00    -0.004 A 
ATOM      4  C2  UNL d   1       1.045   1.508  -1.580  0.00  0.00    -0.047 A 
ATOM      5  C3  UNL d   1      -0.143   2.000  -0.990  0.00  0.00    -0.047 A 
ATOM      6  C4  UNL d   1      -0.476   1.143   0.038  0.00  0.00    -0.004 A 
ENDROOT
TORSDOF 0
ENDMDL
