MODEL 1
REMARK minimizedAffinity -1.20435488
REMARK minimizedRMSD -1
REMARK  0 active torsions:
REMARK  status: ('A' for Active; 'I' for Inactive)
ROOT
ATOM      1  C   UNL d   1      -1.235   1.335   2.076  0.00  0.00     0.172 C 
ATOM      2  N   UNL d   1      -0.547   0.696   0.979  0.00  0.00    -0.070 N 
ATOM      3  C1  UNL d   1      -0.600   1.087  -0.332  0.00  0.00    -0.004 A 
ATOM      4  C2  UNL d   1       0.190   0.225  -1.062  0.00  0.00    -0.047 A 
ATOM      5  C3  UNL d   1       0.736  -0.717  -0.157  0.00  0.00    -0.047 A 
ATOM      6  C4  UNL d   1       0.263  -0.402   1.099  0.00  0.00    -0.004 A 
ENDROOT
TORSDOF 0
ENDMDL
