MODEL 1
REMARK minimizedAffinity -2.04680705
REMARK minimizedRMSD -1
REMARK  0 active torsions:
REMARK  status: ('A' for Active; 'I' for Inactive)
ROOT
ATOM      1  C   UNL d   1       1.549  -0.036  -1.115  0.00  0.00     0.172 C 
ATOM      2  N   UNL d   1       1.202  -1.362  -1.570  0.00  0.00    -0.070 N 
ATOM      3  C1  UNL d   1       0.622  -1.668  -2.772  0.00  0.00    -0.004 A 
ATOM      4  C2  UNL d   1       0.455  -3.035  -2.824  0.00  0.00    -0.047 A 
ATOM      5  C3  UNL d   1       0.951  -3.569  -1.611  0.00  0.00    -0.047 A 
ATOM      6  C4  UNL d   1       1.408  -2.512  -0.853  0.00  0.00    -0.004 A 
ENDROOT
TORSDOF 0
ENDMDL
