MODEL 1
REMARK minimizedAffinity -2.00147438
REMARK minimizedRMSD -1
REMARK  0 active torsions:
REMARK  status: ('A' for Active; 'I' for Inactive)
ROOT
ATOM      1  C   UNL d   1      -1.544   1.489   1.924  0.00  0.00     0.172 C 
ATOM      2  N   UNL d   1      -0.915   0.605   0.970  0.00  0.00    -0.070 N 
ATOM      3  C1  UNL d   1      -0.590  -0.707   1.191  0.00  0.00    -0.004 A 
ATOM      4  C2  UNL d   1      -0.011  -1.198   0.041  0.00  0.00    -0.047 A 
ATOM      5  C3  UNL d   1       0.013  -0.144  -0.904  0.00  0.00    -0.047 A 
ATOM      6  C4  UNL d   1      -0.552   0.960  -0.302  0.00  0.00    -0.004 A 
ENDROOT
TORSDOF 0
ENDMDL
