MODEL 1
REMARK minimizedAffinity -2.20994687
REMARK minimizedRMSD -1
REMARK  0 active torsions:
REMARK  status: ('A' for Active; 'I' for Inactive)
ROOT
ATOM      1  C   UNL d   1       0.627  -1.330  -0.789  0.00  0.00     0.172 C 
ATOM      2  N   UNL d   1      -0.034  -0.523   0.210  0.00  0.00    -0.070 N 
ATOM      3  C1  UNL d   1      -0.271  -0.893   1.507  0.00  0.00    -0.004 A 
ATOM      4  C2  UNL d   1      -0.920   0.150   2.131  0.00  0.00    -0.047 A 
ATOM      5  C3  UNL d   1      -1.079   1.183   1.177  0.00  0.00    -0.047 A 
ATOM      6  C4  UNL d   1      -0.522   0.740  -0.004  0.00  0.00    -0.004 A 
ENDROOT
TORSDOF 0
ENDMDL
