MODEL 1
REMARK minimizedAffinity -2.84167862
REMARK minimizedRMSD -1
REMARK  0 active torsions:
REMARK  status: ('A' for Active; 'I' for Inactive)
ROOT
ATOM      1  C   UNL d   1       0.091  -1.228  -0.813  0.00  0.00     0.172 C 
ATOM      2  N   UNL d   1      -0.364  -0.366   0.253  0.00  0.00    -0.070 N 
ATOM      3  C1  UNL d   1      -0.189   0.991   0.311  0.00  0.00    -0.004 A 
ATOM      4  C2  UNL d   1      -0.764   1.440   1.480  0.00  0.00    -0.047 A 
ATOM      5  C3  UNL d   1      -1.302   0.314   2.147  0.00  0.00    -0.047 A 
ATOM      6  C4  UNL d   1      -1.040  -0.791   1.365  0.00  0.00    -0.004 A 
ENDROOT
TORSDOF 0
ENDMDL
