MODEL 1
REMARK minimizedAffinity -1.28264034
REMARK minimizedRMSD -1
REMARK  0 active torsions:
REMARK  status: ('A' for Active; 'I' for Inactive)
ROOT
ATOM      1  C   UNL d   1       0.538  -0.687  -0.320  0.00  0.00     0.172 C 
ATOM      2  N   UNL d   1      -0.155   0.025   0.727  0.00  0.00    -0.070 N 
ATOM      3  C1  UNL d   1      -0.607  -0.520   1.899  0.00  0.00    -0.004 A 
ATOM      4  C2  UNL d   1      -1.211   0.483   2.626  0.00  0.00    -0.047 A 
ATOM      5  C3  UNL d   1      -1.119   1.672   1.865  0.00  0.00    -0.047 A 
ATOM      6  C4  UNL d   1      -0.462   1.360   0.694  0.00  0.00    -0.004 A 
ENDROOT
TORSDOF 0
ENDMDL
