MODEL 1
REMARK minimizedAffinity -1.55074894
REMARK minimizedRMSD -1
REMARK  0 active torsions:
REMARK  status: ('A' for Active; 'I' for Inactive)
ROOT
ATOM      1  C   UNL d   1       0.706  -0.274  -0.479  0.00  0.00     0.172 C 
ATOM      2  N   UNL d   1       0.607  -1.496  -1.241  0.00  0.00    -0.070 N 
ATOM      3  C1  UNL d   1       1.076  -2.722  -0.849  0.00  0.00    -0.004 A 
ATOM      4  C2  UNL d   1       0.786  -3.624  -1.849  0.00  0.00    -0.047 A 
ATOM      5  C3  UNL d   1       0.121  -2.916  -2.879  0.00  0.00    -0.047 A 
ATOM      6  C4  UNL d   1       0.024  -1.601  -2.476  0.00  0.00    -0.004 A 
ENDROOT
TORSDOF 0
ENDMDL
