MODEL 1
REMARK minimizedAffinity -4.017941
REMARK minimizedRMSD -1
REMARK  0 active torsions:
REMARK  status: ('A' for Active; 'I' for Inactive)
ROOT
ATOM      1  C   UNL d   1       0.330   0.703  -0.081  0.00  0.00     0.172 C 
ATOM      2  N   UNL d   1      -0.567   1.679   0.492  0.00  0.00    -0.070 N 
ATOM      3  C1  UNL d   1      -0.675   2.988   0.105  0.00  0.00    -0.004 A 
ATOM      4  C2  UNL d   1      -1.637   3.582   0.892  0.00  0.00    -0.047 A 
ATOM      5  C3  UNL d   1      -2.123   2.597   1.784  0.00  0.00    -0.047 A 
ATOM      6  C4  UNL d   1      -1.443   1.428   1.515  0.00  0.00    -0.004 A 
ENDROOT
TORSDOF 0
ENDMDL
