MODEL 1
REMARK minimizedAffinity -1.47305274
REMARK minimizedRMSD -1
REMARK  0 active torsions:
REMARK  status: ('A' for Active; 'I' for Inactive)
ROOT
ATOM      1  C   UNL d   1       0.536  -1.186  -0.856  0.00  0.00     0.172 C 
ATOM      2  N   UNL d   1      -0.042  -0.444   0.240  0.00  0.00    -0.070 N 
ATOM      3  C1  UNL d   1       0.015  -0.798   1.561  0.00  0.00    -0.004 A 
ATOM      4  C2  UNL d   1      -0.652   0.167   2.285  0.00  0.00    -0.047 A 
ATOM      5  C3  UNL d   1      -1.127   1.133   1.367  0.00  0.00    -0.047 A 
ATOM      6  C4  UNL d   1      -0.736   0.730   0.108  0.00  0.00    -0.004 A 
ENDROOT
TORSDOF 0
ENDMDL
