MODEL 1
REMARK minimizedAffinity -3.39214683
REMARK minimizedRMSD -1
REMARK  0 active torsions:
REMARK  status: ('A' for Active; 'I' for Inactive)
ROOT
ATOM      1  C   UNL d   1       0.545  -0.939  -0.418  0.00  0.00     0.172 C 
ATOM      2  N   UNL d   1      -0.165   0.060   0.346  0.00  0.00    -0.070 N 
ATOM      3  C1  UNL d   1      -0.451   1.332  -0.074  0.00  0.00    -0.004 A 
ATOM      4  C2  UNL d   1      -1.137   1.967   0.938  0.00  0.00    -0.047 A 
ATOM      5  C3  UNL d   1      -1.266   1.045   2.005  0.00  0.00    -0.047 A 
ATOM      6  C4  UNL d   1      -0.656  -0.127   1.611  0.00  0.00    -0.004 A 
ENDROOT
TORSDOF 0
ENDMDL
