MODEL 1
REMARK minimizedAffinity -2.3069346
REMARK minimizedRMSD -1
REMARK  0 active torsions:
REMARK  status: ('A' for Active; 'I' for Inactive)
ROOT
ATOM      1  C   UNL d   1       2.154  -0.462  -0.658  0.00  0.00     0.124 A 
ATOM      2  C1  UNL d   1       1.456  -1.598  -0.272  0.00  0.00     0.062 A 
ATOM      3  C2  UNL d   1       0.319  -1.485   0.523  0.00  0.00     0.162 A 
ATOM      4  C3  UNL d   1      -0.127  -0.230   0.937  0.00  0.00    -0.034 A 
ATOM      5  C4  UNL d   1       0.580   0.908   0.546  0.00  0.00     0.162 A 
ATOM      6  C5  UNL d   1       1.716   0.789  -0.249  0.00  0.00     0.062 A 
ATOM      7  F   UNL d   1       2.389   1.888  -0.621  0.00  0.00    -0.097 F 
ATOM      8  F1  UNL d   1       0.179   2.130   0.926  0.00  0.00    -0.096 F 
ATOM      9  I   UNL d   1      -1.827  -0.056   2.126  0.00  0.00    -0.060 I 
ATOM     10  F2  UNL d   1      -0.336  -2.599   0.881  0.00  0.00    -0.096 F 
ATOM     11  F3  UNL d   1       1.878  -2.808  -0.665  0.00  0.00    -0.097 F 
ATOM     12  F4  UNL d   1       3.248  -0.574  -1.422  0.00  0.00    -0.092 F 
ENDROOT
TORSDOF 0
ENDMDL
