MODEL 1
REMARK minimizedAffinity -2.97920871
REMARK minimizedRMSD -1
REMARK  0 active torsions:
REMARK  status: ('A' for Active; 'I' for Inactive)
ROOT
ATOM      1  C   UNL d   1      -1.269   1.542  -0.861  0.00  0.00     0.124 A 
ATOM      2  C1  UNL d   1      -1.028   1.295   0.484  0.00  0.00     0.062 A 
ATOM      3  C2  UNL d   1      -0.268   0.193   0.867  0.00  0.00     0.162 A 
ATOM      4  C3  UNL d   1       0.258  -0.668  -0.095  0.00  0.00    -0.034 A 
ATOM      5  C4  UNL d   1       0.011  -0.413  -1.445  0.00  0.00     0.162 A 
ATOM      6  C5  UNL d   1      -0.749   0.689  -1.823  0.00  0.00     0.062 A 
ATOM      7  F   UNL d   1      -0.981   0.926  -3.123  0.00  0.00    -0.097 F 
ATOM      8  F1  UNL d   1       0.501  -1.221  -2.396  0.00  0.00    -0.096 F 
ATOM      9  I   UNL d   1       1.395  -2.316   0.474  0.00  0.00    -0.060 I 
ATOM     10  F2  UNL d   1      -0.051  -0.022   2.173  0.00  0.00    -0.096 F 
ATOM     11  F3  UNL d   1      -1.529   2.118   1.416  0.00  0.00    -0.097 F 
ATOM     12  F4  UNL d   1      -2.001   2.602  -1.227  0.00  0.00    -0.092 F 
ENDROOT
TORSDOF 0
ENDMDL
