MODEL 1
REMARK minimizedAffinity -0.775961936
REMARK minimizedRMSD -1
REMARK  0 active torsions:
REMARK  status: ('A' for Active; 'I' for Inactive)
ROOT
ATOM      1  C   UNL d   1       0.941  -1.494   1.522  0.00  0.00     0.124 A 
ATOM      2  C1  UNL d   1       1.753  -1.096   0.468  0.00  0.00     0.062 A 
ATOM      3  C2  UNL d   1       1.345  -0.073  -0.383  0.00  0.00     0.162 A 
ATOM      4  C3  UNL d   1       0.118   0.561  -0.183  0.00  0.00    -0.034 A 
ATOM      5  C4  UNL d   1      -0.693   0.155   0.878  0.00  0.00     0.162 A 
ATOM      6  C5  UNL d   1      -0.281  -0.868   1.725  0.00  0.00     0.062 A 
ATOM      7  F   UNL d   1      -1.066  -1.251   2.743  0.00  0.00    -0.097 F 
ATOM      8  F1  UNL d   1      -1.878   0.743   1.098  0.00  0.00    -0.096 F 
ATOM      9  I   UNL d   1      -0.496   2.091  -1.453  0.00  0.00    -0.060 I 
ATOM     10  F2  UNL d   1       2.149   0.291  -1.392  0.00  0.00    -0.096 F 
ATOM     11  F3  UNL d   1       2.933  -1.700   0.269  0.00  0.00    -0.097 F 
ATOM     12  F4  UNL d   1       1.336  -2.479   2.338  0.00  0.00    -0.092 F 
ENDROOT
TORSDOF 0
ENDMDL
