MODEL 1
REMARK minimizedAffinity 1.16006064
REMARK minimizedRMSD -1
REMARK  0 active torsions:
REMARK  status: ('A' for Active; 'I' for Inactive)
ROOT
ATOM      1  C   UNL d   1       0.887  -1.708   0.922  0.00  0.00     0.124 A 
ATOM      2  C1  UNL d   1      -0.480  -1.478   0.850  0.00  0.00     0.062 A 
ATOM      3  C2  UNL d   1      -0.970  -0.393   0.129  0.00  0.00     0.162 A 
ATOM      4  C3  UNL d   1      -0.093   0.471  -0.526  0.00  0.00    -0.034 A 
ATOM      5  C4  UNL d   1       1.281   0.234  -0.448  0.00  0.00     0.162 A 
ATOM      6  C5  UNL d   1       1.766  -0.852   0.273  0.00  0.00     0.062 A 
ATOM      7  F   UNL d   1       3.087  -1.073   0.341  0.00  0.00    -0.097 F 
ATOM      8  F1  UNL d   1       2.152   1.044  -1.067  0.00  0.00    -0.096 F 
ATOM      9  I   UNL d   1      -0.822   2.095  -1.604  0.00  0.00    -0.060 I 
ATOM     10  F2  UNL d   1      -2.296  -0.195   0.077  0.00  0.00    -0.096 F 
ATOM     11  F3  UNL d   1      -1.331  -2.303   1.477  0.00  0.00    -0.097 F 
ATOM     12  F4  UNL d   1       1.356  -2.753   1.616  0.00  0.00    -0.092 F 
ENDROOT
TORSDOF 0
ENDMDL
