MODEL 1
REMARK minimizedAffinity -1.70369482
REMARK minimizedRMSD -1
REMARK  0 active torsions:
REMARK  status: ('A' for Active; 'I' for Inactive)
ROOT
ATOM      1  C   UNL d   1       1.078  -2.245   1.099  0.00  0.00     0.124 A 
ATOM      2  C1  UNL d   1       1.792  -1.357   0.307  0.00  0.00     0.062 A 
ATOM      3  C2  UNL d   1       1.179  -0.208  -0.184  0.00  0.00     0.162 A 
ATOM      4  C3  UNL d   1      -0.156   0.060   0.116  0.00  0.00    -0.034 A 
ATOM      5  C4  UNL d   1      -0.869  -0.838   0.913  0.00  0.00     0.162 A 
ATOM      6  C5  UNL d   1      -0.251  -1.985   1.401  0.00  0.00     0.062 A 
ATOM      7  F   UNL d   1      -0.943  -2.843   2.166  0.00  0.00    -0.097 F 
ATOM      8  F1  UNL d   1      -2.154  -0.611   1.221  0.00  0.00    -0.096 F 
ATOM      9  I   UNL d   1      -1.077   1.777  -0.615  0.00  0.00    -0.060 I 
ATOM     10  F2  UNL d   1       1.893   0.633  -0.947  0.00  0.00    -0.096 F 
ATOM     11  F3  UNL d   1       3.076  -1.606   0.013  0.00  0.00    -0.097 F 
ATOM     12  F4  UNL d   1       1.670  -3.351   1.569  0.00  0.00    -0.092 F 
ENDROOT
TORSDOF 0
ENDMDL
