MODEL 1
REMARK minimizedAffinity -2.44605827
REMARK minimizedRMSD -1
REMARK  0 active torsions:
REMARK  status: ('A' for Active; 'I' for Inactive)
ROOT
ATOM      1  C   UNL d   1       1.129  -0.265   0.294  0.00  0.00     0.124 A 
ATOM      2  C1  UNL d   1       1.102   1.049  -0.153  0.00  0.00     0.062 A 
ATOM      3  C2  UNL d   1      -0.037   1.554  -0.773  0.00  0.00     0.162 A 
ATOM      4  C3  UNL d   1      -1.160   0.745  -0.949  0.00  0.00    -0.034 A 
ATOM      5  C4  UNL d   1      -1.125  -0.576  -0.497  0.00  0.00     0.162 A 
ATOM      6  C5  UNL d   1       0.017  -1.076   0.122  0.00  0.00     0.062 A 
ATOM      7  F   UNL d   1       0.041  -2.345   0.553  0.00  0.00    -0.097 F 
ATOM      8  F1  UNL d   1      -2.186  -1.381  -0.650  0.00  0.00    -0.096 F 
ATOM      9  I   UNL d   1      -2.866   1.495  -1.875  0.00  0.00    -0.060 I 
ATOM     10  F2  UNL d   1      -0.036   2.827  -1.196  0.00  0.00    -0.096 F 
ATOM     11  F3  UNL d   1       2.176   1.834   0.011  0.00  0.00    -0.097 F 
ATOM     12  F4  UNL d   1       2.227  -0.748   0.889  0.00  0.00    -0.092 F 
ENDROOT
TORSDOF 0
ENDMDL
