MODEL 1
REMARK minimizedAffinity 1.32736552
REMARK minimizedRMSD -1
REMARK  0 active torsions:
REMARK  status: ('A' for Active; 'I' for Inactive)
ROOT
ATOM      1  C   UNL d   1       1.531  -0.593  -0.002  0.00  0.00     0.124 A 
ATOM      2  C1  UNL d   1       1.356   0.784   0.005  0.00  0.00     0.062 A 
ATOM      3  C2  UNL d   1       0.218   1.347  -0.566  0.00  0.00     0.162 A 
ATOM      4  C3  UNL d   1      -0.754   0.534  -1.148  0.00  0.00    -0.034 A 
ATOM      5  C4  UNL d   1      -0.570  -0.850  -1.152  0.00  0.00     0.162 A 
ATOM      6  C5  UNL d   1       0.568  -1.408  -0.580  0.00  0.00     0.062 A 
ATOM      7  F   UNL d   1       0.736  -2.739  -0.587  0.00  0.00    -0.097 F 
ATOM      8  F1  UNL d   1      -1.485  -1.661  -1.703  0.00  0.00    -0.096 F 
ATOM      9  I   UNL d   1      -2.456   1.373  -2.002  0.00  0.00    -0.060 I 
ATOM     10  F2  UNL d   1       0.075   2.681  -0.545  0.00  0.00    -0.096 F 
ATOM     11  F3  UNL d   1       2.285   1.574   0.562  0.00  0.00    -0.097 F 
ATOM     12  F4  UNL d   1       2.627  -1.133   0.548  0.00  0.00    -0.092 F 
ENDROOT
TORSDOF 0
ENDMDL
