MODEL 1
REMARK minimizedAffinity -2.48090243
REMARK minimizedRMSD -1
REMARK  0 active torsions:
REMARK  status: ('A' for Active; 'I' for Inactive)
ROOT
ATOM      1  C   UNL d   1       0.569  -1.622   1.289  0.00  0.00     0.124 A 
ATOM      2  C1  UNL d   1       1.479  -1.085   0.389  0.00  0.00     0.062 A 
ATOM      3  C2  UNL d   1       1.124   0.006  -0.399  0.00  0.00     0.162 A 
ATOM      4  C3  UNL d   1      -0.148   0.569  -0.290  0.00  0.00    -0.034 A 
ATOM      5  C4  UNL d   1      -1.058   0.023   0.617  0.00  0.00     0.162 A 
ATOM      6  C5  UNL d   1      -0.698  -1.068   1.402  0.00  0.00     0.062 A 
ATOM      7  F   UNL d   1      -1.578  -1.585   2.271  0.00  0.00    -0.097 F 
ATOM      8  F1  UNL d   1      -2.289   0.539   0.748  0.00  0.00    -0.096 F 
ATOM      9  I   UNL d   1      -0.684   2.200  -1.466  0.00  0.00    -0.060 I 
ATOM     10  F2  UNL d   1       2.023   0.505  -1.261  0.00  0.00    -0.096 F 
ATOM     11  F3  UNL d   1       2.704  -1.618   0.276  0.00  0.00    -0.097 F 
ATOM     12  F4  UNL d   1       0.914  -2.672   2.045  0.00  0.00    -0.092 F 
ENDROOT
TORSDOF 0
ENDMDL
