MODEL 1
REMARK minimizedAffinity -2.73245001
REMARK minimizedRMSD -1
REMARK  0 active torsions:
REMARK  status: ('A' for Active; 'I' for Inactive)
ROOT
ATOM      1  C   UNL d   1       0.038   1.246  -0.598  0.00  0.00     0.124 A 
ATOM      2  C1  UNL d   1      -0.761   0.529   0.282  0.00  0.00     0.062 A 
ATOM      3  C2  UNL d   1      -0.336  -0.703   0.769  0.00  0.00     0.162 A 
ATOM      4  C3  UNL d   1       0.896  -1.227   0.378  0.00  0.00    -0.034 A 
ATOM      5  C4  UNL d   1       1.694  -0.501  -0.508  0.00  0.00     0.162 A 
ATOM      6  C5  UNL d   1       1.265   0.730  -0.992  0.00  0.00     0.062 A 
ATOM      7  F   UNL d   1       2.038   1.420  -1.842  0.00  0.00    -0.097 F 
ATOM      8  F1  UNL d   1       2.884  -0.976  -0.904  0.00  0.00    -0.096 F 
ATOM      9  I   UNL d   1       1.536  -3.070   1.105  0.00  0.00    -0.060 I 
ATOM     10  F2  UNL d   1      -1.129  -1.373   1.619  0.00  0.00    -0.096 F 
ATOM     11  F3  UNL d   1      -1.947   1.025   0.663  0.00  0.00    -0.097 F 
ATOM     12  F4  UNL d   1      -0.374   2.431  -1.066  0.00  0.00    -0.092 F 
ENDROOT
TORSDOF 0
ENDMDL
