MODEL 1
REMARK minimizedAffinity 0.397255093
REMARK minimizedRMSD -1
REMARK  0 active torsions:
REMARK  status: ('A' for Active; 'I' for Inactive)
ROOT
ATOM      1  C   UNL d   1       0.661  -1.676   0.742  0.00  0.00     0.124 A 
ATOM      2  C1  UNL d   1       1.594  -1.086  -0.100  0.00  0.00     0.062 A 
ATOM      3  C2  UNL d   1       1.246   0.027  -0.859  0.00  0.00     0.162 A 
ATOM      4  C3  UNL d   1      -0.041   0.558  -0.780  0.00  0.00    -0.034 A 
ATOM      5  C4  UNL d   1      -0.974  -0.041   0.069  0.00  0.00     0.162 A 
ATOM      6  C5  UNL d   1      -0.621  -1.153   0.826  0.00  0.00     0.062 A 
ATOM      7  F   UNL d   1      -1.524  -1.722   1.639  0.00  0.00    -0.097 F 
ATOM      8  F1  UNL d   1      -2.220   0.445   0.169  0.00  0.00    -0.096 F 
ATOM      9  I   UNL d   1      -0.566   2.223  -1.914  0.00  0.00    -0.060 I 
ATOM     10  F2  UNL d   1       2.167   0.576  -1.664  0.00  0.00    -0.096 F 
ATOM     11  F3  UNL d   1       2.834  -1.590  -0.183  0.00  0.00    -0.097 F 
ATOM     12  F4  UNL d   1       0.999  -2.748   1.471  0.00  0.00    -0.092 F 
ENDROOT
TORSDOF 0
ENDMDL
