MODEL 1
REMARK minimizedAffinity -0.214590967
REMARK minimizedRMSD -1
REMARK  0 active torsions:
REMARK  status: ('A' for Active; 'I' for Inactive)
ROOT
ATOM      1  C   UNL d   1       0.677  -1.563   1.240  0.00  0.00     0.124 A 
ATOM      2  C1  UNL d   1      -0.510  -0.896   1.506  0.00  0.00     0.062 A 
ATOM      3  C2  UNL d   1      -0.994   0.055   0.612  0.00  0.00     0.162 A 
ATOM      4  C3  UNL d   1      -0.291   0.343  -0.557  0.00  0.00    -0.034 A 
ATOM      5  C4  UNL d   1       0.903  -0.331  -0.817  0.00  0.00     0.162 A 
ATOM      6  C5  UNL d   1       1.383  -1.280   0.079  0.00  0.00     0.062 A 
ATOM      7  F   UNL d   1       2.530  -1.924  -0.180  0.00  0.00    -0.097 F 
ATOM      8  F1  UNL d   1       1.604  -0.078  -1.932  0.00  0.00    -0.096 F 
ATOM      9  I   UNL d   1      -1.012   1.764  -1.896  0.00  0.00    -0.060 I 
ATOM     10  F2  UNL d   1      -2.145   0.684   0.895  0.00  0.00    -0.096 F 
ATOM     11  F3  UNL d   1      -1.193  -1.167   2.628  0.00  0.00    -0.097 F 
ATOM     12  F4  UNL d   1       1.141  -2.477   2.102  0.00  0.00    -0.092 F 
ENDROOT
TORSDOF 0
ENDMDL
