MODEL 1
REMARK minimizedAffinity -1.41615164
REMARK minimizedRMSD -1
REMARK  0 active torsions:
REMARK  status: ('A' for Active; 'I' for Inactive)
ROOT
ATOM      1  C   UNL d   1       1.667  -0.916   0.252  0.00  0.00     0.124 A 
ATOM      2  C1  UNL d   1       0.501  -1.657   0.388  0.00  0.00     0.062 A 
ATOM      3  C2  UNL d   1      -0.696  -1.182  -0.141  0.00  0.00     0.162 A 
ATOM      4  C3  UNL d   1      -0.733   0.040  -0.811  0.00  0.00    -0.034 A 
ATOM      5  C4  UNL d   1       0.443   0.780  -0.943  0.00  0.00     0.162 A 
ATOM      6  C5  UNL d   1       1.637   0.302  -0.413  0.00  0.00     0.062 A 
ATOM      7  F   UNL d   1       2.762   1.019  -0.546  0.00  0.00    -0.097 F 
ATOM      8  F1  UNL d   1       0.443   1.960  -1.582  0.00  0.00    -0.096 F 
ATOM      9  I   UNL d   1      -2.521   0.753  -1.603  0.00  0.00    -0.060 I 
ATOM     10  F2  UNL d   1      -1.806  -1.920   0.006  0.00  0.00    -0.096 F 
ATOM     11  F3  UNL d   1       0.528  -2.833   1.031  0.00  0.00    -0.097 F 
ATOM     12  F4  UNL d   1       2.817  -1.374   0.762  0.00  0.00    -0.092 F 
ENDROOT
TORSDOF 0
ENDMDL
