MODEL 1
REMARK minimizedAffinity -1.67934954
REMARK minimizedRMSD -1
REMARK  0 active torsions:
REMARK  status: ('A' for Active; 'I' for Inactive)
ROOT
ATOM      1  C   UNL d   1      -0.930   1.339   0.571  0.00  0.00     0.124 A 
ATOM      2  C1  UNL d   1       0.060   1.051  -0.358  0.00  0.00     0.062 A 
ATOM      3  C2  UNL d   1       0.729  -0.169  -0.313  0.00  0.00     0.162 A 
ATOM      4  C3  UNL d   1       0.410  -1.111   0.665  0.00  0.00    -0.034 A 
ATOM      5  C4  UNL d   1      -0.586  -0.814   1.597  0.00  0.00     0.162 A 
ATOM      6  C5  UNL d   1      -1.252   0.406   1.548  0.00  0.00     0.062 A 
ATOM      7  F   UNL d   1      -2.208   0.683   2.447  0.00  0.00    -0.097 F 
ATOM      8  F1  UNL d   1      -0.918  -1.697   2.551  0.00  0.00    -0.096 F 
ATOM      9  I   UNL d   1       1.408  -2.936   0.736  0.00  0.00    -0.060 I 
ATOM     10  F2  UNL d   1       1.681  -0.420  -1.224  0.00  0.00    -0.096 F 
ATOM     11  F3  UNL d   1       0.373   1.950  -1.302  0.00  0.00    -0.097 F 
ATOM     12  F4  UNL d   1      -1.572   2.513   0.526  0.00  0.00    -0.092 F 
ENDROOT
TORSDOF 0
ENDMDL
