MODEL 1
REMARK minimizedAffinity -2.35953689
REMARK minimizedRMSD -1
REMARK  0 active torsions:
REMARK  status: ('A' for Active; 'I' for Inactive)
ROOT
ATOM      1  C   UNL d   1       1.185  -2.144   0.912  0.00  0.00     0.124 A 
ATOM      2  C1  UNL d   1      -0.169  -1.876   1.058  0.00  0.00     0.062 A 
ATOM      3  C2  UNL d   1      -0.720  -0.727   0.497  0.00  0.00     0.162 A 
ATOM      4  C3  UNL d   1       0.083   0.162  -0.217  0.00  0.00    -0.034 A 
ATOM      5  C4  UNL d   1       1.444  -0.113  -0.359  0.00  0.00     0.162 A 
ATOM      6  C5  UNL d   1       1.990  -1.263   0.203  0.00  0.00     0.062 A 
ATOM      7  F   UNL d   1       3.298  -1.520   0.061  0.00  0.00    -0.097 F 
ATOM      8  F1  UNL d   1       2.245   0.720  -1.039  0.00  0.00    -0.096 F 
ATOM      9  I   UNL d   1      -0.737   1.881  -1.057  0.00  0.00    -0.060 I 
ATOM     10  F2  UNL d   1      -2.031  -0.494   0.655  0.00  0.00    -0.096 F 
ATOM     11  F3  UNL d   1      -0.949  -2.725   1.743  0.00  0.00    -0.097 F 
ATOM     12  F4  UNL d   1       1.713  -3.249   1.453  0.00  0.00    -0.092 F 
ENDROOT
TORSDOF 0
ENDMDL
