MODEL 1
REMARK minimizedAffinity 5.5842185
REMARK minimizedRMSD -1
REMARK  1 active torsions:
REMARK  status: ('A' for Active; 'I' for Inactive)
REMARK    1  A    between atoms: C1_2  and  C2_3 
ROOT
ATOM      1  C2  UNL d   1       3.525  -5.386   2.250  0.00  0.00    -0.073 A 
ATOM      2  C3  UNL d   1       3.052  -5.999   3.416  0.00  0.00    -0.002 A 
ATOM      3  C4  UNL d   1       1.688  -6.000   3.709  0.00  0.00     0.004 A 
ATOM      4  C5  UNL d   1       0.783  -5.395   2.837  0.00  0.00    -0.004 A 
ATOM      5  C6  UNL d   1       1.234  -4.787   1.661  0.00  0.00    -0.075 A 
ATOM      6  C7  UNL d   1       0.274  -4.130   0.714  0.00  0.00     0.076 C 
ATOM      7  C8  UNL d   1       2.606  -4.788   1.376  0.00  0.00     0.001 A 
ENDROOT
BRANCH   1   8
ATOM      8  C1  UNL d   1       4.997  -5.389   1.927  0.00  0.00     0.053 C 
ATOM      9  C   UNL d   1       5.854  -5.536   3.173  0.00  0.00     0.018 C 
ENDBRANCH   1   8
TORSDOF 1
ENDMDL
