MODEL 1
REMARK minimizedAffinity 9.29366112
REMARK minimizedRMSD -1
REMARK  1 active torsions:
REMARK  status: ('A' for Active; 'I' for Inactive)
REMARK    1  A    between atoms: C1_2  and  C2_3 
ROOT
ATOM      1  C2  UNL d   1      -3.347  -2.560  -5.922  0.00  0.00    -0.073 A 
ATOM      2  C3  UNL d   1      -4.665  -3.025  -5.843  0.00  0.00    -0.002 A 
ATOM      3  C4  UNL d   1      -4.929  -4.395  -5.819  0.00  0.00     0.004 A 
ATOM      4  C5  UNL d   1      -3.880  -5.313  -5.867  0.00  0.00    -0.004 A 
ATOM      5  C6  UNL d   1      -2.556  -4.868  -5.934  0.00  0.00    -0.075 A 
ATOM      6  C7  UNL d   1      -1.416  -5.842  -5.988  0.00  0.00     0.076 C 
ATOM      7  C8  UNL d   1      -2.299  -3.490  -5.960  0.00  0.00     0.001 A 
ENDROOT
BRANCH   1   8
ATOM      8  C1  UNL d   1      -3.057  -1.082  -5.942  0.00  0.00     0.053 C 
ATOM      9  C   UNL d   1      -1.564  -0.794  -5.978  0.00  0.00     0.018 C 
ENDBRANCH   1   8
TORSDOF 1
ENDMDL
