MODEL 1
REMARK minimizedAffinity 12.6040545
REMARK minimizedRMSD -1
REMARK  1 active torsions:
REMARK  status: ('A' for Active; 'I' for Inactive)
REMARK    1  A    between atoms: C1_2  and  C2_3 
ROOT
ATOM      1  C2  UNL d   1      -3.772  -2.423  -5.933  0.00  0.00    -0.073 A 
ATOM      2  C3  UNL d   1      -2.990  -3.584  -5.919  0.00  0.00    -0.002 A 
ATOM      3  C4  UNL d   1      -1.598  -3.496  -5.938  0.00  0.00     0.004 A 
ATOM      4  C5  UNL d   1      -0.973  -2.249  -5.965  0.00  0.00    -0.004 A 
ATOM      5  C6  UNL d   1      -1.737  -1.077  -5.967  0.00  0.00    -0.075 A 
ATOM      6  C7  UNL d   1      -1.081   0.272  -5.997  0.00  0.00     0.076 C 
ATOM      7  C8  UNL d   1      -3.135  -1.174  -5.950  0.00  0.00     0.001 A 
ENDROOT
BRANCH   1   8
ATOM      8  C1  UNL d   1      -5.276  -2.513  -5.905  0.00  0.00     0.053 C 
ATOM      9  C   UNL d   1      -5.761  -3.954  -5.883  0.00  0.00     0.018 C 
ENDBRANCH   1   8
TORSDOF 1
ENDMDL
