MODEL 1
REMARK minimizedAffinity 1.37557983
REMARK minimizedRMSD -1
REMARK  1 active torsions:
REMARK  status: ('A' for Active; 'I' for Inactive)
REMARK    1  A    between atoms: C1_2  and  C2_3 
ROOT
ATOM      1  C2  UNL d   1      -3.834   1.242   3.296  0.00  0.00    -0.073 A 
ATOM      2  C3  UNL d   1      -4.172   1.411   1.949  0.00  0.00    -0.002 A 
ATOM      3  C4  UNL d   1      -3.218   1.205   0.952  0.00  0.00     0.004 A 
ATOM      4  C5  UNL d   1      -1.920   0.821   1.290  0.00  0.00    -0.004 A 
ATOM      5  C6  UNL d   1      -1.567   0.635   2.630  0.00  0.00    -0.075 A 
ATOM      6  C7  UNL d   1      -0.174   0.225   3.011  0.00  0.00     0.076 C 
ATOM      7  C8  UNL d   1      -2.529   0.847   3.626  0.00  0.00     0.001 A 
ENDROOT
BRANCH   1   8
ATOM      8  C1  UNL d   1      -4.862   1.457   4.376  0.00  0.00     0.053 C 
ATOM      9  C   UNL d   1      -4.779   0.396   5.462  0.00  0.00     0.018 C 
ENDBRANCH   1   8
TORSDOF 1
ENDMDL
