MODEL 1
REMARK minimizedAffinity 4.67154264
REMARK minimizedRMSD -1
REMARK  1 active torsions:
REMARK  status: ('A' for Active; 'I' for Inactive)
REMARK    1  A    between atoms: C1_2  and  C2_3 
ROOT
ATOM      1  C2  UNL d   1      -3.327  -1.092   0.686  0.00  0.00    -0.073 A 
ATOM      2  C3  UNL d   1      -4.393  -0.245   1.010  0.00  0.00    -0.002 A 
ATOM      3  C4  UNL d   1      -4.178   0.889   1.795  0.00  0.00     0.004 A 
ATOM      4  C5  UNL d   1      -2.897   1.191   2.256  0.00  0.00    -0.004 A 
ATOM      5  C6  UNL d   1      -1.817   0.363   1.933  0.00  0.00    -0.075 A 
ATOM      6  C7  UNL d   1      -0.434   0.673   2.424  0.00  0.00     0.076 C 
ATOM      7  C8  UNL d   1      -2.041  -0.775   1.148  0.00  0.00     0.001 A 
ENDROOT
BRANCH   1   8
ATOM      8  C1  UNL d   1      -3.553  -2.315  -0.165  0.00  0.00     0.053 C 
ATOM      9  C   UNL d   1      -2.560  -3.422   0.152  0.00  0.00     0.018 C 
ENDBRANCH   1   8
TORSDOF 1
ENDMDL
