MODEL 1
REMARK minimizedAffinity 7.40415382
REMARK minimizedRMSD -1
REMARK  1 active torsions:
REMARK  status: ('A' for Active; 'I' for Inactive)
REMARK    1  A    between atoms: C1_2  and  C2_3 
ROOT
ATOM      1  C2  UNL d   1      -2.071   0.452   1.951  0.00  0.00    -0.073 A 
ATOM      2  C3  UNL d   1      -2.492   0.334   3.281  0.00  0.00    -0.002 A 
ATOM      3  C4  UNL d   1      -3.845   0.443   3.605  0.00  0.00     0.004 A 
ATOM      4  C5  UNL d   1      -4.791   0.663   2.603  0.00  0.00    -0.004 A 
ATOM      5  C6  UNL d   1      -4.391   0.771   1.267  0.00  0.00    -0.075 A 
ATOM      6  C7  UNL d   1      -5.396   1.010   0.179  0.00  0.00     0.076 C 
ATOM      7  C8  UNL d   1      -3.030   0.664   0.951  0.00  0.00     0.001 A 
ENDROOT
BRANCH   1   8
ATOM      8  C1  UNL d   1      -0.612   0.329   1.596  0.00  0.00     0.053 C 
ATOM      9  C   UNL d   1       0.277   0.336   2.830  0.00  0.00     0.018 C 
ENDBRANCH   1   8
TORSDOF 1
ENDMDL
