MODEL 1
REMARK minimizedAffinity 9.9913168
REMARK minimizedRMSD -1
REMARK  1 active torsions:
REMARK  status: ('A' for Active; 'I' for Inactive)
REMARK    1  A    between atoms: C1_2  and  C2_3 
ROOT
ATOM      1  C2  UNL d   1       1.355  -5.941   1.643  0.00  0.00    -0.073 A 
ATOM      2  C3  UNL d   1       1.827  -5.998   0.326  0.00  0.00    -0.002 A 
ATOM      3  C4  UNL d   1       0.935  -5.937  -0.745  0.00  0.00     0.004 A 
ATOM      4  C5  UNL d   1      -0.434  -5.811  -0.513  0.00  0.00    -0.004 A 
ATOM      5  C6  UNL d   1      -0.924  -5.739   0.795  0.00  0.00    -0.075 A 
ATOM      6  C7  UNL d   1      -2.394  -5.606   1.063  0.00  0.00     0.076 C 
ATOM      7  C8  UNL d   1      -0.022  -5.804   1.866  0.00  0.00     0.001 A 
ENDROOT
BRANCH   1   8
ATOM      8  C1  UNL d   1       2.315  -6.000   2.803  0.00  0.00     0.053 C 
ATOM      9  C   UNL d   1       3.765  -5.991   2.345  0.00  0.00     0.018 C 
ENDBRANCH   1   8
TORSDOF 1
ENDMDL
