MODEL 1
REMARK minimizedAffinity -0.93452698
REMARK minimizedRMSD -1
REMARK  1 active torsions:
REMARK  status: ('A' for Active; 'I' for Inactive)
REMARK    1  A    between atoms: C1_2  and  C2_3 
ROOT
ATOM      1  C2  UNL d   1       1.776   0.471   2.109  0.00  0.00    -0.073 A 
ATOM      2  C3  UNL d   1       1.442   0.612   0.757  0.00  0.00    -0.002 A 
ATOM      3  C4  UNL d   1       2.421   0.482  -0.228  0.00  0.00     0.004 A 
ATOM      4  C5  UNL d   1       3.741   0.202   0.126  0.00  0.00    -0.004 A 
ATOM      5  C6  UNL d   1       4.092   0.046   1.471  0.00  0.00    -0.075 A 
ATOM      6  C7  UNL d   1       5.507  -0.253   1.869  0.00  0.00     0.076 C 
ATOM      7  C8  UNL d   1       3.103   0.181   2.455  0.00  0.00     0.001 A 
ENDROOT
BRANCH   1   8
ATOM      8  C1  UNL d   1       0.720   0.604   3.176  0.00  0.00     0.053 C 
ATOM      9  C   UNL d   1       0.658   2.014   3.743  0.00  0.00     0.018 C 
ENDBRANCH   1   8
TORSDOF 1
ENDMDL
