MODEL 1
REMARK minimizedAffinity 5.6171813
REMARK minimizedRMSD -1
REMARK  1 active torsions:
REMARK  status: ('A' for Active; 'I' for Inactive)
REMARK    1  A    between atoms: C1_2  and  C2_3 
ROOT
ATOM      1  C2  UNL d   1      -1.934   1.061   1.700  0.00  0.00    -0.073 A 
ATOM      2  C3  UNL d   1      -2.098   2.341   2.242  0.00  0.00    -0.002 A 
ATOM      3  C4  UNL d   1      -1.246   2.794   3.250  0.00  0.00     0.004 A 
ATOM      4  C5  UNL d   1      -0.219   1.976   3.721  0.00  0.00    -0.004 A 
ATOM      5  C6  UNL d   1      -0.031   0.699   3.184  0.00  0.00    -0.075 A 
ATOM      6  C7  UNL d   1       1.068  -0.194   3.682  0.00  0.00     0.076 C 
ATOM      7  C8  UNL d   1      -0.892   0.250   2.173  0.00  0.00     0.001 A 
ENDROOT
BRANCH   1   8
ATOM      8  C1  UNL d   1      -2.846   0.570   0.606  0.00  0.00     0.053 C 
ATOM      9  C   UNL d   1      -3.599  -0.687   1.013  0.00  0.00     0.018 C 
ENDBRANCH   1   8
TORSDOF 1
ENDMDL
