MODEL 1
REMARK minimizedAffinity 9.29205322
REMARK minimizedRMSD -1
REMARK  1 active torsions:
REMARK  status: ('A' for Active; 'I' for Inactive)
REMARK    1  A    between atoms: C1_2  and  C2_3 
ROOT
ATOM      1  C2  UNL d   1       0.359   1.170   2.753  0.00  0.00    -0.073 A 
ATOM      2  C3  UNL d   1      -0.277   0.788   1.566  0.00  0.00    -0.002 A 
ATOM      3  C4  UNL d   1       0.466   0.279   0.500  0.00  0.00     0.004 A 
ATOM      4  C5  UNL d   1       1.849   0.140   0.612  0.00  0.00    -0.004 A 
ATOM      5  C6  UNL d   1       2.502   0.504   1.794  0.00  0.00    -0.075 A 
ATOM      6  C7  UNL d   1       3.990   0.363   1.929  0.00  0.00     0.076 C 
ATOM      7  C8  UNL d   1       1.749   1.017   2.859  0.00  0.00     0.001 A 
ENDROOT
BRANCH   1   8
ATOM      8  C1  UNL d   1      -0.439   1.714   3.909  0.00  0.00     0.053 C 
ATOM      9  C   UNL d   1      -1.769   2.298   3.459  0.00  0.00     0.018 C 
ENDBRANCH   1   8
TORSDOF 1
ENDMDL
