MODEL 1
REMARK minimizedAffinity -4.02595901
REMARK minimizedRMSD -1
REMARK  0 active torsions:
REMARK  status: ('A' for Active; 'I' for Inactive)
ROOT
ATOM      1  N1  IND d   1      -0.255   1.161   0.661  0.00  0.00    -0.196 N 
ATOM      2  C2  IND d   1      -1.199   0.193   0.462  0.00  0.00     0.054 A 
ATOM      3  C3  IND d   1      -0.607  -0.994   0.197  0.00  0.00    -0.031 A 
ATOM      4  C4  IND d   1       1.894  -1.598   0.141  0.00  0.00     0.051 A 
ATOM      5  C5  IND d   1       3.139  -1.040   0.224  0.00  0.00    -0.031 A 
ATOM      6  C6  IND d   1       3.320   0.307   0.465  0.00  0.00     0.015 A 
ATOM      7  C7  IND d   1       2.258   1.147   0.643  0.00  0.00    -0.016 A 
ATOM      8  C8  IND d   1       0.992   0.586   0.552  0.00  0.00    -0.047 A 
ATOM      9  C9  IND d   1       0.802  -0.772   0.266  0.00  0.00    -0.096 A 
ATOM     10  HN1 IND d   1      -0.413   1.990   0.825  0.00  0.00     0.298 HD
ENDROOT
TORSDOF 0
ENDMDL
