MODEL 1
REMARK minimizedAffinity -5.26664686
REMARK minimizedRMSD -1
REMARK  0 active torsions:
REMARK  status: ('A' for Active; 'I' for Inactive)
ROOT
ATOM      1  N1  IND d   1      -0.860  -0.734   0.019  0.00  0.00    -0.196 N 
ATOM      2  C2  IND d   1      -1.262   0.540  -0.271  0.00  0.00     0.054 A 
ATOM      3  C3  IND d   1      -0.224   1.399  -0.155  0.00  0.00    -0.031 A 
ATOM      4  C4  IND d   1       2.243   0.916   0.400  0.00  0.00     0.051 A 
ATOM      5  C5  IND d   1       3.085  -0.092   0.778  0.00  0.00    -0.031 A 
ATOM      6  C6  IND d   1       2.647  -1.392   0.923  0.00  0.00     0.015 A 
ATOM      7  C7  IND d   1       1.346  -1.736   0.682  0.00  0.00    -0.016 A 
ATOM      8  C8  IND d   1       0.487  -0.714   0.306  0.00  0.00    -0.047 A 
ATOM      9  C9  IND d   1       0.917   0.615   0.199  0.00  0.00    -0.096 A 
ATOM     10  HN1 IND d   1      -1.364  -1.430   0.023  0.00  0.00     0.298 HD
ENDROOT
TORSDOF 0
ENDMDL
