MODEL 1
REMARK minimizedAffinity -3.0251658
REMARK minimizedRMSD -1
REMARK  0 active torsions:
REMARK  status: ('A' for Active; 'I' for Inactive)
ROOT
ATOM      1  N1  IND d   1      -1.983  -1.945  -0.676  0.00  0.00    -0.196 N 
ATOM      2  C2  IND d   1      -1.597  -1.033   0.267  0.00  0.00     0.054 A 
ATOM      3  C3  IND d   1      -1.949   0.215  -0.114  0.00  0.00    -0.031 A 
ATOM      4  C4  IND d   1      -3.254   0.984  -2.195  0.00  0.00     0.051 A 
ATOM      5  C5  IND d   1      -3.788   0.519  -3.364  0.00  0.00    -0.031 A 
ATOM      6  C6  IND d   1      -3.750  -0.819  -3.703  0.00  0.00     0.015 A 
ATOM      7  C7  IND d   1      -3.183  -1.747  -2.875  0.00  0.00    -0.016 A 
ATOM      8  C8  IND d   1      -2.633  -1.277  -1.691  0.00  0.00    -0.047 A 
ATOM      9  C9  IND d   1      -2.632   0.085  -1.362  0.00  0.00    -0.096 A 
ATOM     10  HN1 IND d   1      -1.843  -2.792  -0.642  0.00  0.00     0.298 HD
ENDROOT
TORSDOF 0
ENDMDL
