MODEL 1
REMARK minimizedAffinity -3.0840416
REMARK minimizedRMSD -1
REMARK  0 active torsions:
REMARK  status: ('A' for Active; 'I' for Inactive)
ROOT
ATOM      1  N1  IND d   1      -0.195  -1.756   1.275  0.00  0.00    -0.196 N 
ATOM      2  C2  IND d   1      -1.448  -1.312   0.954  0.00  0.00     0.054 A 
ATOM      3  C3  IND d   1      -1.399  -0.024   0.545  0.00  0.00    -0.031 A 
ATOM      4  C4  IND d   1       0.639   1.516   0.227  0.00  0.00     0.051 A 
ATOM      5  C5  IND d   1       1.990   1.569   0.425  0.00  0.00    -0.031 A 
ATOM      6  C6  IND d   1       2.697   0.494   0.924  0.00  0.00     0.015 A 
ATOM      7  C7  IND d   1       2.077  -0.684   1.234  0.00  0.00    -0.016 A 
ATOM      8  C8  IND d   1       0.704  -0.739   1.041  0.00  0.00    -0.047 A 
ATOM      9  C9  IND d   1      -0.025   0.363   0.576  0.00  0.00    -0.096 A 
ATOM     10  HN1 IND d   1      -0.002  -2.539   1.573  0.00  0.00     0.298 HD
ENDROOT
TORSDOF 0
ENDMDL
