MODEL 1
REMARK minimizedAffinity -3.25161171
REMARK minimizedRMSD -1
REMARK  0 active torsions:
REMARK  status: ('A' for Active; 'I' for Inactive)
ROOT
ATOM      1  N1  IND d   1      -0.199   0.350   0.369  0.00  0.00    -0.196 N 
ATOM      2  C2  IND d   1      -0.030   1.374  -0.520  0.00  0.00     0.054 A 
ATOM      3  C3  IND d   1       1.277   1.506  -0.842  0.00  0.00    -0.031 A 
ATOM      4  C4  IND d   1       3.294   0.085  -0.107  0.00  0.00     0.051 A 
ATOM      5  C5  IND d   1       3.643  -0.939   0.727  0.00  0.00    -0.031 A 
ATOM      6  C6  IND d   1       2.710  -1.602   1.498  0.00  0.00     0.015 A 
ATOM      7  C7  IND d   1       1.385  -1.270   1.455  0.00  0.00    -0.016 A 
ATOM      8  C8  IND d   1       1.028  -0.226   0.614  0.00  0.00    -0.047 A 
ATOM      9  C9  IND d   1       1.977   0.478  -0.139  0.00  0.00    -0.096 A 
ATOM     10  HN1 IND d   1      -0.947   0.106   0.716  0.00  0.00     0.298 HD
ENDROOT
TORSDOF 0
ENDMDL
