MODEL 1
REMARK minimizedAffinity -3.26397014
REMARK minimizedRMSD -1
REMARK  0 active torsions:
REMARK  status: ('A' for Active; 'I' for Inactive)
ROOT
ATOM      1  N1  IND d   1       2.361  -1.262   0.987  0.00  0.00    -0.196 N 
ATOM      2  C2  IND d   1       3.249  -0.279   1.327  0.00  0.00     0.054 A 
ATOM      3  C3  IND d   1       2.764   0.934   0.977  0.00  0.00    -0.031 A 
ATOM      4  C4  IND d   1       0.495   1.548  -0.071  0.00  0.00     0.051 A 
ATOM      5  C5  IND d   1      -0.637   0.988  -0.594  0.00  0.00    -0.031 A 
ATOM      6  C6  IND d   1      -0.832  -0.378  -0.615  0.00  0.00     0.015 A 
ATOM      7  C7  IND d   1       0.096  -1.238  -0.101  0.00  0.00    -0.016 A 
ATOM      8  C8  IND d   1       1.250  -0.673   0.425  0.00  0.00    -0.047 A 
ATOM      9  C9  IND d   1       1.472   0.710   0.410  0.00  0.00    -0.096 A 
ATOM     10  HN1 IND d   1       2.478  -2.105   1.105  0.00  0.00     0.298 HD
ENDROOT
TORSDOF 0
ENDMDL
