MODEL 1
REMARK minimizedAffinity -3.80885506
REMARK minimizedRMSD -1
REMARK  0 active torsions:
REMARK  status: ('A' for Active; 'I' for Inactive)
ROOT
ATOM      1  N1  IND d   1      -0.138  -0.668   0.470  0.00  0.00    -0.196 N 
ATOM      2  C2  IND d   1       1.122  -0.279   0.109  0.00  0.00     0.054 A 
ATOM      3  C3  IND d   1       1.089   0.395  -1.062  0.00  0.00    -0.031 A 
ATOM      4  C4  IND d   1      -0.932   1.063  -2.509  0.00  0.00     0.051 A 
ATOM      5  C5  IND d   1      -2.286   0.902  -2.609  0.00  0.00    -0.031 A 
ATOM      6  C6  IND d   1      -3.007   0.198  -1.667  0.00  0.00     0.015 A 
ATOM      7  C7  IND d   1      -2.402  -0.365  -0.580  0.00  0.00    -0.016 A 
ATOM      8  C8  IND d   1      -1.026  -0.209  -0.479  0.00  0.00    -0.047 A 
ATOM      9  C9  IND d   1      -0.282   0.468  -1.454  0.00  0.00    -0.096 A 
ATOM     10  HN1 IND d   1      -0.342  -1.122   1.171  0.00  0.00     0.298 HD
ENDROOT
TORSDOF 0
ENDMDL
