MODEL 1
REMARK minimizedAffinity -4.66822386
REMARK minimizedRMSD -1
REMARK  0 active torsions:
REMARK  status: ('A' for Active; 'I' for Inactive)
ROOT
ATOM      1  N1  IND d   1      -0.072  -1.318  -0.827  0.00  0.00    -0.196 N 
ATOM      2  C2  IND d   1      -1.186  -0.530  -0.903  0.00  0.00     0.054 A 
ATOM      3  C3  IND d   1      -1.023   0.589  -0.162  0.00  0.00    -0.031 A 
ATOM      4  C4  IND d   1       1.031   1.381   1.173  0.00  0.00     0.051 A 
ATOM      5  C5  IND d   1       2.277   0.983   1.570  0.00  0.00    -0.031 A 
ATOM      6  C6  IND d   1       2.815  -0.225   1.178  0.00  0.00     0.015 A 
ATOM      7  C7  IND d   1       2.130  -1.080   0.362  0.00  0.00    -0.016 A 
ATOM      8  C8  IND d   1       0.861  -0.682  -0.038  0.00  0.00    -0.047 A 
ATOM      9  C9  IND d   1       0.293   0.524   0.391  0.00  0.00    -0.096 A 
ATOM     10  HN1 IND d   1       0.030  -2.082  -1.208  0.00  0.00     0.298 HD
ENDROOT
TORSDOF 0
ENDMDL
