MODEL 1
REMARK minimizedAffinity -0.215224519
REMARK minimizedRMSD -1
REMARK  1 active torsions:
REMARK  status: ('A' for Active; 'I' for Inactive)
REMARK    1  A    between atoms: C1_2  and  C2_3 
ROOT
ATOM      1  C2  UNL d   1       0.082   1.621  -0.044  0.00  0.00    -0.081 A 
ATOM      2  C3  UNL d   1      -1.146   2.096  -0.519  0.00  0.00     0.006 A 
ATOM      3  C4  UNL d   1      -1.288   3.431  -0.904  0.00  0.00     0.002 A 
ATOM      4  C5  UNL d   1      -0.204   4.311  -0.828  0.00  0.00    -0.080 A 
ATOM      5  C6  UNL d   1      -0.335   5.739  -1.267  0.00  0.00     0.076 C 
ATOM      6  C7  UNL d   1       1.019   3.841  -0.337  0.00  0.00     0.002 A 
ATOM      7  C8  UNL d   1       1.162   2.507   0.049  0.00  0.00     0.006 A 
ENDROOT
BRANCH   1   8
ATOM      8  C1  UNL d   1       0.256   0.167   0.311  0.00  0.00     0.054 C 
ATOM      9  C   UNL d   1       1.670  -0.119   0.797  0.00  0.00     0.018 C 
ENDBRANCH   1   8
TORSDOF 1
ENDMDL
