MODEL 1
REMARK minimizedAffinity 1.33048105
REMARK minimizedRMSD -1
REMARK  1 active torsions:
REMARK  status: ('A' for Active; 'I' for Inactive)
REMARK    1  A    between atoms: C1_2  and  C2_3 
ROOT
ATOM      1  C2  UNL d   1      -0.866   2.430  -0.250  0.00  0.00    -0.081 A 
ATOM      2  C3  UNL d   1      -0.418   3.475   0.568  0.00  0.00     0.006 A 
ATOM      3  C4  UNL d   1      -1.331   4.274   1.260  0.00  0.00     0.002 A 
ATOM      4  C5  UNL d   1      -2.706   4.038   1.152  0.00  0.00    -0.080 A 
ATOM      5  C6  UNL d   1      -3.695   4.869   1.913  0.00  0.00     0.076 C 
ATOM      6  C7  UNL d   1      -3.154   3.005   0.321  0.00  0.00     0.002 A 
ATOM      7  C8  UNL d   1      -2.242   2.206  -0.372  0.00  0.00     0.006 A 
ENDROOT
BRANCH   1   8
ATOM      8  C1  UNL d   1       0.118   1.526  -0.947  0.00  0.00     0.054 C 
ATOM      9  C   UNL d   1       1.271   1.150  -0.027  0.00  0.00     0.018 C 
ENDBRANCH   1   8
TORSDOF 1
ENDMDL
