MODEL 1
REMARK minimizedAffinity 2.78871918
REMARK minimizedRMSD -1
REMARK  1 active torsions:
REMARK  status: ('A' for Active; 'I' for Inactive)
REMARK    1  A    between atoms: C1_2  and  C2_3 
ROOT
ATOM      1  C2  UNL d   1      -4.891   4.278  -4.255  0.00  0.00    -0.081 A 
ATOM      2  C3  UNL d   1      -3.666   3.812  -3.763  0.00  0.00     0.006 A 
ATOM      3  C4  UNL d   1      -3.550   2.512  -3.267  0.00  0.00     0.002 A 
ATOM      4  C5  UNL d   1      -4.654   1.653  -3.262  0.00  0.00    -0.080 A 
ATOM      5  C6  UNL d   1      -4.536   0.244  -2.760  0.00  0.00     0.076 C 
ATOM      6  C7  UNL d   1      -5.883   2.124  -3.737  0.00  0.00     0.002 A 
ATOM      7  C8  UNL d   1      -6.000   3.424  -4.232  0.00  0.00     0.006 A 
ENDROOT
BRANCH   1   8
ATOM      8  C1  UNL d   1      -5.004   5.658  -4.850  0.00  0.00     0.054 C 
ATOM      9  C   UNL d   1      -6.000   5.686  -6.000  0.00  0.00     0.018 C 
ENDBRANCH   1   8
TORSDOF 1
ENDMDL
