MODEL 1
REMARK minimizedAffinity 16.5610886
REMARK minimizedRMSD -1
REMARK  1 active torsions:
REMARK  status: ('A' for Active; 'I' for Inactive)
REMARK    1  A    between atoms: C1_2  and  C2_3 
ROOT
ATOM      1  C2  UNL d   1      -0.082   4.911  -1.875  0.00  0.00    -0.081 A 
ATOM      2  C3  UNL d   1       1.152   4.552  -1.319  0.00  0.00     0.006 A 
ATOM      3  C4  UNL d   1       1.235   3.511  -0.391  0.00  0.00     0.002 A 
ATOM      4  C5  UNL d   1       0.087   2.808  -0.009  0.00  0.00    -0.080 A 
ATOM      5  C6  UNL d   1       0.166   1.669   0.964  0.00  0.00     0.076 C 
ATOM      6  C7  UNL d   1      -1.148   3.178  -0.551  0.00  0.00     0.002 A 
ATOM      7  C8  UNL d   1      -1.231   4.219  -1.479  0.00  0.00     0.006 A 
ENDROOT
BRANCH   1   8
ATOM      8  C1  UNL d   1      -0.165   5.990  -2.924  0.00  0.00     0.054 C 
ATOM      9  C   UNL d   1       1.067   5.987  -3.819  0.00  0.00     0.018 C 
ENDBRANCH   1   8
TORSDOF 1
ENDMDL
