MODEL 1
REMARK minimizedAffinity 15.1741619
REMARK minimizedRMSD -1
REMARK  1 active torsions:
REMARK  status: ('A' for Active; 'I' for Inactive)
REMARK    1  A    between atoms: C1_2  and  C2_3 
ROOT
ATOM      1  C2  UNL d   1      -3.990   3.172  -3.024  0.00  0.00    -0.081 A 
ATOM      2  C3  UNL d   1      -5.343   3.000  -3.341  0.00  0.00     0.006 A 
ATOM      3  C4  UNL d   1      -6.000   3.920  -4.162  0.00  0.00     0.002 A 
ATOM      4  C5  UNL d   1      -5.314   5.021  -4.684  0.00  0.00    -0.080 A 
ATOM      5  C6  UNL d   1      -6.000   6.000  -5.591  0.00  0.00     0.076 C 
ATOM      6  C7  UNL d   1      -3.967   5.203  -4.353  0.00  0.00     0.002 A 
ATOM      7  C8  UNL d   1      -3.310   4.284  -3.532  0.00  0.00     0.006 A 
ENDROOT
BRANCH   1   8
ATOM      8  C1  UNL d   1      -3.261   2.147  -2.192  0.00  0.00     0.054 C 
ATOM      9  C   UNL d   1      -4.230   1.156  -1.562  0.00  0.00     0.018 C 
ENDBRANCH   1   8
TORSDOF 1
ENDMDL
