MODEL 1
REMARK minimizedAffinity 0.143041641
REMARK minimizedRMSD -1
REMARK  1 active torsions:
REMARK  status: ('A' for Active; 'I' for Inactive)
REMARK    1  A    between atoms: N_2  and  C1_3 
ROOT
ATOM      1  C1  UNL d   1      -2.340  -1.467  -0.716  0.00  0.00     0.143 A 
ATOM      2  C2  UNL d   1      -2.447  -2.313  -1.825  0.00  0.00    -0.057 A 
ATOM      3  C3  UNL d   1      -2.900  -1.836  -3.061  0.00  0.00     0.033 A 
ATOM      4  C4  UNL d   1      -3.284  -0.506  -3.202  0.00  0.00    -0.042 A 
ATOM      5  C5  UNL d   1      -3.210   0.346  -2.106  0.00  0.00     0.033 A 
ATOM      6  C6  UNL d   1      -2.750  -0.134  -0.876  0.00  0.00    -0.057 A 
ENDROOT
BRANCH   1   7
ATOM      7  N   UNL d   1      -1.990  -1.904   0.564  0.00  0.00    -0.732 N 
ATOM      8  C   UNL d   1      -1.322  -1.014   1.490  0.00  0.00     0.284 C 
ATOM      9  H3  UNL d   1      -2.713  -2.480   0.989  0.00  0.00     0.395 HD
ENDBRANCH   1   7
TORSDOF 1
ENDMDL
