MODEL 1
REMARK minimizedAffinity 8.0277977
REMARK minimizedRMSD -1
REMARK  1 active torsions:
REMARK  status: ('A' for Active; 'I' for Inactive)
REMARK    1  A    between atoms: N_2  and  C1_3 
ROOT
ATOM      1  C1  UNL d   1       0.916  -1.217   3.971  0.00  0.00     0.143 A 
ATOM      2  C2  UNL d   1       0.526  -0.072   3.267  0.00  0.00    -0.057 A 
ATOM      3  C3  UNL d   1       0.798   0.068   1.901  0.00  0.00     0.033 A 
ATOM      4  C4  UNL d   1       1.493  -0.925   1.218  0.00  0.00    -0.042 A 
ATOM      5  C5  UNL d   1       1.912  -2.060   1.903  0.00  0.00     0.033 A 
ATOM      6  C6  UNL d   1       1.632  -2.197   3.266  0.00  0.00    -0.057 A 
ENDROOT
BRANCH   1   7
ATOM      7  N   UNL d   1       0.762  -1.372   5.350  0.00  0.00    -0.732 N 
ATOM      8  C   UNL d   1       1.115  -2.618   5.996  0.00  0.00     0.284 C 
ATOM      9  H3  UNL d   1       1.041  -0.542   5.868  0.00  0.00     0.395 HD
ENDBRANCH   1   7
TORSDOF 1
ENDMDL
