MODEL 1
REMARK minimizedAffinity 3.13538861
REMARK minimizedRMSD -1
REMARK  1 active torsions:
REMARK  status: ('A' for Active; 'I' for Inactive)
REMARK    1  A    between atoms: N_2  and  C1_3 
ROOT
ATOM      1  C1  UNL d   1       1.223  -0.499   3.651  0.00  0.00     0.143 A 
ATOM      2  C2  UNL d   1       0.859  -0.228   4.974  0.00  0.00    -0.057 A 
ATOM      3  C3  UNL d   1       1.115  -1.145   6.000  0.00  0.00     0.033 A 
ATOM      4  C4  UNL d   1       1.716  -2.367   5.715  0.00  0.00    -0.042 A 
ATOM      5  C5  UNL d   1       2.064  -2.668   4.403  0.00  0.00     0.033 A 
ATOM      6  C6  UNL d   1       1.812  -1.745   3.384  0.00  0.00    -0.057 A 
ENDROOT
BRANCH   1   7
ATOM      7  N   UNL d   1       0.907   0.330   2.571  0.00  0.00    -0.732 N 
ATOM      8  C   UNL d   1       0.077  -0.154   1.489  0.00  0.00     0.284 C 
ATOM      9  H3  UNL d   1       0.699   1.283   2.861  0.00  0.00     0.395 HD
ENDBRANCH   1   7
TORSDOF 1
ENDMDL
