MODEL 1
REMARK minimizedAffinity -2.76197147
REMARK minimizedRMSD -1
REMARK  0 active torsions:
REMARK  status: ('A' for Active; 'I' for Inactive)
ROOT
ATOM      1  N1  IND d   1      -0.585   0.204  -1.091  0.00  0.00    -0.196 N 
ATOM      2  C2  IND d   1       0.040   0.525   0.082  0.00  0.00     0.054 A 
ATOM      3  C3  IND d   1       0.802  -0.507   0.507  0.00  0.00    -0.031 A 
ATOM      4  C4  IND d   1       1.252  -2.779  -0.617  0.00  0.00     0.051 A 
ATOM      5  C5  IND d   1       0.876  -3.546  -1.684  0.00  0.00    -0.031 A 
ATOM      6  C6  IND d   1      -0.021  -3.092  -2.629  0.00  0.00     0.015 A 
ATOM      7  C7  IND d   1      -0.571  -1.844  -2.547  0.00  0.00    -0.016 A 
ATOM      8  C8  IND d   1      -0.197  -1.065  -1.461  0.00  0.00    -0.047 A 
ATOM      9  C9  IND d   1       0.681  -1.536  -0.476  0.00  0.00    -0.096 A 
ATOM     10  HN1 IND d   1      -1.128   0.710  -1.525  0.00  0.00     0.298 HD
ENDROOT
TORSDOF 0
ENDMDL
