MODEL 1
REMARK minimizedAffinity -2.56673431
REMARK minimizedRMSD -1
REMARK  0 active torsions:
REMARK  status: ('A' for Active; 'I' for Inactive)
ROOT
ATOM      1  N1  IND d   1      -0.023   0.118  -0.685  0.00  0.00    -0.196 N 
ATOM      2  C2  IND d   1      -0.123  -0.860   0.264  0.00  0.00     0.054 A 
ATOM      3  C3  IND d   1      -0.619  -0.351   1.414  0.00  0.00    -0.031 A 
ATOM      4  C4  IND d   1      -1.432   2.037   1.928  0.00  0.00     0.051 A 
ATOM      5  C5  IND d   1      -1.505   3.290   1.387  0.00  0.00    -0.031 A 
ATOM      6  C6  IND d   1      -1.082   3.554   0.100  0.00  0.00     0.015 A 
ATOM      7  C7  IND d   1      -0.579   2.569  -0.700  0.00  0.00    -0.016 A 
ATOM      8  C8  IND d   1      -0.496   1.297  -0.152  0.00  0.00    -0.047 A 
ATOM      9  C9  IND d   1      -0.884   1.031   1.168  0.00  0.00    -0.096 A 
ATOM     10  HN1 IND d   1       0.284   0.015  -1.482  0.00  0.00     0.298 HD
ENDROOT
TORSDOF 0
ENDMDL
