MODEL 1
REMARK minimizedAffinity 0.305896938
REMARK minimizedRMSD -1
REMARK  0 active torsions:
REMARK  status: ('A' for Active; 'I' for Inactive)
ROOT
ATOM      1  N1  IND d   1       0.470   0.279  -0.698  0.00  0.00    -0.196 N 
ATOM      2  C2  IND d   1       0.292   0.218   0.655  0.00  0.00     0.054 A 
ATOM      3  C3  IND d   1       0.428  -1.055   1.091  0.00  0.00    -0.031 A 
ATOM      4  C4  IND d   1       1.046  -3.177  -0.228  0.00  0.00     0.051 A 
ATOM      5  C5  IND d   1       1.270  -3.629  -1.498  0.00  0.00    -0.031 A 
ATOM      6  C6  IND d   1       1.241  -2.784  -2.589  0.00  0.00     0.015 A 
ATOM      7  C7  IND d   1       0.997  -1.447  -2.447  0.00  0.00    -0.016 A 
ATOM      8  C8  IND d   1       0.762  -0.986  -1.160  0.00  0.00    -0.047 A 
ATOM      9  C9  IND d   1       0.748  -1.846  -0.054  0.00  0.00    -0.096 A 
ATOM     10  HN1 IND d   1       0.411   0.988  -1.181  0.00  0.00     0.298 HD
ENDROOT
TORSDOF 0
ENDMDL
