MODEL 1
REMARK minimizedAffinity -0.911612809
REMARK minimizedRMSD -1
REMARK  0 active torsions:
REMARK  status: ('A' for Active; 'I' for Inactive)
ROOT
ATOM      1  N1  IND d   1      -1.248   0.229   1.889  0.00  0.00    -0.196 N 
ATOM      2  C2  IND d   1      -1.822   1.470   1.906  0.00  0.00     0.054 A 
ATOM      3  C3  IND d   1      -1.343   2.224   0.892  0.00  0.00    -0.031 A 
ATOM      4  C4  IND d   1       0.312   1.593  -0.976  0.00  0.00     0.051 A 
ATOM      5  C5  IND d   1       1.133   0.582  -1.391  0.00  0.00    -0.031 A 
ATOM      6  C6  IND d   1       1.203  -0.623  -0.722  0.00  0.00     0.015 A 
ATOM      7  C7  IND d   1       0.441  -0.867   0.385  0.00  0.00    -0.016 A 
ATOM      8  C8  IND d   1      -0.389   0.159   0.814  0.00  0.00    -0.047 A 
ATOM      9  C9  IND d   1      -0.432   1.399   0.164  0.00  0.00    -0.096 A 
ATOM     10  HN1 IND d   1      -1.397  -0.401   2.454  0.00  0.00     0.298 HD
ENDROOT
TORSDOF 0
ENDMDL
