MODEL 1
REMARK minimizedAffinity -5.09681463
REMARK minimizedRMSD -1
REMARK  0 active torsions:
REMARK  status: ('A' for Active; 'I' for Inactive)
ROOT
ATOM      1  N1  IND d   1       0.462   0.885  -1.099  0.00  0.00    -0.196 N 
ATOM      2  C2  IND d   1       0.920  -0.389  -0.912  0.00  0.00     0.054 A 
ATOM      3  C3  IND d   1       0.321  -0.951   0.162  0.00  0.00    -0.031 A 
ATOM      4  C4  IND d   1      -1.516   0.001   1.694  0.00  0.00     0.051 A 
ATOM      5  C5  IND d   1      -2.230   1.140   1.941  0.00  0.00    -0.031 A 
ATOM      6  C6  IND d   1      -2.083   2.274   1.169  0.00  0.00     0.015 A 
ATOM      7  C7  IND d   1      -1.220   2.308   0.110  0.00  0.00    -0.016 A 
ATOM      8  C8  IND d   1      -0.488   1.156  -0.139  0.00  0.00    -0.047 A 
ATOM      9  C9  IND d   1      -0.602   0.016   0.668  0.00  0.00    -0.096 A 
ATOM     10  HN1 IND d   1       0.722   1.427  -1.714  0.00  0.00     0.298 HD
ENDROOT
TORSDOF 0
ENDMDL
