MODEL 1
REMARK minimizedAffinity -0.680465758
REMARK minimizedRMSD -1
REMARK  0 active torsions:
REMARK  status: ('A' for Active; 'I' for Inactive)
ROOT
ATOM      1  N1  IND d   1      -0.593  -0.221  -0.913  0.00  0.00    -0.196 N 
ATOM      2  C2  IND d   1       0.122   0.227   0.162  0.00  0.00     0.054 A 
ATOM      3  C3  IND d   1       0.990  -0.723   0.578  0.00  0.00    -0.031 A 
ATOM      4  C4  IND d   1       1.475  -3.045  -0.422  0.00  0.00     0.051 A 
ATOM      5  C5  IND d   1       1.047  -3.913  -1.387  0.00  0.00    -0.031 A 
ATOM      6  C6  IND d   1       0.032  -3.588  -2.263  0.00  0.00     0.015 A 
ATOM      7  C7  IND d   1      -0.588  -2.371  -2.213  0.00  0.00    -0.016 A 
ATOM      8  C8  IND d   1      -0.161  -1.490  -1.230  0.00  0.00    -0.047 A 
ATOM      9  C9  IND d   1       0.840  -1.831  -0.311  0.00  0.00    -0.096 A 
ATOM     10  HN1 IND d   1      -1.210   0.217  -1.323  0.00  0.00     0.298 HD
ENDROOT
TORSDOF 0
ENDMDL
