MODEL 1
REMARK minimizedAffinity -5.2608943
REMARK minimizedRMSD -1
REMARK  0 active torsions:
REMARK  status: ('A' for Active; 'I' for Inactive)
ROOT
ATOM      1  N1  IND d   1      -1.460  -0.480   0.837  0.00  0.00    -0.196 N 
ATOM      2  C2  IND d   1      -2.389   0.523   0.838  0.00  0.00     0.054 A 
ATOM      3  C3  IND d   1      -1.930   1.589   0.144  0.00  0.00    -0.031 A 
ATOM      4  C4  IND d   1       0.271   1.866  -1.161  0.00  0.00     0.051 A 
ATOM      5  C5  IND d   1       1.455   1.235  -1.424  0.00  0.00    -0.031 A 
ATOM      6  C6  IND d   1       1.731  -0.027  -0.939  0.00  0.00     0.015 A 
ATOM      7  C7  IND d   1       0.826  -0.712  -0.179  0.00  0.00    -0.016 A 
ATOM      8  C8  IND d   1      -0.374  -0.071   0.096  0.00  0.00    -0.047 A 
ATOM      9  C9  IND d   1      -0.643   1.226  -0.358  0.00  0.00    -0.096 A 
ATOM     10  HN1 IND d   1      -1.542  -1.239   1.233  0.00  0.00     0.298 HD
ENDROOT
TORSDOF 0
ENDMDL
