MODEL 1
REMARK minimizedAffinity -4.13627195
REMARK minimizedRMSD -1
REMARK  0 active torsions:
REMARK  status: ('A' for Active; 'I' for Inactive)
ROOT
ATOM      1  N1  IND d   1       0.153  -0.419  -0.722  0.00  0.00    -0.196 N 
ATOM      2  C2  IND d   1       0.794  -1.356   0.040  0.00  0.00     0.054 A 
ATOM      3  C3  IND d   1       0.497  -1.181   1.348  0.00  0.00    -0.031 A 
ATOM      4  C4  IND d   1      -1.097   0.513   2.451  0.00  0.00     0.051 A 
ATOM      5  C5  IND d   1      -1.882   1.595   2.169  0.00  0.00    -0.031 A 
ATOM      6  C6  IND d   1      -2.034   2.069   0.882  0.00  0.00     0.015 A 
ATOM      7  C7  IND d   1      -1.413   1.469  -0.177  0.00  0.00    -0.016 A 
ATOM      8  C8  IND d   1      -0.609   0.374   0.107  0.00  0.00    -0.047 A 
ATOM      9  C9  IND d   1      -0.417  -0.086   1.416  0.00  0.00    -0.096 A 
ATOM     10  HN1 IND d   1       0.216  -0.338  -1.576  0.00  0.00     0.298 HD
ENDROOT
TORSDOF 0
ENDMDL
