MODEL 1
REMARK minimizedAffinity -4.86896276
REMARK minimizedRMSD -1
REMARK  0 active torsions:
REMARK  status: ('A' for Active; 'I' for Inactive)
ROOT
ATOM      1  N1  IND d   1       0.397   0.558  -1.130  0.00  0.00    -0.196 N 
ATOM      2  C2  IND d   1       0.672  -0.679  -0.617  0.00  0.00     0.054 A 
ATOM      3  C3  IND d   1       0.100  -0.821   0.600  0.00  0.00    -0.031 A 
ATOM      4  C4  IND d   1      -1.414   0.808   1.896  0.00  0.00     0.051 A 
ATOM      5  C5  IND d   1      -1.919   2.077   1.850  0.00  0.00    -0.031 A 
ATOM      6  C6  IND d   1      -1.676   2.921   0.785  0.00  0.00     0.015 A 
ATOM      7  C7  IND d   1      -0.924   2.521  -0.283  0.00  0.00    -0.016 A 
ATOM      8  C8  IND d   1      -0.403   1.235  -0.236  0.00  0.00    -0.047 A 
ATOM      9  C9  IND d   1      -0.612   0.390   0.861  0.00  0.00    -0.096 A 
ATOM     10  HN1 IND d   1       0.677   0.862  -1.884  0.00  0.00     0.298 HD
ENDROOT
TORSDOF 0
ENDMDL
