MODEL 1
REMARK minimizedAffinity -4.22439861
REMARK minimizedRMSD -1
REMARK  0 active torsions:
REMARK  status: ('A' for Active; 'I' for Inactive)
ROOT
ATOM      1  N1  IND d   1       0.687   2.251  -0.991  0.00  0.00    -0.196 N 
ATOM      2  C2  IND d   1       1.455   1.194  -1.392  0.00  0.00     0.054 A 
ATOM      3  C3  IND d   1       1.297   0.150  -0.548  0.00  0.00    -0.031 A 
ATOM      4  C4  IND d   1      -0.250  -0.079   1.497  0.00  0.00     0.051 A 
ATOM      5  C5  IND d   1      -1.117   0.634   2.278  0.00  0.00    -0.031 A 
ATOM      6  C6  IND d   1      -1.435   1.948   2.001  0.00  0.00     0.015 A 
ATOM      7  C7  IND d   1      -0.905   2.598   0.922  0.00  0.00    -0.016 A 
ATOM      8  C8  IND d   1      -0.019   1.879   0.132  0.00  0.00    -0.047 A 
ATOM      9  C9  IND d   1       0.340   0.559   0.432  0.00  0.00    -0.096 A 
ATOM     10  HN1 IND d   1       0.650   3.019  -1.376  0.00  0.00     0.298 HD
ENDROOT
TORSDOF 0
ENDMDL
