MODEL 1
REMARK minimizedAffinity -5.99518967
REMARK minimizedRMSD -1
REMARK  0 active torsions:
REMARK  status: ('A' for Active; 'I' for Inactive)
ROOT
ATOM      1  N1  IND d   1       0.522   0.244  -1.078  0.00  0.00    -0.196 N 
ATOM      2  C2  IND d   1       0.624  -0.767  -0.164  0.00  0.00     0.054 A 
ATOM      3  C3  IND d   1      -0.022  -0.438   0.977  0.00  0.00    -0.031 A 
ATOM      4  C4  IND d   1      -1.401   1.665   1.526  0.00  0.00     0.051 A 
ATOM      5  C5  IND d   1      -1.753   2.885   1.021  0.00  0.00    -0.031 A 
ATOM      6  C6  IND d   1      -1.358   3.295  -0.237  0.00  0.00     0.015 A 
ATOM      7  C7  IND d   1      -0.603   2.491  -1.043  0.00  0.00    -0.016 A 
ATOM      8  C8  IND d   1      -0.239   1.254  -0.530  0.00  0.00    -0.047 A 
ATOM      9  C9  IND d   1      -0.601   0.850   0.761  0.00  0.00    -0.096 A 
ATOM     10  HN1 IND d   1       0.874   0.249  -1.862  0.00  0.00     0.298 HD
ENDROOT
TORSDOF 0
ENDMDL
