MODEL 1
REMARK minimizedAffinity -5.80170536
REMARK minimizedRMSD -1
REMARK  0 active torsions:
REMARK  status: ('A' for Active; 'I' for Inactive)
ROOT
ATOM      1  N1  IND d   1       0.120  -0.010   0.383  0.00  0.00    -0.196 N 
ATOM      2  C2  IND d   1      -0.555  -0.295   1.536  0.00  0.00     0.054 A 
ATOM      3  C3  IND d   1      -1.297   0.767   1.923  0.00  0.00    -0.031 A 
ATOM      4  C4  IND d   1      -1.631   3.038   0.758  0.00  0.00     0.051 A 
ATOM      5  C5  IND d   1      -1.194   3.779  -0.304  0.00  0.00    -0.031 A 
ATOM      6  C6  IND d   1      -0.279   3.284  -1.211  0.00  0.00     0.015 A 
ATOM      7  C7  IND d   1       0.225   2.020  -1.096  0.00  0.00    -0.016 A 
ATOM      8  C8  IND d   1      -0.212   1.267  -0.015  0.00  0.00    -0.047 A 
ATOM      9  C9  IND d   1      -1.107   1.779   0.933  0.00  0.00    -0.096 A 
ATOM     10  HN1 IND d   1       0.661  -0.538  -0.026  0.00  0.00     0.298 HD
ENDROOT
TORSDOF 0
ENDMDL
