MODEL 1
REMARK minimizedAffinity -4.69379425
REMARK minimizedRMSD -1
REMARK  0 active torsions:
REMARK  status: ('A' for Active; 'I' for Inactive)
ROOT
ATOM      1  N1  IND d   1       0.247   2.535  -1.242  0.00  0.00    -0.196 N 
ATOM      2  C2  IND d   1      -0.234   3.783  -0.962  0.00  0.00     0.054 A 
ATOM      3  C3  IND d   1      -0.951   3.766   0.184  0.00  0.00    -0.031 A 
ATOM      4  C4  IND d   1      -1.378   1.821   1.816  0.00  0.00     0.051 A 
ATOM      5  C5  IND d   1      -1.173   0.478   1.969  0.00  0.00    -0.031 A 
ATOM      6  C6  IND d   1      -0.467  -0.262   1.042  0.00  0.00     0.015 A 
ATOM      7  C7  IND d   1       0.071   0.318  -0.071  0.00  0.00    -0.016 A 
ATOM      8  C8  IND d   1      -0.141   1.680  -0.234  0.00  0.00    -0.047 A 
ATOM      9  C9  IND d   1      -0.893   2.428   0.681  0.00  0.00    -0.096 A 
ATOM     10  HN1 IND d   1       0.713   2.319  -1.931  0.00  0.00     0.298 HD
ENDROOT
TORSDOF 0
ENDMDL
