MODEL 1
REMARK minimizedAffinity -3.63239956
REMARK minimizedRMSD -1
REMARK  0 active torsions:
REMARK  status: ('A' for Active; 'I' for Inactive)
ROOT
ATOM      1  N1  IND d   1       0.591   0.314  -1.185  0.00  0.00    -0.196 N 
ATOM      2  C2  IND d   1       1.224  -0.769  -0.642  0.00  0.00     0.054 A 
ATOM      3  C3  IND d   1       0.747  -1.020   0.598  0.00  0.00    -0.031 A 
ATOM      4  C4  IND d   1      -1.142   0.156   1.892  0.00  0.00     0.051 A 
ATOM      5  C5  IND d   1      -1.994   1.222   1.822  0.00  0.00    -0.031 A 
ATOM      6  C6  IND d   1      -2.031   2.055   0.723  0.00  0.00     0.015 A 
ATOM      7  C7  IND d   1      -1.221   1.846  -0.357  0.00  0.00    -0.016 A 
ATOM      8  C8  IND d   1      -0.349   0.768  -0.287  0.00  0.00    -0.047 A 
ATOM      9  C9  IND d   1      -0.278  -0.056   0.844  0.00  0.00    -0.096 A 
ATOM     10  HN1 IND d   1       0.753   0.654  -1.958  0.00  0.00     0.298 HD
ENDROOT
TORSDOF 0
ENDMDL
