MODEL 1
REMARK minimizedAffinity -2.05931067
REMARK minimizedRMSD -1
REMARK  0 active torsions:
REMARK  status: ('A' for Active; 'I' for Inactive)
ROOT
ATOM      1  N1  IND d   1      -0.232  -0.229  -1.406  0.00  0.00    -0.196 N 
ATOM      2  C2  IND d   1       0.659  -1.234  -1.155  0.00  0.00     0.054 A 
ATOM      3  C3  IND d   1       0.982  -1.260   0.158  0.00  0.00    -0.031 A 
ATOM      4  C4  IND d   1       0.090   0.189   2.090  0.00  0.00     0.051 A 
ATOM      5  C5  IND d   1      -0.713   1.264   2.348  0.00  0.00    -0.031 A 
ATOM      6  C6  IND d   1      -1.413   1.908   1.348  0.00  0.00     0.015 A 
ATOM      7  C7  IND d   1      -1.345   1.492   0.049  0.00  0.00    -0.016 A 
ATOM      8  C8  IND d   1      -0.525   0.404  -0.218  0.00  0.00    -0.047 A 
ATOM      9  C9  IND d   1       0.221  -0.226   0.786  0.00  0.00    -0.096 A 
ATOM     10  HN1 IND d   1      -0.556  -0.026  -2.176  0.00  0.00     0.298 HD
ENDROOT
TORSDOF 0
ENDMDL
