MODEL 1
REMARK minimizedAffinity 2.50262547
REMARK minimizedRMSD -1
REMARK  0 active torsions:
REMARK  status: ('A' for Active; 'I' for Inactive)
ROOT
ATOM      1  C4' PXY d   1       4.004  -0.301   1.163  0.00  0.00     0.077 C 
ATOM      2  C1' PXY d   1       1.552  -1.871  -3.830  0.00  0.00     0.077 C 
ATOM      3  C1  PXY d   1       2.200  -1.449  -2.527  0.00  0.00    -0.082 A 
ATOM      4  C2  PXY d   1       2.427  -2.352  -1.586  0.00  0.00     0.003 A 
ATOM      5  C3  PXY d   1       2.983  -1.982  -0.389  0.00  0.00     0.003 A 
ATOM      6  C4  PXY d   1       3.360  -0.683  -0.172  0.00  0.00    -0.082 A 
ATOM      7  C5  PXY d   1       3.142   0.242  -1.131  0.00  0.00     0.003 A 
ATOM      8  C6  PXY d   1       2.539  -0.147  -2.323  0.00  0.00     0.003 A 
ENDROOT
TORSDOF 0
ENDMDL
