MODEL 1
REMARK minimizedAffinity 4.97969246
REMARK minimizedRMSD -1
REMARK  0 active torsions:
REMARK  status: ('A' for Active; 'I' for Inactive)
ROOT
ATOM      1  C4' PXY d   1       2.178   0.866  -1.907  0.00  0.00     0.077 C 
ATOM      2  C1' PXY d   1      -1.691   3.014   1.812  0.00  0.00     0.077 C 
ATOM      3  C1  PXY d   1      -0.685   2.444   0.831  0.00  0.00    -0.082 A 
ATOM      4  C2  PXY d   1       0.591   2.368   1.172  0.00  0.00     0.003 A 
ATOM      5  C3  PXY d   1       1.518   1.885   0.285  0.00  0.00     0.003 A 
ATOM      6  C4  PXY d   1       1.127   1.426  -0.945  0.00  0.00    -0.082 A 
ATOM      7  C5  PXY d   1      -0.175   1.491  -1.296  0.00  0.00     0.003 A 
ATOM      8  C6  PXY d   1      -1.094   2.023  -0.397  0.00  0.00     0.003 A 
ENDROOT
TORSDOF 0
ENDMDL
