MODEL 1
REMARK minimizedAffinity 10.7565756
REMARK minimizedRMSD -1
REMARK  0 active torsions:
REMARK  status: ('A' for Active; 'I' for Inactive)
ROOT
ATOM      1  C4' PXY d   1       1.124   4.319  -4.075  0.00  0.00     0.077 C 
ATOM      2  C1' PXY d   1       1.018  -0.724  -1.251  0.00  0.00     0.077 C 
ATOM      3  C1  PXY d   1       1.041   0.605  -1.981  0.00  0.00    -0.082 A 
ATOM      4  C2  PXY d   1       1.011   0.625  -3.304  0.00  0.00     0.003 A 
ATOM      5  C3  PXY d   1       1.063   1.816  -3.980  0.00  0.00     0.003 A 
ATOM      6  C4  PXY d   1       1.093   3.001  -3.296  0.00  0.00    -0.082 A 
ATOM      7  C5  PXY d   1       1.113   2.989  -1.946  0.00  0.00     0.003 A 
ATOM      8  C6  PXY d   1       1.101   1.768  -1.278  0.00  0.00     0.003 A 
ENDROOT
TORSDOF 0
ENDMDL
