MODEL 1
REMARK minimizedAffinity 17.1590614
REMARK minimizedRMSD -1
REMARK  0 active torsions:
REMARK  status: ('A' for Active; 'I' for Inactive)
ROOT
ATOM      1  C4' PXY d   1      -5.934   1.989   2.646  0.00  0.00     0.077 C 
ATOM      2  C1' PXY d   1      -5.998  -2.950   5.648  0.00  0.00     0.077 C 
ATOM      3  C1  PXY d   1      -5.987  -1.649   4.871  0.00  0.00    -0.082 A 
ATOM      4  C2  PXY d   1      -6.000  -1.677   3.549  0.00  0.00     0.003 A 
ATOM      5  C3  PXY d   1      -5.957  -0.510   2.830  0.00  0.00     0.003 A 
ATOM      6  C4  PXY d   1      -5.955   0.700   3.472  0.00  0.00    -0.082 A 
ATOM      7  C5  PXY d   1      -5.952   0.737   4.821  0.00  0.00     0.003 A 
ATOM      8  C6  PXY d   1      -5.954  -0.460   5.532  0.00  0.00     0.003 A 
ENDROOT
TORSDOF 0
ENDMDL
