MODEL 1
REMARK minimizedAffinity 8.4818821
REMARK minimizedRMSD -1
REMARK  0 active torsions:
REMARK  status: ('A' for Active; 'I' for Inactive)
ROOT
ATOM      1  C4' PXY d   1       2.707   4.105   1.906  0.00  0.00     0.077 C 
ATOM      2  C1' PXY d   1       0.843   1.224  -2.746  0.00  0.00     0.077 C 
ATOM      3  C1  PXY d   1       1.338   1.988  -1.533  0.00  0.00    -0.082 A 
ATOM      4  C2  PXY d   1       1.437   1.371  -0.367  0.00  0.00     0.003 A 
ATOM      5  C3  PXY d   1       1.852   2.055   0.746  0.00  0.00     0.003 A 
ATOM      6  C4  PXY d   1       2.221   3.371   0.654  0.00  0.00    -0.082 A 
ATOM      7  C5  PXY d   1       2.134   4.004  -0.535  0.00  0.00     0.003 A 
ATOM      8  C6  PXY d   1       1.670   3.303  -1.644  0.00  0.00     0.003 A 
ENDROOT
TORSDOF 0
ENDMDL
