MODEL 1
REMARK minimizedAffinity 3.95367289
REMARK minimizedRMSD -1
REMARK  0 active torsions:
REMARK  status: ('A' for Active; 'I' for Inactive)
ROOT
ATOM      1  C4' PXY d   1       2.608  -4.204   0.362  0.00  0.00     0.077 C 
ATOM      2  C1' PXY d   1       4.121   0.257  -2.988  0.00  0.00     0.077 C 
ATOM      3  C1  PXY d   1       3.712  -0.911  -2.112  0.00  0.00    -0.082 A 
ATOM      4  C2  PXY d   1       4.515  -1.313  -1.141  0.00  0.00     0.003 A 
ATOM      5  C3  PXY d   1       4.175  -2.387  -0.360  0.00  0.00     0.003 A 
ATOM      6  C4  PXY d   1       2.976  -3.023  -0.541  0.00  0.00    -0.082 A 
ATOM      7  C5  PXY d   1       2.146  -2.612  -1.522  0.00  0.00     0.003 A 
ATOM      8  C6  PXY d   1       2.528  -1.545  -2.331  0.00  0.00     0.003 A 
ENDROOT
TORSDOF 0
ENDMDL
