MODEL 1
REMARK minimizedAffinity 7.28256989
REMARK minimizedRMSD -1
REMARK  0 active torsions:
REMARK  status: ('A' for Active; 'I' for Inactive)
ROOT
ATOM      1  C4' PXY d   1       1.010  -4.230   0.635  0.00  0.00     0.077 C 
ATOM      2  C1' PXY d   1       2.952   0.404  -2.223  0.00  0.00     0.077 C 
ATOM      3  C1  PXY d   1       2.431  -0.809  -1.479  0.00  0.00    -0.082 A 
ATOM      4  C2  PXY d   1       3.045  -1.216  -0.380  0.00  0.00     0.003 A 
ATOM      5  C3  PXY d   1       2.606  -2.330   0.288  0.00  0.00     0.003 A 
ATOM      6  C4  PXY d   1       1.495  -3.004  -0.144  0.00  0.00    -0.082 A 
ATOM      7  C5  PXY d   1       0.857  -2.589  -1.259  0.00  0.00     0.003 A 
ATOM      8  C6  PXY d   1       1.343  -1.480  -1.945  0.00  0.00     0.003 A 
ENDROOT
TORSDOF 0
ENDMDL
