MODEL 1
REMARK minimizedAffinity -0.893524468
REMARK minimizedRMSD -1
REMARK  0 active torsions:
REMARK  status: ('A' for Active; 'I' for Inactive)
ROOT
ATOM      1  C4' PXY d   1       2.515   1.068  -2.607  0.00  0.00     0.077 C 
ATOM      2  C1' PXY d   1       1.594  -3.541   0.757  0.00  0.00     0.077 C 
ATOM      3  C1  PXY d   1       1.830  -2.339  -0.135  0.00  0.00    -0.082 A 
ATOM      4  C2  PXY d   1       2.764  -1.458   0.187  0.00  0.00     0.003 A 
ATOM      5  C3  PXY d   1       2.969  -0.348  -0.592  0.00  0.00     0.003 A 
ATOM      6  C4  PXY d   1       2.248  -0.166  -1.741  0.00  0.00    -0.082 A 
ATOM      7  C5  PXY d   1       1.301  -1.065  -2.083  0.00  0.00     0.003 A 
ATOM      8  C6  PXY d   1       1.080  -2.164  -1.257  0.00  0.00     0.003 A 
ENDROOT
TORSDOF 0
ENDMDL
