MODEL 1
REMARK minimizedAffinity -1.16456461
REMARK minimizedRMSD -1
REMARK  0 active torsions:
REMARK  status: ('A' for Active; 'I' for Inactive)
ROOT
ATOM      1  C4' PXY d   1       5.967  -5.644   6.000  0.00  0.00     0.077 C 
ATOM      2  C1' PXY d   1       5.296  -0.542   3.366  0.00  0.00     0.077 C 
ATOM      3  C1  PXY d   1       5.470  -1.886   4.045  0.00  0.00    -0.082 A 
ATOM      4  C2  PXY d   1       5.260  -1.993   5.347  0.00  0.00     0.003 A 
ATOM      5  C3  PXY d   1       5.444  -3.194   5.983  0.00  0.00     0.003 A 
ATOM      6  C4  PXY d   1       5.794  -4.309   5.270  0.00  0.00    -0.082 A 
ATOM      7  C5  PXY d   1       6.000  -4.210   3.940  0.00  0.00     0.003 A 
ATOM      8  C6  PXY d   1       5.848  -2.973   3.320  0.00  0.00     0.003 A 
ENDROOT
TORSDOF 0
ENDMDL
