MODEL 1
REMARK minimizedAffinity 0.302934855
REMARK minimizedRMSD -1
REMARK  0 active torsions:
REMARK  status: ('A' for Active; 'I' for Inactive)
ROOT
ATOM      1  C4' PXY d   1       2.300   0.753  -2.776  0.00  0.00     0.077 C 
ATOM      2  C1' PXY d   1       1.725  -3.807   0.730  0.00  0.00     0.077 C 
ATOM      3  C1  PXY d   1       1.866  -2.616  -0.197  0.00  0.00    -0.082 A 
ATOM      4  C2  PXY d   1       3.018  -1.967  -0.258  0.00  0.00     0.003 A 
ATOM      5  C3  PXY d   1       3.153  -0.868  -1.067  0.00  0.00     0.003 A 
ATOM      6  C4  PXY d   1       2.115  -0.461  -1.862  0.00  0.00    -0.082 A 
ATOM      7  C5  PXY d   1       0.940  -1.124  -1.813  0.00  0.00     0.003 A 
ATOM      8  C6  PXY d   1       0.810  -2.212  -0.955  0.00  0.00     0.003 A 
ENDROOT
TORSDOF 0
ENDMDL
