MODEL 1
REMARK minimizedAffinity -0.0863556787
REMARK minimizedRMSD -1
REMARK  0 active torsions:
REMARK  status: ('A' for Active; 'I' for Inactive)
ROOT
ATOM      1  C4' PXY d   1       2.265   0.707  -2.234  0.00  0.00     0.077 C 
ATOM      2  C1' PXY d   1       1.020  -4.049   0.807  0.00  0.00     0.077 C 
ATOM      3  C1  PXY d   1       1.357  -2.800   0.017  0.00  0.00    -0.082 A 
ATOM      4  C2  PXY d   1       0.412  -2.195  -0.685  0.00  0.00     0.003 A 
ATOM      5  C3  PXY d   1       0.706  -1.083  -1.430  0.00  0.00     0.003 A 
ATOM      6  C4  PXY d   1       1.969  -0.552  -1.414  0.00  0.00    -0.082 A 
ATOM      7  C5  PXY d   1       2.935  -1.156  -0.692  0.00  0.00     0.003 A 
ATOM      8  C6  PXY d   1       2.626  -2.309   0.025  0.00  0.00     0.003 A 
ENDROOT
TORSDOF 0
ENDMDL
