MODEL 1
REMARK minimizedAffinity 10.1078663
REMARK minimizedRMSD -1
REMARK  0 active torsions:
REMARK  status: ('A' for Active; 'I' for Inactive)
ROOT
ATOM      1  C4' PXY d   1       3.686  -1.034  -0.491  0.00  0.00     0.077 C 
ATOM      2  C1' PXY d   1       0.188   3.033  -2.645  0.00  0.00     0.077 C 
ATOM      3  C1  PXY d   1       1.104   1.960  -2.091  0.00  0.00    -0.082 A 
ATOM      4  C2  PXY d   1       1.247   1.833  -0.782  0.00  0.00     0.003 A 
ATOM      5  C3  PXY d   1       2.096   0.889  -0.265  0.00  0.00     0.003 A 
ATOM      6  C4  PXY d   1       2.764   0.030  -1.095  0.00  0.00    -0.082 A 
ATOM      7  C5  PXY d   1       2.615   0.145  -2.432  0.00  0.00     0.003 A 
ATOM      8  C6  PXY d   1       1.781   1.137  -2.938  0.00  0.00     0.003 A 
ENDROOT
TORSDOF 0
ENDMDL
