MODEL 1
REMARK minimizedAffinity 2.1997962
REMARK minimizedRMSD -1
REMARK  0 active torsions:
REMARK  status: ('A' for Active; 'I' for Inactive)
ROOT
ATOM      1  C4' PXY d   1       2.254   0.771  -2.623  0.00  0.00     0.077 C 
ATOM      2  C1' PXY d   1       1.150  -3.770   0.779  0.00  0.00     0.077 C 
ATOM      3  C1  PXY d   1       1.452  -2.578  -0.109  0.00  0.00    -0.082 A 
ATOM      4  C2  PXY d   1       0.459  -1.824  -0.551  0.00  0.00     0.003 A 
ATOM      5  C3  PXY d   1       0.711  -0.762  -1.381  0.00  0.00     0.003 A 
ATOM      6  C4  PXY d   1       1.997  -0.436  -1.717  0.00  0.00    -0.082 A 
ATOM      7  C5  PXY d   1       3.017  -1.194  -1.261  0.00  0.00     0.003 A 
ATOM      8  C6  PXY d   1       2.737  -2.293  -0.454  0.00  0.00     0.003 A 
ENDROOT
TORSDOF 0
ENDMDL
