MODEL 1
REMARK minimizedAffinity 2.42429423
REMARK minimizedRMSD -1
REMARK  0 active torsions:
REMARK  status: ('A' for Active; 'I' for Inactive)
ROOT
ATOM      1  C4' PXY d   1       3.470   3.082  -1.830  0.00  0.00     0.077 C 
ATOM      2  C1' PXY d   1       2.242  -2.566  -1.875  0.00  0.00     0.077 C 
ATOM      3  C1  PXY d   1       2.556  -1.083  -1.873  0.00  0.00    -0.082 A 
ATOM      4  C2  PXY d   1       3.713  -0.660  -1.391  0.00  0.00     0.003 A 
ATOM      5  C3  PXY d   1       3.999   0.681  -1.352  0.00  0.00     0.003 A 
ATOM      6  C4  PXY d   1       3.114   1.593  -1.861  0.00  0.00    -0.082 A 
ATOM      7  C5  PXY d   1       1.936   1.168  -2.365  0.00  0.00     0.003 A 
ATOM      8  C6  PXY d   1       1.647  -0.193  -2.357  0.00  0.00     0.003 A 
ENDROOT
TORSDOF 0
ENDMDL
