MODEL 1
REMARK minimizedAffinity 0.913204312
REMARK minimizedRMSD -1
REMARK  0 active torsions:
REMARK  status: ('A' for Active; 'I' for Inactive)
ROOT
ATOM      1  C4' PXY d   1      -1.162   4.923   1.224  0.00  0.00     0.077 C 
ATOM      2  C1' PXY d   1       1.288   0.531  -1.625  0.00  0.00     0.077 C 
ATOM      3  C1  PXY d   1       0.645   1.675  -0.867  0.00  0.00    -0.082 A 
ATOM      4  C2  PXY d   1      -0.029   2.601  -1.529  0.00  0.00     0.003 A 
ATOM      5  C3  PXY d   1      -0.590   3.661  -0.863  0.00  0.00     0.003 A 
ATOM      6  C4  PXY d   1      -0.504   3.744   0.501  0.00  0.00    -0.082 A 
ATOM      7  C5  PXY d   1       0.173   2.798   1.185  0.00  0.00     0.003 A 
ATOM      8  C6  PXY d   1       0.769   1.753   0.485  0.00  0.00     0.003 A 
ENDROOT
TORSDOF 0
ENDMDL
