MODEL 1
REMARK minimizedAffinity 12.33424
REMARK minimizedRMSD -1
REMARK  0 active torsions:
REMARK  status: ('A' for Active; 'I' for Inactive)
ROOT
ATOM      1  C4' PXY d   1      -1.692   3.568   1.418  0.00  0.00     0.077 C 
ATOM      2  C1' PXY d   1       2.096   0.437  -1.625  0.00  0.00     0.077 C 
ATOM      3  C1  PXY d   1       1.108   1.254  -0.815  0.00  0.00    -0.082 A 
ATOM      4  C2  PXY d   1      -0.054   1.593  -1.351  0.00  0.00     0.003 A 
ATOM      5  C3  PXY d   1      -0.946   2.358  -0.645  0.00  0.00     0.003 A 
ATOM      6  C4  PXY d   1      -0.668   2.736   0.642  0.00  0.00    -0.082 A 
ATOM      7  C5  PXY d   1       0.511   2.385   1.199  0.00  0.00     0.003 A 
ATOM      8  C6  PXY d   1       1.420   1.643   0.451  0.00  0.00     0.003 A 
ENDROOT
TORSDOF 0
ENDMDL
