MODEL 1
REMARK minimizedAffinity 12.2502394
REMARK minimizedRMSD -1
REMARK  0 active torsions:
REMARK  status: ('A' for Active; 'I' for Inactive)
ROOT
ATOM      1  C4' PXY d   1      -1.153   3.244   1.075  0.00  0.00     0.077 C 
ATOM      2  C1' PXY d   1       2.538   0.405  -2.349  0.00  0.00     0.077 C 
ATOM      3  C1  PXY d   1       1.577   1.145  -1.440  0.00  0.00    -0.082 A 
ATOM      4  C2  PXY d   1       0.364   1.445  -1.877  0.00  0.00     0.003 A 
ATOM      5  C3  PXY d   1      -0.507   2.142  -1.080  0.00  0.00     0.003 A 
ATOM      6  C4  PXY d   1      -0.153   2.489   0.196  0.00  0.00    -0.082 A 
ATOM      7  C5  PXY d   1       1.079   2.178   0.652  0.00  0.00     0.003 A 
ATOM      8  C6  PXY d   1       1.963   1.506  -0.187  0.00  0.00     0.003 A 
ENDROOT
TORSDOF 0
ENDMDL
