MODEL 1
REMARK minimizedAffinity 12.3191833
REMARK minimizedRMSD -1
REMARK  0 active torsions:
REMARK  status: ('A' for Active; 'I' for Inactive)
ROOT
ATOM      1  C4' PXY d   1       1.310   0.372  -2.501  0.00  0.00     0.077 C 
ATOM      2  C1' PXY d   1       0.060   3.315   2.315  0.00  0.00     0.077 C 
ATOM      3  C1  PXY d   1       0.375   2.538   1.052  0.00  0.00    -0.082 A 
ATOM      4  C2  PXY d   1       1.632   2.241   0.764  0.00  0.00     0.003 A 
ATOM      5  C3  PXY d   1       1.939   1.566  -0.390  0.00  0.00     0.003 A 
ATOM      6  C4  PXY d   1       0.944   1.146  -1.232  0.00  0.00    -0.082 A 
ATOM      7  C5  PXY d   1      -0.342   1.437  -0.940  0.00  0.00     0.003 A 
ATOM      8  C6  PXY d   1      -0.628   2.158   0.216  0.00  0.00     0.003 A 
ENDROOT
TORSDOF 0
ENDMDL
