MODEL 1
REMARK minimizedAffinity 1.11043561
REMARK minimizedRMSD -1
REMARK  0 active torsions:
REMARK  status: ('A' for Active; 'I' for Inactive)
ROOT
ATOM      1  C4' PXY d   1       2.270  -0.082  -1.697  0.00  0.00     0.077 C 
ATOM      2  C1' PXY d   1      -1.179   3.327   1.449  0.00  0.00     0.077 C 
ATOM      3  C1  PXY d   1      -0.285   2.427   0.619  0.00  0.00    -0.082 A 
ATOM      4  C2  PXY d   1       0.960   2.205   1.006  0.00  0.00     0.003 A 
ATOM      5  C3  PXY d   1       1.792   1.420   0.251  0.00  0.00     0.003 A 
ATOM      6  C4  PXY d   1       1.329   0.812  -0.885  0.00  0.00    -0.082 A 
ATOM      7  C5  PXY d   1       0.056   1.025  -1.281  0.00  0.00     0.003 A 
ATOM      8  C6  PXY d   1      -0.760   1.858  -0.522  0.00  0.00     0.003 A 
ENDROOT
TORSDOF 0
ENDMDL
