MODEL 1
REMARK minimizedAffinity 2.44329739
REMARK minimizedRMSD -1
REMARK  0 active torsions:
REMARK  status: ('A' for Active; 'I' for Inactive)
ROOT
ATOM      1  C4' PXY d   1       0.363   2.050   2.081  0.00  0.00     0.077 C 
ATOM      2  C1' PXY d   1       2.394   0.622  -3.140  0.00  0.00     0.077 C 
ATOM      3  C1  PXY d   1       1.873   0.994  -1.765  0.00  0.00    -0.082 A 
ATOM      4  C2  PXY d   1       0.578   0.904  -1.510  0.00  0.00     0.003 A 
ATOM      5  C3  PXY d   1       0.086   1.267  -0.283  0.00  0.00     0.003 A 
ATOM      6  C4  PXY d   1       0.935   1.676   0.711  0.00  0.00    -0.082 A 
ATOM      7  C5  PXY d   1       2.259   1.760   0.462  0.00  0.00     0.003 A 
ATOM      8  C6  PXY d   1       2.733   1.427  -0.804  0.00  0.00     0.003 A 
ENDROOT
TORSDOF 0
ENDMDL
