MODEL 1
REMARK minimizedAffinity -2.87363935
REMARK minimizedRMSD -1
REMARK  0 active torsions:
REMARK  status: ('A' for Active; 'I' for Inactive)
ROOT
ATOM      1  C   UNL d   1       5.986  -0.770   5.277  0.00  0.00     0.172 C 
ATOM      2  N   UNL d   1       5.851   0.610   4.873  0.00  0.00    -0.070 N 
ATOM      3  C1  UNL d   1       5.559   1.660   5.702  0.00  0.00    -0.004 A 
ATOM      4  C2  UNL d   1       5.520   2.805   4.936  0.00  0.00    -0.047 A 
ATOM      5  C3  UNL d   1       5.798   2.430   3.600  0.00  0.00    -0.047 A 
ATOM      6  C4  UNL d   1       5.999   1.066   3.590  0.00  0.00    -0.004 A 
ENDROOT
TORSDOF 0
ENDMDL
