MODEL 1
REMARK minimizedAffinity -2.63980746
REMARK minimizedRMSD -1
REMARK  0 active torsions:
REMARK  status: ('A' for Active; 'I' for Inactive)
ROOT
ATOM      1  C   UNL d   1       5.247  -0.756   5.998  0.00  0.00     0.172 C 
ATOM      2  N   UNL d   1       5.367   0.330   5.054  0.00  0.00    -0.070 N 
ATOM      3  C1  UNL d   1       5.983   0.263   3.833  0.00  0.00    -0.004 A 
ATOM      4  C2  UNL d   1       5.882   1.503   3.240  0.00  0.00    -0.047 A 
ATOM      5  C3  UNL d   1       5.181   2.345   4.136  0.00  0.00    -0.047 A 
ATOM      6  C4  UNL d   1       4.874   1.594   5.251  0.00  0.00    -0.004 A 
ENDROOT
TORSDOF 0
ENDMDL
