MODEL 1
REMARK minimizedAffinity -3.05971241
REMARK minimizedRMSD -1
REMARK  0 active torsions:
REMARK  status: ('A' for Active; 'I' for Inactive)
ROOT
ATOM      1  C   UNL d   1       5.994   1.545   6.000  0.00  0.00     0.172 C 
ATOM      2  N   UNL d   1       5.725   0.656   4.893  0.00  0.00    -0.070 N 
ATOM      3  C1  UNL d   1       5.711   1.010   3.571  0.00  0.00    -0.004 A 
ATOM      4  C2  UNL d   1       5.417  -0.118   2.835  0.00  0.00    -0.047 A 
ATOM      5  C3  UNL d   1       5.248  -1.187   3.748  0.00  0.00    -0.047 A 
ATOM      6  C4  UNL d   1       5.444  -0.679   5.015  0.00  0.00    -0.004 A 
ENDROOT
TORSDOF 0
ENDMDL
