MODEL 1
REMARK minimizedAffinity -2.17955947
REMARK minimizedRMSD -1
REMARK  0 active torsions:
REMARK  status: ('A' for Active; 'I' for Inactive)
ROOT
ATOM      1  C   UNL d   1       5.999   3.913   4.124  0.00  0.00     0.172 C 
ATOM      2  N   UNL d   1       5.683   2.504   4.121  0.00  0.00    -0.070 N 
ATOM      3  C1  UNL d   1       6.000   1.613   5.112  0.00  0.00    -0.004 A 
ATOM      4  C2  UNL d   1       5.526   0.375   4.733  0.00  0.00    -0.047 A 
ATOM      5  C3  UNL d   1       4.904   0.527   3.471  0.00  0.00    -0.047 A 
ATOM      6  C4  UNL d   1       5.016   1.855   3.116  0.00  0.00    -0.004 A 
ENDROOT
TORSDOF 0
ENDMDL
