MODEL 1
REMARK minimizedAffinity -1.77386177
REMARK minimizedRMSD -1
REMARK  0 active torsions:
REMARK  status: ('A' for Active; 'I' for Inactive)
ROOT
ATOM      1  C   UNL d   1       5.957   0.709   5.950  0.00  0.00     0.172 C 
ATOM      2  N   UNL d   1       5.971   1.424   4.696  0.00  0.00    -0.070 N 
ATOM      3  C1  UNL d   1       5.988   2.785   4.553  0.00  0.00    -0.004 A 
ATOM      4  C2  UNL d   1       5.997   3.068   3.205  0.00  0.00    -0.047 A 
ATOM      5  C3  UNL d   1       5.984   1.834   2.513  0.00  0.00    -0.047 A 
ATOM      6  C4  UNL d   1       5.968   0.832   3.460  0.00  0.00    -0.004 A 
ENDROOT
TORSDOF 0
ENDMDL
