MODEL 1
REMARK minimizedAffinity -2.55468059
REMARK minimizedRMSD -1
REMARK  0 active torsions:
REMARK  status: ('A' for Active; 'I' for Inactive)
ROOT
ATOM      1  C   UNL d   1       5.630  -1.359   5.245  0.00  0.00     0.172 C 
ATOM      2  N   UNL d   1       5.679   0.057   4.966  0.00  0.00    -0.070 N 
ATOM      3  C1  UNL d   1       5.416   0.642   3.756  0.00  0.00    -0.004 A 
ATOM      4  C2  UNL d   1       5.570   2.003   3.903  0.00  0.00    -0.047 A 
ATOM      5  C3  UNL d   1       5.940   2.245   5.247  0.00  0.00    -0.047 A 
ATOM      6  C4  UNL d   1       6.000   1.023   5.883  0.00  0.00    -0.004 A 
ENDROOT
TORSDOF 0
ENDMDL
