MODEL 1
REMARK minimizedAffinity 3.05109763
REMARK minimizedRMSD -1
REMARK  0 active torsions:
REMARK  status: ('A' for Active; 'I' for Inactive)
ROOT
ATOM      1  C   UNL d   1       5.988   1.383   2.794  0.00  0.00     0.172 C 
ATOM      2  N   UNL d   1       5.991   2.633   3.516  0.00  0.00    -0.070 N 
ATOM      3  C1  UNL d   1       5.986   2.769   4.878  0.00  0.00    -0.004 A 
ATOM      4  C2  UNL d   1       5.992   4.116   5.169  0.00  0.00    -0.047 A 
ATOM      5  C3  UNL d   1       6.000   4.814   3.938  0.00  0.00    -0.047 A 
ATOM      6  C4  UNL d   1       5.999   3.872   2.931  0.00  0.00    -0.004 A 
ENDROOT
TORSDOF 0
ENDMDL
