MODEL 1
REMARK minimizedAffinity -1.88558984
REMARK minimizedRMSD -1
REMARK  0 active torsions:
REMARK  status: ('A' for Active; 'I' for Inactive)
ROOT
ATOM      1  C   UNL d   1       5.993  -2.007   5.194  0.00  0.00     0.172 C 
ATOM      2  N   UNL d   1       5.781  -0.631   4.809  0.00  0.00    -0.070 N 
ATOM      3  C1  UNL d   1       5.334   0.368   5.632  0.00  0.00    -0.004 A 
ATOM      4  C2  UNL d   1       5.268   1.528   4.890  0.00  0.00    -0.047 A 
ATOM      5  C3  UNL d   1       5.688   1.214   3.576  0.00  0.00    -0.047 A 
ATOM      6  C4  UNL d   1       6.000  -0.129   3.554  0.00  0.00    -0.004 A 
ENDROOT
TORSDOF 0
ENDMDL
