MODEL 1
REMARK minimizedAffinity -1.61673534
REMARK minimizedRMSD -1
REMARK  0 active torsions:
REMARK  status: ('A' for Active; 'I' for Inactive)
ROOT
ATOM      1  C   UNL d   1       5.333  -0.683   5.622  0.00  0.00     0.172 C 
ATOM      2  N   UNL d   1       5.501   0.267   4.548  0.00  0.00    -0.070 N 
ATOM      3  C1  UNL d   1       5.999  -0.014   3.304  0.00  0.00    -0.004 A 
ATOM      4  C2  UNL d   1       5.997   1.155   2.574  0.00  0.00    -0.047 A 
ATOM      5  C3  UNL d   1       5.481   2.175   3.409  0.00  0.00    -0.047 A 
ATOM      6  C4  UNL d   1       5.182   1.597   4.625  0.00  0.00    -0.004 A 
ENDROOT
TORSDOF 0
ENDMDL
