MODEL 1
REMARK minimizedAffinity -2.5905664
REMARK minimizedRMSD -1
REMARK  0 active torsions:
REMARK  status: ('A' for Active; 'I' for Inactive)
ROOT
ATOM      1  C   UNL d   1       5.362  -1.307   5.265  0.00  0.00     0.172 C 
ATOM      2  N   UNL d   1       5.266   0.109   4.996  0.00  0.00    -0.070 N 
ATOM      3  C1  UNL d   1       5.375   0.696   3.764  0.00  0.00    -0.004 A 
ATOM      4  C2  UNL d   1       5.225   2.056   3.930  0.00  0.00    -0.047 A 
ATOM      5  C3  UNL d   1       5.020   2.294   5.310  0.00  0.00    -0.047 A 
ATOM      6  C4  UNL d   1       5.050   1.071   5.946  0.00  0.00    -0.004 A 
ENDROOT
TORSDOF 0
ENDMDL
