MODEL 1
REMARK minimizedAffinity -1.14833796
REMARK minimizedRMSD -1
REMARK  0 active torsions:
REMARK  status: ('A' for Active; 'I' for Inactive)
ROOT
ATOM      1  C   UNL d   1       5.974  -0.220   4.865  0.00  0.00     0.172 C 
ATOM      2  N   UNL d   1       5.981   1.112   4.309  0.00  0.00    -0.070 N 
ATOM      3  C1  UNL d   1       5.973   2.278   5.028  0.00  0.00    -0.004 A 
ATOM      4  C2  UNL d   1       5.985   3.326   4.134  0.00  0.00    -0.047 A 
ATOM      5  C3  UNL d   1       5.999   2.771   2.832  0.00  0.00    -0.047 A 
ATOM      6  C4  UNL d   1       5.996   1.399   2.970  0.00  0.00    -0.004 A 
ENDROOT
TORSDOF 0
ENDMDL
