MODEL 1
REMARK minimizedAffinity -2.84490252
REMARK minimizedRMSD -1
REMARK  0 active torsions:
REMARK  status: ('A' for Active; 'I' for Inactive)
ROOT
ATOM      1  C   UNL d   1       5.251  -0.969   4.883  0.00  0.00     0.172 C 
ATOM      2  N   UNL d   1       5.411   0.426   4.547  0.00  0.00    -0.070 N 
ATOM      3  C1  UNL d   1       5.003   1.484   5.315  0.00  0.00    -0.004 A 
ATOM      4  C2  UNL d   1       5.337   2.643   4.648  0.00  0.00    -0.047 A 
ATOM      5  C3  UNL d   1       5.967   2.269   3.437  0.00  0.00    -0.047 A 
ATOM      6  C4  UNL d   1       6.000   0.891   3.400  0.00  0.00    -0.004 A 
ENDROOT
TORSDOF 0
ENDMDL
