MODEL 1
REMARK minimizedAffinity -1.07252705
REMARK minimizedRMSD -1
REMARK  0 active torsions:
REMARK  status: ('A' for Active; 'I' for Inactive)
ROOT
ATOM      1  C   UNL d   1       5.346   1.411   3.758  0.00  0.00     0.172 C 
ATOM      2  N   UNL d   1       5.519   0.145   4.431  0.00  0.00    -0.070 N 
ATOM      3  C1  UNL d   1       5.982  -0.024   5.709  0.00  0.00    -0.004 A 
ATOM      4  C2  UNL d   1       5.999  -1.376   5.976  0.00  0.00    -0.047 A 
ATOM      5  C3  UNL d   1       5.532  -2.043   4.819  0.00  0.00    -0.047 A 
ATOM      6  C4  UNL d   1       5.242  -1.078   3.878  0.00  0.00    -0.004 A 
ENDROOT
TORSDOF 0
ENDMDL
