MODEL 1
REMARK minimizedAffinity -1.32641077
REMARK minimizedRMSD -1
REMARK  0 active torsions:
REMARK  status: ('A' for Active; 'I' for Inactive)
ROOT
ATOM      1  C   UNL d   1       6.000  -2.259   4.535  0.00  0.00     0.172 C 
ATOM      2  N   UNL d   1       5.998  -0.834   4.771  0.00  0.00    -0.070 N 
ATOM      3  C1  UNL d   1       5.994  -0.228   5.999  0.00  0.00    -0.004 A 
ATOM      4  C2  UNL d   1       5.994   1.135   5.797  0.00  0.00    -0.047 A 
ATOM      5  C3  UNL d   1       5.997   1.356   4.399  0.00  0.00    -0.047 A 
ATOM      6  C4  UNL d   1       6.000   0.120   3.788  0.00  0.00    -0.004 A 
ENDROOT
TORSDOF 0
ENDMDL
