MODEL 1
REMARK minimizedAffinity -2.70314574
REMARK minimizedRMSD -1
REMARK  0 active torsions:
REMARK  status: ('A' for Active; 'I' for Inactive)
ROOT
ATOM      1  C   UNL d   1       5.772  -1.701   4.907  0.00  0.00     0.172 C 
ATOM      2  N   UNL d   1       5.664  -0.264   4.823  0.00  0.00    -0.070 N 
ATOM      3  C1  UNL d   1       5.323   0.572   5.853  0.00  0.00    -0.004 A 
ATOM      4  C2  UNL d   1       5.332   1.863   5.369  0.00  0.00    -0.047 A 
ATOM      5  C3  UNL d   1       5.690   1.800   4.002  0.00  0.00    -0.047 A 
ATOM      6  C4  UNL d   1       5.890   0.472   3.690  0.00  0.00    -0.004 A 
ENDROOT
TORSDOF 0
ENDMDL
