MODEL 1
REMARK minimizedAffinity -2.27318144
REMARK minimizedRMSD -1
REMARK  0 active torsions:
REMARK  status: ('A' for Active; 'I' for Inactive)
ROOT
ATOM      1  C   UNL d   1       5.995  -1.119   5.367  0.00  0.00     0.172 C 
ATOM      2  N   UNL d   1       5.996   0.255   4.923  0.00  0.00    -0.070 N 
ATOM      3  C1  UNL d   1       5.998   1.357   5.736  0.00  0.00    -0.004 A 
ATOM      4  C2  UNL d   1       5.999   2.476   4.932  0.00  0.00    -0.047 A 
ATOM      5  C3  UNL d   1       5.997   2.031   3.588  0.00  0.00    -0.047 A 
ATOM      6  C4  UNL d   1       5.995   0.652   3.612  0.00  0.00    -0.004 A 
ENDROOT
TORSDOF 0
ENDMDL
