MODEL 1
REMARK minimizedAffinity -2.99620795
REMARK minimizedRMSD -1
REMARK  0 active torsions:
REMARK  status: ('A' for Active; 'I' for Inactive)
ROOT
ATOM      1  C   UNL d   1       5.327   2.956   3.734  0.00  0.00     0.172 C 
ATOM      2  N   UNL d   1       5.250   1.606   4.240  0.00  0.00    -0.070 N 
ATOM      3  C1  UNL d   1       5.251   0.467   3.480  0.00  0.00    -0.004 A 
ATOM      4  C2  UNL d   1       5.166  -0.611   4.334  0.00  0.00    -0.047 A 
ATOM      5  C3  UNL d   1       5.111  -0.102   5.654  0.00  0.00    -0.047 A 
ATOM      6  C4  UNL d   1       5.165   1.273   5.566  0.00  0.00    -0.004 A 
ENDROOT
TORSDOF 0
ENDMDL
