MODEL 1
REMARK minimizedAffinity 9.51335812
REMARK minimizedRMSD -1
REMARK  0 active torsions:
REMARK  status: ('A' for Active; 'I' for Inactive)
ROOT
ATOM      1  N1  IND d   1       1.151   4.921  -3.469  0.00  0.00    -0.196 N 
ATOM      2  C2  IND d   1       0.435   5.670  -4.361  0.00  0.00     0.054 A 
ATOM      3  C3  IND d   1      -0.768   6.000  -3.840  0.00  0.00    -0.031 A 
ATOM      4  C4  IND d   1      -1.731   5.504  -1.505  0.00  0.00     0.051 A 
ATOM      5  C5  IND d   1      -1.462   4.821  -0.352  0.00  0.00    -0.031 A 
ATOM      6  C6  IND d   1      -0.284   4.124  -0.174  0.00  0.00     0.015 A 
ATOM      7  C7  IND d   1       0.678   4.094  -1.143  0.00  0.00    -0.016 A 
ATOM      8  C8  IND d   1       0.406   4.781  -2.318  0.00  0.00    -0.047 A 
ATOM      9  C9  IND d   1      -0.805   5.455  -2.520  0.00  0.00    -0.096 A 
ATOM     10  HN1 IND d   1       1.934   4.593  -3.604  0.00  0.00     0.298 HD
ENDROOT
TORSDOF 0
ENDMDL
