MODEL 1
REMARK minimizedAffinity 7.55664682
REMARK minimizedRMSD -1
REMARK  0 active torsions:
REMARK  status: ('A' for Active; 'I' for Inactive)
ROOT
ATOM      1  N1  IND d   1      -0.744   2.637  -0.274  0.00  0.00    -0.196 N 
ATOM      2  C2  IND d   1       0.309   2.654   0.598  0.00  0.00     0.054 A 
ATOM      3  C3  IND d   1       1.111   3.712   0.345  0.00  0.00    -0.031 A 
ATOM      4  C4  IND d   1       0.835   5.599  -1.384  0.00  0.00     0.051 A 
ATOM      5  C5  IND d   1       0.049   5.995  -2.429  0.00  0.00    -0.031 A 
ATOM      6  C6  IND d   1      -1.066   5.279  -2.816  0.00  0.00     0.015 A 
ATOM      7  C7  IND d   1      -1.444   4.141  -2.161  0.00  0.00    -0.016 A 
ATOM      8  C8  IND d   1      -0.644   3.732  -1.104  0.00  0.00    -0.047 A 
ATOM      9  C9  IND d   1       0.512   4.431  -0.734  0.00  0.00    -0.096 A 
ATOM     10  HN1 IND d   1      -1.364   2.042  -0.301  0.00  0.00     0.298 HD
ENDROOT
TORSDOF 0
ENDMDL
