MODEL 1
REMARK minimizedAffinity 14.3205099
REMARK minimizedRMSD -1
REMARK  0 active torsions:
REMARK  status: ('A' for Active; 'I' for Inactive)
ROOT
ATOM      1  N1  IND d   1       1.547   4.433  -0.289  0.00  0.00    -0.196 N 
ATOM      2  C2  IND d   1       0.368   4.620  -0.954  0.00  0.00     0.054 A 
ATOM      3  C3  IND d   1      -0.605   3.853  -0.412  0.00  0.00    -0.031 A 
ATOM      4  C4  IND d   1      -0.508   2.293   1.634  0.00  0.00     0.051 A 
ATOM      5  C5  IND d   1       0.362   1.768   2.548  0.00  0.00    -0.031 A 
ATOM      6  C6  IND d   1       1.698   2.113   2.565  0.00  0.00     0.015 A 
ATOM      7  C7  IND d   1       2.214   3.009   1.672  0.00  0.00    -0.016 A 
ATOM      8  C8  IND d   1       1.335   3.539   0.738  0.00  0.00    -0.047 A 
ATOM      9  C9  IND d   1      -0.013   3.160   0.689  0.00  0.00    -0.096 A 
ATOM     10  HN1 IND d   1       2.296   4.810  -0.480  0.00  0.00     0.298 HD
ENDROOT
TORSDOF 0
ENDMDL
