MODEL 1
REMARK minimizedAffinity 9.79663181
REMARK minimizedRMSD -1
REMARK  0 active torsions:
REMARK  status: ('A' for Active; 'I' for Inactive)
ROOT
ATOM      1  N1  IND d   1       1.105   4.147  -1.580  0.00  0.00    -0.196 N 
ATOM      2  C2  IND d   1      -0.202   4.083  -1.973  0.00  0.00     0.054 A 
ATOM      3  C3  IND d   1      -0.949   3.473  -1.026  0.00  0.00    -0.031 A 
ATOM      4  C4  IND d   1      -0.251   2.592   1.291  0.00  0.00     0.051 A 
ATOM      5  C5  IND d   1       0.845   2.395   2.083  0.00  0.00    -0.031 A 
ATOM      6  C6  IND d   1       2.109   2.782   1.687  0.00  0.00     0.015 A 
ATOM      7  C7  IND d   1       2.323   3.393   0.485  0.00  0.00    -0.016 A 
ATOM      8  C8  IND d   1       1.214   3.589  -0.325  0.00  0.00    -0.047 A 
ATOM      9  C9  IND d   1      -0.065   3.160   0.052  0.00  0.00    -0.096 A 
ATOM     10  HN1 IND d   1       1.752   4.480  -2.039  0.00  0.00     0.298 HD
ENDROOT
TORSDOF 0
ENDMDL
