MODEL 1
REMARK minimizedAffinity 9.62298965
REMARK minimizedRMSD -1
REMARK  0 active torsions:
REMARK  status: ('A' for Active; 'I' for Inactive)
ROOT
ATOM      1  N1  IND d   1      -0.924  -2.895  -1.833  0.00  0.00    -0.196 N 
ATOM      2  C2  IND d   1      -0.901  -4.215  -2.185  0.00  0.00     0.054 A 
ATOM      3  C3  IND d   1       0.173  -4.829  -1.640  0.00  0.00    -0.031 A 
ATOM      4  C4  IND d   1       1.968  -3.884  -0.055  0.00  0.00     0.051 A 
ATOM      5  C5  IND d   1       2.389  -2.719   0.522  0.00  0.00    -0.031 A 
ATOM      6  C6  IND d   1       1.713  -1.530   0.343  0.00  0.00     0.015 A 
ATOM      7  C7  IND d   1       0.578  -1.463  -0.415  0.00  0.00    -0.016 A 
ATOM      8  C8  IND d   1       0.151  -2.642  -1.008  0.00  0.00    -0.047 A 
ATOM      9  C9  IND d   1       0.857  -3.844  -0.865  0.00  0.00    -0.096 A 
ATOM     10  HN1 IND d   1      -1.511  -2.318  -2.083  0.00  0.00     0.298 HD
ENDROOT
TORSDOF 0
ENDMDL
