MODEL 1
REMARK minimizedAffinity 14.5927763
REMARK minimizedRMSD -1
REMARK  0 active torsions:
REMARK  status: ('A' for Active; 'I' for Inactive)
ROOT
ATOM      1  N1  IND d   1       0.467   2.585  -0.761  0.00  0.00    -0.196 N 
ATOM      2  C2  IND d   1       0.855   2.868   0.519  0.00  0.00     0.054 A 
ATOM      3  C3  IND d   1       0.434   4.102   0.876  0.00  0.00    -0.031 A 
ATOM      4  C4  IND d   1      -0.992   5.790  -0.445  0.00  0.00     0.051 A 
ATOM      5  C5  IND d   1      -1.557   5.995  -1.673  0.00  0.00    -0.031 A 
ATOM      6  C6  IND d   1      -1.476   5.054  -2.679  0.00  0.00     0.015 A 
ATOM      7  C7  IND d   1      -0.834   3.862  -2.490  0.00  0.00    -0.016 A 
ATOM      8  C8  IND d   1      -0.254   3.654  -1.247  0.00  0.00    -0.047 A 
ATOM      9  C9  IND d   1      -0.296   4.622  -0.236  0.00  0.00    -0.096 A 
ATOM     10  HN1 IND d   1       0.645   1.862  -1.190  0.00  0.00     0.298 HD
ENDROOT
TORSDOF 0
ENDMDL
