MODEL 1
REMARK minimizedAffinity -3.90480614
REMARK minimizedRMSD -1
REMARK  0 active torsions:
REMARK  status: ('A' for Active; 'I' for Inactive)
ROOT
ATOM      1  C4' PXY d   1       0.411   0.230  -2.610  0.00  0.00     0.077 C 
ATOM      2  C1' PXY d   1      -0.422  -0.254   3.090  0.00  0.00     0.077 C 
ATOM      3  C1  PXY d   1      -0.215  -0.133   1.593  0.00  0.00    -0.082 A 
ATOM      4  C2  PXY d   1       1.007   0.028   1.113  0.00  0.00     0.003 A 
ATOM      5  C3  PXY d   1       1.210   0.171  -0.236  0.00  0.00     0.003 A 
ATOM      6  C4  PXY d   1       0.155   0.094  -1.106  0.00  0.00    -0.082 A 
ATOM      7  C5  PXY d   1      -1.093  -0.081  -0.625  0.00  0.00     0.003 A 
ATOM      8  C6  PXY d   1      -1.282  -0.183   0.750  0.00  0.00     0.003 A 
ENDROOT
TORSDOF 0
ENDMDL
