MODEL 1
REMARK minimizedAffinity -3.55783629
REMARK minimizedRMSD -1
REMARK  0 active torsions:
REMARK  status: ('A' for Active; 'I' for Inactive)
ROOT
ATOM      1  C4' PXY d   1      -0.982  -0.781   3.557  0.00  0.00     0.077 C 
ATOM      2  C1' PXY d   1       0.782   0.738  -1.734  0.00  0.00     0.077 C 
ATOM      3  C1  PXY d   1       0.332   0.339  -0.342  0.00  0.00    -0.082 A 
ATOM      4  C2  PXY d   1      -0.842  -0.250  -0.178  0.00  0.00     0.003 A 
ATOM      5  C3  PXY d   1      -1.278  -0.589   1.077  0.00  0.00     0.003 A 
ATOM      6  C4  PXY d   1      -0.483  -0.370   2.170  0.00  0.00    -0.082 A 
ATOM      7  C5  PXY d   1       0.720   0.222   2.009  0.00  0.00     0.003 A 
ATOM      8  C6  PXY d   1       1.127   0.595   0.732  0.00  0.00     0.003 A 
ENDROOT
TORSDOF 0
ENDMDL
