MODEL 1
REMARK minimizedAffinity -4.16445446
REMARK minimizedRMSD -1
REMARK  0 active torsions:
REMARK  status: ('A' for Active; 'I' for Inactive)
ROOT
ATOM      1  C4' PXY d   1      -2.789   0.002   2.012  0.00  0.00     0.077 C 
ATOM      2  C1' PXY d   1       0.837   0.502  -2.462  0.00  0.00     0.077 C 
ATOM      3  C1  PXY d   1      -0.121   0.381  -1.293  0.00  0.00    -0.082 A 
ATOM      4  C2  PXY d   1       0.285  -0.193  -0.172  0.00  0.00     0.003 A 
ATOM      5  C3  PXY d   1      -0.578  -0.339   0.884  0.00  0.00     0.003 A 
ATOM      6  C4  PXY d   1      -1.853   0.154   0.810  0.00  0.00    -0.082 A 
ATOM      7  C5  PXY d   1      -2.271   0.750  -0.327  0.00  0.00     0.003 A 
ATOM      8  C6  PXY d   1      -1.392   0.852  -1.402  0.00  0.00     0.003 A 
ENDROOT
TORSDOF 0
ENDMDL
