MODEL 1
REMARK minimizedAffinity -4.78920031
REMARK minimizedRMSD -1
REMARK  0 active torsions:
REMARK  status: ('A' for Active; 'I' for Inactive)
ROOT
ATOM      1  C4' PXY d   1       0.600   0.239  -1.356  0.00  0.00     0.077 C 
ATOM      2  C1' PXY d   1      -1.621   0.012   3.976  0.00  0.00     0.077 C 
ATOM      3  C1  PXY d   1      -1.029   0.079   2.582  0.00  0.00    -0.082 A 
ATOM      4  C2  PXY d   1      -1.813  -0.087   1.529  0.00  0.00     0.003 A 
ATOM      5  C3  PXY d   1      -1.288  -0.061   0.262  0.00  0.00     0.003 A 
ATOM      6  C4  PXY d   1       0.044   0.189   0.069  0.00  0.00    -0.082 A 
ATOM      7  C5  PXY d   1       0.849   0.370   1.138  0.00  0.00     0.003 A 
ATOM      8  C6  PXY d   1       0.304   0.299   2.417  0.00  0.00     0.003 A 
ENDROOT
TORSDOF 0
ENDMDL
