MODEL 1
REMARK minimizedAffinity -3.43670082
REMARK minimizedRMSD -1
REMARK  0 active torsions:
REMARK  status: ('A' for Active; 'I' for Inactive)
ROOT
ATOM      1  C4' PXY d   1      -3.038  -0.813   0.281  0.00  0.00     0.077 C 
ATOM      2  C1' PXY d   1       2.382   0.448   1.847  0.00  0.00     0.077 C 
ATOM      3  C1  PXY d   1       0.960   0.107   1.445  0.00  0.00    -0.082 A 
ATOM      4  C2  PXY d   1       0.506   0.490   0.262  0.00  0.00     0.003 A 
ATOM      5  C3  PXY d   1      -0.787   0.218  -0.105  0.00  0.00     0.003 A 
ATOM      6  C4  PXY d   1      -1.607  -0.499   0.725  0.00  0.00    -0.082 A 
ATOM      7  C5  PXY d   1      -1.147  -0.902   1.929  0.00  0.00     0.003 A 
ATOM      8  C6  PXY d   1       0.156  -0.581   2.299  0.00  0.00     0.003 A 
ENDROOT
TORSDOF 0
ENDMDL
