MODEL 1
REMARK minimizedAffinity -3.88236761
REMARK minimizedRMSD -1
REMARK  0 active torsions:
REMARK  status: ('A' for Active; 'I' for Inactive)
ROOT
ATOM      1  C4' PXY d   1       1.078   0.135  -2.644  0.00  0.00     0.077 C 
ATOM      2  C1' PXY d   1       0.570   0.682   3.088  0.00  0.00     0.077 C 
ATOM      3  C1  PXY d   1       0.712   0.549   1.585  0.00  0.00    -0.082 A 
ATOM      4  C2  PXY d   1      -0.254  -0.024   0.885  0.00  0.00     0.003 A 
ATOM      5  C3  PXY d   1      -0.129  -0.182  -0.471  0.00  0.00     0.003 A 
ATOM      6  C4  PXY d   1       0.974   0.299  -1.125  0.00  0.00    -0.082 A 
ATOM      7  C5  PXY d   1       1.959   0.895  -0.420  0.00  0.00     0.003 A 
ATOM      8  C6  PXY d   1       1.830   1.008   0.961  0.00  0.00     0.003 A 
ENDROOT
TORSDOF 0
ENDMDL
