MODEL 1
REMARK minimizedAffinity 3.48877096
REMARK minimizedRMSD -1
REMARK  0 active torsions:
REMARK  status: ('A' for Active; 'I' for Inactive)
ROOT
ATOM      1  C4' PXY d   1       2.724   2.807   0.262  0.00  0.00     0.077 C 
ATOM      2  C1' PXY d   1      -1.798  -0.334   2.022  0.00  0.00     0.077 C 
ATOM      3  C1  PXY d   1      -0.613   0.484   1.549  0.00  0.00    -0.082 A 
ATOM      4  C2  PXY d   1       0.231   0.986   2.436  0.00  0.00     0.003 A 
ATOM      5  C3  PXY d   1       1.290   1.755   2.027  0.00  0.00     0.003 A 
ATOM      6  C4  PXY d   1       1.519   1.967   0.694  0.00  0.00    -0.082 A 
ATOM      7  C5  PXY d   1       0.668   1.449  -0.218  0.00  0.00     0.003 A 
ATOM      8  C6  PXY d   1      -0.424   0.706   0.220  0.00  0.00     0.003 A 
ENDROOT
TORSDOF 0
ENDMDL
