MODEL 1
REMARK minimizedAffinity 2.11158085
REMARK minimizedRMSD -1
REMARK  0 active torsions:
REMARK  status: ('A' for Active; 'I' for Inactive)
ROOT
ATOM      1  C4' PXY d   1       1.536  -0.359   3.256  0.00  0.00     0.077 C 
ATOM      2  C1' PXY d   1      -3.657   0.268   0.795  0.00  0.00     0.077 C 
ATOM      3  C1  PXY d   1      -2.301   0.102   1.452  0.00  0.00    -0.082 A 
ATOM      4  C2  PXY d   1      -1.221   0.577   0.853  0.00  0.00     0.003 A 
ATOM      5  C3  PXY d   1       0.017   0.408   1.418  0.00  0.00     0.003 A 
ATOM      6  C4  PXY d   1       0.145  -0.206   2.634  0.00  0.00    -0.082 A 
ATOM      7  C5  PXY d   1      -0.953  -0.684   3.257  0.00  0.00     0.003 A 
ATOM      8  C6  PXY d   1      -2.196  -0.539   2.648  0.00  0.00     0.003 A 
ENDROOT
TORSDOF 0
ENDMDL
