MODEL 1
REMARK minimizedAffinity -4.08619642
REMARK minimizedRMSD -1
REMARK  0 active torsions:
REMARK  status: ('A' for Active; 'I' for Inactive)
ROOT
ATOM      1  C4' PXY d   1       0.367  -0.203  -2.148  0.00  0.00     0.077 C 
ATOM      2  C1' PXY d   1      -0.817  -0.065   3.508  0.00  0.00     0.077 C 
ATOM      3  C1  PXY d   1      -0.519  -0.104   2.022  0.00  0.00    -0.082 A 
ATOM      4  C2  PXY d   1       0.717  -0.333   1.609  0.00  0.00     0.003 A 
ATOM      5  C3  PXY d   1       1.010  -0.340   0.269  0.00  0.00     0.003 A 
ATOM      6  C4  PXY d   1       0.018  -0.164  -0.658  0.00  0.00    -0.082 A 
ATOM      7  C5  PXY d   1      -1.247   0.059  -0.244  0.00  0.00     0.003 A 
ATOM      8  C6  PXY d   1      -1.517   0.104   1.121  0.00  0.00     0.003 A 
ENDROOT
TORSDOF 0
ENDMDL
