MODEL 1
REMARK minimizedAffinity -3.26301908
REMARK minimizedRMSD -1
REMARK  0 active torsions:
REMARK  status: ('A' for Active; 'I' for Inactive)
ROOT
ATOM      1  C4' PXY d   1      -0.004   1.080  -1.922  0.00  0.00     0.077 C 
ATOM      2  C1' PXY d   1      -0.135  -1.402   3.297  0.00  0.00     0.077 C 
ATOM      3  C1  PXY d   1      -0.091  -0.743   1.932  0.00  0.00    -0.082 A 
ATOM      4  C2  PXY d   1      -1.162  -0.773   1.157  0.00  0.00     0.003 A 
ATOM      5  C3  PXY d   1      -1.130  -0.210  -0.093  0.00  0.00     0.003 A 
ATOM      6  C4  PXY d   1      -0.006   0.436  -0.533  0.00  0.00    -0.082 A 
ATOM      7  C5  PXY d   1       1.088   0.481   0.257  0.00  0.00     0.003 A 
ATOM      8  C6  PXY d   1       1.048  -0.133   1.506  0.00  0.00     0.003 A 
ENDROOT
TORSDOF 0
ENDMDL
