MODEL 1
REMARK minimizedAffinity -4.92924738
REMARK minimizedRMSD -1
REMARK  0 active torsions:
REMARK  status: ('A' for Active; 'I' for Inactive)
ROOT
ATOM      1  C4' PXY d   1       0.271   0.353  -1.238  0.00  0.00     0.077 C 
ATOM      2  C1' PXY d   1      -2.125  -0.655   3.925  0.00  0.00     0.077 C 
ATOM      3  C1  PXY d   1      -1.485  -0.387   2.577  0.00  0.00    -0.082 A 
ATOM      4  C2  PXY d   1      -2.251  -0.125   1.530  0.00  0.00     0.003 A 
ATOM      5  C3  PXY d   1      -1.691   0.088   0.297  0.00  0.00     0.003 A 
ATOM      6  C4  PXY d   1      -0.331   0.085   0.144  0.00  0.00    -0.082 A 
ATOM      7  C5  PXY d   1       0.458  -0.171   1.209  0.00  0.00     0.003 A 
ATOM      8  C6  PXY d   1      -0.132  -0.425   2.444  0.00  0.00     0.003 A 
ENDROOT
TORSDOF 0
ENDMDL
