MODEL 1
REMARK minimizedAffinity -4.75780106
REMARK minimizedRMSD -1
REMARK  0 active torsions:
REMARK  status: ('A' for Active; 'I' for Inactive)
ROOT
ATOM      1  C4' PXY d   1      -3.203   0.233   3.066  0.00  0.00     0.077 C 
ATOM      2  C1' PXY d   1       2.050   0.259   0.654  0.00  0.00     0.077 C 
ATOM      3  C1  PXY d   1       0.667   0.258   1.275  0.00  0.00    -0.082 A 
ATOM      4  C2  PXY d   1       0.543   0.229   2.592  0.00  0.00     0.003 A 
ATOM      5  C3  PXY d   1      -0.700   0.195   3.171  0.00  0.00     0.003 A 
ATOM      6  C4  PXY d   1      -1.827   0.245   2.394  0.00  0.00    -0.082 A 
ATOM      7  C5  PXY d   1      -1.708   0.286   1.050  0.00  0.00     0.003 A 
ATOM      8  C6  PXY d   1      -0.438   0.278   0.482  0.00  0.00     0.003 A 
ENDROOT
TORSDOF 0
ENDMDL
