MODEL 1
REMARK minimizedAffinity -2.52105045
REMARK minimizedRMSD -1
REMARK  0 active torsions:
REMARK  status: ('A' for Active; 'I' for Inactive)
ROOT
ATOM      1  C4' PXY d   1      -2.286   0.044   2.397  0.00  0.00     0.077 C 
ATOM      2  C1' PXY d   1       1.044   0.087  -2.328  0.00  0.00     0.077 C 
ATOM      3  C1  PXY d   1       0.163   0.084  -1.094  0.00  0.00    -0.082 A 
ATOM      4  C2  PXY d   1       0.668  -0.289   0.070  0.00  0.00     0.003 A 
ATOM      5  C3  PXY d   1      -0.123  -0.328   1.189  0.00  0.00     0.003 A 
ATOM      6  C4  PXY d   1      -1.431   0.071   1.127  0.00  0.00    -0.082 A 
ATOM      7  C5  PXY d   1      -1.951   0.464  -0.055  0.00  0.00     0.003 A 
ATOM      8  C6  PXY d   1      -1.143   0.457  -1.188  0.00  0.00     0.003 A 
ENDROOT
TORSDOF 0
ENDMDL
