MODEL 1
REMARK minimizedAffinity -3.94989157
REMARK minimizedRMSD -1
REMARK  0 active torsions:
REMARK  status: ('A' for Active; 'I' for Inactive)
ROOT
ATOM      1  C4' PXY d   1       0.798   0.127  -2.849  0.00  0.00     0.077 C 
ATOM      2  C1' PXY d   1      -0.417   0.381   2.797  0.00  0.00     0.077 C 
ATOM      3  C1  PXY d   1      -0.111   0.312   1.313  0.00  0.00    -0.082 A 
ATOM      4  C2  PXY d   1       1.116   0.021   0.911  0.00  0.00     0.003 A 
ATOM      5  C3  PXY d   1       1.417  -0.014  -0.426  0.00  0.00     0.003 A 
ATOM      6  C4  PXY d   1       0.441   0.198  -1.362  0.00  0.00    -0.082 A 
ATOM      7  C5  PXY d   1      -0.815   0.485  -0.960  0.00  0.00     0.003 A 
ATOM      8  C6  PXY d   1      -1.092   0.556   0.403  0.00  0.00     0.003 A 
ENDROOT
TORSDOF 0
ENDMDL
