MODEL 1
REMARK minimizedAffinity -3.63763213
REMARK minimizedRMSD -1
REMARK  0 active torsions:
REMARK  status: ('A' for Active; 'I' for Inactive)
ROOT
ATOM      1  C4' PXY d   1       0.693   2.376   4.232  0.00  0.00     0.077 C 
ATOM      2  C1' PXY d   1      -0.169  -1.081  -0.320  0.00  0.00     0.077 C 
ATOM      3  C1  PXY d   1       0.045  -0.178   0.878  0.00  0.00    -0.082 A 
ATOM      4  C2  PXY d   1       0.890   0.837   0.790  0.00  0.00     0.003 A 
ATOM      5  C3  PXY d   1       1.120   1.644   1.874  0.00  0.00     0.003 A 
ATOM      6  C4  PXY d   1       0.438   1.444   3.044  0.00  0.00    -0.082 A 
ATOM      7  C5  PXY d   1      -0.434   0.418   3.139  0.00  0.00     0.003 A 
ATOM      8  C6  PXY d   1      -0.622  -0.416   2.040  0.00  0.00     0.003 A 
ENDROOT
TORSDOF 0
ENDMDL
