MODEL 1
REMARK minimizedAffinity 2.85309958
REMARK minimizedRMSD -1
REMARK  0 active torsions:
REMARK  status: ('A' for Active; 'I' for Inactive)
ROOT
ATOM      1  C4' PXY d   1      -2.797  -2.388   2.073  0.00  0.00     0.077 C 
ATOM      2  C1' PXY d   1       0.296   0.920  -1.520  0.00  0.00     0.077 C 
ATOM      3  C1  PXY d   1      -0.522   0.048  -0.588  0.00  0.00    -0.082 A 
ATOM      4  C2  PXY d   1      -0.650   0.390   0.684  0.00  0.00     0.003 A 
ATOM      5  C3  PXY d   1      -1.359  -0.404   1.548  0.00  0.00     0.003 A 
ATOM      6  C4  PXY d   1      -1.988  -1.532   1.094  0.00  0.00    -0.082 A 
ATOM      7  C5  PXY d   1      -1.871  -1.882  -0.205  0.00  0.00     0.003 A 
ATOM      8  C6  PXY d   1      -1.112  -1.085  -1.056  0.00  0.00     0.003 A 
ENDROOT
TORSDOF 0
ENDMDL
