MODEL 1
REMARK minimizedAffinity -4.38424492
REMARK minimizedRMSD -1
REMARK  0 active torsions:
REMARK  status: ('A' for Active; 'I' for Inactive)
ROOT
ATOM      1  C4' PXY d   1       0.582   0.156  -1.235  0.00  0.00     0.077 C 
ATOM      2  C1' PXY d   1      -1.873  -0.800   3.911  0.00  0.00     0.077 C 
ATOM      3  C1  PXY d   1      -1.219  -0.543   2.567  0.00  0.00    -0.082 A 
ATOM      4  C2  PXY d   1      -1.958  -0.541   1.470  0.00  0.00     0.003 A 
ATOM      5  C3  PXY d   1      -1.379  -0.342   0.243  0.00  0.00     0.003 A 
ATOM      6  C4  PXY d   1      -0.037  -0.090   0.144  0.00  0.00    -0.082 A 
ATOM      7  C5  PXY d   1       0.723  -0.080   1.260  0.00  0.00     0.003 A 
ATOM      8  C6  PXY d   1       0.122  -0.325   2.492  0.00  0.00     0.003 A 
ENDROOT
TORSDOF 0
ENDMDL
