MODEL 1
REMARK minimizedAffinity -5.34042883
REMARK minimizedRMSD -1
REMARK  0 active torsions:
REMARK  status: ('A' for Active; 'I' for Inactive)
ROOT
ATOM      1  C4' PXY d   1       0.617   0.371  -1.495  0.00  0.00     0.077 C 
ATOM      2  C1' PXY d   1      -1.873  -0.491   3.651  0.00  0.00     0.077 C 
ATOM      3  C1  PXY d   1      -1.210  -0.259   2.307  0.00  0.00    -0.082 A 
ATOM      4  C2  PXY d   1      -1.949  -0.224   1.210  0.00  0.00     0.003 A 
ATOM      5  C3  PXY d   1      -1.363  -0.047  -0.016  0.00  0.00     0.003 A 
ATOM      6  C4  PXY d   1      -0.011   0.149  -0.116  0.00  0.00    -0.082 A 
ATOM      7  C5  PXY d   1       0.749   0.125   1.000  0.00  0.00     0.003 A 
ATOM      8  C6  PXY d   1       0.139  -0.097   2.231  0.00  0.00     0.003 A 
ENDROOT
TORSDOF 0
ENDMDL
