MODEL 1
REMARK minimizedAffinity -3.73122263
REMARK minimizedRMSD -1
REMARK  3 active torsions:
REMARK  status: ('A' for Active; 'I' for Inactive)
REMARK    1  A    between atoms: C3'_2  and  C2'_3 
REMARK    2  A    between atoms: C2'_3  and  C1'_4 
REMARK    3  A    between atoms: C1'_4  and  C1_5 
ROOT
ATOM      1  C1  N4B d   1      -0.710   0.238   0.825  0.00  0.00    -0.075 A 
ATOM      2  C2  N4B d   1      -1.477   1.369   1.182  0.00  0.00     0.002 A 
ATOM      3  C3  N4B d   1      -0.901   2.392   1.894  0.00  0.00     0.002 A 
ATOM      4  C4  N4B d   1       0.430   2.299   2.274  0.00  0.00    -0.004 A 
ATOM      5  C5  N4B d   1       1.170   1.215   1.903  0.00  0.00     0.002 A 
ATOM      6  C6  N4B d   1       0.605   0.181   1.184  0.00  0.00     0.002 A 
ENDROOT
BRANCH   1   7
ATOM      7  C1' N4B d   1      -1.319  -0.944   0.121  0.00  0.00     0.057 C 
BRANCH   7   8
ATOM      8  C2' N4B d   1      -0.252  -1.622  -0.733  0.00  0.00     0.009 C 
BRANCH   8   9
ATOM      9  C3' N4B d   1      -0.806  -2.817  -1.491  0.00  0.00     0.004 C 
ATOM     10  C4' N4B d   1      -0.083  -4.092  -1.172  0.00  0.00     0.003 C 
ENDBRANCH   8   9
ENDBRANCH   7   8
ENDBRANCH   1   7
TORSDOF 3
ENDMDL
