MODEL 1
REMARK minimizedAffinity -1.7894727
REMARK minimizedRMSD -1
REMARK  1 active torsions:
REMARK  status: ('A' for Active; 'I' for Inactive)
REMARK    1  A    between atoms: C1_2  and  C2_3 
ROOT
ATOM      1  C2  UNL d   1       0.191   0.081   0.899  0.00  0.00    -0.076 A 
ATOM      2  C3  UNL d   1       0.804  -1.029   1.507  0.00  0.00     0.004 A 
ATOM      3  C4  UNL d   1       1.261  -2.102   0.744  0.00  0.00    -0.003 A 
ATOM      4  C5  UNL d   1       1.115  -2.083  -0.638  0.00  0.00     0.000 A 
ATOM      5  C6  UNL d   1       0.526  -0.982  -1.259  0.00  0.00     0.000 A 
ATOM      6  C7  UNL d   1       0.074   0.116  -0.506  0.00  0.00    -0.073 A 
ATOM      7  C8  UNL d   1      -0.559   1.274  -1.228  0.00  0.00     0.078 C 
ENDROOT
BRANCH   1   8
ATOM      8  C1  UNL d   1      -0.310   1.203   1.780  0.00  0.00     0.053 C 
ATOM      9  C   UNL d   1      -1.079   0.696   2.990  0.00  0.00     0.018 C 
ENDBRANCH   1   8
TORSDOF 1
ENDMDL
