MODEL 1
REMARK minimizedAffinity -4.41570616
REMARK minimizedRMSD -1
REMARK  1 active torsions:
REMARK  status: ('A' for Active; 'I' for Inactive)
REMARK    1  A    between atoms: C1_2  and  C2_3 
ROOT
ATOM      1  C2  UNL d   1       1.632   0.222  -0.710  0.00  0.00    -0.076 A 
ATOM      2  C3  UNL d   1       1.344   1.550  -1.071  0.00  0.00     0.004 A 
ATOM      3  C4  UNL d   1       0.052   2.060  -0.955  0.00  0.00    -0.003 A 
ATOM      4  C5  UNL d   1      -0.972   1.252  -0.476  0.00  0.00     0.000 A 
ATOM      5  C6  UNL d   1      -0.701  -0.062  -0.096  0.00  0.00     0.000 A 
ATOM      6  C7  UNL d   1       0.599  -0.588  -0.192  0.00  0.00    -0.073 A 
ATOM      7  C8  UNL d   1       0.834  -2.014   0.226  0.00  0.00     0.078 C 
ENDROOT
BRANCH   1   8
ATOM      8  C1  UNL d   1       3.046  -0.285  -0.883  0.00  0.00     0.053 C 
ATOM      9  C   UNL d   1       3.267  -0.945  -2.235  0.00  0.00     0.018 C 
ENDBRANCH   1   8
TORSDOF 1
ENDMDL
