MODEL 1
REMARK minimizedAffinity -2.5370028
REMARK minimizedRMSD -1
REMARK  1 active torsions:
REMARK  status: ('A' for Active; 'I' for Inactive)
REMARK    1  A    between atoms: C1_2  and  C2_3 
ROOT
ATOM      1  C2  UNL d   1      -0.457  -1.672  -0.389  0.00  0.00    -0.076 A 
ATOM      2  C3  UNL d   1      -0.924  -2.988  -0.551  0.00  0.00     0.004 A 
ATOM      3  C4  UNL d   1      -2.276  -3.248  -0.770  0.00  0.00    -0.003 A 
ATOM      4  C5  UNL d   1      -3.183  -2.196  -0.831  0.00  0.00     0.000 A 
ATOM      5  C6  UNL d   1      -2.735  -0.883  -0.690  0.00  0.00     0.000 A 
ATOM      6  C7  UNL d   1      -1.373  -0.602  -0.485  0.00  0.00    -0.073 A 
ATOM      7  C8  UNL d   1      -0.946   0.832  -0.334  0.00  0.00     0.078 C 
ENDROOT
BRANCH   1   8
ATOM      8  C1  UNL d   1       1.016  -1.453  -0.128  0.00  0.00     0.053 C 
ATOM      9  C   UNL d   1       1.833  -1.399  -1.409  0.00  0.00     0.018 C 
ENDBRANCH   1   8
TORSDOF 1
ENDMDL
