MODEL 1
REMARK minimizedAffinity -4.30166531
REMARK minimizedRMSD -1
REMARK  1 active torsions:
REMARK  status: ('A' for Active; 'I' for Inactive)
REMARK    1  A    between atoms: C1_2  and  C2_3 
ROOT
ATOM      1  C2  UNL d   1       1.135  -0.658  -0.773  0.00  0.00    -0.076 A 
ATOM      2  C3  UNL d   1       2.264  -1.110  -1.477  0.00  0.00     0.004 A 
ATOM      3  C4  UNL d   1       3.000  -0.244  -2.284  0.00  0.00    -0.003 A 
ATOM      4  C5  UNL d   1       2.619   1.088  -2.400  0.00  0.00     0.000 A 
ATOM      5  C6  UNL d   1       1.512   1.558  -1.694  0.00  0.00     0.000 A 
ATOM      6  C7  UNL d   1       0.769   0.702  -0.863  0.00  0.00    -0.073 A 
ATOM      7  C8  UNL d   1      -0.420   1.260  -0.130  0.00  0.00     0.078 C 
ENDROOT
BRANCH   1   8
ATOM      8  C1  UNL d   1       0.360  -1.649   0.066  0.00  0.00     0.053 C 
ATOM      9  C   UNL d   1      -0.849  -2.212  -0.666  0.00  0.00     0.018 C 
ENDBRANCH   1   8
TORSDOF 1
ENDMDL
