MODEL 1
REMARK minimizedAffinity -0.85693109
REMARK minimizedRMSD -1
REMARK  1 active torsions:
REMARK  status: ('A' for Active; 'I' for Inactive)
REMARK    1  A    between atoms: C1_2  and  C2_3 
ROOT
ATOM      1  C2  UNL d   1      -1.119   0.556   1.554  0.00  0.00    -0.076 A 
ATOM      2  C3  UNL d   1      -0.581   1.522   2.421  0.00  0.00     0.004 A 
ATOM      3  C4  UNL d   1      -1.224   1.856   3.612  0.00  0.00    -0.003 A 
ATOM      4  C5  UNL d   1      -2.415   1.227   3.956  0.00  0.00     0.000 A 
ATOM      5  C6  UNL d   1      -2.955   0.253   3.116  0.00  0.00     0.000 A 
ATOM      6  C7  UNL d   1      -2.311  -0.106   1.920  0.00  0.00    -0.073 A 
ATOM      7  C8  UNL d   1      -2.940  -1.159   1.049  0.00  0.00     0.078 C 
ENDROOT
BRANCH   1   8
ATOM      8  C1  UNL d   1      -0.392   0.255   0.263  0.00  0.00     0.053 C 
ATOM      9  C   UNL d   1      -0.631   1.315  -0.801  0.00  0.00     0.018 C 
ENDBRANCH   1   8
TORSDOF 1
ENDMDL
