MODEL 1
REMARK minimizedAffinity -4.4770875
REMARK minimizedRMSD -1
REMARK  1 active torsions:
REMARK  status: ('A' for Active; 'I' for Inactive)
REMARK    1  A    between atoms: C1_2  and  C2_3 
ROOT
ATOM      1  C2  UNL d   1       0.229   0.141  -0.251  0.00  0.00    -0.076 A 
ATOM      2  C3  UNL d   1       1.153   1.155  -0.559  0.00  0.00     0.004 A 
ATOM      3  C4  UNL d   1       2.358   0.859  -1.193  0.00  0.00    -0.003 A 
ATOM      4  C5  UNL d   1       2.659  -0.456  -1.531  0.00  0.00     0.000 A 
ATOM      5  C6  UNL d   1       1.746  -1.472  -1.249  0.00  0.00     0.000 A 
ATOM      6  C7  UNL d   1       0.520  -1.189  -0.625  0.00  0.00    -0.073 A 
ATOM      7  C8  UNL d   1      -0.425  -2.324  -0.339  0.00  0.00     0.078 C 
ENDROOT
BRANCH   1   8
ATOM      8  C1  UNL d   1      -1.050   0.518   0.462  0.00  0.00     0.053 C 
ATOM      9  C   UNL d   1      -0.889   0.540   1.974  0.00  0.00     0.018 C 
ENDBRANCH   1   8
TORSDOF 1
ENDMDL
