MODEL 1
REMARK minimizedAffinity -2.45825124
REMARK minimizedRMSD -1
REMARK  1 active torsions:
REMARK  status: ('A' for Active; 'I' for Inactive)
REMARK    1  A    between atoms: C1_2  and  C2_3 
ROOT
ATOM      1  C2  UNL d   1       0.915  -0.724  -0.220  0.00  0.00    -0.076 A 
ATOM      2  C3  UNL d   1      -0.363  -0.196   0.032  0.00  0.00     0.004 A 
ATOM      3  C4  UNL d   1      -0.666   1.129  -0.277  0.00  0.00    -0.003 A 
ATOM      4  C5  UNL d   1       0.305   1.948  -0.842  0.00  0.00     0.000 A 
ATOM      5  C6  UNL d   1       1.573   1.437  -1.115  0.00  0.00     0.000 A 
ATOM      6  C7  UNL d   1       1.890   0.098  -0.826  0.00  0.00    -0.073 A 
ATOM      7  C8  UNL d   1       3.275  -0.399  -1.135  0.00  0.00     0.078 C 
ENDROOT
BRANCH   1   8
ATOM      8  C1  UNL d   1       1.194  -2.160   0.161  0.00  0.00     0.053 C 
ATOM      9  C   UNL d   1       0.063  -3.097  -0.235  0.00  0.00     0.018 C 
ENDBRANCH   1   8
TORSDOF 1
ENDMDL
