MODEL 1
REMARK minimizedAffinity 2.91504002
REMARK minimizedRMSD -1
REMARK  1 active torsions:
REMARK  status: ('A' for Active; 'I' for Inactive)
REMARK    1  A    between atoms: C1_2  and  C2_3 
ROOT
ATOM      1  C2  UNL d   1       4.565   3.397   4.119  0.00  0.00    -0.076 A 
ATOM      2  C3  UNL d   1       5.578   4.077   4.816  0.00  0.00     0.004 A 
ATOM      3  C4  UNL d   1       5.997   5.345   4.417  0.00  0.00    -0.003 A 
ATOM      4  C5  UNL d   1       5.408   5.954   3.314  0.00  0.00     0.000 A 
ATOM      5  C6  UNL d   1       4.389   5.301   2.621  0.00  0.00     0.000 A 
ATOM      6  C7  UNL d   1       3.944   4.029   3.021  0.00  0.00    -0.073 A 
ATOM      7  C8  UNL d   1       2.846   3.368   2.234  0.00  0.00     0.078 C 
ENDROOT
BRANCH   1   8
ATOM      8  C1  UNL d   1       4.171   2.012   4.583  0.00  0.00     0.053 C 
ATOM      9  C   UNL d   1       5.233   1.368   5.460  0.00  0.00     0.018 C 
ENDBRANCH   1   8
TORSDOF 1
ENDMDL
