MODEL 1
REMARK minimizedAffinity 4.5440836
REMARK minimizedRMSD -1
REMARK  1 active torsions:
REMARK  status: ('A' for Active; 'I' for Inactive)
REMARK    1  A    between atoms: C1_2  and  C2_3 
ROOT
ATOM      1  C2  UNL d   1       3.042   5.981  -3.648  0.00  0.00    -0.076 A 
ATOM      2  C3  UNL d   1       4.355   5.981  -4.149  0.00  0.00     0.004 A 
ATOM      3  C4  UNL d   1       5.451   5.989  -3.288  0.00  0.00    -0.003 A 
ATOM      4  C5  UNL d   1       5.251   5.997  -1.911  0.00  0.00     0.000 A 
ATOM      5  C6  UNL d   1       3.955   5.980  -1.397  0.00  0.00     0.000 A 
ATOM      6  C7  UNL d   1       2.840   5.955  -2.251  0.00  0.00    -0.073 A 
ATOM      7  C8  UNL d   1       1.464   5.943  -1.642  0.00  0.00     0.078 C 
ENDROOT
BRANCH   1   8
ATOM      8  C1  UNL d   1       1.892   6.000  -4.630  0.00  0.00     0.053 C 
ATOM      9  C   UNL d   1       2.016   4.918  -5.692  0.00  0.00     0.018 C 
ENDBRANCH   1   8
TORSDOF 1
ENDMDL
