MODEL 1
REMARK minimizedAffinity -4.50596094
REMARK minimizedRMSD -1
REMARK  1 active torsions:
REMARK  status: ('A' for Active; 'I' for Inactive)
REMARK    1  A    between atoms: C1_2  and  C2_3 
ROOT
ATOM      1  C2  UNL d   1       5.475   2.908   4.255  0.00  0.00    -0.076 A 
ATOM      2  C3  UNL d   1       5.250   2.473   2.937  0.00  0.00     0.004 A 
ATOM      3  C4  UNL d   1       5.250   3.375   1.875  0.00  0.00    -0.003 A 
ATOM      4  C5  UNL d   1       5.477   4.726   2.112  0.00  0.00     0.000 A 
ATOM      5  C6  UNL d   1       5.720   5.172   3.411  0.00  0.00     0.000 A 
ATOM      6  C7  UNL d   1       5.739   4.274   4.492  0.00  0.00    -0.073 A 
ATOM      7  C8  UNL d   1       6.000   4.810   5.872  0.00  0.00     0.078 C 
ENDROOT
BRANCH   1   8
ATOM      8  C1  UNL d   1       5.435   1.888   5.371  0.00  0.00     0.053 C 
ATOM      9  C   UNL d   1       5.280   0.466   4.855  0.00  0.00     0.018 C 
ENDBRANCH   1   8
TORSDOF 1
ENDMDL
