MODEL 1
REMARK minimizedAffinity 0.120862767
REMARK minimizedRMSD -1
REMARK  1 active torsions:
REMARK  status: ('A' for Active; 'I' for Inactive)
REMARK    1  A    between atoms: C1_2  and  C2_3 
ROOT
ATOM      1  C2  UNL d   1       5.372   3.788   4.469  0.00  0.00    -0.076 A 
ATOM      2  C3  UNL d   1       5.999   3.097   5.520  0.00  0.00     0.004 A 
ATOM      3  C4  UNL d   1       5.898   1.711   5.629  0.00  0.00    -0.003 A 
ATOM      4  C5  UNL d   1       5.168   0.993   4.689  0.00  0.00     0.000 A 
ATOM      5  C6  UNL d   1       4.553   1.660   3.629  0.00  0.00     0.000 A 
ATOM      6  C7  UNL d   1       4.659   3.055   3.496  0.00  0.00    -0.073 A 
ATOM      7  C8  UNL d   1       3.971   3.724   2.337  0.00  0.00     0.078 C 
ENDROOT
BRANCH   1   8
ATOM      8  C1  UNL d   1       5.494   5.294   4.417  0.00  0.00     0.053 C 
ATOM      9  C   UNL d   1       6.000   5.882   5.725  0.00  0.00     0.018 C 
ENDBRANCH   1   8
TORSDOF 1
ENDMDL
