MODEL 1
REMARK minimizedAffinity -3.7781918
REMARK minimizedRMSD -1
REMARK  1 active torsions:
REMARK  status: ('A' for Active; 'I' for Inactive)
REMARK    1  A    between atoms: C1_2  and  C2_3 
ROOT
ATOM      1  C2  UNL d   1       5.627   1.513   3.051  0.00  0.00    -0.076 A 
ATOM      2  C3  UNL d   1       5.998   1.951   4.334  0.00  0.00     0.004 A 
ATOM      3  C4  UNL d   1       5.994   1.076   5.419  0.00  0.00    -0.003 A 
ATOM      4  C5  UNL d   1       5.620  -0.251   5.238  0.00  0.00     0.000 A 
ATOM      5  C6  UNL d   1       5.267  -0.707   3.968  0.00  0.00     0.000 A 
ATOM      6  C7  UNL d   1       5.281   0.158   2.861  0.00  0.00    -0.073 A 
ATOM      7  C8  UNL d   1       4.884  -0.385   1.515  0.00  0.00     0.078 C 
ENDROOT
BRANCH   1   8
ATOM      8  C1  UNL d   1       5.624   2.514   1.918  0.00  0.00     0.053 C 
ATOM      9  C   UNL d   1       5.941   3.926   2.386  0.00  0.00     0.018 C 
ENDBRANCH   1   8
TORSDOF 1
ENDMDL
