MODEL 1
REMARK minimizedAffinity 0.751216352
REMARK minimizedRMSD -1
REMARK  1 active torsions:
REMARK  status: ('A' for Active; 'I' for Inactive)
REMARK    1  A    between atoms: C1_2  and  C2_3 
ROOT
ATOM      1  C2  UNL d   1       2.313   0.051   2.403  0.00  0.00    -0.081 A 
ATOM      2  C3  UNL d   1       1.670   0.097   3.646  0.00  0.00     0.006 A 
ATOM      3  C4  UNL d   1       1.016  -1.031   4.147  0.00  0.00     0.002 A 
ATOM      4  C5  UNL d   1       1.001  -2.225   3.418  0.00  0.00    -0.080 A 
ATOM      5  C6  UNL d   1       0.329  -3.452   3.958  0.00  0.00     0.076 C 
ATOM      6  C7  UNL d   1       1.629  -2.266   2.168  0.00  0.00     0.002 A 
ATOM      7  C8  UNL d   1       2.282  -1.139   1.667  0.00  0.00     0.006 A 
ENDROOT
BRANCH   1   8
ATOM      8  C1  UNL d   1       3.074   1.246   1.889  0.00  0.00     0.054 C 
ATOM      9  C   UNL d   1       3.841   0.910   0.618  0.00  0.00     0.018 C 
ENDBRANCH   1   8
TORSDOF 1
ENDMDL
