MODEL 1
REMARK minimizedAffinity 3.81437731
REMARK minimizedRMSD -1
REMARK  1 active torsions:
REMARK  status: ('A' for Active; 'I' for Inactive)
REMARK    1  A    between atoms: C1_2  and  C2_3 
ROOT
ATOM      1  C2  UNL d   1       3.205  -5.943  -1.269  0.00  0.00    -0.081 A 
ATOM      2  C3  UNL d   1       1.841  -5.999  -0.959  0.00  0.00     0.006 A 
ATOM      3  C4  UNL d   1       1.410  -5.887   0.365  0.00  0.00     0.002 A 
ATOM      4  C5  UNL d   1       2.335  -5.709   1.400  0.00  0.00    -0.080 A 
ATOM      5  C6  UNL d   1       1.884  -5.556   2.822  0.00  0.00     0.076 C 
ATOM      6  C7  UNL d   1       3.699  -5.670   1.092  0.00  0.00     0.002 A 
ATOM      7  C8  UNL d   1       4.131  -5.783  -0.231  0.00  0.00     0.006 A 
ENDROOT
BRANCH   1   8
ATOM      8  C1  UNL d   1       3.669  -5.999  -2.702  0.00  0.00     0.054 C 
ATOM      9  C   UNL d   1       4.744  -4.957  -2.977  0.00  0.00     0.018 C 
ENDBRANCH   1   8
TORSDOF 1
ENDMDL
