MODEL 1
REMARK minimizedAffinity -0.521840155
REMARK minimizedRMSD -1
REMARK  1 active torsions:
REMARK  status: ('A' for Active; 'I' for Inactive)
REMARK    1  A    between atoms: C1_2  and  C2_3 
ROOT
ATOM      1  C2  UNL d   1       4.155  -5.769  -4.288  0.00  0.00    -0.081 A 
ATOM      2  C3  UNL d   1       5.131  -5.929  -3.296  0.00  0.00     0.006 A 
ATOM      3  C4  UNL d   1       4.768  -5.992  -1.949  0.00  0.00     0.002 A 
ATOM      4  C5  UNL d   1       3.424  -5.903  -1.571  0.00  0.00    -0.080 A 
ATOM      5  C6  UNL d   1       3.018  -6.000  -0.130  0.00  0.00     0.076 C 
ATOM      6  C7  UNL d   1       2.451  -5.725  -2.560  0.00  0.00     0.002 A 
ATOM      7  C8  UNL d   1       2.813  -5.662  -3.907  0.00  0.00     0.006 A 
ENDROOT
BRANCH   1   8
ATOM      8  C1  UNL d   1       4.538  -5.766  -5.746  0.00  0.00     0.054 C 
ATOM      9  C   UNL d   1       5.746  -4.876  -5.999  0.00  0.00     0.018 C 
ENDBRANCH   1   8
TORSDOF 1
ENDMDL
