MODEL 1
REMARK minimizedAffinity 4.29257631
REMARK minimizedRMSD -1
REMARK  1 active torsions:
REMARK  status: ('A' for Active; 'I' for Inactive)
REMARK    1  A    between atoms: C1_2  and  C2_3 
ROOT
ATOM      1  C2  UNL d   1       3.550  -2.625   3.779  0.00  0.00    -0.081 A 
ATOM      2  C3  UNL d   1       2.948  -3.817   3.359  0.00  0.00     0.006 A 
ATOM      3  C4  UNL d   1       1.960  -3.801   2.372  0.00  0.00     0.002 A 
ATOM      4  C5  UNL d   1       1.563  -2.596   1.784  0.00  0.00    -0.080 A 
ATOM      5  C6  UNL d   1       0.524  -2.568   0.702  0.00  0.00     0.076 C 
ATOM      6  C7  UNL d   1       2.152  -1.403   2.216  0.00  0.00     0.002 A 
ATOM      7  C8  UNL d   1       3.140  -1.417   3.203  0.00  0.00     0.006 A 
ENDROOT
BRANCH   1   8
ATOM      8  C1  UNL d   1       4.662  -2.645   4.797  0.00  0.00     0.054 C 
ATOM      9  C   UNL d   1       5.999  -2.289   4.162  0.00  0.00     0.018 C 
ENDBRANCH   1   8
TORSDOF 1
ENDMDL
