MODEL 1
REMARK minimizedAffinity 3.04892087
REMARK minimizedRMSD -1
REMARK  1 active torsions:
REMARK  status: ('A' for Active; 'I' for Inactive)
REMARK    1  A    between atoms: C1_2  and  C2_3 
ROOT
ATOM      1  C2  UNL d   1       3.870  -5.863  -1.741  0.00  0.00    -0.081 A 
ATOM      2  C3  UNL d   1       2.569  -6.000  -2.240  0.00  0.00     0.006 A 
ATOM      3  C4  UNL d   1       2.335  -5.999  -3.617  0.00  0.00     0.002 A 
ATOM      4  C5  UNL d   1       3.398  -5.871  -4.518  0.00  0.00    -0.080 A 
ATOM      5  C6  UNL d   1       3.164  -5.900  -5.999  0.00  0.00     0.076 C 
ATOM      6  C7  UNL d   1       4.696  -5.717  -4.019  0.00  0.00     0.002 A 
ATOM      7  C8  UNL d   1       4.930  -5.717  -2.642  0.00  0.00     0.006 A 
ENDROOT
BRANCH   1   8
ATOM      8  C1  UNL d   1       4.133  -5.928  -0.258  0.00  0.00     0.054 C 
ATOM      9  C   UNL d   1       2.834  -5.999   0.531  0.00  0.00     0.018 C 
ENDBRANCH   1   8
TORSDOF 1
ENDMDL
