MODEL 1
REMARK minimizedAffinity 10.0631981
REMARK minimizedRMSD -1
REMARK  1 active torsions:
REMARK  status: ('A' for Active; 'I' for Inactive)
REMARK    1  A    between atoms: C1_2  and  C2_3 
ROOT
ATOM      1  C2  UNL d   1       1.963  -2.240   2.863  0.00  0.00    -0.081 A 
ATOM      2  C3  UNL d   1       1.045  -3.276   3.077  0.00  0.00     0.006 A 
ATOM      3  C4  UNL d   1       1.313  -4.278   4.013  0.00  0.00     0.002 A 
ATOM      4  C5  UNL d   1       2.498  -4.257   4.756  0.00  0.00    -0.080 A 
ATOM      5  C6  UNL d   1       2.784  -5.310   5.785  0.00  0.00     0.076 C 
ATOM      6  C7  UNL d   1       3.424  -3.232   4.530  0.00  0.00     0.002 A 
ATOM      7  C8  UNL d   1       3.157  -2.231   3.593  0.00  0.00     0.006 A 
ENDROOT
BRANCH   1   8
ATOM      8  C1  UNL d   1       1.649  -1.123   1.902  0.00  0.00     0.054 C 
ATOM      9  C   UNL d   1       2.754  -0.077   1.887  0.00  0.00     0.018 C 
ENDBRANCH   1   8
TORSDOF 1
ENDMDL
