MODEL 1
REMARK minimizedAffinity 2.21514773
REMARK minimizedRMSD -1
REMARK  1 active torsions:
REMARK  status: ('A' for Active; 'I' for Inactive)
REMARK    1  A    between atoms: C1_2  and  C2_3 
ROOT
ATOM      1  C2  UNL d   1       2.925  -5.610  -1.444  0.00  0.00    -0.081 A 
ATOM      2  C3  UNL d   1       1.918  -5.899  -2.373  0.00  0.00     0.006 A 
ATOM      3  C4  UNL d   1       2.218  -6.000  -3.734  0.00  0.00     0.002 A 
ATOM      4  C5  UNL d   1       3.529  -5.822  -4.187  0.00  0.00    -0.080 A 
ATOM      5  C6  UNL d   1       3.869  -5.957  -5.641  0.00  0.00     0.076 C 
ATOM      6  C7  UNL d   1       4.532  -5.516  -3.261  0.00  0.00     0.002 A 
ATOM      7  C8  UNL d   1       4.233  -5.414  -1.900  0.00  0.00     0.006 A 
ENDROOT
BRANCH   1   8
ATOM      8  C1  UNL d   1       2.617  -5.565   0.031  0.00  0.00     0.054 C 
ATOM      9  C   UNL d   1       3.817  -5.998   0.861  0.00  0.00     0.018 C 
ENDBRANCH   1   8
TORSDOF 1
ENDMDL
