MODEL 1
REMARK minimizedAffinity -5.41293287
REMARK minimizedRMSD -1
REMARK  0 active torsions:
REMARK  status: ('A' for Active; 'I' for Inactive)
ROOT
ATOM      1  C4' PXY d   1      -0.702   1.645   1.009  0.00  0.00     0.077 C 
ATOM      2  C1' PXY d   1      -1.827   4.898  -3.635  0.00  0.00     0.077 C 
ATOM      3  C1  PXY d   1      -1.538   4.054  -2.410  0.00  0.00    -0.082 A 
ATOM      4  C2  PXY d   1      -0.531   3.196  -2.429  0.00  0.00     0.003 A 
ATOM      5  C3  PXY d   1      -0.275   2.402  -1.341  0.00  0.00     0.003 A 
ATOM      6  C4  PXY d   1      -1.025   2.525  -0.202  0.00  0.00    -0.082 A 
ATOM      7  C5  PXY d   1      -2.048   3.405  -0.170  0.00  0.00     0.003 A 
ATOM      8  C6  PXY d   1      -2.317   4.173  -1.300  0.00  0.00     0.003 A 
ENDROOT
TORSDOF 0
ENDMDL
