MODEL 1
REMARK minimizedAffinity -5.30883837
REMARK minimizedRMSD -1
REMARK  0 active torsions:
REMARK  status: ('A' for Active; 'I' for Inactive)
ROOT
ATOM      1  C4' PXY d   1      -5.625   3.000  -3.000  0.00  0.00     0.077 C 
ATOM      2  C1' PXY d   1      -0.046   2.512  -1.567  0.00  0.00     0.077 C 
ATOM      3  C1  PXY d   1      -1.511   2.648  -1.932  0.00  0.00    -0.082 A 
ATOM      4  C2  PXY d   1      -2.101   1.694  -2.634  0.00  0.00     0.003 A 
ATOM      5  C3  PXY d   1      -3.417   1.816  -3.001  0.00  0.00     0.003 A 
ATOM      6  C4  PXY d   1      -4.150   2.901  -2.600  0.00  0.00    -0.082 A 
ATOM      7  C5  PXY d   1      -3.558   3.873  -1.875  0.00  0.00     0.003 A 
ATOM      8  C6  PXY d   1      -2.211   3.750  -1.548  0.00  0.00     0.003 A 
ENDROOT
TORSDOF 0
ENDMDL
