MODEL 1
REMARK minimizedAffinity -4.56828499
REMARK minimizedRMSD -1
REMARK  0 active torsions:
REMARK  status: ('A' for Active; 'I' for Inactive)
ROOT
ATOM      1  C4' PXY d   1      -0.872   0.313  -1.984  0.00  0.00     0.077 C 
ATOM      2  C1' PXY d   1       1.483  -0.640   3.209  0.00  0.00     0.077 C 
ATOM      3  C1  PXY d   1       0.854  -0.394   1.852  0.00  0.00    -0.082 A 
ATOM      4  C2  PXY d   1       1.616  -0.379   0.771  0.00  0.00     0.003 A 
ATOM      5  C3  PXY d   1       1.069  -0.126  -0.461  0.00  0.00     0.003 A 
ATOM      6  C4  PXY d   1      -0.281   0.060  -0.594  0.00  0.00    -0.082 A 
ATOM      7  C5  PXY d   1      -1.068   0.035   0.503  0.00  0.00     0.003 A 
ATOM      8  C6  PXY d   1      -0.486  -0.182   1.749  0.00  0.00     0.003 A 
ENDROOT
TORSDOF 0
ENDMDL
