MODEL 1
REMARK minimizedAffinity -5.81383944
REMARK minimizedRMSD -1
REMARK  0 active torsions:
REMARK  status: ('A' for Active; 'I' for Inactive)
ROOT
ATOM      1  C4' PXY d   1       0.488   2.773  -2.519  0.00  0.00     0.077 C 
ATOM      2  C1' PXY d   1      -5.277   2.350  -2.443  0.00  0.00     0.077 C 
ATOM      3  C1  PXY d   1      -3.766   2.469  -2.473  0.00  0.00    -0.082 A 
ATOM      4  C2  PXY d   1      -3.022   1.491  -1.981  0.00  0.00     0.003 A 
ATOM      5  C3  PXY d   1      -1.655   1.597  -1.971  0.00  0.00     0.003 A 
ATOM      6  C4  PXY d   1      -1.041   2.691  -2.518  0.00  0.00    -0.082 A 
ATOM      7  C5  PXY d   1      -1.792   3.688  -3.032  0.00  0.00     0.003 A 
ATOM      8  C6  PXY d   1      -3.179   3.580  -2.995  0.00  0.00     0.003 A 
ENDROOT
TORSDOF 0
ENDMDL
