MODEL 1
REMARK minimizedAffinity -3.86582685
REMARK minimizedRMSD -1
REMARK  0 active torsions:
REMARK  status: ('A' for Active; 'I' for Inactive)
ROOT
ATOM      1  C4' PXY d   1      -0.432   3.716  -3.510  0.00  0.00     0.077 C 
ATOM      2  C1' PXY d   1      -5.753   1.938  -2.117  0.00  0.00     0.077 C 
ATOM      3  C1  PXY d   1      -4.363   2.415  -2.489  0.00  0.00    -0.082 A 
ATOM      4  C2  PXY d   1      -3.363   1.549  -2.528  0.00  0.00     0.003 A 
ATOM      5  C3  PXY d   1      -2.094   1.968  -2.831  0.00  0.00     0.003 A 
ATOM      6  C4  PXY d   1      -1.854   3.278  -3.149  0.00  0.00    -0.082 A 
ATOM      7  C5  PXY d   1      -2.871   4.166  -3.123  0.00  0.00     0.003 A 
ATOM      8  C6  PXY d   1      -4.145   3.727  -2.772  0.00  0.00     0.003 A 
ENDROOT
TORSDOF 0
ENDMDL
