MODEL 1
REMARK minimizedAffinity -0.390035808
REMARK minimizedRMSD -1
REMARK  0 active torsions:
REMARK  status: ('A' for Active; 'I' for Inactive)
ROOT
ATOM      1  C4' PXY d   1       1.033   3.016  -3.293  0.00  0.00     0.077 C 
ATOM      2  C1' PXY d   1      -4.611   3.458  -2.123  0.00  0.00     0.077 C 
ATOM      3  C1  PXY d   1      -3.132   3.352  -2.438  0.00  0.00    -0.082 A 
ATOM      4  C2  PXY d   1      -2.504   2.203  -2.250  0.00  0.00     0.003 A 
ATOM      5  C3  PXY d   1      -1.160   2.098  -2.500  0.00  0.00     0.003 A 
ATOM      6  C4  PXY d   1      -0.462   3.166  -2.998  0.00  0.00    -0.082 A 
ATOM      7  C5  PXY d   1      -1.098   4.339  -3.202  0.00  0.00     0.003 A 
ATOM      8  C6  PXY d   1      -2.454   4.436  -2.904  0.00  0.00     0.003 A 
ENDROOT
TORSDOF 0
ENDMDL
