MODEL 1
REMARK minimizedAffinity -3.25118971
REMARK minimizedRMSD -1
REMARK  0 active torsions:
REMARK  status: ('A' for Active; 'I' for Inactive)
ROOT
ATOM      1  C4' PXY d   1      -0.606   0.466  -1.854  0.00  0.00     0.077 C 
ATOM      2  C1' PXY d   1       1.642  -2.574   2.519  0.00  0.00     0.077 C 
ATOM      3  C1  PXY d   1       1.064  -1.777   1.366  0.00  0.00    -0.082 A 
ATOM      4  C2  PXY d   1       0.010  -1.003   1.569  0.00  0.00     0.003 A 
ATOM      5  C3  PXY d   1      -0.545  -0.301   0.531  0.00  0.00     0.003 A 
ATOM      6  C4  PXY d   1       0.017  -0.349  -0.717  0.00  0.00    -0.082 A 
ATOM      7  C5  PXY d   1       1.098  -1.128  -0.930  0.00  0.00     0.003 A 
ATOM      8  C6  PXY d   1       1.622  -1.865   0.128  0.00  0.00     0.003 A 
ENDROOT
TORSDOF 0
ENDMDL
