MODEL 1
REMARK minimizedAffinity 1.93098581
REMARK minimizedRMSD -1
REMARK  0 active torsions:
REMARK  status: ('A' for Active; 'I' for Inactive)
ROOT
ATOM      1  C4' PXY d   1      -1.509  -1.074   2.929  0.00  0.00     0.077 C 
ATOM      2  C1' PXY d   1       2.935  -0.260  -0.679  0.00  0.00     0.077 C 
ATOM      3  C1  PXY d   1       1.777  -0.479   0.276  0.00  0.00    -0.082 A 
ATOM      4  C2  PXY d   1       0.540  -0.508  -0.192  0.00  0.00     0.003 A 
ATOM      5  C3  PXY d   1      -0.521  -0.673   0.661  0.00  0.00     0.003 A 
ATOM      6  C4  PXY d   1      -0.309  -0.864   2.001  0.00  0.00    -0.082 A 
ATOM      7  C5  PXY d   1       0.951  -0.847   2.484  0.00  0.00     0.003 A 
ATOM      8  C6  PXY d   1       2.011  -0.637   1.607  0.00  0.00     0.003 A 
ENDROOT
TORSDOF 0
ENDMDL
