MODEL 1
REMARK minimizedAffinity -2.75547624
REMARK minimizedRMSD -1
REMARK  0 active torsions:
REMARK  status: ('A' for Active; 'I' for Inactive)
ROOT
ATOM      1  C4' PXY d   1       2.034  -1.186   3.510  0.00  0.00     0.077 C 
ATOM      2  C1' PXY d   1      -1.232   0.265  -1.033  0.00  0.00     0.077 C 
ATOM      3  C1  PXY d   1      -0.384  -0.109   0.166  0.00  0.00    -0.082 A 
ATOM      4  C2  PXY d   1       0.902  -0.375   0.001  0.00  0.00     0.003 A 
ATOM      5  C3  PXY d   1       1.676  -0.746   1.070  0.00  0.00     0.003 A 
ATOM      6  C4  PXY d   1       1.141  -0.795   2.329  0.00  0.00    -0.082 A 
ATOM      7  C5  PXY d   1      -0.167  -0.514   2.508  0.00  0.00     0.003 A 
ATOM      8  C6  PXY d   1      -0.946  -0.180   1.404  0.00  0.00     0.003 A 
ENDROOT
TORSDOF 0
ENDMDL
