MODEL 1
REMARK minimizedAffinity -3.39172053
REMARK minimizedRMSD -1
REMARK  0 active torsions:
REMARK  status: ('A' for Active; 'I' for Inactive)
ROOT
ATOM      1  C4' PXY d   1       2.811  -1.084  -0.708  0.00  0.00     0.077 C 
ATOM      2  C1' PXY d   1      -2.152   0.063   2.024  0.00  0.00     0.077 C 
ATOM      3  C1  PXY d   1      -0.857  -0.242   1.297  0.00  0.00    -0.082 A 
ATOM      4  C2  PXY d   1       0.232  -0.524   1.992  0.00  0.00     0.003 A 
ATOM      5  C3  PXY d   1       1.419  -0.770   1.351  0.00  0.00     0.003 A 
ATOM      6  C4  PXY d   1       1.479  -0.780  -0.017  0.00  0.00    -0.082 A 
ATOM      7  C5  PXY d   1       0.369  -0.503  -0.733  0.00  0.00     0.003 A 
ATOM      8  C6  PXY d   1      -0.816  -0.215  -0.063  0.00  0.00     0.003 A 
ENDROOT
TORSDOF 0
ENDMDL
