MODEL 1
REMARK minimizedAffinity 4.10100603
REMARK minimizedRMSD -1
REMARK  0 active torsions:
REMARK  status: ('A' for Active; 'I' for Inactive)
ROOT
ATOM      1  C4' PXY d   1      -4.312   4.113  -1.504  0.00  0.00     0.077 C 
ATOM      2  C1' PXY d   1       0.801   3.170  -4.029  0.00  0.00     0.077 C 
ATOM      3  C1  PXY d   1      -0.544   3.406  -3.371  0.00  0.00    -0.082 A 
ATOM      4  C2  PXY d   1      -0.936   4.642  -3.109  0.00  0.00     0.003 A 
ATOM      5  C3  PXY d   1      -2.136   4.872  -2.486  0.00  0.00     0.003 A 
ATOM      6  C4  PXY d   1      -2.966   3.828  -2.175  0.00  0.00    -0.082 A 
ATOM      7  C5  PXY d   1      -2.578   2.565  -2.449  0.00  0.00     0.003 A 
ATOM      8  C6  PXY d   1      -1.338   2.350  -3.045  0.00  0.00     0.003 A 
ENDROOT
TORSDOF 0
ENDMDL
