MODEL 1
REMARK minimizedAffinity -1.08897746
REMARK minimizedRMSD -1
REMARK  0 active torsions:
REMARK  status: ('A' for Active; 'I' for Inactive)
ROOT
ATOM      1  C4' PXY d   1      -1.640  -0.902   2.234  0.00  0.00     0.077 C 
ATOM      2  C1' PXY d   1       2.256  -1.452  -2.002  0.00  0.00     0.077 C 
ATOM      3  C1  PXY d   1       1.227  -1.300  -0.898  0.00  0.00    -0.082 A 
ATOM      4  C2  PXY d   1       1.584  -1.494   0.361  0.00  0.00     0.003 A 
ATOM      5  C3  PXY d   1       0.659  -1.392   1.368  0.00  0.00     0.003 A 
ATOM      6  C4  PXY d   1      -0.633  -1.035   1.088  0.00  0.00    -0.082 A 
ATOM      7  C5  PXY d   1      -1.003  -0.825  -0.193  0.00  0.00     0.003 A 
ATOM      8  C6  PXY d   1      -0.058  -0.974  -1.204  0.00  0.00     0.003 A 
ENDROOT
TORSDOF 0
ENDMDL
