MODEL 1
REMARK minimizedAffinity -0.313794225
REMARK minimizedRMSD -1
REMARK  1 active torsions:
REMARK  status: ('A' for Active; 'I' for Inactive)
REMARK    1  A    between atoms: C1_2  and  C2_3 
ROOT
ATOM      1  C2  UNL d   1       3.483  -0.022   1.018  0.00  0.00    -0.076 A 
ATOM      2  C3  UNL d   1       3.003  -1.253   0.537  0.00  0.00     0.004 A 
ATOM      3  C4  UNL d   1       1.752  -1.346  -0.072  0.00  0.00    -0.003 A 
ATOM      4  C5  UNL d   1       0.962  -0.210  -0.210  0.00  0.00     0.000 A 
ATOM      5  C6  UNL d   1       1.430   1.022   0.245  0.00  0.00     0.000 A 
ATOM      6  C7  UNL d   1       2.696   1.136   0.846  0.00  0.00    -0.073 A 
ATOM      7  C8  UNL d   1       3.148   2.489   1.324  0.00  0.00     0.078 C 
ENDROOT
BRANCH   1   8
ATOM      8  C1  UNL d   1       4.835   0.013   1.693  0.00  0.00     0.053 C 
ATOM      9  C   UNL d   1       5.754  -1.101   1.217  0.00  0.00     0.018 C 
ENDBRANCH   1   8
TORSDOF 1
ENDMDL
