MODEL 1
REMARK minimizedAffinity 6.4525485
REMARK minimizedRMSD -1
REMARK  1 active torsions:
REMARK  status: ('A' for Active; 'I' for Inactive)
REMARK    1  A    between atoms: C1_2  and  C2_3 
ROOT
ATOM      1  C2  UNL d   1      -0.022  -1.927   2.165  0.00  0.00    -0.076 A 
ATOM      2  C3  UNL d   1      -0.956  -1.825   3.211  0.00  0.00     0.004 A 
ATOM      3  C4  UNL d   1      -0.724  -2.434   4.442  0.00  0.00    -0.003 A 
ATOM      4  C5  UNL d   1       0.447  -3.155   4.649  0.00  0.00     0.000 A 
ATOM      5  C6  UNL d   1       1.393  -3.252   3.629  0.00  0.00     0.000 A 
ATOM      6  C7  UNL d   1       1.182  -2.630   2.387  0.00  0.00    -0.073 A 
ATOM      7  C8  UNL d   1       2.233  -2.772   1.320  0.00  0.00     0.078 C 
ENDROOT
BRANCH   1   8
ATOM      8  C1  UNL d   1      -0.340  -1.267   0.842  0.00  0.00     0.053 C 
ATOM      9  C   UNL d   1      -0.085   0.232   0.862  0.00  0.00     0.018 C 
ENDBRANCH   1   8
TORSDOF 1
ENDMDL
