MODEL 1
REMARK minimizedAffinity 6.18300056
REMARK minimizedRMSD -1
REMARK  1 active torsions:
REMARK  status: ('A' for Active; 'I' for Inactive)
REMARK    1  A    between atoms: C1_2  and  C2_3 
ROOT
ATOM      1  C2  UNL d   1      -0.978   2.606  -2.878  0.00  0.00    -0.076 A 
ATOM      2  C3  UNL d   1      -0.554   2.645  -1.538  0.00  0.00     0.004 A 
ATOM      3  C4  UNL d   1      -1.467   2.512  -0.493  0.00  0.00    -0.003 A 
ATOM      4  C5  UNL d   1      -2.818   2.338  -0.771  0.00  0.00     0.000 A 
ATOM      5  C6  UNL d   1      -3.254   2.280  -2.094  0.00  0.00     0.000 A 
ATOM      6  C7  UNL d   1      -2.345   2.396  -3.160  0.00  0.00    -0.073 A 
ATOM      7  C8  UNL d   1      -2.870   2.332  -4.568  0.00  0.00     0.078 C 
ENDROOT
BRANCH   1   8
ATOM      8  C1  UNL d   1       0.054   2.783  -3.969  0.00  0.00     0.053 C 
ATOM      9  C   UNL d   1       1.412   2.218  -3.583  0.00  0.00     0.018 C 
ENDBRANCH   1   8
TORSDOF 1
ENDMDL
