MODEL 1
REMARK minimizedAffinity 9.75616074
REMARK minimizedRMSD -1
REMARK  1 active torsions:
REMARK  status: ('A' for Active; 'I' for Inactive)
REMARK    1  A    between atoms: C1_2  and  C2_3 
ROOT
ATOM      1  C2  UNL d   1      -0.090  -2.246   2.216  0.00  0.00    -0.076 A 
ATOM      2  C3  UNL d   1       1.150  -2.903   2.301  0.00  0.00     0.004 A 
ATOM      3  C4  UNL d   1       1.632  -3.370   3.523  0.00  0.00    -0.003 A 
ATOM      4  C5  UNL d   1       0.881  -3.187   4.679  0.00  0.00     0.000 A 
ATOM      5  C6  UNL d   1      -0.359  -2.553   4.611  0.00  0.00     0.000 A 
ATOM      6  C7  UNL d   1      -0.866  -2.091   3.384  0.00  0.00    -0.073 A 
ATOM      7  C8  UNL d   1      -2.207  -1.408   3.369  0.00  0.00     0.078 C 
ENDROOT
BRANCH   1   8
ATOM      8  C1  UNL d   1      -0.549  -1.737   0.868  0.00  0.00     0.053 C 
ATOM      9  C   UNL d   1       0.267  -0.547   0.386  0.00  0.00     0.018 C 
ENDBRANCH   1   8
TORSDOF 1
ENDMDL
