MODEL 1
REMARK minimizedAffinity 3.89154458
REMARK minimizedRMSD -1
REMARK  1 active torsions:
REMARK  status: ('A' for Active; 'I' for Inactive)
REMARK    1  A    between atoms: C1_2  and  C2_3 
ROOT
ATOM      1  C2  UNL d   1      -0.061  -1.647   0.246  0.00  0.00    -0.076 A 
ATOM      2  C3  UNL d   1      -0.916  -2.607  -0.323  0.00  0.00     0.004 A 
ATOM      3  C4  UNL d   1      -2.206  -2.268  -0.728  0.00  0.00    -0.003 A 
ATOM      4  C5  UNL d   1      -2.661  -0.963  -0.573  0.00  0.00     0.000 A 
ATOM      5  C6  UNL d   1      -1.820   0.006  -0.027  0.00  0.00     0.000 A 
ATOM      6  C7  UNL d   1      -0.511  -0.316   0.372  0.00  0.00    -0.073 A 
ATOM      7  C8  UNL d   1       0.351   0.768   0.960  0.00  0.00     0.078 C 
ENDROOT
BRANCH   1   8
ATOM      8  C1  UNL d   1       1.318  -2.079   0.692  0.00  0.00     0.053 C 
ATOM      9  C   UNL d   1       1.275  -3.027   1.880  0.00  0.00     0.018 C 
ENDBRANCH   1   8
TORSDOF 1
ENDMDL
