MODEL 1
REMARK minimizedAffinity 9.05945969
REMARK minimizedRMSD -1
REMARK  1 active torsions:
REMARK  status: ('A' for Active; 'I' for Inactive)
REMARK    1  A    between atoms: C1_2  and  C2_3 
ROOT
ATOM      1  C2  UNL d   1      -0.018  -1.731   2.328  0.00  0.00    -0.076 A 
ATOM      2  C3  UNL d   1       1.129  -2.537   2.436  0.00  0.00     0.004 A 
ATOM      3  C4  UNL d   1       1.418  -3.220   3.616  0.00  0.00    -0.003 A 
ATOM      4  C5  UNL d   1       0.564  -3.108   4.708  0.00  0.00     0.000 A 
ATOM      5  C6  UNL d   1      -0.588  -2.327   4.613  0.00  0.00     0.000 A 
ATOM      6  C7  UNL d   1      -0.902  -1.645   3.425  0.00  0.00    -0.073 A 
ATOM      7  C8  UNL d   1      -2.154  -0.813   3.380  0.00  0.00     0.078 C 
ENDROOT
BRANCH   1   8
ATOM      8  C1  UNL d   1      -0.265  -0.993   1.032  0.00  0.00     0.053 C 
ATOM      9  C   UNL d   1       0.695   0.169   0.831  0.00  0.00     0.018 C 
ENDBRANCH   1   8
TORSDOF 1
ENDMDL
