MODEL 1
REMARK minimizedAffinity 14.4733648
REMARK minimizedRMSD -1
REMARK  1 active torsions:
REMARK  status: ('A' for Active; 'I' for Inactive)
REMARK    1  A    between atoms: C1_2  and  C2_3 
ROOT
ATOM      1  C2  UNL d   1       0.210  -2.186   3.001  0.00  0.00    -0.076 A 
ATOM      2  C3  UNL d   1       1.520  -2.430   2.553  0.00  0.00     0.004 A 
ATOM      3  C4  UNL d   1       2.398  -3.218   3.296  0.00  0.00    -0.003 A 
ATOM      4  C5  UNL d   1       1.979  -3.776   4.499  0.00  0.00     0.000 A 
ATOM      5  C6  UNL d   1       0.678  -3.559   4.950  0.00  0.00     0.000 A 
ATOM      6  C7  UNL d   1      -0.225  -2.780   4.205  0.00  0.00    -0.073 A 
ATOM      7  C8  UNL d   1      -1.615  -2.574   4.742  0.00  0.00     0.078 C 
ENDROOT
BRANCH   1   8
ATOM      8  C1  UNL d   1      -0.688  -1.301   2.166  0.00  0.00     0.053 C 
ATOM      9  C   UNL d   1       0.063  -0.607   1.040  0.00  0.00     0.018 C 
ENDBRANCH   1   8
TORSDOF 1
ENDMDL
