MODEL 1
REMARK minimizedAffinity -0.951228857
REMARK minimizedRMSD -1
REMARK  1 active torsions:
REMARK  status: ('A' for Active; 'I' for Inactive)
REMARK    1  A    between atoms: C1_2  and  C2_3 
ROOT
ATOM      1  C2  UNL d   1      -4.029  -3.761  -5.743  0.00  0.00    -0.076 A 
ATOM      2  C3  UNL d   1      -2.714  -3.266  -5.690  0.00  0.00     0.004 A 
ATOM      3  C4  UNL d   1      -1.620  -4.125  -5.778  0.00  0.00    -0.003 A 
ATOM      4  C5  UNL d   1      -1.823  -5.494  -5.921  0.00  0.00     0.000 A 
ATOM      5  C6  UNL d   1      -3.121  -6.000  -5.994  0.00  0.00     0.000 A 
ATOM      6  C7  UNL d   1      -4.234  -5.146  -5.923  0.00  0.00    -0.073 A 
ATOM      7  C8  UNL d   1      -5.611  -5.747  -6.000  0.00  0.00     0.078 C 
ENDROOT
BRANCH   1   8
ATOM      8  C1  UNL d   1      -5.176  -2.784  -5.614  0.00  0.00     0.053 C 
ATOM      9  C   UNL d   1      -4.874  -1.655  -4.641  0.00  0.00     0.018 C 
ENDBRANCH   1   8
TORSDOF 1
ENDMDL
