MODEL 1
REMARK minimizedAffinity 0.213595644
REMARK minimizedRMSD -1
REMARK  1 active torsions:
REMARK  status: ('A' for Active; 'I' for Inactive)
REMARK    1  A    between atoms: C1_2  and  C2_3 
ROOT
ATOM      1  C2  UNL d   1       0.403  -2.109   2.246  0.00  0.00    -0.076 A 
ATOM      2  C3  UNL d   1       1.609  -2.828   2.294  0.00  0.00     0.004 A 
ATOM      3  C4  UNL d   1       2.030  -3.446   3.470  0.00  0.00    -0.003 A 
ATOM      4  C5  UNL d   1       1.250  -3.356   4.618  0.00  0.00     0.000 A 
ATOM      5  C6  UNL d   1       0.041  -2.661   4.583  0.00  0.00     0.000 A 
ATOM      6  C7  UNL d   1      -0.405  -2.046   3.401  0.00  0.00    -0.073 A 
ATOM      7  C8  UNL d   1      -1.714  -1.304   3.423  0.00  0.00     0.078 C 
ENDROOT
BRANCH   1   8
ATOM      8  C1  UNL d   1       0.012  -1.436   0.949  0.00  0.00     0.053 C 
ATOM      9  C   UNL d   1       0.694  -0.090   0.762  0.00  0.00     0.018 C 
ENDBRANCH   1   8
TORSDOF 1
ENDMDL
