MODEL 1
REMARK minimizedAffinity 5.4049263
REMARK minimizedRMSD -1
REMARK  0 active torsions:
REMARK  status: ('A' for Active; 'I' for Inactive)
ROOT
ATOM      1  C1  DEN d   1       1.432   3.763   2.551  0.00  0.00     0.130 A 
ATOM      2  C2  DEN d   1       2.785   3.273   2.302  0.00  0.00    -0.031 A 
ATOM      3  C3  DEN d   1       3.663   3.795   3.369  0.00  0.00     0.027 A 
ATOM      4  C4  DEN d   1       3.062   5.301   5.374  0.00  0.00     0.027 A 
ATOM      5  C5  DEN d   1       2.041   5.982   6.000  0.00  0.00    -0.003 A 
ATOM      6  C6  DEN d   1       0.764   6.000   5.505  0.00  0.00     0.001 A 
ATOM      7  C7  DEN d   1       0.464   5.285   4.376  0.00  0.00     0.017 A 
ATOM      8  C8  DEN d   1       1.489   4.602   3.735  0.00  0.00    -0.094 A 
ATOM      9  C9  DEN d   1       2.771   4.586   4.258  0.00  0.00    -0.072 A 
ENDROOT
TORSDOF 0
ENDMDL
