MODEL 1
REMARK minimizedAffinity 8.10180378
REMARK minimizedRMSD -1
REMARK  0 active torsions:
REMARK  status: ('A' for Active; 'I' for Inactive)
ROOT
ATOM      1  C1  DEN d   1      -2.003   0.959   3.644  0.00  0.00     0.130 A 
ATOM      2  C2  DEN d   1      -3.197   0.795   2.820  0.00  0.00    -0.031 A 
ATOM      3  C3  DEN d   1      -2.937  -0.287   1.849  0.00  0.00     0.027 A 
ATOM      4  C4  DEN d   1      -0.814  -1.720   1.547  0.00  0.00     0.027 A 
ATOM      5  C5  DEN d   1       0.466  -1.941   2.006  0.00  0.00    -0.003 A 
ATOM      6  C6  DEN d   1       1.020  -1.195   3.012  0.00  0.00     0.001 A 
ATOM      7  C7  DEN d   1       0.276  -0.221   3.623  0.00  0.00     0.017 A 
ATOM      8  C8  DEN d   1      -1.013   0.013   3.161  0.00  0.00    -0.094 A 
ATOM      9  C9  DEN d   1      -1.559  -0.761   2.151  0.00  0.00    -0.072 A 
ENDROOT
TORSDOF 0
ENDMDL
