MODEL 1
REMARK minimizedAffinity -1.37555325
REMARK minimizedRMSD -1
REMARK  0 active torsions:
REMARK  status: ('A' for Active; 'I' for Inactive)
ROOT
ATOM      1  C1  DEN d   1      -2.795  -2.239  -4.013  0.00  0.00     0.130 A 
ATOM      2  C2  DEN d   1      -3.853  -1.537  -4.734  0.00  0.00    -0.031 A 
ATOM      3  C3  DEN d   1      -3.715  -0.093  -4.456  0.00  0.00     0.027 A 
ATOM      4  C4  DEN d   1      -1.971   1.117  -2.990  0.00  0.00     0.027 A 
ATOM      5  C5  DEN d   1      -0.881   0.941  -2.167  0.00  0.00    -0.003 A 
ATOM      6  C6  DEN d   1      -0.377  -0.299  -1.877  0.00  0.00     0.001 A 
ATOM      7  C7  DEN d   1      -0.936  -1.410  -2.451  0.00  0.00     0.017 A 
ATOM      8  C8  DEN d   1      -2.041  -1.242  -3.275  0.00  0.00    -0.094 A 
ATOM      9  C9  DEN d   1      -2.528   0.021  -3.566  0.00  0.00    -0.072 A 
ENDROOT
TORSDOF 0
ENDMDL
