MODEL 1
REMARK minimizedAffinity 6.55633116
REMARK minimizedRMSD -1
REMARK  0 active torsions:
REMARK  status: ('A' for Active; 'I' for Inactive)
ROOT
ATOM      1  C1  DEN d   1      -1.972  -1.394   1.228  0.00  0.00     0.130 A 
ATOM      2  C2  DEN d   1      -0.579  -1.825   1.139  0.00  0.00    -0.031 A 
ATOM      3  C3  DEN d   1       0.224  -0.960   2.027  0.00  0.00     0.027 A 
ATOM      4  C4  DEN d   1      -0.549   0.991   3.525  0.00  0.00     0.027 A 
ATOM      5  C5  DEN d   1      -1.636   1.737   3.925  0.00  0.00    -0.003 A 
ATOM      6  C6  DEN d   1      -2.895   1.516   3.432  0.00  0.00     0.001 A 
ATOM      7  C7  DEN d   1      -3.106   0.494   2.545  0.00  0.00     0.017 A 
ATOM      8  C8  DEN d   1      -2.014  -0.258   2.131  0.00  0.00    -0.094 A 
ATOM      9  C9  DEN d   1      -0.752  -0.026   2.650  0.00  0.00    -0.072 A 
ENDROOT
TORSDOF 0
ENDMDL
