MODEL 1
REMARK minimizedAffinity 4.3721509
REMARK minimizedRMSD -1
REMARK  0 active torsions:
REMARK  status: ('A' for Active; 'I' for Inactive)
ROOT
ATOM      1  C1  DEN d   1       0.443  -1.045   0.921  0.00  0.00     0.130 A 
ATOM      2  C2  DEN d   1       1.210  -2.165   1.459  0.00  0.00    -0.031 A 
ATOM      3  C3  DEN d   1       2.399  -2.357   0.605  0.00  0.00     0.027 A 
ATOM      4  C4  DEN d   1       3.125  -1.033  -1.486  0.00  0.00     0.027 A 
ATOM      5  C5  DEN d   1       2.789  -0.001  -2.334  0.00  0.00    -0.003 A 
ATOM      6  C6  DEN d   1       1.640   0.728  -2.177  0.00  0.00     0.001 A 
ATOM      7  C7  DEN d   1       0.807   0.464  -1.122  0.00  0.00     0.017 A 
ATOM      8  C8  DEN d   1       1.135  -0.581  -0.268  0.00  0.00    -0.094 A 
ATOM      9  C9  DEN d   1       2.308  -1.298  -0.436  0.00  0.00    -0.072 A 
ENDROOT
TORSDOF 0
ENDMDL
