MODEL 1
REMARK minimizedAffinity 12.8690042
REMARK minimizedRMSD -1
REMARK  0 active torsions:
REMARK  status: ('A' for Active; 'I' for Inactive)
ROOT
ATOM      1  C1  DEN d   1       0.550  -0.478   1.838  0.00  0.00     0.130 A 
ATOM      2  C2  DEN d   1       0.866  -1.639   2.666  0.00  0.00    -0.031 A 
ATOM      3  C3  DEN d   1       1.878  -2.445   1.955  0.00  0.00     0.027 A 
ATOM      4  C4  DEN d   1       2.983  -2.009  -0.335  0.00  0.00     0.027 A 
ATOM      5  C5  DEN d   1       3.027  -1.157  -1.416  0.00  0.00    -0.003 A 
ATOM      6  C6  DEN d   1       2.230  -0.046  -1.503  0.00  0.00     0.001 A 
ATOM      7  C7  DEN d   1       1.387   0.267  -0.470  0.00  0.00     0.017 A 
ATOM      8  C8  DEN d   1       1.332  -0.591   0.620  0.00  0.00    -0.094 A 
ATOM      9  C9  DEN d   1       2.154  -1.703   0.695  0.00  0.00    -0.072 A 
ENDROOT
TORSDOF 0
ENDMDL
