MODEL 1
REMARK minimizedAffinity 5.75519037
REMARK minimizedRMSD -1
REMARK  0 active torsions:
REMARK  status: ('A' for Active; 'I' for Inactive)
ROOT
ATOM      1  C1  DEN d   1       0.585   0.210   3.000  0.00  0.00     0.130 A 
ATOM      2  C2  DEN d   1       1.160  -0.995   2.410  0.00  0.00    -0.031 A 
ATOM      3  C3  DEN d   1       0.093  -1.694   1.666  0.00  0.00     0.027 A 
ATOM      4  C4  DEN d   1      -2.380  -1.027   1.368  0.00  0.00     0.027 A 
ATOM      5  C5  DEN d   1      -3.338  -0.092   1.692  0.00  0.00    -0.003 A 
ATOM      6  C6  DEN d   1      -3.066   0.983   2.497  0.00  0.00     0.001 A 
ATOM      7  C7  DEN d   1      -1.793   1.173   2.967  0.00  0.00     0.017 A 
ATOM      8  C8  DEN d   1      -0.824   0.230   2.651  0.00  0.00    -0.094 A 
ATOM      9  C9  DEN d   1      -1.117  -0.843   1.826  0.00  0.00    -0.072 A 
ENDROOT
TORSDOF 0
ENDMDL
