MODEL 1
REMARK minimizedAffinity 10.7795343
REMARK minimizedRMSD -1
REMARK  0 active torsions:
REMARK  status: ('A' for Active; 'I' for Inactive)
ROOT
ATOM      1  C1  DEN d   1       1.808  -2.579   2.507  0.00  0.00     0.130 A 
ATOM      2  C2  DEN d   1       0.766  -1.737   3.089  0.00  0.00    -0.031 A 
ATOM      3  C3  DEN d   1       0.408  -0.703   2.098  0.00  0.00     0.027 A 
ATOM      4  C4  DEN d   1       1.357  -0.327  -0.270  0.00  0.00     0.027 A 
ATOM      5  C5  DEN d   1       2.266  -0.780  -1.200  0.00  0.00    -0.003 A 
ATOM      6  C6  DEN d   1       3.104  -1.834  -0.949  0.00  0.00     0.001 A 
ATOM      7  C7  DEN d   1       3.018  -2.500   0.246  0.00  0.00     0.017 A 
ATOM      8  C8  DEN d   1       2.108  -2.044   1.191  0.00  0.00    -0.094 A 
ATOM      9  C9  DEN d   1       1.261  -0.985   0.913  0.00  0.00    -0.072 A 
ENDROOT
TORSDOF 0
ENDMDL
