MODEL 1
REMARK minimizedAffinity 3.60435653
REMARK minimizedRMSD -1
REMARK  0 active torsions:
REMARK  status: ('A' for Active; 'I' for Inactive)
ROOT
ATOM      1  C1  DEN d   1       2.397  -0.439   1.889  0.00  0.00     0.130 A 
ATOM      2  C2  DEN d   1       2.161  -1.880   1.920  0.00  0.00    -0.031 A 
ATOM      3  C3  DEN d   1       1.871  -2.325   0.542  0.00  0.00     0.027 A 
ATOM      4  C4  DEN d   1       1.770  -0.931  -1.626  0.00  0.00     0.027 A 
ATOM      5  C5  DEN d   1       1.889   0.336  -2.152  0.00  0.00    -0.003 A 
ATOM      6  C6  DEN d   1       2.149   1.430  -1.370  0.00  0.00     0.001 A 
ATOM      7  C7  DEN d   1       2.344   1.271  -0.024  0.00  0.00     0.017 A 
ATOM      8  C8  DEN d   1       2.219  -0.003   0.515  0.00  0.00    -0.094 A 
ATOM      9  C9  DEN d   1       1.968  -1.098  -0.294  0.00  0.00    -0.072 A 
ENDROOT
TORSDOF 0
ENDMDL
