MODEL 1
REMARK minimizedAffinity 0.751937866
REMARK minimizedRMSD -1
REMARK  0 active torsions:
REMARK  status: ('A' for Active; 'I' for Inactive)
ROOT
ATOM      1  C   UNL d   1       2.030  -0.735   0.354  0.00  0.00     0.124 A 
ATOM      2  C1  UNL d   1       1.672  -0.628   1.690  0.00  0.00     0.062 A 
ATOM      3  C2  UNL d   1       0.364  -0.303   2.041  0.00  0.00     0.162 A 
ATOM      4  C3  UNL d   1      -0.596  -0.085   1.053  0.00  0.00    -0.034 A 
ATOM      5  C4  UNL d   1      -0.227  -0.193  -0.290  0.00  0.00     0.162 A 
ATOM      6  C5  UNL d   1       1.081  -0.517  -0.635  0.00  0.00     0.062 A 
ATOM      7  F   UNL d   1       1.425  -0.620  -1.927  0.00  0.00    -0.097 F 
ATOM      8  F1  UNL d   1      -1.125   0.011  -1.265  0.00  0.00    -0.096 F 
ATOM      9  I   UNL d   1      -2.552   0.400   1.573  0.00  0.00    -0.060 I 
ATOM     10  F2  UNL d   1       0.046  -0.207   3.340  0.00  0.00    -0.096 F 
ATOM     11  F3  UNL d   1       2.588  -0.836   2.647  0.00  0.00    -0.097 F 
ATOM     12  F4  UNL d   1       3.289  -1.046   0.019  0.00  0.00    -0.092 F 
ENDROOT
TORSDOF 0
ENDMDL
