MODEL 1
REMARK minimizedAffinity 0.425264746
REMARK minimizedRMSD -1
REMARK  0 active torsions:
REMARK  status: ('A' for Active; 'I' for Inactive)
ROOT
ATOM      1  C   UNL d   1       0.664  -0.676   1.913  0.00  0.00     0.124 A 
ATOM      2  C1  UNL d   1       1.460  -0.302   0.839  0.00  0.00     0.062 A 
ATOM      3  C2  UNL d   1       0.882   0.243  -0.304  0.00  0.00     0.162 A 
ATOM      4  C3  UNL d   1      -0.500   0.417  -0.379  0.00  0.00    -0.034 A 
ATOM      5  C4  UNL d   1      -1.294   0.037   0.704  0.00  0.00     0.162 A 
ATOM      6  C5  UNL d   1      -0.712  -0.507   1.844  0.00  0.00     0.062 A 
ATOM      7  F   UNL d   1      -1.482  -0.868   2.881  0.00  0.00    -0.097 F 
ATOM      8  F1  UNL d   1      -2.626   0.191   0.665  0.00  0.00    -0.096 F 
ATOM      9  I   UNL d   1      -1.368   1.232  -2.087  0.00  0.00    -0.060 I 
ATOM     10  F2  UNL d   1       1.675   0.596  -1.326  0.00  0.00    -0.096 F 
ATOM     11  F3  UNL d   1       2.789  -0.466   0.902  0.00  0.00    -0.097 F 
ATOM     12  F4  UNL d   1       1.222  -1.201   3.011  0.00  0.00    -0.092 F 
ENDROOT
TORSDOF 0
ENDMDL
