MODEL 1
REMARK minimizedAffinity 0.172145605
REMARK minimizedRMSD -1
REMARK  0 active torsions:
REMARK  status: ('A' for Active; 'I' for Inactive)
ROOT
ATOM      1  C   UNL d   1       0.989  -0.763   1.775  0.00  0.00     0.124 A 
ATOM      2  C1  UNL d   1      -0.319  -0.414   2.081  0.00  0.00     0.062 A 
ATOM      3  C2  UNL d   1      -1.134   0.163   1.112  0.00  0.00     0.162 A 
ATOM      4  C3  UNL d   1      -0.644   0.394  -0.173  0.00  0.00    -0.034 A 
ATOM      5  C4  UNL d   1       0.674   0.042  -0.473  0.00  0.00     0.162 A 
ATOM      6  C5  UNL d   1       1.484  -0.535   0.499  0.00  0.00     0.062 A 
ATOM      7  F   UNL d   1       2.748  -0.872   0.202  0.00  0.00    -0.097 F 
ATOM      8  F1  UNL d   1       1.177   0.250  -1.699  0.00  0.00    -0.096 F 
ATOM      9  I   UNL d   1      -1.859   1.257  -1.626  0.00  0.00    -0.060 I 
ATOM     10  F2  UNL d   1      -2.394   0.490   1.435  0.00  0.00    -0.096 F 
ATOM     11  F3  UNL d   1      -0.799  -0.633   3.314  0.00  0.00    -0.097 F 
ATOM     12  F4  UNL d   1       1.772  -1.318   2.710  0.00  0.00    -0.092 F 
ENDROOT
TORSDOF 0
ENDMDL
