MODEL 1
REMARK minimizedAffinity 1.55614913
REMARK minimizedRMSD -1
REMARK  0 active torsions:
REMARK  status: ('A' for Active; 'I' for Inactive)
ROOT
ATOM      1  C   UNL d   1       1.500   0.000   0.735  0.00  0.00     0.124 A 
ATOM      2  C1  UNL d   1       1.021  -0.375   1.983  0.00  0.00     0.062 A 
ATOM      3  C2  UNL d   1      -0.349  -0.483   2.204  0.00  0.00     0.162 A 
ATOM      4  C3  UNL d   1      -1.251  -0.215   1.174  0.00  0.00    -0.034 A 
ATOM      5  C4  UNL d   1      -0.762   0.162  -0.078  0.00  0.00     0.162 A 
ATOM      6  C5  UNL d   1       0.608   0.268  -0.294  0.00  0.00     0.062 A 
ATOM      7  F   UNL d   1       1.069   0.631  -1.500  0.00  0.00    -0.097 F 
ATOM      8  F1  UNL d   1      -1.601   0.427  -1.090  0.00  0.00    -0.096 F 
ATOM      9  I   UNL d   1      -3.300  -0.375   1.500  0.00  0.00    -0.060 I 
ATOM     10  F2  UNL d   1      -0.783  -0.847   3.419  0.00  0.00    -0.096 F 
ATOM     11  F3  UNL d   1       1.881  -0.634   2.979  0.00  0.00    -0.097 F 
ATOM     12  F4  UNL d   1       2.818   0.104   0.526  0.00  0.00    -0.092 F 
ENDROOT
TORSDOF 0
ENDMDL
