MODEL 1
REMARK minimizedAffinity 11.5826578
REMARK minimizedRMSD -1
REMARK  0 active torsions:
REMARK  status: ('A' for Active; 'I' for Inactive)
ROOT
ATOM      1  C   UNL d   1      -3.268   0.445  -2.930  0.00  0.00     0.124 A 
ATOM      2  C1  UNL d   1      -2.720   0.888  -1.734  0.00  0.00     0.062 A 
ATOM      3  C2  UNL d   1      -1.986   0.017  -0.934  0.00  0.00     0.162 A 
ATOM      4  C3  UNL d   1      -1.796  -1.308  -1.328  0.00  0.00    -0.034 A 
ATOM      5  C4  UNL d   1      -2.352  -1.747  -2.532  0.00  0.00     0.162 A 
ATOM      6  C5  UNL d   1      -3.084  -0.871  -3.327  0.00  0.00     0.062 A 
ATOM      7  F   UNL d   1      -3.613  -1.301  -4.482  0.00  0.00    -0.097 F 
ATOM      8  F1  UNL d   1      -2.188  -3.014  -2.940  0.00  0.00    -0.096 F 
ATOM      9  I   UNL d   1      -0.701  -2.615  -0.135  0.00  0.00    -0.060 I 
ATOM     10  F2  UNL d   1      -1.468   0.472   0.216  0.00  0.00    -0.096 F 
ATOM     11  F3  UNL d   1      -2.897   2.160  -1.347  0.00  0.00    -0.097 F 
ATOM     12  F4  UNL d   1      -3.974   1.286  -3.697  0.00  0.00    -0.092 F 
ENDROOT
TORSDOF 0
ENDMDL
