MODEL 1
REMARK minimizedAffinity 23.0832615
REMARK minimizedRMSD -1
REMARK  0 active torsions:
REMARK  status: ('A' for Active; 'I' for Inactive)
ROOT
ATOM      1  C   UNL d   1       1.859   0.650   2.028  0.00  0.00     0.124 A 
ATOM      2  C1  UNL d   1       1.927  -0.730   2.163  0.00  0.00     0.062 A 
ATOM      3  C2  UNL d   1       0.883  -1.530   1.708  0.00  0.00     0.162 A 
ATOM      4  C3  UNL d   1      -0.238  -0.953   1.112  0.00  0.00    -0.034 A 
ATOM      5  C4  UNL d   1      -0.299   0.436   0.980  0.00  0.00     0.162 A 
ATOM      6  C5  UNL d   1       0.746   1.231   1.436  0.00  0.00     0.062 A 
ATOM      7  F   UNL d   1       0.679   2.564   1.304  0.00  0.00    -0.097 F 
ATOM      8  F1  UNL d   1      -1.363   1.024   0.411  0.00  0.00    -0.096 F 
ATOM      9  I   UNL d   1      -1.801  -2.146   0.429  0.00  0.00    -0.060 I 
ATOM     10  F2  UNL d   1       0.976  -2.860   1.852  0.00  0.00    -0.096 F 
ATOM     11  F3  UNL d   1       3.000  -1.294   2.735  0.00  0.00    -0.097 F 
ATOM     12  F4  UNL d   1       2.864   1.418   2.468  0.00  0.00    -0.092 F 
ENDROOT
TORSDOF 0
ENDMDL
