MODEL 1
REMARK minimizedAffinity 8.71017456
REMARK minimizedRMSD -1
REMARK  0 active torsions:
REMARK  status: ('A' for Active; 'I' for Inactive)
ROOT
ATOM      1  C   UNL d   1       1.427  -1.400   2.681  0.00  0.00     0.124 A 
ATOM      2  C1  UNL d   1       2.473  -0.498   2.817  0.00  0.00     0.062 A 
ATOM      3  C2  UNL d   1       2.542   0.623   1.995  0.00  0.00     0.162 A 
ATOM      4  C3  UNL d   1       1.561   0.849   1.029  0.00  0.00    -0.034 A 
ATOM      5  C4  UNL d   1       0.513  -0.064   0.897  0.00  0.00     0.162 A 
ATOM      6  C5  UNL d   1       0.449  -1.182   1.721  0.00  0.00     0.062 A 
ATOM      7  F   UNL d   1      -0.563  -2.053   1.588  0.00  0.00    -0.097 F 
ATOM      8  F1  UNL d   1      -0.447   0.123  -0.021  0.00  0.00    -0.096 F 
ATOM      9  I   UNL d   1       1.661   2.524  -0.203  0.00  0.00    -0.060 I 
ATOM     10  F2  UNL d   1       3.564   1.479   2.149  0.00  0.00    -0.096 F 
ATOM     11  F3  UNL d   1       3.420  -0.706   3.743  0.00  0.00    -0.097 F 
ATOM     12  F4  UNL d   1       1.364  -2.478   3.473  0.00  0.00    -0.092 F 
ENDROOT
TORSDOF 0
ENDMDL
