MODEL 1
REMARK minimizedAffinity 5.47959757
REMARK minimizedRMSD -1
REMARK  0 active torsions:
REMARK  status: ('A' for Active; 'I' for Inactive)
ROOT
ATOM      1  C   UNL d   1       0.191   2.130   0.602  0.00  0.00     0.124 A 
ATOM      2  C1  UNL d   1       1.572   1.988   0.622  0.00  0.00     0.062 A 
ATOM      3  C2  UNL d   1       2.379   2.896  -0.058  0.00  0.00     0.162 A 
ATOM      4  C3  UNL d   1       1.807   3.955  -0.763  0.00  0.00    -0.034 A 
ATOM      5  C4  UNL d   1       0.418   4.091  -0.780  0.00  0.00     0.162 A 
ATOM      6  C5  UNL d   1      -0.384   3.181  -0.099  0.00  0.00     0.062 A 
ATOM      7  F   UNL d   1      -1.718   3.320  -0.119  0.00  0.00    -0.097 F 
ATOM      8  F1  UNL d   1      -0.164   5.098  -1.448  0.00  0.00    -0.096 F 
ATOM      9  I   UNL d   1       3.011   5.314  -1.781  0.00  0.00    -0.060 I 
ATOM     10  F2  UNL d   1       3.710   2.734  -0.021  0.00  0.00    -0.096 F 
ATOM     11  F3  UNL d   1       2.130   0.974   1.297  0.00  0.00    -0.097 F 
ATOM     12  F4  UNL d   1      -0.583   1.255   1.256  0.00  0.00    -0.092 F 
ENDROOT
TORSDOF 0
ENDMDL
