MODEL 1
REMARK minimizedAffinity 6.2355299
REMARK minimizedRMSD -1
REMARK  0 active torsions:
REMARK  status: ('A' for Active; 'I' for Inactive)
ROOT
ATOM      1  C   UNL d   1      -0.428  -2.390   1.745  0.00  0.00     0.124 A 
ATOM      2  C1  UNL d   1      -0.860  -1.221   1.134  0.00  0.00     0.062 A 
ATOM      3  C2  UNL d   1      -0.029  -0.106   1.090  0.00  0.00     0.162 A 
ATOM      4  C3  UNL d   1       1.244  -0.154   1.658  0.00  0.00    -0.034 A 
ATOM      5  C4  UNL d   1       1.672  -1.333   2.271  0.00  0.00     0.162 A 
ATOM      6  C5  UNL d   1       0.837  -2.445   2.313  0.00  0.00     0.062 A 
ATOM      7  F   UNL d   1       1.256  -3.573   2.904  0.00  0.00    -0.097 F 
ATOM      8  F1  UNL d   1       2.890  -1.414   2.827  0.00  0.00    -0.096 F 
ATOM      9  I   UNL d   1       2.491   1.512   1.594  0.00  0.00    -0.060 I 
ATOM     10  F2  UNL d   1      -0.473   1.011   0.493  0.00  0.00    -0.096 F 
ATOM     11  F3  UNL d   1      -2.082  -1.165   0.586  0.00  0.00    -0.097 F 
ATOM     12  F4  UNL d   1      -1.230  -3.462   1.787  0.00  0.00    -0.092 F 
ENDROOT
TORSDOF 0
ENDMDL
