MODEL 1
REMARK minimizedAffinity 6.86155128
REMARK minimizedRMSD -1
REMARK  0 active torsions:
REMARK  status: ('A' for Active; 'I' for Inactive)
ROOT
ATOM      1  C   UNL d   1       0.792  -0.992   2.339  0.00  0.00     0.124 A 
ATOM      2  C1  UNL d   1       2.084  -0.484   2.314  0.00  0.00     0.062 A 
ATOM      3  C2  UNL d   1       2.379   0.642   1.551  0.00  0.00     0.162 A 
ATOM      4  C3  UNL d   1       1.379   1.270   0.807  0.00  0.00    -0.034 A 
ATOM      5  C4  UNL d   1       0.083   0.753   0.836  0.00  0.00     0.162 A 
ATOM      6  C5  UNL d   1      -0.207  -0.373   1.600  0.00  0.00     0.062 A 
ATOM      7  F   UNL d   1      -1.455  -0.862   1.623  0.00  0.00    -0.097 F 
ATOM      8  F1  UNL d   1      -0.902   1.331   0.132  0.00  0.00    -0.096 F 
ATOM      9  I   UNL d   1       1.816   2.954  -0.335  0.00  0.00    -0.060 I 
ATOM     10  F2  UNL d   1       3.635   1.111   1.546  0.00  0.00    -0.096 F 
ATOM     11  F3  UNL d   1       3.051  -1.080   3.026  0.00  0.00    -0.097 F 
ATOM     12  F4  UNL d   1       0.511  -2.076   3.073  0.00  0.00    -0.092 F 
ENDROOT
TORSDOF 0
ENDMDL
