MODEL 1
REMARK minimizedAffinity 12.8401337
REMARK minimizedRMSD -1
REMARK  0 active torsions:
REMARK  status: ('A' for Active; 'I' for Inactive)
ROOT
ATOM      1  C   UNL d   1       1.231  -0.754   2.176  0.00  0.00     0.124 A 
ATOM      2  C1  UNL d   1       2.479  -0.168   2.019  0.00  0.00     0.062 A 
ATOM      3  C2  UNL d   1       2.613   1.009   1.289  0.00  0.00     0.162 A 
ATOM      4  C3  UNL d   1       1.495   1.610   0.711  0.00  0.00    -0.034 A 
ATOM      5  C4  UNL d   1       0.243   1.015   0.873  0.00  0.00     0.162 A 
ATOM      6  C5  UNL d   1       0.114  -0.162   1.603  0.00  0.00     0.062 A 
ATOM      7  F   UNL d   1      -1.093  -0.727   1.754  0.00  0.00    -0.097 F 
ATOM      8  F1  UNL d   1      -0.854   1.566   0.331  0.00  0.00    -0.096 F 
ATOM      9  I   UNL d   1       1.691   3.371  -0.380  0.00  0.00    -0.060 I 
ATOM     10  F2  UNL d   1       3.832   1.553   1.153  0.00  0.00    -0.096 F 
ATOM     11  F3  UNL d   1       3.560  -0.739   2.570  0.00  0.00    -0.097 F 
ATOM     12  F4  UNL d   1       1.105  -1.888   2.877  0.00  0.00    -0.092 F 
ENDROOT
TORSDOF 0
ENDMDL
