MODEL 1
REMARK minimizedAffinity 0.225708753
REMARK minimizedRMSD -1
REMARK  3 active torsions:
REMARK  status: ('A' for Active; 'I' for Inactive)
REMARK    1  A    between atoms: C3'_2  and  C2'_3 
REMARK    2  A    between atoms: C2'_3  and  C1'_4 
REMARK    3  A    between atoms: C1'_4  and  C1_5 
ROOT
ATOM      1  C1  N4B d   1       0.404   0.642  -2.700  0.00  0.00    -0.075 A 
ATOM      2  C2  N4B d   1       1.633   1.338  -2.726  0.00  0.00     0.002 A 
ATOM      3  C3  N4B d   1       2.429   1.284  -3.844  0.00  0.00     0.002 A 
ATOM      4  C4  N4B d   1       2.028   0.530  -4.936  0.00  0.00    -0.004 A 
ATOM      5  C5  N4B d   1       0.827  -0.118  -4.912  0.00  0.00     0.002 A 
ATOM      6  C6  N4B d   1       0.015  -0.070  -3.797  0.00  0.00     0.002 A 
ENDROOT
BRANCH   1   7
ATOM      7  C1' N4B d   1      -0.459   0.601  -1.469  0.00  0.00     0.057 C 
BRANCH   7   8
ATOM      8  C2' N4B d   1       0.227  -0.250  -0.404  0.00  0.00     0.009 C 
BRANCH   8   9
ATOM      9  C3' N4B d   1      -0.281   0.068   0.992  0.00  0.00     0.004 C 
ATOM     10  C4' N4B d   1       0.649   0.961   1.758  0.00  0.00     0.003 C 
ENDBRANCH   8   9
ENDBRANCH   7   8
ENDBRANCH   1   7
TORSDOF 3
ENDMDL
