MODEL 1
REMARK minimizedAffinity -3.00458908
REMARK minimizedRMSD -1
REMARK  3 active torsions:
REMARK  status: ('A' for Active; 'I' for Inactive)
REMARK    1  A    between atoms: C3'_2  and  C2'_3 
REMARK    2  A    between atoms: C2'_3  and  C1'_4 
REMARK    3  A    between atoms: C1'_4  and  C1_5 
ROOT
ATOM      1  C1  N4B d   1      -0.388  -1.455  -1.128  0.00  0.00    -0.075 A 
ATOM      2  C2  N4B d   1      -0.910  -0.386  -0.367  0.00  0.00     0.002 A 
ATOM      3  C3  N4B d   1      -0.134   0.216   0.593  0.00  0.00     0.002 A 
ATOM      4  C4  N4B d   1       1.154  -0.244   0.822  0.00  0.00    -0.004 A 
ATOM      5  C5  N4B d   1       1.659  -1.261   0.066  0.00  0.00     0.002 A 
ATOM      6  C6  N4B d   1       0.892  -1.872  -0.906  0.00  0.00     0.002 A 
ENDROOT
BRANCH   1   7
ATOM      7  C1' N4B d   1      -1.227  -2.201  -2.130  0.00  0.00     0.057 C 
BRANCH   7   8
ATOM      8  C2' N4B d   1      -2.425  -2.821  -1.417  0.00  0.00     0.009 C 
BRANCH   8   9
ATOM      9  C3' N4B d   1      -3.735  -2.183  -1.845  0.00  0.00     0.004 C 
ATOM     10  C4' N4B d   1      -4.883  -3.147  -1.832  0.00  0.00     0.003 C 
ENDBRANCH   8   9
ENDBRANCH   7   8
ENDBRANCH   1   7
TORSDOF 3
ENDMDL
