MODEL 1
REMARK minimizedAffinity -4.1673317
REMARK minimizedRMSD -1
REMARK  3 active torsions:
REMARK  status: ('A' for Active; 'I' for Inactive)
REMARK    1  A    between atoms: C3'_2  and  C2'_3 
REMARK    2  A    between atoms: C2'_3  and  C1'_4 
REMARK    3  A    between atoms: C1'_4  and  C1_5 
ROOT
ATOM      1  C1  N4B d   1      -0.892   0.012   0.785  0.00  0.00    -0.075 A 
ATOM      2  C2  N4B d   1      -1.803  -0.202   1.843  0.00  0.00     0.002 A 
ATOM      3  C3  N4B d   1      -1.756   0.594   2.961  0.00  0.00     0.002 A 
ATOM      4  C4  N4B d   1      -0.800   1.594   3.051  0.00  0.00    -0.004 A 
ATOM      5  C5  N4B d   1       0.060   1.811   2.015  0.00  0.00     0.002 A 
ATOM      6  C6  N4B d   1       0.022   1.021   0.883  0.00  0.00     0.002 A 
ENDROOT
BRANCH   1   7
ATOM      7  C1' N4B d   1      -0.848  -0.887  -0.420  0.00  0.00     0.057 C 
BRANCH   7   8
ATOM      8  C2' N4B d   1      -2.255  -1.399  -0.714  0.00  0.00     0.009 C 
BRANCH   8   9
ATOM      9  C3' N4B d   1      -2.235  -2.752  -1.403  0.00  0.00     0.004 C 
ATOM     10  C4' N4B d   1      -3.472  -3.558  -1.137  0.00  0.00     0.003 C 
ENDBRANCH   8   9
ENDBRANCH   7   8
ENDBRANCH   1   7
TORSDOF 3
ENDMDL
