MODEL 1
REMARK minimizedAffinity -3.79448795
REMARK minimizedRMSD -1
REMARK  3 active torsions:
REMARK  status: ('A' for Active; 'I' for Inactive)
REMARK    1  A    between atoms: C3'_2  and  C2'_3 
REMARK    2  A    between atoms: C2'_3  and  C1'_4 
REMARK    3  A    between atoms: C1'_4  and  C1_5 
ROOT
ATOM      1  C1  N4B d   1      -1.244  -0.435   0.316  0.00  0.00    -0.075 A 
ATOM      2  C2  N4B d   1      -2.376  -0.416   1.159  0.00  0.00     0.002 A 
ATOM      3  C3  N4B d   1      -2.389   0.384   2.275  0.00  0.00     0.002 A 
ATOM      4  C4  N4B d   1      -1.277   1.157   2.577  0.00  0.00    -0.004 A 
ATOM      5  C5  N4B d   1      -0.197   1.152   1.744  0.00  0.00     0.002 A 
ATOM      6  C6  N4B d   1      -0.173   0.356   0.616  0.00  0.00     0.002 A 
ENDROOT
BRANCH   1   7
ATOM      7  C1' N4B d   1      -1.150  -1.358  -0.868  0.00  0.00     0.057 C 
BRANCH   7   8
ATOM      8  C2' N4B d   1      -1.938  -2.631  -0.574  0.00  0.00     0.009 C 
BRANCH   8   9
ATOM      9  C3' N4B d   1      -2.825  -3.032  -1.740  0.00  0.00     0.004 C 
ATOM     10  C4' N4B d   1      -4.280  -3.070  -1.376  0.00  0.00     0.003 C 
ENDBRANCH   8   9
ENDBRANCH   7   8
ENDBRANCH   1   7
TORSDOF 3
ENDMDL
