MODEL 1
REMARK minimizedAffinity -6.81395292
REMARK minimizedRMSD -1
REMARK  3 active torsions:
REMARK  status: ('A' for Active; 'I' for Inactive)
REMARK    1  A    between atoms: C3'_2  and  C2'_3 
REMARK    2  A    between atoms: C2'_3  and  C1'_4 
REMARK    3  A    between atoms: C1'_4  and  C1_5 
ROOT
ATOM      1  C1  N4B d   1      -0.142  -0.013   0.579  0.00  0.00    -0.075 A 
ATOM      2  C2  N4B d   1      -1.511   0.241   0.815  0.00  0.00     0.002 A 
ATOM      3  C3  N4B d   1      -1.932   0.627   2.064  0.00  0.00     0.002 A 
ATOM      4  C4  N4B d   1      -1.009   0.748   3.092  0.00  0.00    -0.004 A 
ATOM      5  C5  N4B d   1       0.315   0.525   2.849  0.00  0.00     0.002 A 
ATOM      6  C6  N4B d   1       0.752   0.140   1.598  0.00  0.00     0.002 A 
ENDROOT
BRANCH   1   7
ATOM      7  C1' N4B d   1       0.354  -0.521  -0.747  0.00  0.00     0.057 C 
BRANCH   7   8
ATOM      8  C2' N4B d   1       0.218  -2.040  -0.785  0.00  0.00     0.009 C 
BRANCH   8   9
ATOM      9  C3' N4B d   1      -0.882  -2.489  -1.732  0.00  0.00     0.004 C 
ATOM     10  C4' N4B d   1      -2.061  -3.076  -1.015  0.00  0.00     0.003 C 
ENDBRANCH   8   9
ENDBRANCH   7   8
ENDBRANCH   1   7
TORSDOF 3
ENDMDL
