MODEL 1
REMARK minimizedAffinity -6.31813383
REMARK minimizedRMSD -1
REMARK  3 active torsions:
REMARK  status: ('A' for Active; 'I' for Inactive)
REMARK    1  A    between atoms: C3'_2  and  C2'_3 
REMARK    2  A    between atoms: C2'_3  and  C1'_4 
REMARK    3  A    between atoms: C1'_4  and  C1_5 
ROOT
ATOM      1  C1  N4B d   1       0.020   0.244   1.013  0.00  0.00    -0.075 A 
ATOM      2  C2  N4B d   1       1.278  -0.085   1.564  0.00  0.00     0.002 A 
ATOM      3  C3  N4B d   1       1.577   0.273   2.856  0.00  0.00     0.002 A 
ATOM      4  C4  N4B d   1       0.645   0.973   3.607  0.00  0.00    -0.004 A 
ATOM      5  C5  N4B d   1      -0.578   1.264   3.076  0.00  0.00     0.002 A 
ATOM      6  C6  N4B d   1      -0.893   0.908   1.780  0.00  0.00     0.002 A 
ENDROOT
BRANCH   1   7
ATOM      7  C1' N4B d   1      -0.319  -0.050  -0.422  0.00  0.00     0.057 C 
BRANCH   7   8
ATOM      8  C2' N4B d   1      -1.630  -0.829  -0.477  0.00  0.00     0.009 C 
BRANCH   8   9
ATOM      9  C3' N4B d   1      -1.414  -2.277  -0.883  0.00  0.00     0.004 C 
ATOM     10  C4' N4B d   1      -2.695  -2.988  -1.204  0.00  0.00     0.003 C 
ENDBRANCH   8   9
ENDBRANCH   7   8
ENDBRANCH   1   7
TORSDOF 3
ENDMDL
