MODEL 1
REMARK minimizedAffinity 3.81399703
REMARK minimizedRMSD -1
REMARK  1 active torsions:
REMARK  status: ('A' for Active; 'I' for Inactive)
REMARK    1  A    between atoms: C3_4  and  O_7 
ROOT
ATOM      1  C   UNL d   1      -1.008   5.845   4.468  0.00  0.00    -0.033 A 
ATOM      2  C1  UNL d   1      -0.516   5.999   5.766  0.00  0.00     0.039 A 
ATOM      3  C2  UNL d   1       0.861   5.998   5.997  0.00  0.00    -0.080 A 
ATOM      4  C3  UNL d   1       1.734   5.844   4.924  0.00  0.00     0.150 A 
ATOM      5  C4  UNL d   1       1.251   5.694   3.628  0.00  0.00    -0.007 A 
ATOM      6  C5  UNL d   1      -0.124   5.694   3.399  0.00  0.00     0.039 A 
ENDROOT
BRANCH   4   7
ATOM      7  O   UNL d   1       3.086   5.831   5.101  0.00  0.00    -0.526 OA
ATOM      8  H5  UNL d   1       3.273   5.916   6.051  0.00  0.00     0.418 HD
ENDBRANCH   4   7
TORSDOF 1
ENDMDL
