MODEL 1
REMARK minimizedAffinity -2.7151711
REMARK minimizedRMSD -1
REMARK  1 active torsions:
REMARK  status: ('A' for Active; 'I' for Inactive)
REMARK    1  A    between atoms: C3_4  and  O_7 
ROOT
ATOM      1  C   UNL d   1       4.107  -5.909   4.678  0.00  0.00    -0.033 A 
ATOM      2  C1  UNL d   1       4.525  -5.389   5.905  0.00  0.00     0.039 A 
ATOM      3  C2  UNL d   1       5.164  -4.149   5.958  0.00  0.00    -0.080 A 
ATOM      4  C3  UNL d   1       5.377  -3.438   4.780  0.00  0.00     0.150 A 
ATOM      5  C4  UNL d   1       4.959  -3.948   3.555  0.00  0.00    -0.007 A 
ATOM      6  C5  UNL d   1       4.323  -5.188   3.503  0.00  0.00     0.039 A 
ENDROOT
BRANCH   4   7
ATOM      7  O   UNL d   1       6.000  -2.226   4.782  0.00  0.00    -0.526 OA
ATOM      8  H5  UNL d   1       6.257  -2.013   5.694  0.00  0.00     0.418 HD
ENDBRANCH   4   7
TORSDOF 1
ENDMDL
