MODEL 1
REMARK minimizedAffinity -3.41622758
REMARK minimizedRMSD -1
REMARK  1 active torsions:
REMARK  status: ('A' for Active; 'I' for Inactive)
REMARK    1  A    between atoms: C3_4  and  O_7 
ROOT
ATOM      1  C   UNL d   1      -0.576   5.621   3.938  0.00  0.00    -0.033 A 
ATOM      2  C1  UNL d   1      -0.546   5.982   5.286  0.00  0.00     0.039 A 
ATOM      3  C2  UNL d   1       0.662   5.973   5.987  0.00  0.00    -0.080 A 
ATOM      4  C3  UNL d   1       1.831   5.602   5.328  0.00  0.00     0.150 A 
ATOM      5  C4  UNL d   1       1.809   5.245   3.984  0.00  0.00    -0.007 A 
ATOM      6  C5  UNL d   1       0.602   5.253   3.286  0.00  0.00     0.039 A 
ENDROOT
BRANCH   4   7
ATOM      7  O   UNL d   1       3.033   5.573   5.970  0.00  0.00    -0.526 OA
ATOM      8  H5  UNL d   1       2.890   5.817   6.900  0.00  0.00     0.418 HD
ENDBRANCH   4   7
TORSDOF 1
ENDMDL
