MODEL 1
REMARK minimizedAffinity -1.85522783
REMARK minimizedRMSD -1
REMARK  1 active torsions:
REMARK  status: ('A' for Active; 'I' for Inactive)
REMARK    1  A    between atoms: C3_4  and  O_7 
ROOT
ATOM      1  C   UNL d   1       4.117   2.081  -5.981  0.00  0.00    -0.033 A 
ATOM      2  C1  UNL d   1       5.026   3.141  -5.969  0.00  0.00     0.039 A 
ATOM      3  C2  UNL d   1       4.565   4.459  -5.973  0.00  0.00    -0.080 A 
ATOM      4  C3  UNL d   1       3.194   4.703  -5.989  0.00  0.00     0.150 A 
ATOM      5  C4  UNL d   1       2.283   3.652  -5.998  0.00  0.00    -0.007 A 
ATOM      6  C5  UNL d   1       2.745   2.337  -5.994  0.00  0.00     0.039 A 
ENDROOT
BRANCH   4   7
ATOM      7  O   UNL d   1       2.697   5.973  -5.998  0.00  0.00    -0.526 OA
ATOM      8  H5  UNL d   1       3.443   6.595  -6.020  0.00  0.00     0.418 HD
ENDBRANCH   4   7
TORSDOF 1
ENDMDL
