MODEL 1
REMARK minimizedAffinity -2.20534134
REMARK minimizedRMSD -1
REMARK  1 active torsions:
REMARK  status: ('A' for Active; 'I' for Inactive)
REMARK    1  A    between atoms: C3_4  and  O_7 
ROOT
ATOM      1  C   UNL d   1      -4.392  -1.157  -2.963  0.00  0.00    -0.033 A 
ATOM      2  C1  UNL d   1      -3.842  -0.616  -4.127  0.00  0.00     0.039 A 
ATOM      3  C2  UNL d   1      -3.073   0.548  -4.063  0.00  0.00    -0.080 A 
ATOM      4  C3  UNL d   1      -2.861   1.159  -2.831  0.00  0.00     0.150 A 
ATOM      5  C4  UNL d   1      -3.402   0.624  -1.667  0.00  0.00    -0.007 A 
ATOM      6  C5  UNL d   1      -4.170  -0.538  -1.733  0.00  0.00     0.039 A 
ENDROOT
BRANCH   4   7
ATOM      7  O   UNL d   1      -2.121   2.299  -2.719  0.00  0.00    -0.526 OA
ATOM      8  H5  UNL d   1      -1.836   2.569  -3.607  0.00  0.00     0.418 HD
ENDBRANCH   4   7
TORSDOF 1
ENDMDL
