MODEL 1
REMARK minimizedAffinity -2.88462996
REMARK minimizedRMSD -1
REMARK  1 active torsions:
REMARK  status: ('A' for Active; 'I' for Inactive)
REMARK    1  A    between atoms: C3_4  and  O_7 
ROOT
ATOM      1  C   UNL d   1       2.799   2.259  -5.991  0.00  0.00    -0.033 A 
ATOM      2  C1  UNL d   1       2.060   3.443  -5.996  0.00  0.00     0.039 A 
ATOM      3  C2  UNL d   1       2.715   4.676  -6.000  0.00  0.00    -0.080 A 
ATOM      4  C3  UNL d   1       4.106   4.711  -6.000  0.00  0.00     0.150 A 
ATOM      5  C4  UNL d   1       4.849   3.535  -5.999  0.00  0.00    -0.007 A 
ATOM      6  C5  UNL d   1       4.194   2.305  -5.994  0.00  0.00     0.039 A 
ENDROOT
BRANCH   4   7
ATOM      7  O   UNL d   1       4.789   5.891  -5.999  0.00  0.00    -0.526 OA
ATOM      8  H5  UNL d   1       4.146   6.619  -5.970  0.00  0.00     0.418 HD
ENDBRANCH   4   7
TORSDOF 1
ENDMDL
