MODEL 1
REMARK minimizedAffinity 3.31785369
REMARK minimizedRMSD -1
REMARK  2 active torsions:
REMARK  status: ('A' for Active; 'I' for Inactive)
REMARK    1  A    between atoms: C1_2  and  C2_3 
REMARK    2  A    between atoms: C2_3  and  C3_4 
ROOT
ATOM      1  C3  UNL d   1      -1.321   1.567   2.694  0.00  0.00    -0.075 A 
ATOM      2  C4  UNL d   1      -0.257   1.082   1.919  0.00  0.00     0.002 A 
ATOM      3  C5  UNL d   1       1.063   1.330   2.295  0.00  0.00     0.002 A 
ATOM      4  C6  UNL d   1       1.337   2.072   3.442  0.00  0.00    -0.004 A 
ATOM      5  C7  UNL d   1       0.288   2.572   4.210  0.00  0.00     0.002 A 
ATOM      6  C8  UNL d   1      -1.035   2.322   3.839  0.00  0.00     0.002 A 
ENDROOT
BRANCH   1   7
ATOM      7  C2  UNL d   1      -2.752   1.277   2.309  0.00  0.00     0.056 C 
BRANCH   7   8
ATOM      8  C1  UNL d   1      -3.673   0.990   3.499  0.00  0.00     0.007 C 
ATOM      9  C   UNL d   1      -3.432  -0.375   4.129  0.00  0.00     0.009 C 
ENDBRANCH   7   8
ENDBRANCH   1   7
TORSDOF 2
ENDMDL
