MODEL 1
REMARK minimizedAffinity 5.39736176
REMARK minimizedRMSD -1
REMARK  2 active torsions:
REMARK  status: ('A' for Active; 'I' for Inactive)
REMARK    1  A    between atoms: C1_2  and  C2_3 
REMARK    2  A    between atoms: C2_3  and  C3_4 
ROOT
ATOM      1  C3  UNL d   1      -1.760   5.271  -4.216  0.00  0.00    -0.075 A 
ATOM      2  C4  UNL d   1      -1.814   3.870  -4.229  0.00  0.00     0.002 A 
ATOM      3  C5  UNL d   1      -2.656   3.201  -5.118  0.00  0.00     0.002 A 
ATOM      4  C6  UNL d   1      -3.461   3.924  -5.997  0.00  0.00    -0.004 A 
ATOM      5  C7  UNL d   1      -3.428   5.316  -5.981  0.00  0.00     0.002 A 
ATOM      6  C8  UNL d   1      -2.583   5.988  -5.095  0.00  0.00     0.002 A 
ENDROOT
BRANCH   1   7
ATOM      7  C2  UNL d   1      -0.829   6.000  -3.276  0.00  0.00     0.056 C 
BRANCH   7   8
ATOM      8  C1  UNL d   1      -0.175   5.099  -2.224  0.00  0.00     0.007 C 
ATOM      9  C   UNL d   1       1.329   5.308  -2.105  0.00  0.00     0.009 C 
ENDBRANCH   7   8
ENDBRANCH   1   7
TORSDOF 2
ENDMDL
