MODEL 1
REMARK minimizedAffinity 9.01019192
REMARK minimizedRMSD -1
REMARK  2 active torsions:
REMARK  status: ('A' for Active; 'I' for Inactive)
REMARK    1  A    between atoms: C1_2  and  C2_3 
REMARK    2  A    between atoms: C2_3  and  C3_4 
ROOT
ATOM      1  C3  UNL d   1       1.386   0.890   0.822  0.00  0.00    -0.075 A 
ATOM      2  C4  UNL d   1       2.620   1.487   0.523  0.00  0.00     0.002 A 
ATOM      3  C5  UNL d   1       3.215   1.298  -0.724  0.00  0.00     0.002 A 
ATOM      4  C6  UNL d   1       2.591   0.503  -1.683  0.00  0.00    -0.004 A 
ATOM      5  C7  UNL d   1       1.373  -0.108  -1.392  0.00  0.00     0.002 A 
ATOM      6  C8  UNL d   1       0.773   0.083  -0.146  0.00  0.00     0.002 A 
ENDROOT
BRANCH   1   7
ATOM      7  C2  UNL d   1       0.723   1.115   2.160  0.00  0.00     0.056 C 
BRANCH   7   8
ATOM      8  C1  UNL d   1      -0.482   2.061   2.107  0.00  0.00     0.007 C 
ATOM      9  C   UNL d   1      -1.813   1.350   2.315  0.00  0.00     0.009 C 
ENDBRANCH   7   8
ENDBRANCH   1   7
TORSDOF 2
ENDMDL
