MODEL 1
REMARK minimizedAffinity 10.0053101
REMARK minimizedRMSD -1
REMARK  2 active torsions:
REMARK  status: ('A' for Active; 'I' for Inactive)
REMARK    1  A    between atoms: C1_2  and  C2_3 
REMARK    2  A    between atoms: C2_3  and  C3_4 
ROOT
ATOM      1  C3  UNL d   1      -3.612   1.475   3.861  0.00  0.00    -0.075 A 
ATOM      2  C4  UNL d   1      -4.847   1.914   3.362  0.00  0.00     0.002 A 
ATOM      3  C5  UNL d   1      -5.717   2.648   4.169  0.00  0.00     0.002 A 
ATOM      4  C6  UNL d   1      -5.369   2.943   5.485  0.00  0.00    -0.004 A 
ATOM      5  C7  UNL d   1      -4.152   2.497   5.997  0.00  0.00     0.002 A 
ATOM      6  C8  UNL d   1      -3.278   1.766   5.190  0.00  0.00     0.002 A 
ENDROOT
BRANCH   1   7
ATOM      7  C2  UNL d   1      -2.654   0.706   2.983  0.00  0.00     0.056 C 
BRANCH   7   8
ATOM      8  C1  UNL d   1      -1.536   1.562   2.380  0.00  0.00     0.007 C 
ATOM      9  C   UNL d   1      -0.161   1.244   2.951  0.00  0.00     0.009 C 
ENDBRANCH   7   8
ENDBRANCH   1   7
TORSDOF 2
ENDMDL
