MODEL 1
REMARK minimizedAffinity 13.071744
REMARK minimizedRMSD -1
REMARK  2 active torsions:
REMARK  status: ('A' for Active; 'I' for Inactive)
REMARK    1  A    between atoms: C1_2  and  C2_3 
REMARK    2  A    between atoms: C2_3  and  C3_4 
ROOT
ATOM      1  C3  UNL d   1      -2.882  -3.550  -3.749  0.00  0.00    -0.075 A 
ATOM      2  C4  UNL d   1      -1.555  -3.137  -3.565  0.00  0.00     0.002 A 
ATOM      3  C5  UNL d   1      -0.731  -3.789  -2.647  0.00  0.00     0.002 A 
ATOM      4  C6  UNL d   1      -1.224  -4.854  -1.897  0.00  0.00    -0.004 A 
ATOM      5  C7  UNL d   1      -2.546  -5.262  -2.059  0.00  0.00     0.002 A 
ATOM      6  C8  UNL d   1      -3.372  -4.614  -2.979  0.00  0.00     0.002 A 
ENDROOT
BRANCH   1   7
ATOM      7  C2  UNL d   1      -3.771  -2.867  -4.761  0.00  0.00     0.056 C 
BRANCH   7   8
ATOM      8  C1  UNL d   1      -4.818  -3.789  -5.394  0.00  0.00     0.007 C 
ATOM      9  C   UNL d   1      -5.996  -3.035  -5.997  0.00  0.00     0.009 C 
ENDBRANCH   7   8
ENDBRANCH   1   7
TORSDOF 2
ENDMDL
