MODEL 1
REMARK minimizedAffinity 10.9975061
REMARK minimizedRMSD -1
REMARK  2 active torsions:
REMARK  status: ('A' for Active; 'I' for Inactive)
REMARK    1  A    between atoms: C1_2  and  C2_3 
REMARK    2  A    between atoms: C2_3  and  C3_4 
ROOT
ATOM      1  C3  UNL d   1      -2.829   3.606  -5.807  0.00  0.00    -0.075 A 
ATOM      2  C4  UNL d   1      -2.503   4.969  -5.837  0.00  0.00     0.002 A 
ATOM      3  C5  UNL d   1      -3.506   5.936  -5.920  0.00  0.00     0.002 A 
ATOM      4  C6  UNL d   1      -4.844   5.552  -5.984  0.00  0.00    -0.004 A 
ATOM      5  C7  UNL d   1      -5.178   4.200  -5.971  0.00  0.00     0.002 A 
ATOM      6  C8  UNL d   1      -4.177   3.231  -5.884  0.00  0.00     0.002 A 
ENDROOT
BRANCH   1   7
ATOM      7  C2  UNL d   1      -1.751   2.556  -5.688  0.00  0.00     0.056 C 
BRANCH   7   8
ATOM      8  C1  UNL d   1      -1.072   2.512  -4.315  0.00  0.00     0.007 C 
ATOM      9  C   UNL d   1      -1.895   1.783  -3.261  0.00  0.00     0.009 C 
ENDBRANCH   7   8
ENDBRANCH   1   7
TORSDOF 2
ENDMDL
