MODEL 1
REMARK minimizedAffinity 14.3941355
REMARK minimizedRMSD -1
REMARK  2 active torsions:
REMARK  status: ('A' for Active; 'I' for Inactive)
REMARK    1  A    between atoms: C1_2  and  C2_3 
REMARK    2  A    between atoms: C2_3  and  C3_4 
ROOT
ATOM      1  C3  UNL d   1      -1.684   2.073  -4.453  0.00  0.00    -0.075 A 
ATOM      2  C4  UNL d   1      -1.817   3.181  -3.604  0.00  0.00     0.002 A 
ATOM      3  C5  UNL d   1      -2.663   4.238  -3.945  0.00  0.00     0.002 A 
ATOM      4  C6  UNL d   1      -3.377   4.204  -5.141  0.00  0.00    -0.004 A 
ATOM      5  C7  UNL d   1      -3.240   3.116  -6.000  0.00  0.00     0.002 A 
ATOM      6  C8  UNL d   1      -2.398   2.055  -5.659  0.00  0.00     0.002 A 
ENDROOT
BRANCH   1   7
ATOM      7  C2  UNL d   1      -0.794   0.913  -4.076  0.00  0.00     0.056 C 
BRANCH   7   8
ATOM      8  C1  UNL d   1       0.701   1.252  -4.068  0.00  0.00     0.007 C 
ATOM      9  C   UNL d   1       1.576   0.092  -3.611  0.00  0.00     0.009 C 
ENDBRANCH   7   8
ENDBRANCH   1   7
TORSDOF 2
ENDMDL
