MODEL 1
REMARK minimizedAffinity 19.4035816
REMARK minimizedRMSD -1
REMARK  2 active torsions:
REMARK  status: ('A' for Active; 'I' for Inactive)
REMARK    1  A    between atoms: C1_2  and  C2_3 
REMARK    2  A    between atoms: C2_3  and  C3_4 
ROOT
ATOM      1  C3  UNL d   1       1.415   0.572   1.402  0.00  0.00    -0.075 A 
ATOM      2  C4  UNL d   1       1.364  -0.554   0.569  0.00  0.00     0.002 A 
ATOM      3  C5  UNL d   1       2.259  -0.690  -0.493  0.00  0.00     0.002 A 
ATOM      4  C6  UNL d   1       3.206   0.300  -0.741  0.00  0.00    -0.004 A 
ATOM      5  C7  UNL d   1       3.255   1.431   0.070  0.00  0.00     0.002 A 
ATOM      6  C8  UNL d   1       2.364   1.568   1.136  0.00  0.00     0.002 A 
ENDROOT
BRANCH   1   7
ATOM      7  C2  UNL d   1       0.469   0.712   2.571  0.00  0.00     0.056 C 
BRANCH   7   8
ATOM      8  C1  UNL d   1       0.707   1.966   3.420  0.00  0.00     0.007 C 
ATOM      9  C   UNL d   1       1.296   1.661   4.790  0.00  0.00     0.009 C 
ENDBRANCH   7   8
ENDBRANCH   1   7
TORSDOF 2
ENDMDL
