MODEL 1
REMARK minimizedAffinity 16.0466709
REMARK minimizedRMSD -1
REMARK  2 active torsions:
REMARK  status: ('A' for Active; 'I' for Inactive)
REMARK    1  A    between atoms: C1_2  and  C2_3 
REMARK    2  A    between atoms: C2_3  and  C3_4 
ROOT
ATOM      1  C3  UNL d   1       1.073   1.350   3.357  0.00  0.00    -0.075 A 
ATOM      2  C4  UNL d   1       0.243   0.258   3.649  0.00  0.00     0.002 A 
ATOM      3  C5  UNL d   1       0.088  -0.183   4.964  0.00  0.00     0.002 A 
ATOM      4  C6  UNL d   1       0.768   0.454   5.999  0.00  0.00    -0.004 A 
ATOM      5  C7  UNL d   1       1.608   1.529   5.719  0.00  0.00     0.002 A 
ATOM      6  C8  UNL d   1       1.761   1.975   4.405  0.00  0.00     0.002 A 
ENDROOT
BRANCH   1   7
ATOM      7  C2  UNL d   1       1.221   1.850   1.940  0.00  0.00     0.056 C 
BRANCH   7   8
ATOM      8  C1  UNL d   1       2.654   2.242   1.564  0.00  0.00     0.007 C 
ATOM      9  C   UNL d   1       3.188   1.480   0.359  0.00  0.00     0.009 C 
ENDBRANCH   7   8
ENDBRANCH   1   7
TORSDOF 2
ENDMDL
