MODEL 1
REMARK minimizedAffinity 17.9763985
REMARK minimizedRMSD -1
REMARK  2 active torsions:
REMARK  status: ('A' for Active; 'I' for Inactive)
REMARK    1  A    between atoms: C1_2  and  C2_3 
REMARK    2  A    between atoms: C2_3  and  C3_4 
ROOT
ATOM      1  C3  UNL d   1      -3.195   1.572   3.823  0.00  0.00    -0.075 A 
ATOM      2  C4  UNL d   1      -4.506   1.741   3.353  0.00  0.00     0.002 A 
ATOM      3  C5  UNL d   1      -5.501   2.237   4.195  0.00  0.00     0.002 A 
ATOM      4  C6  UNL d   1      -5.203   2.560   5.516  0.00  0.00    -0.004 A 
ATOM      5  C7  UNL d   1      -3.909   2.381   5.999  0.00  0.00     0.002 A 
ATOM      6  C8  UNL d   1      -2.909   1.889   5.158  0.00  0.00     0.002 A 
ENDROOT
BRANCH   1   7
ATOM      7  C2  UNL d   1      -2.106   1.063   2.909  0.00  0.00     0.056 C 
BRANCH   7   8
ATOM      8  C1  UNL d   1      -0.831   1.913   2.925  0.00  0.00     0.007 C 
ATOM      9  C   UNL d   1       0.418   1.116   3.277  0.00  0.00     0.009 C 
ENDBRANCH   7   8
ENDBRANCH   1   7
TORSDOF 2
ENDMDL
