MODEL 1
REMARK minimizedAffinity 7.23366308
REMARK minimizedRMSD -1
REMARK  2 active torsions:
REMARK  status: ('A' for Active; 'I' for Inactive)
REMARK    1  A    between atoms: C1_2  and  C2_3 
REMARK    2  A    between atoms: C2_3  and  C3_4 
ROOT
ATOM      1  C3  UNL d   1      -3.207   4.461  -5.300  0.00  0.00    -0.075 A 
ATOM      2  C4  UNL d   1      -2.535   4.578  -4.074  0.00  0.00     0.002 A 
ATOM      3  C5  UNL d   1      -1.894   3.474  -3.510  0.00  0.00     0.002 A 
ATOM      4  C6  UNL d   1      -1.924   2.241  -4.157  0.00  0.00    -0.004 A 
ATOM      5  C7  UNL d   1      -2.603   2.110  -5.366  0.00  0.00     0.002 A 
ATOM      6  C8  UNL d   1      -3.242   3.213  -5.935  0.00  0.00     0.002 A 
ENDROOT
BRANCH   1   7
ATOM      7  C2  UNL d   1      -3.878   5.658  -5.930  0.00  0.00     0.056 C 
BRANCH   7   8
ATOM      8  C1  UNL d   1      -5.405   5.552  -5.999  0.00  0.00     0.007 C 
ATOM      9  C   UNL d   1      -5.908   4.115  -5.992  0.00  0.00     0.009 C 
ENDBRANCH   7   8
ENDBRANCH   1   7
TORSDOF 2
ENDMDL
