MODEL 1
REMARK minimizedAffinity 24.2757988
REMARK minimizedRMSD -1
REMARK  2 active torsions:
REMARK  status: ('A' for Active; 'I' for Inactive)
REMARK    1  A    between atoms: C1_2  and  C2_3 
REMARK    2  A    between atoms: C2_3  and  C3_4 
ROOT
ATOM      1  C3  UNL d   1      -1.519   4.801  -4.025  0.00  0.00    -0.075 A 
ATOM      2  C4  UNL d   1      -1.216   3.483  -3.653  0.00  0.00     0.002 A 
ATOM      3  C5  UNL d   1      -1.619   2.412  -4.450  0.00  0.00     0.002 A 
ATOM      4  C6  UNL d   1      -2.335   2.642  -5.623  0.00  0.00    -0.004 A 
ATOM      5  C7  UNL d   1      -2.655   3.947  -5.994  0.00  0.00     0.002 A 
ATOM      6  C8  UNL d   1      -2.250   5.021  -5.200  0.00  0.00     0.002 A 
ENDROOT
BRANCH   1   7
ATOM      7  C2  UNL d   1      -1.061   5.967  -3.181  0.00  0.00     0.056 C 
BRANCH   7   8
ATOM      8  C1  UNL d   1       0.439   5.956  -2.865  0.00  0.00     0.007 C 
ATOM      9  C   UNL d   1       0.748   5.509  -1.442  0.00  0.00     0.009 C 
ENDBRANCH   7   8
ENDBRANCH   1   7
TORSDOF 2
ENDMDL
