MODEL 1
REMARK minimizedAffinity 21.5464897
REMARK minimizedRMSD -1
REMARK  2 active torsions:
REMARK  status: ('A' for Active; 'I' for Inactive)
REMARK    1  A    between atoms: C1_2  and  C2_3 
REMARK    2  A    between atoms: C2_3  and  C3_4 
ROOT
ATOM      1  C3  UNL d   1      -3.392   1.121   3.648  0.00  0.00    -0.075 A 
ATOM      2  C4  UNL d   1      -4.630   1.699   3.331  0.00  0.00     0.002 A 
ATOM      3  C5  UNL d   1      -5.457   2.198   4.337  0.00  0.00     0.002 A 
ATOM      4  C6  UNL d   1      -5.063   2.117   5.671  0.00  0.00    -0.004 A 
ATOM      5  C7  UNL d   1      -3.843   1.530   5.999  0.00  0.00     0.002 A 
ATOM      6  C8  UNL d   1      -3.011   1.034   4.993  0.00  0.00     0.002 A 
ENDROOT
BRANCH   1   7
ATOM      7  C2  UNL d   1      -2.479   0.606   2.561  0.00  0.00     0.056 C 
BRANCH   7   8
ATOM      8  C1  UNL d   1      -1.251   1.487   2.308  0.00  0.00     0.007 C 
ATOM      9  C   UNL d   1       0.010   0.969   2.987  0.00  0.00     0.009 C 
ENDBRANCH   7   8
ENDBRANCH   1   7
TORSDOF 2
ENDMDL
