MODEL 1
REMARK minimizedAffinity 10.2841806
REMARK minimizedRMSD -1
REMARK  2 active torsions:
REMARK  status: ('A' for Active; 'I' for Inactive)
REMARK    1  A    between atoms: C1_2  and  C2_3 
REMARK    2  A    between atoms: C2_3  and  C3_4 
ROOT
ATOM      1  C3  UNL d   1      -3.481  -0.427   4.786  0.00  0.00    -0.075 A 
ATOM      2  C4  UNL d   1      -3.499   0.424   5.902  0.00  0.00     0.002 A 
ATOM      3  C5  UNL d   1      -3.833   1.771   5.760  0.00  0.00     0.002 A 
ATOM      4  C6  UNL d   1      -4.141   2.287   4.503  0.00  0.00    -0.004 A 
ATOM      5  C7  UNL d   1      -4.111   1.455   3.386  0.00  0.00     0.002 A 
ATOM      6  C8  UNL d   1      -3.782   0.106   3.525  0.00  0.00     0.002 A 
ENDROOT
BRANCH   1   7
ATOM      7  C2  UNL d   1      -3.150  -1.892   4.937  0.00  0.00     0.056 C 
BRANCH   7   8
ATOM      8  C1  UNL d   1      -4.358  -2.773   5.273  0.00  0.00     0.007 C 
ATOM      9  C   UNL d   1      -3.977  -4.204   5.631  0.00  0.00     0.009 C 
ENDBRANCH   7   8
ENDBRANCH   1   7
TORSDOF 2
ENDMDL
