MODEL 1
REMARK minimizedAffinity 11.5931368
REMARK minimizedRMSD -1
REMARK  0 active torsions:
REMARK  status: ('A' for Active; 'I' for Inactive)
ROOT
ATOM      1  C   UNL d   1       0.658  -0.622   2.059  0.00  0.00     0.020 A 
ATOM      2  C1  UNL d   1       1.852  -1.310   2.276  0.00  0.00     0.020 A 
ATOM      3  C2  UNL d   1       1.910  -2.690   2.070  0.00  0.00     0.034 A 
ATOM      4  C3  UNL d   1       0.772  -3.386   1.646  0.00  0.00     0.017 A 
ATOM      5  C4  UNL d   1      -0.425  -2.695   1.429  0.00  0.00     0.017 A 
ATOM      6  C5  UNL d   1      -0.478  -1.313   1.637  0.00  0.00     0.034 A 
ATOM      7 Cl   UNL d   1      -1.870  -3.486   0.905  0.00  0.00    -0.070 Cl
ATOM      8 Cl1  UNL d   1       0.916  -5.092   1.410  0.00  0.00    -0.070 Cl
ENDROOT
TORSDOF 0
ENDMDL
