MODEL 1
REMARK minimizedAffinity 14.2525024
REMARK minimizedRMSD -1
REMARK  0 active torsions:
REMARK  status: ('A' for Active; 'I' for Inactive)
ROOT
ATOM      1  C   UNL d   1      -3.262   3.577  -5.202  0.00  0.00     0.020 A 
ATOM      2  C1  UNL d   1      -3.874   4.710  -4.667  0.00  0.00     0.020 A 
ATOM      3  C2  UNL d   1      -4.320   4.703  -3.344  0.00  0.00     0.034 A 
ATOM      4  C3  UNL d   1      -4.156   3.561  -2.551  0.00  0.00     0.017 A 
ATOM      5  C4  UNL d   1      -3.542   2.424  -3.090  0.00  0.00     0.017 A 
ATOM      6  C5  UNL d   1      -3.097   2.437  -4.415  0.00  0.00     0.034 A 
ATOM      7 Cl   UNL d   1      -3.304   0.978  -2.174  0.00  0.00    -0.070 Cl
ATOM      8 Cl1  UNL d   1      -4.731   3.623  -0.923  0.00  0.00    -0.070 Cl
ENDROOT
TORSDOF 0
ENDMDL
