MODEL 1
REMARK minimizedAffinity 8.28477955
REMARK minimizedRMSD -1
REMARK  0 active torsions:
REMARK  status: ('A' for Active; 'I' for Inactive)
ROOT
ATOM      1  C   UNL d   1       1.818  -1.072   5.042  0.00  0.00     0.020 A 
ATOM      2  C1  UNL d   1       2.065  -2.224   5.788  0.00  0.00     0.020 A 
ATOM      3  C2  UNL d   1       2.439  -3.405   5.144  0.00  0.00     0.034 A 
ATOM      4  C3  UNL d   1       2.568  -3.437   3.751  0.00  0.00     0.017 A 
ATOM      5  C4  UNL d   1       2.320  -2.280   3.003  0.00  0.00     0.017 A 
ATOM      6  C5  UNL d   1       1.946  -1.100   3.653  0.00  0.00     0.034 A 
ATOM      7 Cl   UNL d   1       2.458  -2.242   1.281  0.00  0.00    -0.070 Cl
ATOM      8 Cl1  UNL d   1       3.034  -4.932   3.021  0.00  0.00    -0.070 Cl
ENDROOT
TORSDOF 0
ENDMDL
