MODEL 1
REMARK minimizedAffinity 2.13763475
REMARK minimizedRMSD -1
REMARK  0 active torsions:
REMARK  status: ('A' for Active; 'I' for Inactive)
ROOT
ATOM      1  C   UNL d   1      -4.484   5.248  -4.303  0.00  0.00     0.020 A 
ATOM      2  C1  UNL d   1      -3.854   4.280  -5.084  0.00  0.00     0.020 A 
ATOM      3  C2  UNL d   1      -3.380   3.107  -4.494  0.00  0.00     0.034 A 
ATOM      4  C3  UNL d   1      -3.535   2.898  -3.119  0.00  0.00     0.017 A 
ATOM      5  C4  UNL d   1      -4.167   3.870  -2.335  0.00  0.00     0.017 A 
ATOM      6  C5  UNL d   1      -4.640   5.044  -2.932  0.00  0.00     0.034 A 
ATOM      7 Cl   UNL d   1      -4.395   3.684  -0.632  0.00  0.00    -0.070 Cl
ATOM      8 Cl1  UNL d   1      -2.925   1.424  -2.456  0.00  0.00    -0.070 Cl
ENDROOT
TORSDOF 0
ENDMDL
