MODEL 1
REMARK minimizedAffinity 11.4188356
REMARK minimizedRMSD -1
REMARK  0 active torsions:
REMARK  status: ('A' for Active; 'I' for Inactive)
ROOT
ATOM      1  C   UNL d   1      -4.327   4.255  -1.843  0.00  0.00     0.020 A 
ATOM      2  C1  UNL d   1      -4.458   4.947  -3.046  0.00  0.00     0.020 A 
ATOM      3  C2  UNL d   1      -4.146   4.315  -4.252  0.00  0.00     0.034 A 
ATOM      4  C3  UNL d   1      -3.701   2.988  -4.257  0.00  0.00     0.017 A 
ATOM      5  C4  UNL d   1      -3.570   2.294  -3.048  0.00  0.00     0.017 A 
ATOM      6  C5  UNL d   1      -3.885   2.932  -1.844  0.00  0.00     0.034 A 
ATOM      7 Cl   UNL d   1      -3.028   0.655  -2.974  0.00  0.00    -0.070 Cl
ATOM      8 Cl1  UNL d   1      -3.333   2.269  -5.785  0.00  0.00    -0.070 Cl
ENDROOT
TORSDOF 0
ENDMDL
