MODEL 1
REMARK minimizedAffinity 5.66429043
REMARK minimizedRMSD -1
REMARK  0 active torsions:
REMARK  status: ('A' for Active; 'I' for Inactive)
ROOT
ATOM      1  C   UNL d   1       2.185  -3.256   5.580  0.00  0.00     0.020 A 
ATOM      2  C1  UNL d   1       1.517  -2.092   5.958  0.00  0.00     0.020 A 
ATOM      3  C2  UNL d   1       1.241  -1.106   5.008  0.00  0.00     0.034 A 
ATOM      4  C3  UNL d   1       1.633  -1.282   3.676  0.00  0.00     0.017 A 
ATOM      5  C4  UNL d   1       2.304  -2.451   3.298  0.00  0.00     0.017 A 
ATOM      6  C5  UNL d   1       2.577  -3.435   4.253  0.00  0.00     0.034 A 
ATOM      7 Cl   UNL d   1       2.819  -2.740   1.674  0.00  0.00    -0.070 Cl
ATOM      8 Cl1  UNL d   1       1.259  -0.022   2.555  0.00  0.00    -0.070 Cl
ENDROOT
TORSDOF 0
ENDMDL
