MODEL 1
REMARK minimizedAffinity 7.05921555
REMARK minimizedRMSD -1
REMARK  0 active torsions:
REMARK  status: ('A' for Active; 'I' for Inactive)
ROOT
ATOM      1  C   UNL d   1      -2.370  -3.818   0.156  0.00  0.00     0.020 A 
ATOM      2  C1  UNL d   1      -2.305  -3.740  -1.234  0.00  0.00     0.020 A 
ATOM      3  C2  UNL d   1      -1.101  -4.004  -1.892  0.00  0.00     0.034 A 
ATOM      4  C3  UNL d   1       0.041  -4.347  -1.160  0.00  0.00     0.017 A 
ATOM      5  C4  UNL d   1      -0.026  -4.425   0.236  0.00  0.00     0.017 A 
ATOM      6  C5  UNL d   1      -1.234  -4.160   0.890  0.00  0.00     0.034 A 
ATOM      7 Cl   UNL d   1       1.341  -4.842   1.208  0.00  0.00    -0.070 Cl
ATOM      8 Cl1  UNL d   1       1.495  -4.660  -2.039  0.00  0.00    -0.070 Cl
ENDROOT
TORSDOF 0
ENDMDL
