MODEL 1
REMARK minimizedAffinity 11.4429207
REMARK minimizedRMSD -1
REMARK  0 active torsions:
REMARK  status: ('A' for Active; 'I' for Inactive)
ROOT
ATOM      1  C   UNL d   1       1.121  -1.804   5.999  0.00  0.00     0.020 A 
ATOM      2  C1  UNL d   1       1.824  -3.007   5.944  0.00  0.00     0.020 A 
ATOM      3  C2  UNL d   1       2.246  -3.513   4.713  0.00  0.00     0.034 A 
ATOM      4  C3  UNL d   1       1.966  -2.816   3.532  0.00  0.00     0.017 A 
ATOM      5  C4  UNL d   1       1.261  -1.609   3.588  0.00  0.00     0.017 A 
ATOM      6  C5  UNL d   1       0.840  -1.106   4.824  0.00  0.00     0.034 A 
ATOM      7 Cl   UNL d   1       0.878  -0.692   2.174  0.00  0.00    -0.070 Cl
ATOM      8 Cl1  UNL d   1       2.518  -3.501   2.045  0.00  0.00    -0.070 Cl
ENDROOT
TORSDOF 0
ENDMDL
