MODEL 1
REMARK minimizedAffinity 6.29975319
REMARK minimizedRMSD -1
REMARK  0 active torsions:
REMARK  status: ('A' for Active; 'I' for Inactive)
ROOT
ATOM      1  C   UNL d   1       0.480  -0.971   3.551  0.00  0.00     0.077 C 
ATOM      2  C1  UNL d   1       0.072   0.218   2.733  0.00  0.00    -0.074 A 
ATOM      3  C2  UNL d   1      -0.574   1.309   3.323  0.00  0.00    -0.005 A 
ATOM      4  C3  UNL d   1      -0.940   2.411   2.551  0.00  0.00     0.006 A 
ATOM      5  C4  UNL d   1      -0.664   2.434   1.183  0.00  0.00    -0.005 A 
ATOM      6  C5  UNL d   1      -0.019   1.352   0.576  0.00  0.00    -0.074 A 
ATOM      7  C6  UNL d   1       0.293   1.364  -0.891  0.00  0.00     0.077 C 
ATOM      8  C7  UNL d   1       0.352   0.251   1.360  0.00  0.00    -0.001 A 
ENDROOT
TORSDOF 0
ENDMDL
