MODEL 1
REMARK minimizedAffinity 3.73772907
REMARK minimizedRMSD -1
REMARK  0 active torsions:
REMARK  status: ('A' for Active; 'I' for Inactive)
ROOT
ATOM      1  C   UNL d   1      -3.495  -0.757  -1.156  0.00  0.00     0.077 C 
ATOM      2  C1  UNL d   1      -2.339   0.007  -1.730  0.00  0.00    -0.074 A 
ATOM      3  C2  UNL d   1      -1.846  -0.286  -3.006  0.00  0.00    -0.005 A 
ATOM      4  C3  UNL d   1      -0.776   0.439  -3.530  0.00  0.00     0.006 A 
ATOM      5  C4  UNL d   1      -0.190   1.464  -2.786  0.00  0.00    -0.005 A 
ATOM      6  C5  UNL d   1      -0.670   1.772  -1.509  0.00  0.00    -0.074 A 
ATOM      7  C6  UNL d   1      -0.057   2.876  -0.700  0.00  0.00     0.077 C 
ATOM      8  C7  UNL d   1      -1.749   1.043  -0.992  0.00  0.00    -0.001 A 
ENDROOT
TORSDOF 0
ENDMDL
