MODEL 1
REMARK minimizedAffinity 7.0995121
REMARK minimizedRMSD -1
REMARK  0 active torsions:
REMARK  status: ('A' for Active; 'I' for Inactive)
ROOT
ATOM      1  C   UNL d   1      -1.907   3.061   0.691  0.00  0.00     0.077 C 
ATOM      2  C1  UNL d   1      -1.669   2.086  -0.422  0.00  0.00    -0.074 A 
ATOM      3  C2  UNL d   1      -0.827   2.407  -1.492  0.00  0.00    -0.005 A 
ATOM      4  C3  UNL d   1      -0.607   1.486  -2.516  0.00  0.00     0.006 A 
ATOM      5  C4  UNL d   1      -1.226   0.236  -2.481  0.00  0.00    -0.005 A 
ATOM      6  C5  UNL d   1      -2.070  -0.104  -1.419  0.00  0.00    -0.074 A 
ATOM      7  C6  UNL d   1      -2.735  -1.447  -1.361  0.00  0.00     0.077 C 
ATOM      8  C7  UNL d   1      -2.280   0.825  -0.390  0.00  0.00    -0.001 A 
ENDROOT
TORSDOF 0
ENDMDL
