MODEL 1
REMARK minimizedAffinity 2.19093585
REMARK minimizedRMSD -1
REMARK  0 active torsions:
REMARK  status: ('A' for Active; 'I' for Inactive)
ROOT
ATOM      1  C   UNL d   1      -0.432   2.033   2.366  0.00  0.00     0.077 C 
ATOM      2  C1  UNL d   1      -0.492   2.484   0.937  0.00  0.00    -0.074 A 
ATOM      3  C2  UNL d   1      -0.743   3.822   0.616  0.00  0.00    -0.005 A 
ATOM      4  C3  UNL d   1      -0.787   4.229  -0.717  0.00  0.00     0.006 A 
ATOM      5  C4  UNL d   1      -0.581   3.304  -1.742  0.00  0.00    -0.005 A 
ATOM      6  C5  UNL d   1      -0.328   1.962  -1.440  0.00  0.00    -0.074 A 
ATOM      7  C6  UNL d   1      -0.095   0.957  -2.528  0.00  0.00     0.077 C 
ATOM      8  C7  UNL d   1      -0.279   1.562  -0.097  0.00  0.00    -0.001 A 
ENDROOT
TORSDOF 0
ENDMDL
