MODEL 1
REMARK minimizedAffinity 9.04420662
REMARK minimizedRMSD -1
REMARK  0 active torsions:
REMARK  status: ('A' for Active; 'I' for Inactive)
ROOT
ATOM      1  C   UNL d   1      -3.141  -0.918  -1.447  0.00  0.00     0.077 C 
ATOM      2  C1  UNL d   1      -2.038  -0.003  -1.888  0.00  0.00    -0.074 A 
ATOM      3  C2  UNL d   1      -1.687   0.102  -3.238  0.00  0.00    -0.005 A 
ATOM      4  C3  UNL d   1      -0.665   0.965  -3.634  0.00  0.00     0.006 A 
ATOM      5  C4  UNL d   1       0.016   1.730  -2.686  0.00  0.00    -0.005 A 
ATOM      6  C5  UNL d   1      -0.322   1.638  -1.331  0.00  0.00    -0.074 A 
ATOM      7  C6  UNL d   1       0.393   2.460  -0.301  0.00  0.00     0.077 C 
ATOM      8  C7  UNL d   1      -1.354   0.774  -0.942  0.00  0.00    -0.001 A 
ENDROOT
TORSDOF 0
ENDMDL
