MODEL 1
REMARK minimizedAffinity 0.923762023
REMARK minimizedRMSD -1
REMARK  0 active torsions:
REMARK  status: ('A' for Active; 'I' for Inactive)
ROOT
ATOM      1  C   UNL d   1      -1.048   3.376  -3.017  0.00  0.00     0.077 C 
ATOM      2  C1  UNL d   1      -0.746   2.609  -1.764  0.00  0.00    -0.074 A 
ATOM      3  C2  UNL d   1      -0.649   1.214  -1.781  0.00  0.00    -0.005 A 
ATOM      4  C3  UNL d   1      -0.358   0.514  -0.610  0.00  0.00     0.006 A 
ATOM      5  C4  UNL d   1      -0.162   1.202   0.588  0.00  0.00    -0.005 A 
ATOM      6  C5  UNL d   1      -0.253   2.597   0.625  0.00  0.00    -0.074 A 
ATOM      7  C6  UNL d   1      -0.035   3.352   1.902  0.00  0.00     0.077 C 
ATOM      8  C7  UNL d   1      -0.539   3.293  -0.558  0.00  0.00    -0.001 A 
ENDROOT
TORSDOF 0
ENDMDL
