MODEL 1
REMARK minimizedAffinity 4.48860073
REMARK minimizedRMSD -1
REMARK  0 active torsions:
REMARK  status: ('A' for Active; 'I' for Inactive)
ROOT
ATOM      1  C   UNL d   1      -0.195  -1.154   4.881  0.00  0.00     0.077 C 
ATOM      2  C1  UNL d   1      -0.216  -0.154   3.763  0.00  0.00    -0.074 A 
ATOM      3  C2  UNL d   1      -1.163   0.875   3.738  0.00  0.00    -0.005 A 
ATOM      4  C3  UNL d   1      -1.165   1.804   2.696  0.00  0.00     0.006 A 
ATOM      5  C4  UNL d   1      -0.221   1.712   1.672  0.00  0.00    -0.005 A 
ATOM      6  C5  UNL d   1       0.733   0.690   1.681  0.00  0.00    -0.074 A 
ATOM      7  C6  UNL d   1       1.760   0.583   0.593  0.00  0.00     0.077 C 
ATOM      8  C7  UNL d   1       0.733  -0.235   2.735  0.00  0.00    -0.001 A 
ENDROOT
TORSDOF 0
ENDMDL
