MODEL 1
REMARK minimizedAffinity 5.33636713
REMARK minimizedRMSD -1
REMARK  0 active torsions:
REMARK  status: ('A' for Active; 'I' for Inactive)
ROOT
ATOM      1  C   UNL d   1      -3.155  -0.351   0.122  0.00  0.00     0.077 C 
ATOM      2  C1  UNL d   1      -2.083   0.149  -0.801  0.00  0.00    -0.074 A 
ATOM      3  C2  UNL d   1      -1.158   1.108  -0.376  0.00  0.00    -0.005 A 
ATOM      4  C3  UNL d   1      -0.161   1.557  -1.242  0.00  0.00     0.006 A 
ATOM      5  C4  UNL d   1      -0.079   1.051  -2.540  0.00  0.00    -0.005 A 
ATOM      6  C5  UNL d   1      -0.994   0.091  -2.983  0.00  0.00    -0.074 A 
ATOM      7  C6  UNL d   1      -0.914  -0.470  -4.372  0.00  0.00     0.077 C 
ATOM      8  C7  UNL d   1      -1.989  -0.360  -2.104  0.00  0.00    -0.001 A 
ENDROOT
TORSDOF 0
ENDMDL
