MODEL 1
REMARK minimizedAffinity 7.27375364
REMARK minimizedRMSD -1
REMARK  0 active torsions:
REMARK  status: ('A' for Active; 'I' for Inactive)
ROOT
ATOM      1  C   UNL d   1       0.181  -0.542   4.179  0.00  0.00     0.077 C 
ATOM      2  C1  UNL d   1      -0.010   0.664   3.308  0.00  0.00    -0.074 A 
ATOM      3  C2  UNL d   1      -1.279   1.222   3.122  0.00  0.00    -0.005 A 
ATOM      4  C3  UNL d   1      -1.440   2.349   2.317  0.00  0.00     0.006 A 
ATOM      5  C4  UNL d   1      -0.336   2.930   1.691  0.00  0.00    -0.005 A 
ATOM      6  C5  UNL d   1       0.941   2.387   1.867  0.00  0.00    -0.074 A 
ATOM      7  C6  UNL d   1       2.139   3.004   1.210  0.00  0.00     0.077 C 
ATOM      8  C7  UNL d   1       1.095   1.258   2.683  0.00  0.00    -0.001 A 
ENDROOT
TORSDOF 0
ENDMDL
