MODEL 1
REMARK minimizedAffinity 7.23616838
REMARK minimizedRMSD -1
REMARK  0 active torsions:
REMARK  status: ('A' for Active; 'I' for Inactive)
ROOT
ATOM      1  C   UNL d   1       0.735   0.608   3.494  0.00  0.00     0.077 C 
ATOM      2  C1  UNL d   1       1.515   0.868   2.239  0.00  0.00    -0.074 A 
ATOM      3  C2  UNL d   1       1.323   2.043   1.505  0.00  0.00    -0.005 A 
ATOM      4  C3  UNL d   1       2.063   2.276   0.345  0.00  0.00     0.006 A 
ATOM      5  C4  UNL d   1       3.000   1.339  -0.090  0.00  0.00    -0.005 A 
ATOM      6  C5  UNL d   1       3.206   0.159   0.632  0.00  0.00    -0.074 A 
ATOM      7  C6  UNL d   1       4.217  -0.854   0.182  0.00  0.00     0.077 C 
ATOM      8  C7  UNL d   1       2.464  -0.065   1.799  0.00  0.00    -0.001 A 
ENDROOT
TORSDOF 0
ENDMDL
