MODEL 1
REMARK minimizedAffinity 17.4140587
REMARK minimizedRMSD -1
REMARK  0 active torsions:
REMARK  status: ('A' for Active; 'I' for Inactive)
ROOT
ATOM      1  C   UNL d   1       1.736   5.816  -5.191  0.00  0.00     0.077 C 
ATOM      2  C1  UNL d   1       3.215   5.819  -4.942  0.00  0.00    -0.074 A 
ATOM      3  C2  UNL d   1       4.121   5.990  -5.993  0.00  0.00    -0.005 A 
ATOM      4  C3  UNL d   1       5.493   6.000  -5.745  0.00  0.00     0.006 A 
ATOM      5  C4  UNL d   1       5.973   5.839  -4.444  0.00  0.00    -0.005 A 
ATOM      6  C5  UNL d   1       5.082   5.668  -3.380  0.00  0.00    -0.074 A 
ATOM      7  C6  UNL d   1       5.580   5.504  -1.975  0.00  0.00     0.077 C 
ATOM      8  C7  UNL d   1       3.704   5.666  -3.637  0.00  0.00    -0.001 A 
ENDROOT
TORSDOF 0
ENDMDL
