MODEL 1
REMARK minimizedAffinity 3.16457725
REMARK minimizedRMSD -1
REMARK  0 active torsions:
REMARK  status: ('A' for Active; 'I' for Inactive)
ROOT
ATOM      1  C   UNL d   1       3.014   1.963  -3.463  0.00  0.00     0.077 C 
ATOM      2  C1  UNL d   1       3.407   1.337  -2.158  0.00  0.00    -0.074 A 
ATOM      3  C2  UNL d   1       4.736   0.988  -1.900  0.00  0.00    -0.005 A 
ATOM      4  C3  UNL d   1       5.088   0.416  -0.678  0.00  0.00     0.006 A 
ATOM      5  C4  UNL d   1       4.116   0.186   0.297  0.00  0.00    -0.005 A 
ATOM      6  C5  UNL d   1       2.782   0.529   0.056  0.00  0.00    -0.074 A 
ATOM      7  C6  UNL d   1       1.726   0.298   1.097  0.00  0.00     0.077 C 
ATOM      8  C7  UNL d   1       2.437   1.110  -1.171  0.00  0.00    -0.001 A 
ENDROOT
TORSDOF 0
ENDMDL
