MODEL 1
REMARK minimizedAffinity 6.2904582
REMARK minimizedRMSD -1
REMARK  0 active torsions:
REMARK  status: ('A' for Active; 'I' for Inactive)
ROOT
ATOM      1  C   UNL d   1       1.034   2.013   1.926  0.00  0.00     0.077 C 
ATOM      2  C1  UNL d   1       2.076   1.496   0.979  0.00  0.00    -0.074 A 
ATOM      3  C2  UNL d   1       3.169   0.758   1.446  0.00  0.00    -0.005 A 
ATOM      4  C3  UNL d   1       4.125   0.276   0.553  0.00  0.00     0.006 A 
ATOM      5  C4  UNL d   1       4.000   0.526  -0.814  0.00  0.00    -0.005 A 
ATOM      6  C5  UNL d   1       2.914   1.262  -1.299  0.00  0.00    -0.074 A 
ATOM      7  C6  UNL d   1       2.758   1.531  -2.767  0.00  0.00     0.077 C 
ATOM      8  C7  UNL d   1       1.953   1.737  -0.396  0.00  0.00    -0.001 A 
ENDROOT
TORSDOF 0
ENDMDL
