MODEL 1
REMARK minimizedAffinity 10.5599146
REMARK minimizedRMSD -1
REMARK  0 active torsions:
REMARK  status: ('A' for Active; 'I' for Inactive)
ROOT
ATOM      1  C   UNL d   1      -6.000  -3.002  -4.873  0.00  0.00     0.077 C 
ATOM      2  C1  UNL d   1      -5.337  -3.634  -3.685  0.00  0.00    -0.074 A 
ATOM      3  C2  UNL d   1      -5.733  -4.895  -3.227  0.00  0.00    -0.005 A 
ATOM      4  C3  UNL d   1      -5.100  -5.474  -2.127  0.00  0.00     0.006 A 
ATOM      5  C4  UNL d   1      -4.067  -4.799  -1.475  0.00  0.00    -0.005 A 
ATOM      6  C5  UNL d   1      -3.657  -3.538  -1.920  0.00  0.00    -0.074 A 
ATOM      7  C6  UNL d   1      -2.542  -2.804  -1.236  0.00  0.00     0.077 C 
ATOM      8  C7  UNL d   1      -4.293  -2.966  -3.030  0.00  0.00    -0.001 A 
ENDROOT
TORSDOF 0
ENDMDL
