MODEL 1
REMARK minimizedAffinity 15.7060633
REMARK minimizedRMSD -1
REMARK  0 active torsions:
REMARK  status: ('A' for Active; 'I' for Inactive)
ROOT
ATOM      1  C   UNL d   1       0.713   0.452   2.963  0.00  0.00     0.077 C 
ATOM      2  C1  UNL d   1       1.539   0.849   1.776  0.00  0.00    -0.074 A 
ATOM      3  C2  UNL d   1       1.314   2.062   1.117  0.00  0.00    -0.005 A 
ATOM      4  C3  UNL d   1       2.097   2.422   0.020  0.00  0.00     0.006 A 
ATOM      5  C4  UNL d   1       3.112   1.574  -0.427  0.00  0.00    -0.005 A 
ATOM      6  C5  UNL d   1       3.352   0.358   0.220  0.00  0.00    -0.074 A 
ATOM      7  C6  UNL d   1       4.444  -0.560  -0.242  0.00  0.00     0.077 C 
ATOM      8  C7  UNL d   1       2.565   0.007   1.326  0.00  0.00    -0.001 A 
ENDROOT
TORSDOF 0
ENDMDL
