MODEL 1
REMARK minimizedAffinity 17.368721
REMARK minimizedRMSD -1
REMARK  0 active torsions:
REMARK  status: ('A' for Active; 'I' for Inactive)
ROOT
ATOM      1  C   UNL d   1      -1.194  -5.395  -3.311  0.00  0.00     0.077 C 
ATOM      2  C1  UNL d   1      -2.533  -5.372  -2.637  0.00  0.00    -0.074 A 
ATOM      3  C2  UNL d   1      -2.727  -6.000  -1.402  0.00  0.00    -0.005 A 
ATOM      4  C3  UNL d   1      -3.976  -5.961  -0.782  0.00  0.00     0.006 A 
ATOM      5  C4  UNL d   1      -5.042  -5.296  -1.390  0.00  0.00    -0.005 A 
ATOM      6  C5  UNL d   1      -4.866  -4.662  -2.623  0.00  0.00    -0.074 A 
ATOM      7  C6  UNL d   1      -5.999  -3.934  -3.285  0.00  0.00     0.077 C 
ATOM      8  C7  UNL d   1      -3.607  -4.699  -3.237  0.00  0.00    -0.001 A 
ENDROOT
TORSDOF 0
ENDMDL
