MODEL 1
REMARK minimizedAffinity 8.98796654
REMARK minimizedRMSD -1
REMARK  0 active torsions:
REMARK  status: ('A' for Active; 'I' for Inactive)
ROOT
ATOM      1  C   UNL d   1      -4.142  -3.065  -2.245  0.00  0.00     0.077 C 
ATOM      2  C1  UNL d   1      -2.861  -2.915  -1.480  0.00  0.00    -0.074 A 
ATOM      3  C2  UNL d   1      -1.691  -2.487  -2.114  0.00  0.00    -0.005 A 
ATOM      4  C3  UNL d   1      -0.509  -2.343  -1.388  0.00  0.00     0.006 A 
ATOM      5  C4  UNL d   1      -0.485  -2.626  -0.022  0.00  0.00    -0.005 A 
ATOM      6  C5  UNL d   1      -1.646  -3.054   0.630  0.00  0.00    -0.074 A 
ATOM      7  C6  UNL d   1      -1.640  -3.353   2.100  0.00  0.00     0.077 C 
ATOM      8  C7  UNL d   1      -2.831  -3.190  -0.105  0.00  0.00    -0.001 A 
ENDROOT
TORSDOF 0
ENDMDL
