MODEL 1
REMARK minimizedAffinity 5.31629992
REMARK minimizedRMSD -1
REMARK  0 active torsions:
REMARK  status: ('A' for Active; 'I' for Inactive)
ROOT
ATOM      1  C   UNL d   1       0.574  -1.668   0.844  0.00  0.00     0.077 C 
ATOM      2  C1  UNL d   1      -0.619  -2.578   0.857  0.00  0.00    -0.074 A 
ATOM      3  C2  UNL d   1      -1.762  -2.275   0.110  0.00  0.00    -0.005 A 
ATOM      4  C3  UNL d   1      -2.859  -3.136   0.124  0.00  0.00     0.006 A 
ATOM      5  C4  UNL d   1      -2.825  -4.306   0.884  0.00  0.00    -0.005 A 
ATOM      6  C5  UNL d   1      -1.690  -4.626   1.636  0.00  0.00    -0.074 A 
ATOM      7  C6  UNL d   1      -1.633  -5.884   2.450  0.00  0.00     0.077 C 
ATOM      8  C7  UNL d   1      -0.589  -3.759   1.611  0.00  0.00    -0.001 A 
ENDROOT
TORSDOF 0
ENDMDL
