MODEL 1
REMARK minimizedAffinity 2.12145686
REMARK minimizedRMSD -1
REMARK  0 active torsions:
REMARK  status: ('A' for Active; 'I' for Inactive)
ROOT
ATOM      1  C   UNL d   1      -3.403  -5.989   1.504  0.00  0.00     0.077 C 
ATOM      2  C1  UNL d   1      -2.747  -4.775   0.917  0.00  0.00    -0.074 A 
ATOM      3  C2  UNL d   1      -1.771  -4.070   1.629  0.00  0.00    -0.005 A 
ATOM      4  C3  UNL d   1      -1.163  -2.948   1.067  0.00  0.00     0.006 A 
ATOM      5  C4  UNL d   1      -1.525  -2.519  -0.211  0.00  0.00    -0.005 A 
ATOM      6  C5  UNL d   1      -2.498  -3.211  -0.938  0.00  0.00    -0.074 A 
ATOM      7  C6  UNL d   1      -2.891  -2.770  -2.317  0.00  0.00     0.077 C 
ATOM      8  C7  UNL d   1      -3.099  -4.342  -0.369  0.00  0.00    -0.001 A 
ENDROOT
TORSDOF 0
ENDMDL
