MODEL 1
REMARK minimizedAffinity 11.8144541
REMARK minimizedRMSD -1
REMARK  0 active torsions:
REMARK  status: ('A' for Active; 'I' for Inactive)
ROOT
ATOM      1  C   UNL d   1      -4.229  -5.661   1.409  0.00  0.00     0.077 C 
ATOM      2  C1  UNL d   1      -3.221  -4.602   1.072  0.00  0.00    -0.074 A 
ATOM      3  C2  UNL d   1      -2.125  -4.361   1.908  0.00  0.00    -0.005 A 
ATOM      4  C3  UNL d   1      -1.191  -3.380   1.577  0.00  0.00     0.006 A 
ATOM      5  C4  UNL d   1      -1.342  -2.631   0.410  0.00  0.00    -0.005 A 
ATOM      6  C5  UNL d   1      -2.431  -2.858  -0.438  0.00  0.00    -0.074 A 
ATOM      7  C6  UNL d   1      -2.603  -2.068  -1.701  0.00  0.00     0.077 C 
ATOM      8  C7  UNL d   1      -3.362  -3.850  -0.103  0.00  0.00    -0.001 A 
ENDROOT
TORSDOF 0
ENDMDL
