MODEL 1
REMARK minimizedAffinity 1.62040353
REMARK minimizedRMSD -1
REMARK  0 active torsions:
REMARK  status: ('A' for Active; 'I' for Inactive)
ROOT
ATOM      1  C   UNL d   1       3.740   0.976  -2.298  0.00  0.00     0.077 C 
ATOM      2  C1  UNL d   1       3.658   0.633  -0.840  0.00  0.00    -0.074 A 
ATOM      3  C2  UNL d   1       4.640  -0.155  -0.231  0.00  0.00    -0.005 A 
ATOM      4  C3  UNL d   1       4.555  -0.458   1.128  0.00  0.00     0.006 A 
ATOM      5  C4  UNL d   1       3.489   0.023   1.890  0.00  0.00    -0.005 A 
ATOM      6  C5  UNL d   1       2.499   0.813   1.298  0.00  0.00    -0.074 A 
ATOM      7  C6  UNL d   1       1.352   1.346   2.105  0.00  0.00     0.077 C 
ATOM      8  C7  UNL d   1       2.595   1.119  -0.066  0.00  0.00    -0.001 A 
ENDROOT
TORSDOF 0
ENDMDL
