MODEL 1
REMARK minimizedAffinity 5.46634865
REMARK minimizedRMSD -1
REMARK  0 active torsions:
REMARK  status: ('A' for Active; 'I' for Inactive)
ROOT
ATOM      1  C   UNL d   1       1.242   1.019   2.365  0.00  0.00     0.077 C 
ATOM      2  C1  UNL d   1       2.367   0.740   1.414  0.00  0.00    -0.074 A 
ATOM      3  C2  UNL d   1       3.490   0.013   1.824  0.00  0.00    -0.005 A 
ATOM      4  C3  UNL d   1       4.525  -0.248   0.926  0.00  0.00     0.006 A 
ATOM      5  C4  UNL d   1       4.448   0.215  -0.389  0.00  0.00    -0.005 A 
ATOM      6  C5  UNL d   1       3.333   0.943  -0.816  0.00  0.00    -0.074 A 
ATOM      7  C6  UNL d   1       3.230   1.439  -2.228  0.00  0.00     0.077 C 
ATOM      8  C7  UNL d   1       2.294   1.195   0.090  0.00  0.00    -0.001 A 
ENDROOT
TORSDOF 0
ENDMDL
