MODEL 1
REMARK minimizedAffinity -1.18148911
REMARK minimizedRMSD -1
REMARK  0 active torsions:
REMARK  status: ('A' for Active; 'I' for Inactive)
ROOT
ATOM      1  C   UNL d   1      -1.500   5.032  -1.655  0.00  0.00     0.077 C 
ATOM      2  C1  UNL d   1      -2.955   5.376  -1.777  0.00  0.00    -0.074 A 
ATOM      3  C2  UNL d   1      -3.517   5.690  -3.018  0.00  0.00    -0.005 A 
ATOM      4  C3  UNL d   1      -4.874   5.998  -3.118  0.00  0.00     0.006 A 
ATOM      5  C4  UNL d   1      -5.680   5.997  -1.979  0.00  0.00    -0.005 A 
ATOM      6  C5  UNL d   1      -5.135   5.685  -0.729  0.00  0.00    -0.074 A 
ATOM      7  C6  UNL d   1      -5.990   5.668   0.504  0.00  0.00     0.077 C 
ATOM      8  C7  UNL d   1      -3.773   5.368  -0.639  0.00  0.00    -0.001 A 
ENDROOT
TORSDOF 0
ENDMDL
