MODEL 1
REMARK minimizedAffinity 14.7052708
REMARK minimizedRMSD -1
REMARK  0 active torsions:
REMARK  status: ('A' for Active; 'I' for Inactive)
ROOT
ATOM      1  C   UNL d   1      -2.014  -6.000   2.531  0.00  0.00     0.077 C 
ATOM      2  C1  UNL d   1      -1.866  -4.543   2.207  0.00  0.00    -0.074 A 
ATOM      3  C2  UNL d   1      -1.617  -3.604   3.213  0.00  0.00    -0.005 A 
ATOM      4  C3  UNL d   1      -1.473  -2.254   2.896  0.00  0.00     0.006 A 
ATOM      5  C4  UNL d   1      -1.575  -1.829   1.570  0.00  0.00    -0.005 A 
ATOM      6  C5  UNL d   1      -1.822  -2.753   0.550  0.00  0.00    -0.074 A 
ATOM      7  C6  UNL d   1      -1.924  -2.315  -0.880  0.00  0.00     0.077 C 
ATOM      8  C7  UNL d   1      -1.959  -4.109   0.877  0.00  0.00    -0.001 A 
ENDROOT
TORSDOF 0
ENDMDL
