MODEL 1
REMARK minimizedAffinity 2.80127645
REMARK minimizedRMSD -1
REMARK  0 active torsions:
REMARK  status: ('A' for Active; 'I' for Inactive)
ROOT
ATOM      1  C   UNL d   1      -2.271  -0.015   2.218  0.00  0.00     0.077 C 
ATOM      2  C1  UNL d   1      -1.176   0.984   1.988  0.00  0.00    -0.074 A 
ATOM      3  C2  UNL d   1      -1.429   2.357   2.059  0.00  0.00    -0.005 A 
ATOM      4  C3  UNL d   1      -0.399   3.274   1.852  0.00  0.00     0.006 A 
ATOM      5  C4  UNL d   1       0.893   2.827   1.573  0.00  0.00    -0.005 A 
ATOM      6  C5  UNL d   1       1.166   1.458   1.499  0.00  0.00    -0.074 A 
ATOM      7  C6  UNL d   1       2.551   0.961   1.210  0.00  0.00     0.077 C 
ATOM      8  C7  UNL d   1       0.127   0.543   1.715  0.00  0.00    -0.001 A 
ENDROOT
TORSDOF 0
ENDMDL
