MODEL 1
REMARK minimizedAffinity 0.985824466
REMARK minimizedRMSD -1
REMARK  0 active torsions:
REMARK  status: ('A' for Active; 'I' for Inactive)
ROOT
ATOM      1  C   UNL d   1      -1.071   3.015   2.209  0.00  0.00     0.077 C 
ATOM      2  C1  UNL d   1      -2.102   2.171   2.896  0.00  0.00    -0.074 A 
ATOM      3  C2  UNL d   1      -2.151   0.788   2.693  0.00  0.00    -0.005 A 
ATOM      4  C3  UNL d   1      -3.110   0.015   3.347  0.00  0.00     0.006 A 
ATOM      5  C4  UNL d   1      -4.029   0.616   4.208  0.00  0.00    -0.005 A 
ATOM      6  C5  UNL d   1      -3.996   1.997   4.424  0.00  0.00    -0.074 A 
ATOM      7  C6  UNL d   1      -4.970   2.657   5.354  0.00  0.00     0.077 C 
ATOM      8  C7  UNL d   1      -3.024   2.766   3.769  0.00  0.00    -0.001 A 
ENDROOT
TORSDOF 0
ENDMDL
