MODEL 1
REMARK minimizedAffinity 6.9533391
REMARK minimizedRMSD -1
REMARK  0 active torsions:
REMARK  status: ('A' for Active; 'I' for Inactive)
ROOT
ATOM      1  C   UNL d   1       2.735   1.043   0.779  0.00  0.00     0.077 C 
ATOM      2  C1  UNL d   1       1.342   1.398   1.204  0.00  0.00    -0.074 A 
ATOM      3  C2  UNL d   1       0.823   0.942   2.421  0.00  0.00    -0.005 A 
ATOM      4  C3  UNL d   1      -0.471   1.289   2.807  0.00  0.00     0.006 A 
ATOM      5  C4  UNL d   1      -1.259   2.094   1.983  0.00  0.00    -0.005 A 
ATOM      6  C5  UNL d   1      -0.757   2.560   0.764  0.00  0.00    -0.074 A 
ATOM      7  C6  UNL d   1      -1.587   3.434  -0.129  0.00  0.00     0.077 C 
ATOM      8  C7  UNL d   1       0.547   2.213   0.386  0.00  0.00    -0.001 A 
ENDROOT
TORSDOF 0
ENDMDL
