MODEL 1
REMARK minimizedAffinity 12.222599
REMARK minimizedRMSD -1
REMARK  0 active torsions:
REMARK  status: ('A' for Active; 'I' for Inactive)
ROOT
ATOM      1  C   UNL d   1       1.874  -3.230  -1.503  0.00  0.00     0.023 A 
ATOM      2  C1  UNL d   1       2.993  -3.122  -0.677  0.00  0.00     0.003 A 
ATOM      3  C2  UNL d   1       3.512  -1.864  -0.362  0.00  0.00     0.048 A 
ATOM      4  C3  UNL d   1       2.905  -0.718  -0.876  0.00  0.00     0.023 A 
ATOM      5  C4  UNL d   1       1.785  -0.821  -1.702  0.00  0.00     0.048 A 
ATOM      6  C5  UNL d   1       1.271  -2.081  -2.014  0.00  0.00     0.003 A 
ATOM      7  I   UNL d   1       3.674   1.156  -0.408  0.00  0.00    -0.146 I 
ENDROOT
TORSDOF 0
ENDMDL
