MODEL 1
REMARK minimizedAffinity 8.86822701
REMARK minimizedRMSD -1
REMARK  0 active torsions:
REMARK  status: ('A' for Active; 'I' for Inactive)
ROOT
ATOM      1  C   UNL d   1       1.901   0.276  -2.803  0.00  0.00     0.023 A 
ATOM      2  C1  UNL d   1       2.254   0.270  -1.454  0.00  0.00     0.003 A 
ATOM      3  C2  UNL d   1       2.625  -0.924  -0.833  0.00  0.00     0.048 A 
ATOM      4  C3  UNL d   1       2.642  -2.109  -1.568  0.00  0.00     0.023 A 
ATOM      5  C4  UNL d   1       2.291  -2.108  -2.918  0.00  0.00     0.048 A 
ATOM      6  C5  UNL d   1       1.919  -0.912  -3.535  0.00  0.00     0.003 A 
ATOM      7  I   UNL d   1       3.195  -3.888  -0.646  0.00  0.00    -0.146 I 
ENDROOT
TORSDOF 0
ENDMDL
