MODEL 1
REMARK minimizedAffinity 16.6834469
REMARK minimizedRMSD -1
REMARK  0 active torsions:
REMARK  status: ('A' for Active; 'I' for Inactive)
ROOT
ATOM      1  C   UNL d   1      -3.524  -0.651   1.870  0.00  0.00     0.023 A 
ATOM      2  C1  UNL d   1      -3.005   0.643   1.828  0.00  0.00     0.003 A 
ATOM      3  C2  UNL d   1      -2.828   1.365   3.010  0.00  0.00     0.048 A 
ATOM      4  C3  UNL d   1      -3.172   0.786   4.232  0.00  0.00     0.023 A 
ATOM      5  C4  UNL d   1      -3.691  -0.509   4.279  0.00  0.00     0.048 A 
ATOM      6  C5  UNL d   1      -3.867  -1.226   3.094  0.00  0.00     0.003 A 
ATOM      7  I   UNL d   1      -2.909   1.858   5.993  0.00  0.00    -0.146 I 
ENDROOT
TORSDOF 0
ENDMDL
