MODEL 1
REMARK minimizedAffinity -2.83282733
REMARK minimizedRMSD -1
REMARK  0 active torsions:
REMARK  status: ('A' for Active; 'I' for Inactive)
ROOT
ATOM      1  C   UNL d   1      -5.610  -3.800   4.094  0.00  0.00     0.023 A 
ATOM      2  C1  UNL d   1      -5.040  -5.072   4.042  0.00  0.00     0.003 A 
ATOM      3  C2  UNL d   1      -4.854  -5.705   2.811  0.00  0.00     0.048 A 
ATOM      4  C3  UNL d   1      -5.240  -5.060   1.636  0.00  0.00     0.023 A 
ATOM      5  C4  UNL d   1      -5.810  -3.787   1.684  0.00  0.00     0.048 A 
ATOM      6  C5  UNL d   1      -5.995  -3.158   2.917  0.00  0.00     0.003 A 
ATOM      7  I   UNL d   1      -4.964  -6.000  -0.197  0.00  0.00    -0.146 I 
ENDROOT
TORSDOF 0
ENDMDL
