MODEL 1
REMARK minimizedAffinity 11.5258465
REMARK minimizedRMSD -1
REMARK  0 active torsions:
REMARK  status: ('A' for Active; 'I' for Inactive)
ROOT
ATOM      1  C   UNL d   1       1.541  -1.851  -1.829  0.00  0.00     0.023 A 
ATOM      2  C1  UNL d   1       1.710  -3.022  -2.567  0.00  0.00     0.003 A 
ATOM      3  C2  UNL d   1       2.621  -3.991  -2.144  0.00  0.00     0.048 A 
ATOM      4  C3  UNL d   1       3.361  -3.783  -0.980  0.00  0.00     0.023 A 
ATOM      5  C4  UNL d   1       3.195  -2.613  -0.237  0.00  0.00     0.048 A 
ATOM      6  C5  UNL d   1       2.283  -1.647  -0.665  0.00  0.00     0.003 A 
ATOM      7  I   UNL d   1       4.718  -5.224  -0.347  0.00  0.00    -0.146 I 
ENDROOT
TORSDOF 0
ENDMDL
