MODEL 1
REMARK minimizedAffinity 10.9730825
REMARK minimizedRMSD -1
REMARK  0 active torsions:
REMARK  status: ('A' for Active; 'I' for Inactive)
ROOT
ATOM      1  C   UNL d   1       1.596  -4.604  -3.364  0.00  0.00     0.023 A 
ATOM      2  C1  UNL d   1       2.276  -5.804  -3.575  0.00  0.00     0.003 A 
ATOM      3  C2  UNL d   1       3.540  -6.000  -3.015  0.00  0.00     0.048 A 
ATOM      4  C3  UNL d   1       4.118  -4.992  -2.244  0.00  0.00     0.023 A 
ATOM      5  C4  UNL d   1       3.442  -3.790  -2.029  0.00  0.00     0.048 A 
ATOM      6  C5  UNL d   1       2.178  -3.599  -2.592  0.00  0.00     0.003 A 
ATOM      7  I   UNL d   1       6.000  -5.281  -1.409  0.00  0.00    -0.146 I 
ENDROOT
TORSDOF 0
ENDMDL
