MODEL 1
REMARK minimizedAffinity 7.50697994
REMARK minimizedRMSD -1
REMARK  0 active torsions:
REMARK  status: ('A' for Active; 'I' for Inactive)
ROOT
ATOM      1  C   UNL d   1       1.562   3.952  -0.802  0.00  0.00     0.023 A 
ATOM      2  C1  UNL d   1       1.017   4.703   0.239  0.00  0.00     0.003 A 
ATOM      3  C2  UNL d   1       0.991   4.186   1.536  0.00  0.00     0.048 A 
ATOM      4  C3  UNL d   1       1.513   2.917   1.785  0.00  0.00     0.023 A 
ATOM      5  C4  UNL d   1       2.060   2.162   0.747  0.00  0.00     0.048 A 
ATOM      6  C5  UNL d   1       2.083   2.683  -0.549  0.00  0.00     0.003 A 
ATOM      7  I   UNL d   1       1.477   2.146   3.715  0.00  0.00    -0.146 I 
ENDROOT
TORSDOF 0
ENDMDL
