MODEL 1
REMARK minimizedAffinity 11.1618109
REMARK minimizedRMSD -1
REMARK  0 active torsions:
REMARK  status: ('A' for Active; 'I' for Inactive)
ROOT
ATOM      1  C   UNL d   1       1.885   1.484   4.039  0.00  0.00     0.023 A 
ATOM      2  C1  UNL d   1       0.760   1.512   3.214  0.00  0.00     0.003 A 
ATOM      3  C2  UNL d   1      -0.519   1.536   3.775  0.00  0.00     0.048 A 
ATOM      4  C3  UNL d   1      -0.665   1.532   5.162  0.00  0.00     0.023 A 
ATOM      5  C4  UNL d   1       0.457   1.505   5.991  0.00  0.00     0.048 A 
ATOM      6  C5  UNL d   1       1.733   1.481   5.426  0.00  0.00     0.003 A 
ATOM      7  I   UNL d   1      -2.567   1.568   5.999  0.00  0.00    -0.146 I 
ENDROOT
TORSDOF 0
ENDMDL
