MODEL 1
REMARK minimizedAffinity 8.65426826
REMARK minimizedRMSD -1
REMARK  0 active torsions:
REMARK  status: ('A' for Active; 'I' for Inactive)
ROOT
ATOM      1  C   UNL d   1      -2.755   1.499   3.322  0.00  0.00     0.023 A 
ATOM      2  C1  UNL d   1      -3.997   1.424   3.953  0.00  0.00     0.003 A 
ATOM      3  C2  UNL d   1      -4.929   0.467   3.548  0.00  0.00     0.048 A 
ATOM      4  C3  UNL d   1      -4.613  -0.413   2.513  0.00  0.00     0.023 A 
ATOM      5  C4  UNL d   1      -3.372  -0.341   1.880  0.00  0.00     0.048 A 
ATOM      6  C5  UNL d   1      -2.443   0.618   2.287  0.00  0.00     0.003 A 
ATOM      7  I   UNL d   1      -6.000  -1.839   1.910  0.00  0.00    -0.146 I 
ENDROOT
TORSDOF 0
ENDMDL
