MODEL 1
REMARK minimizedAffinity 2.60869741
REMARK minimizedRMSD -1
REMARK  0 active torsions:
REMARK  status: ('A' for Active; 'I' for Inactive)
ROOT
ATOM      1  C   UNL d   1       3.675  -5.266  -2.102  0.00  0.00     0.023 A 
ATOM      2  C1  UNL d   1       4.310  -4.849  -0.932  0.00  0.00     0.003 A 
ATOM      3  C2  UNL d   1       4.090  -3.562  -0.436  0.00  0.00     0.048 A 
ATOM      4  C3  UNL d   1       3.232  -2.697  -1.116  0.00  0.00     0.023 A 
ATOM      5  C4  UNL d   1       2.594  -3.110  -2.286  0.00  0.00     0.048 A 
ATOM      6  C5  UNL d   1       2.819  -4.397  -2.778  0.00  0.00     0.003 A 
ATOM      7  I   UNL d   1       2.902  -0.782  -0.380  0.00  0.00    -0.146 I 
ENDROOT
TORSDOF 0
ENDMDL
