MODEL 1
REMARK minimizedAffinity -2.0661974
REMARK minimizedRMSD -1
REMARK  0 active torsions:
REMARK  status: ('A' for Active; 'I' for Inactive)
ROOT
ATOM      1  C   UNL d   1       5.353  -4.687  -5.713  0.00  0.00     0.023 A 
ATOM      2  C1  UNL d   1       5.353  -5.352  -4.487  0.00  0.00     0.003 A 
ATOM      3  C2  UNL d   1       4.359  -5.081  -3.544  0.00  0.00     0.048 A 
ATOM      4  C3  UNL d   1       3.367  -4.145  -3.835  0.00  0.00     0.023 A 
ATOM      5  C4  UNL d   1       3.362  -3.478  -5.061  0.00  0.00     0.048 A 
ATOM      6  C5  UNL d   1       4.359  -3.751  -6.000  0.00  0.00     0.003 A 
ATOM      7  I   UNL d   1       1.887  -3.740  -2.433  0.00  0.00    -0.146 I 
ENDROOT
TORSDOF 0
ENDMDL
