MODEL 1
REMARK minimizedAffinity 20.5606613
REMARK minimizedRMSD -1
REMARK  0 active torsions:
REMARK  status: ('A' for Active; 'I' for Inactive)
ROOT
ATOM      1  C   UNL d   1       1.561   1.850   5.330  0.00  0.00     0.023 A 
ATOM      2  C1  UNL d   1       0.394   2.217   6.000  0.00  0.00     0.003 A 
ATOM      3  C2  UNL d   1      -0.833   2.192   5.333  0.00  0.00     0.048 A 
ATOM      4  C3  UNL d   1      -0.886   1.798   3.997  0.00  0.00     0.023 A 
ATOM      5  C4  UNL d   1       0.279   1.429   3.322  0.00  0.00     0.048 A 
ATOM      6  C5  UNL d   1       1.503   1.456   3.993  0.00  0.00     0.003 A 
ATOM      7  I   UNL d   1      -2.711   1.760   3.003  0.00  0.00    -0.146 I 
ENDROOT
TORSDOF 0
ENDMDL
