MODEL 1
REMARK minimizedAffinity 2.23210239
REMARK minimizedRMSD -1
REMARK  0 active torsions:
REMARK  status: ('A' for Active; 'I' for Inactive)
ROOT
ATOM      1  C   UNL d   1       2.326  -3.781  -3.802  0.00  0.00     0.023 A 
ATOM      2  C1  UNL d   1       1.725  -3.588  -2.558  0.00  0.00     0.003 A 
ATOM      3  C2  UNL d   1       2.395  -3.964  -1.392  0.00  0.00     0.048 A 
ATOM      4  C3  UNL d   1       3.666  -4.532  -1.477  0.00  0.00     0.023 A 
ATOM      5  C4  UNL d   1       4.271  -4.726  -2.720  0.00  0.00     0.048 A 
ATOM      6  C5  UNL d   1       3.597  -4.349  -3.883  0.00  0.00     0.003 A 
ATOM      7  I   UNL d   1       4.665  -5.092   0.257  0.00  0.00    -0.146 I 
ENDROOT
TORSDOF 0
ENDMDL
