MODEL 1
REMARK minimizedAffinity 3.85508752
REMARK minimizedRMSD -1
REMARK  0 active torsions:
REMARK  status: ('A' for Active; 'I' for Inactive)
ROOT
ATOM      1  C   UNL d   1       2.669  -3.561  -1.090  0.00  0.00     0.023 A 
ATOM      2  C1  UNL d   1       3.880  -4.118  -0.680  0.00  0.00     0.003 A 
ATOM      3  C2  UNL d   1       4.837  -4.486  -1.627  0.00  0.00     0.048 A 
ATOM      4  C3  UNL d   1       4.577  -4.295  -2.984  0.00  0.00     0.023 A 
ATOM      5  C4  UNL d   1       3.366  -3.737  -3.399  0.00  0.00     0.048 A 
ATOM      6  C5  UNL d   1       2.412  -3.371  -2.448  0.00  0.00     0.003 A 
ATOM      7  I   UNL d   1       6.000  -4.842  -4.396  0.00  0.00    -0.146 I 
ENDROOT
TORSDOF 0
ENDMDL
