MODEL 1
REMARK minimizedAffinity 9.91851044
REMARK minimizedRMSD -1
REMARK  0 active torsions:
REMARK  status: ('A' for Active; 'I' for Inactive)
ROOT
ATOM      1  C   UNL d   1       2.886  -2.686  -1.258  0.00  0.00     0.023 A 
ATOM      2  C1  UNL d   1       2.558  -2.759  -2.612  0.00  0.00     0.003 A 
ATOM      3  C2  UNL d   1       1.953  -1.671  -3.244  0.00  0.00     0.048 A 
ATOM      4  C3  UNL d   1       1.680  -0.513  -2.517  0.00  0.00     0.023 A 
ATOM      5  C4  UNL d   1       2.008  -0.435  -1.162  0.00  0.00     0.048 A 
ATOM      6  C5  UNL d   1       2.611  -1.526  -0.534  0.00  0.00     0.003 A 
ATOM      7  I   UNL d   1       0.780   1.108  -3.456  0.00  0.00    -0.146 I 
ENDROOT
TORSDOF 0
ENDMDL
