MODEL 1
REMARK minimizedAffinity 7.68423939
REMARK minimizedRMSD -1
REMARK  0 active torsions:
REMARK  status: ('A' for Active; 'I' for Inactive)
ROOT
ATOM      1  C   UNL d   1      -4.057  -1.502   2.654  0.00  0.00     0.023 A 
ATOM      2  C1  UNL d   1      -3.762  -0.197   2.259  0.00  0.00     0.003 A 
ATOM      3  C2  UNL d   1      -3.473   0.776   3.218  0.00  0.00     0.048 A 
ATOM      4  C3  UNL d   1      -3.480   0.437   4.570  0.00  0.00     0.023 A 
ATOM      5  C4  UNL d   1      -3.774  -0.867   4.970  0.00  0.00     0.048 A 
ATOM      6  C5  UNL d   1      -4.063  -1.837   4.008  0.00  0.00     0.003 A 
ATOM      7  I   UNL d   1      -3.050   1.883   6.000  0.00  0.00    -0.146 I 
ENDROOT
TORSDOF 0
ENDMDL
