MODEL 1
REMARK minimizedAffinity 7.3093462
REMARK minimizedRMSD -1
REMARK  0 active torsions:
REMARK  status: ('A' for Active; 'I' for Inactive)
ROOT
ATOM      1  C   UNL d   1       1.850  -4.082  -2.463  0.00  0.00     0.023 A 
ATOM      2  C1  UNL d   1       1.953  -3.575  -3.759  0.00  0.00     0.003 A 
ATOM      3  C2  UNL d   1       3.143  -3.719  -4.474  0.00  0.00     0.048 A 
ATOM      4  C3  UNL d   1       4.227  -4.373  -3.889  0.00  0.00     0.023 A 
ATOM      5  C4  UNL d   1       4.128  -4.883  -2.593  0.00  0.00     0.048 A 
ATOM      6  C5  UNL d   1       2.936  -4.735  -1.881  0.00  0.00     0.003 A 
ATOM      7  I   UNL d   1       6.000  -4.589  -4.952  0.00  0.00    -0.146 I 
ENDROOT
TORSDOF 0
ENDMDL
