MODEL 1
REMARK minimizedAffinity -3.03405285
REMARK minimizedRMSD -1
REMARK  0 active torsions:
REMARK  status: ('A' for Active; 'I' for Inactive)
ROOT
ATOM      1  C   UNL d   1      -0.646   0.236  -0.859  0.00  0.00     0.172 C 
ATOM      2  N   UNL d   1      -1.623  -0.792  -0.588  0.00  0.00    -0.070 N 
ATOM      3  C1  UNL d   1      -2.664  -1.139  -1.408  0.00  0.00    -0.004 A 
ATOM      4  C2  UNL d   1      -3.362  -2.157  -0.795  0.00  0.00    -0.047 A 
ATOM      5  C3  UNL d   1      -2.720  -2.430   0.436  0.00  0.00    -0.047 A 
ATOM      6  C4  UNL d   1      -1.647  -1.570   0.539  0.00  0.00    -0.004 A 
ENDROOT
TORSDOF 0
ENDMDL
