MODEL 1
REMARK minimizedAffinity -2.93990397
REMARK minimizedRMSD -1
REMARK  0 active torsions:
REMARK  status: ('A' for Active; 'I' for Inactive)
ROOT
ATOM      1  C   UNL d   1       0.421   0.158  -0.015  0.00  0.00     0.172 C 
ATOM      2  N   UNL d   1      -0.771  -0.651  -0.122  0.00  0.00    -0.070 N 
ATOM      3  C1  UNL d   1      -1.093  -1.708   0.687  0.00  0.00    -0.004 A 
ATOM      4  C2  UNL d   1      -2.304  -2.210   0.261  0.00  0.00    -0.047 A 
ATOM      5  C3  UNL d   1      -2.723  -1.429  -0.842  0.00  0.00    -0.047 A 
ATOM      6  C4  UNL d   1      -1.755  -0.471  -1.057  0.00  0.00    -0.004 A 
ENDROOT
TORSDOF 0
ENDMDL
