MODEL 1
REMARK minimizedAffinity -4.02739429
REMARK minimizedRMSD -1
REMARK  0 active torsions:
REMARK  status: ('A' for Active; 'I' for Inactive)
ROOT
ATOM      1  C   UNL d   1      -0.534   0.209  -0.127  0.00  0.00     0.172 C 
ATOM      2  N   UNL d   1      -1.431  -0.857   0.255  0.00  0.00    -0.070 N 
ATOM      3  C1  UNL d   1      -1.158  -1.840   1.168  0.00  0.00    -0.004 A 
ATOM      4  C2  UNL d   1      -2.264  -2.659   1.249  0.00  0.00    -0.047 A 
ATOM      5  C3  UNL d   1      -3.234  -2.151   0.352  0.00  0.00    -0.047 A 
ATOM      6  C4  UNL d   1      -2.692  -1.035  -0.250  0.00  0.00    -0.004 A 
ENDROOT
TORSDOF 0
ENDMDL
