MODEL 1
REMARK minimizedAffinity -3.96994424
REMARK minimizedRMSD -1
REMARK  0 active torsions:
REMARK  status: ('A' for Active; 'I' for Inactive)
ROOT
ATOM      1  C   UNL d   1       0.563   0.082  -0.015  0.00  0.00     0.172 C 
ATOM      2  N   UNL d   1      -0.621  -0.564   0.501  0.00  0.00    -0.070 N 
ATOM      3  C1  UNL d   1      -0.659  -1.440   1.552  0.00  0.00    -0.004 A 
ATOM      4  C2  UNL d   1      -1.968  -1.830   1.731  0.00  0.00    -0.047 A 
ATOM      5  C3  UNL d   1      -2.745  -1.166   0.752  0.00  0.00    -0.047 A 
ATOM      6  C4  UNL d   1      -1.886  -0.389   0.004  0.00  0.00    -0.004 A 
ENDROOT
TORSDOF 0
ENDMDL
