MODEL 1
REMARK minimizedAffinity -3.78591228
REMARK minimizedRMSD -1
REMARK  0 active torsions:
REMARK  status: ('A' for Active; 'I' for Inactive)
ROOT
ATOM      1  C   UNL d   1      -0.484   0.409  -1.169  0.00  0.00     0.172 C 
ATOM      2  N   UNL d   1      -1.241  -0.526  -0.371  0.00  0.00    -0.070 N 
ATOM      3  C1  UNL d   1      -2.521  -0.942  -0.628  0.00  0.00    -0.004 A 
ATOM      4  C2  UNL d   1      -2.882  -1.831   0.361  0.00  0.00    -0.047 A 
ATOM      5  C3  UNL d   1      -1.782  -1.953   1.243  0.00  0.00    -0.047 A 
ATOM      6  C4  UNL d   1      -0.780  -1.135   0.766  0.00  0.00    -0.004 A 
ENDROOT
TORSDOF 0
ENDMDL
