MODEL 1
REMARK minimizedAffinity -3.86123705
REMARK minimizedRMSD -1
REMARK  0 active torsions:
REMARK  status: ('A' for Active; 'I' for Inactive)
ROOT
ATOM      1  C   UNL d   1       0.967  -0.679   0.428  0.00  0.00     0.172 C 
ATOM      2  N   UNL d   1      -0.472  -0.766   0.516  0.00  0.00    -0.070 N 
ATOM      3  C1  UNL d   1      -1.172  -1.643   1.302  0.00  0.00    -0.004 A 
ATOM      4  C2  UNL d   1      -2.515  -1.408   1.103  0.00  0.00    -0.047 A 
ATOM      5  C3  UNL d   1      -2.627  -0.355   0.165  0.00  0.00    -0.047 A 
ATOM      6  C4  UNL d   1      -1.347   0.024  -0.181  0.00  0.00    -0.004 A 
ENDROOT
TORSDOF 0
ENDMDL
