MODEL 1
REMARK minimizedAffinity -2.81014442
REMARK minimizedRMSD -1
REMARK  0 active torsions:
REMARK  status: ('A' for Active; 'I' for Inactive)
ROOT
ATOM      1  C   UNL d   1      -0.226  -0.067   0.191  0.00  0.00     0.172 C 
ATOM      2  N   UNL d   1      -1.348  -0.905   0.543  0.00  0.00    -0.070 N 
ATOM      3  C1  UNL d   1      -1.424  -1.717   1.643  0.00  0.00    -0.004 A 
ATOM      4  C2  UNL d   1      -2.650  -2.347   1.619  0.00  0.00    -0.047 A 
ATOM      5  C3  UNL d   1      -3.334  -1.898   0.464  0.00  0.00    -0.047 A 
ATOM      6  C4  UNL d   1      -2.505  -1.007  -0.184  0.00  0.00    -0.004 A 
ENDROOT
TORSDOF 0
ENDMDL
