MODEL 1
REMARK minimizedAffinity -3.94803143
REMARK minimizedRMSD -1
REMARK  0 active torsions:
REMARK  status: ('A' for Active; 'I' for Inactive)
ROOT
ATOM      1  C   UNL d   1      -0.480   0.126  -1.154  0.00  0.00     0.172 C 
ATOM      2  N   UNL d   1      -1.392  -0.416  -0.175  0.00  0.00    -0.070 N 
ATOM      3  C1  UNL d   1      -2.750  -0.522  -0.322  0.00  0.00    -0.004 A 
ATOM      4  C2  UNL d   1      -3.255  -1.089   0.828  0.00  0.00    -0.047 A 
ATOM      5  C3  UNL d   1      -2.164  -1.331   1.696  0.00  0.00    -0.047 A 
ATOM      6  C4  UNL d   1      -1.023  -0.905   1.050  0.00  0.00    -0.004 A 
ENDROOT
TORSDOF 0
ENDMDL
