MODEL 1
REMARK minimizedAffinity -1.56160975
REMARK minimizedRMSD -1
REMARK  0 active torsions:
REMARK  status: ('A' for Active; 'I' for Inactive)
ROOT
ATOM      1  C   UNL d   1       0.362  -1.650   1.159  0.00  0.00     0.172 C 
ATOM      2  N   UNL d   1      -0.109  -0.843   0.058  0.00  0.00    -0.070 N 
ATOM      3  C1  UNL d   1       0.540   0.239  -0.474  0.00  0.00    -0.004 A 
ATOM      4  C2  UNL d   1      -0.232   0.730  -1.504  0.00  0.00    -0.047 A 
ATOM      5  C3  UNL d   1      -1.386  -0.085  -1.595  0.00  0.00    -0.047 A 
ATOM      6  C4  UNL d   1      -1.283  -1.051  -0.616  0.00  0.00    -0.004 A 
ENDROOT
TORSDOF 0
ENDMDL
