MODEL 1
REMARK minimizedAffinity -0.966592371
REMARK minimizedRMSD -1
REMARK  0 active torsions:
REMARK  status: ('A' for Active; 'I' for Inactive)
ROOT
ATOM      1  C   UNL d   1       0.609  -1.751   0.757  0.00  0.00     0.172 C 
ATOM      2  N   UNL d   1       0.308  -0.758  -0.248  0.00  0.00    -0.070 N 
ATOM      3  C1  UNL d   1      -0.434  -0.967  -1.380  0.00  0.00    -0.004 A 
ATOM      4  C2  UNL d   1      -0.489   0.223  -2.073  0.00  0.00    -0.047 A 
ATOM      5  C3  UNL d   1       0.245   1.179  -1.333  0.00  0.00    -0.047 A 
ATOM      6  C4  UNL d   1       0.728   0.545  -0.208  0.00  0.00    -0.004 A 
ENDROOT
TORSDOF 0
ENDMDL
