MODEL 1
REMARK minimizedAffinity 0.12355002
REMARK minimizedRMSD -1
REMARK  0 active torsions:
REMARK  status: ('A' for Active; 'I' for Inactive)
ROOT
ATOM      1  C   UNL d   1       0.145  -1.822   1.922  0.00  0.00     0.172 C 
ATOM      2  N   UNL d   1       0.303  -0.787   0.927  0.00  0.00    -0.070 N 
ATOM      3  C1  UNL d   1       1.022   0.368   1.084  0.00  0.00    -0.004 A 
ATOM      4  C2  UNL d   1       0.928   1.086  -0.089  0.00  0.00    -0.047 A 
ATOM      5  C3  UNL d   1       0.123   0.337  -0.980  0.00  0.00    -0.047 A 
ATOM      6  C4  UNL d   1      -0.250  -0.818  -0.326  0.00  0.00    -0.004 A 
ENDROOT
TORSDOF 0
ENDMDL
