MODEL 1
REMARK minimizedAffinity -3.661659
REMARK minimizedRMSD -1
REMARK  0 active torsions:
REMARK  status: ('A' for Active; 'I' for Inactive)
ROOT
ATOM      1  C   UNL d   1       0.314  -0.090   0.697  0.00  0.00     0.172 C 
ATOM      2  N   UNL d   1      -0.975  -0.675   0.415  0.00  0.00    -0.070 N 
ATOM      3  C1  UNL d   1      -1.515  -1.761   1.051  0.00  0.00    -0.004 A 
ATOM      4  C2  UNL d   1      -2.752  -2.004   0.495  0.00  0.00    -0.047 A 
ATOM      5  C3  UNL d   1      -2.963  -1.030  -0.510  0.00  0.00    -0.047 A 
ATOM      6  C4  UNL d   1      -1.847  -0.220  -0.538  0.00  0.00    -0.004 A 
ENDROOT
TORSDOF 0
ENDMDL
