MODEL 1
REMARK minimizedAffinity -2.71004176
REMARK minimizedRMSD -1
REMARK  0 active torsions:
REMARK  status: ('A' for Active; 'I' for Inactive)
ROOT
ATOM      1  C   UNL d   1      -2.703  -1.586  -0.787  0.00  0.00     0.172 C 
ATOM      2  N   UNL d   1      -1.503  -1.205  -0.080  0.00  0.00    -0.070 N 
ATOM      3  C1  UNL d   1      -0.746  -0.093  -0.334  0.00  0.00    -0.004 A 
ATOM      4  C2  UNL d   1       0.308  -0.089   0.554  0.00  0.00    -0.047 A 
ATOM      5  C3  UNL d   1       0.180  -1.239   1.370  0.00  0.00    -0.047 A 
ATOM      6  C4  UNL d   1      -0.950  -1.912   0.955  0.00  0.00    -0.004 A 
ENDROOT
TORSDOF 0
ENDMDL
