MODEL 1
REMARK minimizedAffinity -3.93018675
REMARK minimizedRMSD -1
REMARK  0 active torsions:
REMARK  status: ('A' for Active; 'I' for Inactive)
ROOT
ATOM      1  C   UNL d   1      -0.013   0.042   0.276  0.00  0.00     0.172 C 
ATOM      2  N   UNL d   1      -1.314  -0.514  -0.014  0.00  0.00    -0.070 N 
ATOM      3  C1  UNL d   1      -1.845  -1.641   0.555  0.00  0.00    -0.004 A 
ATOM      4  C2  UNL d   1      -3.098  -1.835   0.016  0.00  0.00    -0.047 A 
ATOM      5  C3  UNL d   1      -3.328  -0.790  -0.910  0.00  0.00    -0.047 A 
ATOM      6  C4  UNL d   1      -2.207   0.014  -0.908  0.00  0.00    -0.004 A 
ENDROOT
TORSDOF 0
ENDMDL
