MODEL 1
REMARK minimizedAffinity -2.54178929
REMARK minimizedRMSD -1
REMARK  0 active torsions:
REMARK  status: ('A' for Active; 'I' for Inactive)
ROOT
ATOM      1  C   UNL d   1      -1.485  -0.322  -1.899  0.00  0.00     0.172 C 
ATOM      2  N   UNL d   1      -0.507   0.091  -0.921  0.00  0.00    -0.070 N 
ATOM      3  C1  UNL d   1       0.739  -0.453  -0.759  0.00  0.00    -0.004 A 
ATOM      4  C2  UNL d   1       1.360   0.215   0.274  0.00  0.00    -0.047 A 
ATOM      5  C3  UNL d   1       0.456   1.193   0.750  0.00  0.00    -0.047 A 
ATOM      6  C4  UNL d   1      -0.692   1.095  -0.007  0.00  0.00    -0.004 A 
ENDROOT
TORSDOF 0
ENDMDL
