MODEL 1
REMARK minimizedAffinity -3.02190971
REMARK minimizedRMSD -1
REMARK  0 active torsions:
REMARK  status: ('A' for Active; 'I' for Inactive)
ROOT
ATOM      1  C   UNL d   1      -1.018  -2.858   1.621  0.00  0.00     0.172 C 
ATOM      2  N   UNL d   1      -1.981  -2.396   0.649  0.00  0.00    -0.070 N 
ATOM      3  C1  UNL d   1      -1.784  -2.340  -0.705  0.00  0.00    -0.004 A 
ATOM      4  C2  UNL d   1      -2.936  -1.845  -1.278  0.00  0.00    -0.047 A 
ATOM      5  C3  UNL d   1      -3.856  -1.595  -0.232  0.00  0.00    -0.047 A 
ATOM      6  C4  UNL d   1      -3.239  -1.945   0.950  0.00  0.00    -0.004 A 
ENDROOT
TORSDOF 0
ENDMDL
