MODEL 1
REMARK minimizedAffinity -1.57484341
REMARK minimizedRMSD -1
REMARK  0 active torsions:
REMARK  status: ('A' for Active; 'I' for Inactive)
ROOT
ATOM      1  C   UNL d   1      -2.978  -1.531  -0.537  0.00  0.00     0.172 C 
ATOM      2  N   UNL d   1      -1.686  -0.995  -0.178  0.00  0.00    -0.070 N 
ATOM      3  C1  UNL d   1      -1.094   0.106  -0.737  0.00  0.00    -0.004 A 
ATOM      4  C2  UNL d   1       0.126   0.287  -0.122  0.00  0.00    -0.047 A 
ATOM      5  C3  UNL d   1       0.273  -0.742   0.839  0.00  0.00    -0.047 A 
ATOM      6  C4  UNL d   1      -0.863  -1.521   0.783  0.00  0.00    -0.004 A 
ENDROOT
TORSDOF 0
ENDMDL
