MODEL 1
REMARK minimizedAffinity -3.02658463
REMARK minimizedRMSD -1
REMARK  0 active torsions:
REMARK  status: ('A' for Active; 'I' for Inactive)
ROOT
ATOM      1  C   UNL d   1      -1.697   1.528  -0.378  0.00  0.00     0.020 A 
ATOM      2  C1  UNL d   1      -1.410   0.601   0.622  0.00  0.00     0.020 A 
ATOM      3  C2  UNL d   1      -0.448  -0.387   0.403  0.00  0.00     0.034 A 
ATOM      4  C3  UNL d   1       0.230  -0.450  -0.820  0.00  0.00     0.017 A 
ATOM      5  C4  UNL d   1      -0.059   0.481  -1.823  0.00  0.00     0.017 A 
ATOM      6  C5  UNL d   1      -1.023   1.469  -1.598  0.00  0.00     0.034 A 
ATOM      7 Cl   UNL d   1       0.736   0.467  -3.358  0.00  0.00    -0.070 Cl
ATOM      8 Cl1  UNL d   1       1.408  -1.698  -1.022  0.00  0.00    -0.070 Cl
ENDROOT
TORSDOF 0
ENDMDL
