MODEL 1
REMARK minimizedAffinity -2.62666607
REMARK minimizedRMSD -1
REMARK  0 active torsions:
REMARK  status: ('A' for Active; 'I' for Inactive)
ROOT
ATOM      1  C   UNL d   1       1.381  -0.549   2.966  0.00  0.00     0.020 A 
ATOM      2  C1  UNL d   1       0.244  -0.112   3.646  0.00  0.00     0.020 A 
ATOM      3  C2  UNL d   1      -0.880   0.306   2.930  0.00  0.00     0.034 A 
ATOM      4  C3  UNL d   1      -0.869   0.288   1.530  0.00  0.00     0.017 A 
ATOM      5  C4  UNL d   1       0.272  -0.150   0.849  0.00  0.00     0.017 A 
ATOM      6  C5  UNL d   1       1.394  -0.568   1.571  0.00  0.00     0.034 A 
ATOM      7 Cl   UNL d   1       0.359  -0.201  -0.876  0.00  0.00    -0.070 Cl
ATOM      8 Cl1  UNL d   1      -2.295   0.818   0.710  0.00  0.00    -0.070 Cl
ENDROOT
TORSDOF 0
ENDMDL
