MODEL 1
REMARK minimizedAffinity -1.05260575
REMARK minimizedRMSD -1
REMARK  0 active torsions:
REMARK  status: ('A' for Active; 'I' for Inactive)
ROOT
ATOM      1  C   UNL d   1      -0.925   0.097  -1.198  0.00  0.00     0.020 A 
ATOM      2  C1  UNL d   1       0.389  -0.363  -1.290  0.00  0.00     0.020 A 
ATOM      3  C2  UNL d   1       1.149  -0.541  -0.133  0.00  0.00     0.034 A 
ATOM      4  C3  UNL d   1       0.597  -0.259   1.122  0.00  0.00     0.017 A 
ATOM      5  C4  UNL d   1      -0.721   0.203   1.214  0.00  0.00     0.017 A 
ATOM      6  C5  UNL d   1      -1.478   0.379   0.051  0.00  0.00     0.034 A 
ATOM      7 Cl   UNL d   1      -1.471   0.572   2.727  0.00  0.00    -0.070 Cl
ATOM      8 Cl1  UNL d   1       1.595  -0.502   2.512  0.00  0.00    -0.070 Cl
ENDROOT
TORSDOF 0
ENDMDL
