MODEL 1
REMARK minimizedAffinity -0.122180827
REMARK minimizedRMSD -1
REMARK  0 active torsions:
REMARK  status: ('A' for Active; 'I' for Inactive)
ROOT
ATOM      1  C   UNL d   1      -2.354   1.011   0.427  0.00  0.00     0.020 A 
ATOM      2  C1  UNL d   1      -1.857   0.626   1.672  0.00  0.00     0.020 A 
ATOM      3  C2  UNL d   1      -0.647  -0.066   1.757  0.00  0.00     0.034 A 
ATOM      4  C3  UNL d   1       0.070  -0.375   0.596  0.00  0.00     0.017 A 
ATOM      5  C4  UNL d   1      -0.429   0.012  -0.653  0.00  0.00     0.017 A 
ATOM      6  C5  UNL d   1      -1.641   0.705  -0.733  0.00  0.00     0.034 A 
ATOM      7 Cl   UNL d   1       0.399  -0.334  -2.130  0.00  0.00    -0.070 Cl
ATOM      8 Cl1  UNL d   1       1.559  -1.233   0.775  0.00  0.00    -0.070 Cl
ENDROOT
TORSDOF 0
ENDMDL
