MODEL 1
REMARK minimizedAffinity 1.95563054
REMARK minimizedRMSD -1
REMARK  0 active torsions:
REMARK  status: ('A' for Active; 'I' for Inactive)
ROOT
ATOM      1  C   UNL d   1      -1.667   0.468   0.593  0.00  0.00     0.020 A 
ATOM      2  C1  UNL d   1      -2.006   1.087  -0.609  0.00  0.00     0.020 A 
ATOM      3  C2  UNL d   1      -1.209   0.900  -1.740  0.00  0.00     0.034 A 
ATOM      4  C3  UNL d   1      -0.068   0.091  -1.671  0.00  0.00     0.017 A 
ATOM      5  C4  UNL d   1       0.271  -0.531  -0.464  0.00  0.00     0.017 A 
ATOM      6  C5  UNL d   1      -0.531  -0.340   0.665  0.00  0.00     0.034 A 
ATOM      7 Cl   UNL d   1       1.662  -1.543  -0.302  0.00  0.00    -0.070 Cl
ATOM      8 Cl1  UNL d   1       0.871  -0.097  -3.109  0.00  0.00    -0.070 Cl
ENDROOT
TORSDOF 0
ENDMDL
