MODEL 1
REMARK minimizedAffinity -3.56260037
REMARK minimizedRMSD -1
REMARK  0 active torsions:
REMARK  status: ('A' for Active; 'I' for Inactive)
ROOT
ATOM      1  C   UNL d   1      -1.473   1.321  -0.451  0.00  0.00     0.020 A 
ATOM      2  C1  UNL d   1      -1.492   0.375   0.573  0.00  0.00     0.020 A 
ATOM      3  C2  UNL d   1      -0.509  -0.616   0.626  0.00  0.00     0.034 A 
ATOM      4  C3  UNL d   1       0.496  -0.663  -0.346  0.00  0.00     0.017 A 
ATOM      5  C4  UNL d   1       0.515   0.288  -1.373  0.00  0.00     0.017 A 
ATOM      6  C5  UNL d   1      -0.471   1.278  -1.422  0.00  0.00     0.034 A 
ATOM      7 Cl   UNL d   1       1.724   0.294  -2.609  0.00  0.00    -0.070 Cl
ATOM      8 Cl1  UNL d   1       1.680  -1.916  -0.219  0.00  0.00    -0.070 Cl
ENDROOT
TORSDOF 0
ENDMDL
