MODEL 1
REMARK minimizedAffinity -3.41842437
REMARK minimizedRMSD -1
REMARK  0 active torsions:
REMARK  status: ('A' for Active; 'I' for Inactive)
ROOT
ATOM      1  C   UNL d   1      -1.877   0.585   0.868  0.00  0.00     0.020 A 
ATOM      2  C1  UNL d   1      -1.717   1.732   0.090  0.00  0.00     0.020 A 
ATOM      3  C2  UNL d   1      -0.710   1.786  -0.876  0.00  0.00     0.034 A 
ATOM      4  C3  UNL d   1       0.141   0.691  -1.067  0.00  0.00     0.017 A 
ATOM      5  C4  UNL d   1      -0.020  -0.459  -0.286  0.00  0.00     0.017 A 
ATOM      6  C5  UNL d   1      -1.030  -0.508   0.680  0.00  0.00     0.034 A 
ATOM      7 Cl   UNL d   1       0.992  -1.849  -0.464  0.00  0.00    -0.070 Cl
ATOM      8 Cl1  UNL d   1       1.365   0.827  -2.279  0.00  0.00    -0.070 Cl
ENDROOT
TORSDOF 0
ENDMDL
