MODEL 1
REMARK minimizedAffinity -2.10460854
REMARK minimizedRMSD -1
REMARK  0 active torsions:
REMARK  status: ('A' for Active; 'I' for Inactive)
ROOT
ATOM      1  C   UNL d   1      -1.888   0.305   1.375  0.00  0.00     0.020 A 
ATOM      2  C1  UNL d   1      -1.207  -0.031   0.206  0.00  0.00     0.020 A 
ATOM      3  C2  UNL d   1       0.092  -0.540   0.277  0.00  0.00     0.034 A 
ATOM      4  C3  UNL d   1       0.713  -0.713   1.519  0.00  0.00     0.017 A 
ATOM      5  C4  UNL d   1       0.029  -0.375   2.692  0.00  0.00     0.017 A 
ATOM      6  C5  UNL d   1      -1.272   0.134   2.615  0.00  0.00     0.034 A 
ATOM      7 Cl   UNL d   1       0.729  -0.561   4.261  0.00  0.00    -0.070 Cl
ATOM      8 Cl1  UNL d   1       2.321  -1.347   1.532  0.00  0.00    -0.070 Cl
ENDROOT
TORSDOF 0
ENDMDL
