MODEL 1
REMARK minimizedAffinity -2.60353565
REMARK minimizedRMSD -1
REMARK  0 active torsions:
REMARK  status: ('A' for Active; 'I' for Inactive)
ROOT
ATOM      1  C   UNL d   1      -1.150   0.518   0.708  0.00  0.00     0.020 A 
ATOM      2  C1  UNL d   1      -1.536   1.452  -0.253  0.00  0.00     0.020 A 
ATOM      3  C2  UNL d   1      -0.980   1.405  -1.534  0.00  0.00     0.034 A 
ATOM      4  C3  UNL d   1      -0.035   0.424  -1.856  0.00  0.00     0.017 A 
ATOM      5  C4  UNL d   1       0.351  -0.512  -0.891  0.00  0.00     0.017 A 
ATOM      6  C5  UNL d   1      -0.209  -0.462   0.390  0.00  0.00     0.034 A 
ATOM      7 Cl   UNL d   1       1.511  -1.752  -1.214  0.00  0.00    -0.070 Cl
ATOM      8 Cl1  UNL d   1       0.610   0.426  -3.459  0.00  0.00    -0.070 Cl
ENDROOT
TORSDOF 0
ENDMDL
