MODEL 1
REMARK minimizedAffinity -4.39882374
REMARK minimizedRMSD -1
REMARK  0 active torsions:
REMARK  status: ('A' for Active; 'I' for Inactive)
ROOT
ATOM      1  C   UNL d   1       1.260  -0.708   2.573  0.00  0.00     0.020 A 
ATOM      2  C1  UNL d   1       0.051  -0.301   3.138  0.00  0.00     0.020 A 
ATOM      3  C2  UNL d   1      -1.019   0.056   2.315  0.00  0.00     0.034 A 
ATOM      4  C3  UNL d   1      -0.883   0.007   0.922  0.00  0.00     0.017 A 
ATOM      5  C4  UNL d   1       0.331  -0.401   0.357  0.00  0.00     0.017 A 
ATOM      6  C5  UNL d   1       1.399  -0.758   1.186  0.00  0.00     0.034 A 
ATOM      7 Cl   UNL d   1       0.575  -0.487  -1.352  0.00  0.00    -0.070 Cl
ATOM      8 Cl1  UNL d   1      -2.247   0.462  -0.035  0.00  0.00    -0.070 Cl
ENDROOT
TORSDOF 0
ENDMDL
