MODEL 1
REMARK minimizedAffinity -4.24910498
REMARK minimizedRMSD -1
REMARK  0 active torsions:
REMARK  status: ('A' for Active; 'I' for Inactive)
ROOT
ATOM      1  C   UNL d   1      -1.152   1.009   3.054  0.00  0.00     0.020 A 
ATOM      2  C1  UNL d   1      -1.880   1.014   1.865  0.00  0.00     0.020 A 
ATOM      3  C2  UNL d   1      -1.358   0.401   0.724  0.00  0.00     0.034 A 
ATOM      4  C3  UNL d   1      -0.104  -0.219   0.769  0.00  0.00     0.017 A 
ATOM      5  C4  UNL d   1       0.626  -0.223   1.963  0.00  0.00     0.017 A 
ATOM      6  C5  UNL d   1       0.099   0.391   3.102  0.00  0.00     0.034 A 
ATOM      7 Cl   UNL d   1       2.180  -0.968   2.096  0.00  0.00    -0.070 Cl
ATOM      8 Cl1  UNL d   1       0.480  -0.957  -0.680  0.00  0.00    -0.070 Cl
ENDROOT
TORSDOF 0
ENDMDL
