MODEL 1
REMARK minimizedAffinity -4.10322094
REMARK minimizedRMSD -1
REMARK  0 active torsions:
REMARK  status: ('A' for Active; 'I' for Inactive)
ROOT
ATOM      1  C   UNL d   1      -2.026   0.349   0.167  0.00  0.00     0.020 A 
ATOM      2  C1  UNL d   1      -1.978   0.777   1.493  0.00  0.00     0.020 A 
ATOM      3  C2  UNL d   1      -0.913   0.394   2.312  0.00  0.00     0.034 A 
ATOM      4  C3  UNL d   1       0.108  -0.418   1.806  0.00  0.00     0.017 A 
ATOM      5  C4  UNL d   1       0.059  -0.847   0.475  0.00  0.00     0.017 A 
ATOM      6  C5  UNL d   1      -1.010  -0.462  -0.341  0.00  0.00     0.034 A 
ATOM      7 Cl   UNL d   1       1.281  -1.851  -0.221  0.00  0.00    -0.070 Cl
ATOM      8 Cl1  UNL d   1       1.394  -0.852   2.875  0.00  0.00    -0.070 Cl
ENDROOT
TORSDOF 0
ENDMDL
