MODEL 1
REMARK minimizedAffinity -2.38646674
REMARK minimizedRMSD -1
REMARK  0 active torsions:
REMARK  status: ('A' for Active; 'I' for Inactive)
ROOT
ATOM      1  N1  IND d   1       0.224  -0.266  -2.454  0.00  0.00    -0.196 N 
ATOM      2  C2  IND d   1      -0.892   0.513  -2.329  0.00  0.00     0.054 A 
ATOM      3  C3  IND d   1      -1.059   0.894  -1.043  0.00  0.00    -0.031 A 
ATOM      4  C4  IND d   1       0.436   0.439   1.004  0.00  0.00     0.051 A 
ATOM      5  C5  IND d   1       1.547  -0.255   1.393  0.00  0.00    -0.031 A 
ATOM      6  C6  IND d   1       2.290  -1.001   0.502  0.00  0.00     0.015 A 
ATOM      7  C7  IND d   1       1.955  -1.072  -0.821  0.00  0.00    -0.016 A 
ATOM      8  C8  IND d   1       0.824  -0.374  -1.219  0.00  0.00    -0.047 A 
ATOM      9  C9  IND d   1       0.041   0.350  -0.310  0.00  0.00    -0.096 A 
ATOM     10  HN1 IND d   1       0.505  -0.627  -3.182  0.00  0.00     0.298 HD
ENDROOT
TORSDOF 0
ENDMDL
