MODEL 1
REMARK minimizedAffinity 0.734291017
REMARK minimizedRMSD -1
REMARK  0 active torsions:
REMARK  status: ('A' for Active; 'I' for Inactive)
ROOT
ATOM      1  N1  IND d   1      -1.069   0.460   0.138  0.00  0.00    -0.196 N 
ATOM      2  C2  IND d   1      -1.591   0.469  -1.126  0.00  0.00     0.054 A 
ATOM      3  C3  IND d   1      -0.641   0.142  -2.030  0.00  0.00    -0.031 A 
ATOM      4  C4  IND d   1       1.811  -0.544  -1.649  0.00  0.00     0.051 A 
ATOM      5  C5  IND d   1       2.757  -0.664  -0.669  0.00  0.00    -0.031 A 
ATOM      6  C6  IND d   1       2.468  -0.413   0.657  0.00  0.00     0.015 A 
ATOM      7  C7  IND d   1       1.215  -0.042   1.056  0.00  0.00    -0.016 A 
ATOM      8  C8  IND d   1       0.255   0.088   0.063  0.00  0.00    -0.047 A 
ATOM      9  C9  IND d   1       0.552  -0.124  -1.290  0.00  0.00    -0.096 A 
ATOM     10  HN1 IND d   1      -1.496   0.655   0.858  0.00  0.00     0.298 HD
ENDROOT
TORSDOF 0
ENDMDL
