MODEL 1
REMARK minimizedAffinity -3.66971564
REMARK minimizedRMSD -1
REMARK  0 active torsions:
REMARK  status: ('A' for Active; 'I' for Inactive)
ROOT
ATOM      1  N1  IND d   1       0.700  -0.184  -1.332  0.00  0.00    -0.196 N 
ATOM      2  C2  IND d   1      -0.492  -0.016  -1.980  0.00  0.00     0.054 A 
ATOM      3  C3  IND d   1      -1.520  -0.130  -1.110  0.00  0.00    -0.031 A 
ATOM      4  C4  IND d   1      -1.474  -0.487   1.439  0.00  0.00     0.051 A 
ATOM      5  C5  IND d   1      -0.620  -0.733   2.477  0.00  0.00    -0.031 A 
ATOM      6  C6  IND d   1       0.746  -0.807   2.296  0.00  0.00     0.015 A 
ATOM      7  C7  IND d   1       1.312  -0.626   1.065  0.00  0.00    -0.016 A 
ATOM      8  C8  IND d   1       0.447  -0.383   0.008  0.00  0.00    -0.047 A 
ATOM      9  C9  IND d   1      -0.943  -0.349   0.179  0.00  0.00    -0.096 A 
ATOM     10  HN1 IND d   1       1.477  -0.168  -1.699  0.00  0.00     0.298 HD
ENDROOT
TORSDOF 0
ENDMDL
