MODEL 1
REMARK minimizedAffinity -2.02062178
REMARK minimizedRMSD -1
REMARK  0 active torsions:
REMARK  status: ('A' for Active; 'I' for Inactive)
ROOT
ATOM      1  N1  IND d   1      -1.507  -0.336   0.080  0.00  0.00    -0.196 N 
ATOM      2  C2  IND d   1      -0.934   0.569  -0.769  0.00  0.00     0.054 A 
ATOM      3  C3  IND d   1       0.329   0.848  -0.377  0.00  0.00    -0.031 A 
ATOM      4  C4  IND d   1       1.693  -0.141   1.569  0.00  0.00     0.051 A 
ATOM      5  C5  IND d   1       1.585  -0.977   2.645  0.00  0.00    -0.031 A 
ATOM      6  C6  IND d   1       0.418  -1.658   2.925  0.00  0.00     0.015 A 
ATOM      7  C7  IND d   1      -0.686  -1.536   2.129  0.00  0.00    -0.016 A 
ATOM      8  C8  IND d   1      -0.582  -0.683   1.040  0.00  0.00    -0.047 A 
ATOM      9  C9  IND d   1       0.586   0.043   0.775  0.00  0.00    -0.096 A 
ATOM     10  HN1 IND d   1      -2.310  -0.638   0.023  0.00  0.00     0.298 HD
ENDROOT
TORSDOF 0
ENDMDL
