MODEL 1
REMARK minimizedAffinity -1.09066653
REMARK minimizedRMSD -1
REMARK  0 active torsions:
REMARK  status: ('A' for Active; 'I' for Inactive)
ROOT
ATOM      1  N1  IND d   1      -2.231  -2.180   1.867  0.00  0.00    -0.196 N 
ATOM      2  C2  IND d   1      -1.849  -3.063   2.837  0.00  0.00     0.054 A 
ATOM      3  C3  IND d   1      -0.590  -2.792   3.250  0.00  0.00    -0.031 A 
ATOM      4  C4  IND d   1       0.987  -0.884   2.544  0.00  0.00     0.051 A 
ATOM      5  C5  IND d   1       1.095   0.154   1.660  0.00  0.00    -0.031 A 
ATOM      6  C6  IND d   1       0.078   0.474   0.785  0.00  0.00     0.015 A 
ATOM      7  C7  IND d   1      -1.095  -0.226   0.768  0.00  0.00    -0.016 A 
ATOM      8  C8  IND d   1      -1.205  -1.285   1.659  0.00  0.00    -0.047 A 
ATOM      9  C9  IND d   1      -0.159  -1.642   2.520  0.00  0.00    -0.096 A 
ATOM     10  HN1 IND d   1      -2.986  -2.183   1.455  0.00  0.00     0.298 HD
ENDROOT
TORSDOF 0
ENDMDL
