MODEL 1
REMARK minimizedAffinity -1.09404039
REMARK minimizedRMSD -1
REMARK  0 active torsions:
REMARK  status: ('A' for Active; 'I' for Inactive)
ROOT
ATOM      1  N1  IND d   1      -0.076  -0.043  -2.734  0.00  0.00    -0.196 N 
ATOM      2  C2  IND d   1      -1.095   0.851  -2.561  0.00  0.00     0.054 A 
ATOM      3  C3  IND d   1      -1.171   1.233  -1.266  0.00  0.00    -0.031 A 
ATOM      4  C4  IND d   1       0.340   0.595   0.718  0.00  0.00     0.051 A 
ATOM      5  C5  IND d   1       1.382  -0.221   1.060  0.00  0.00    -0.031 A 
ATOM      6  C6  IND d   1       2.005  -1.033   0.135  0.00  0.00     0.015 A 
ATOM      7  C7  IND d   1       1.616  -1.052  -1.174  0.00  0.00    -0.016 A 
ATOM      8  C8  IND d   1       0.553  -0.230  -1.523  0.00  0.00    -0.047 A 
ATOM      9  C9  IND d   1      -0.111   0.565  -0.580  0.00  0.00    -0.096 A 
ATOM     10  HN1 IND d   1       0.136  -0.424  -3.475  0.00  0.00     0.298 HD
ENDROOT
TORSDOF 0
ENDMDL
