MODEL 1
REMARK minimizedAffinity -2.80301833
REMARK minimizedRMSD -1
REMARK  0 active torsions:
REMARK  status: ('A' for Active; 'I' for Inactive)
ROOT
ATOM      1  N1  IND d   1       1.661  -0.930  -0.192  0.00  0.00    -0.196 N 
ATOM      2  C2  IND d   1       1.168  -0.617  -1.428  0.00  0.00     0.054 A 
ATOM      3  C3  IND d   1      -0.131  -0.252  -1.337  0.00  0.00    -0.031 A 
ATOM      4  C4  IND d   1      -1.617   0.001   0.750  0.00  0.00     0.051 A 
ATOM      5  C5  IND d   1      -1.622  -0.206   2.100  0.00  0.00    -0.031 A 
ATOM      6  C6  IND d   1      -0.509  -0.673   2.770  0.00  0.00     0.015 A 
ATOM      7  C7  IND d   1       0.659  -0.939   2.112  0.00  0.00    -0.016 A 
ATOM      8  C8  IND d   1       0.665  -0.736   0.740  0.00  0.00    -0.047 A 
ATOM      9  C9  IND d   1      -0.474  -0.304   0.048  0.00  0.00    -0.096 A 
ATOM     10  HN1 IND d   1       2.459  -1.203  -0.025  0.00  0.00     0.298 HD
ENDROOT
TORSDOF 0
ENDMDL
