MODEL 1
REMARK minimizedAffinity 1.9478935
REMARK minimizedRMSD -1
REMARK  0 active torsions:
REMARK  status: ('A' for Active; 'I' for Inactive)
ROOT
ATOM      1  N1  IND d   1       0.578  -1.253  -0.780  0.00  0.00    -0.196 N 
ATOM      2  C2  IND d   1       1.766  -1.460  -1.423  0.00  0.00     0.054 A 
ATOM      3  C3  IND d   1       2.788  -1.451  -0.538  0.00  0.00    -0.031 A 
ATOM      4  C4  IND d   1       2.729  -1.217   2.025  0.00  0.00     0.051 A 
ATOM      5  C5  IND d   1       1.877  -0.971   3.065  0.00  0.00    -0.031 A 
ATOM      6  C6  IND d   1       0.521  -0.806   2.873  0.00  0.00     0.015 A 
ATOM      7  C7  IND d   1      -0.038  -0.893   1.630  0.00  0.00    -0.016 A 
ATOM      8  C8  IND d   1       0.825  -1.135   0.570  0.00  0.00    -0.047 A 
ATOM      9  C9  IND d   1       2.208  -1.261   0.754  0.00  0.00    -0.096 A 
ATOM     10  HN1 IND d   1      -0.194  -1.205  -1.155  0.00  0.00     0.298 HD
ENDROOT
TORSDOF 0
ENDMDL
