MODEL 1
REMARK minimizedAffinity -2.52966523
REMARK minimizedRMSD -1
REMARK  0 active torsions:
REMARK  status: ('A' for Active; 'I' for Inactive)
ROOT
ATOM      1  N1  IND d   1       1.713  -1.607  -0.323  0.00  0.00    -0.196 N 
ATOM      2  C2  IND d   1       1.347  -1.088  -1.533  0.00  0.00     0.054 A 
ATOM      3  C3  IND d   1       0.138  -0.491  -1.443  0.00  0.00    -0.031 A 
ATOM      4  C4  IND d   1      -1.372  -0.158   0.616  0.00  0.00     0.051 A 
ATOM      5  C5  IND d   1      -1.480  -0.489   1.937  0.00  0.00    -0.031 A 
ATOM      6  C6  IND d   1      -0.508  -1.222   2.587  0.00  0.00     0.015 A 
ATOM      7  C7  IND d   1       0.619  -1.644   1.939  0.00  0.00    -0.016 A 
ATOM      8  C8  IND d   1       0.728  -1.315   0.595  0.00  0.00    -0.047 A 
ATOM      9  C9  IND d   1      -0.275  -0.608  -0.080  0.00  0.00    -0.096 A 
ATOM     10  HN1 IND d   1       2.437  -2.043  -0.162  0.00  0.00     0.298 HD
ENDROOT
TORSDOF 0
ENDMDL
