MODEL 1
REMARK minimizedAffinity 7.38467789
REMARK minimizedRMSD -1
REMARK  3 active torsions:
REMARK  status: ('A' for Active; 'I' for Inactive)
REMARK    1  A    between atoms: C3'_2  and  C2'_3 
REMARK    2  A    between atoms: C2'_3  and  C1'_4 
REMARK    3  A    between atoms: C1'_4  and  C1_5 
ROOT
ATOM      1  C1  N4B d   1       0.209   5.182  -3.556  0.00  0.00    -0.075 A 
ATOM      2  C2  N4B d   1       0.809   5.998  -4.540  0.00  0.00     0.002 A 
ATOM      3  C3  N4B d   1       1.856   5.515  -5.287  0.00  0.00     0.002 A 
ATOM      4  C4  N4B d   1       2.329   4.232  -5.056  0.00  0.00    -0.004 A 
ATOM      5  C5  N4B d   1       1.728   3.442  -4.121  0.00  0.00     0.002 A 
ATOM      6  C6  N4B d   1       0.673   3.912  -3.366  0.00  0.00     0.002 A 
ENDROOT
BRANCH   1   7
ATOM      7  C1' N4B d   1      -0.881   5.695  -2.655  0.00  0.00     0.057 C 
BRANCH   7   8
ATOM      8  C2' N4B d   1      -2.120   5.999  -3.492  0.00  0.00     0.009 C 
BRANCH   8   9
ATOM      9  C3' N4B d   1      -3.390   5.966  -2.660  0.00  0.00     0.004 C 
ATOM     10  C4' N4B d   1      -4.634   5.966  -3.498  0.00  0.00     0.003 C 
ENDBRANCH   8   9
ENDBRANCH   7   8
ENDBRANCH   1   7
TORSDOF 3
ENDMDL
