MODEL 1
REMARK minimizedAffinity -2.80786228
REMARK minimizedRMSD -1
REMARK  3 active torsions:
REMARK  status: ('A' for Active; 'I' for Inactive)
REMARK    1  A    between atoms: C3'_2  and  C2'_3 
REMARK    2  A    between atoms: C2'_3  and  C1'_4 
REMARK    3  A    between atoms: C1'_4  and  C1_5 
ROOT
ATOM      1  C1  N4B d   1       2.774   4.668  -5.108  0.00  0.00    -0.075 A 
ATOM      2  C2  N4B d   1       3.363   3.769  -4.193  0.00  0.00     0.002 A 
ATOM      3  C3  N4B d   1       4.630   4.005  -3.716  0.00  0.00     0.002 A 
ATOM      4  C4  N4B d   1       5.330   5.120  -4.153  0.00  0.00    -0.004 A 
ATOM      5  C5  N4B d   1       4.744   5.997  -5.018  0.00  0.00     0.002 A 
ATOM      6  C6  N4B d   1       3.470   5.774  -5.502  0.00  0.00     0.002 A 
ENDROOT
BRANCH   1   7
ATOM      7  C1' N4B d   1       1.426   4.407  -5.723  0.00  0.00     0.057 C 
BRANCH   7   8
ATOM      8  C2' N4B d   1       0.734   5.739  -5.997  0.00  0.00     0.009 C 
BRANCH   8   9
ATOM      9  C3' N4B d   1      -0.419   5.987  -5.040  0.00  0.00     0.004 C 
ATOM     10  C4' N4B d   1       0.012   6.000  -3.603  0.00  0.00     0.003 C 
ENDBRANCH   8   9
ENDBRANCH   7   8
ENDBRANCH   1   7
TORSDOF 3
ENDMDL
