MODEL 1
REMARK minimizedAffinity -3.05382109
REMARK minimizedRMSD -1
REMARK  3 active torsions:
REMARK  status: ('A' for Active; 'I' for Inactive)
REMARK    1  A    between atoms: C3'_2  and  C2'_3 
REMARK    2  A    between atoms: C2'_3  and  C1'_4 
REMARK    3  A    between atoms: C1'_4  and  C1_5 
ROOT
ATOM      1  C1  N4B d   1       3.224   5.784  -4.991  0.00  0.00    -0.075 A 
ATOM      2  C2  N4B d   1       4.193   5.974  -6.000  0.00  0.00     0.002 A 
ATOM      3  C3  N4B d   1       5.527   6.000  -5.674  0.00  0.00     0.002 A 
ATOM      4  C4  N4B d   1       5.913   5.857  -4.349  0.00  0.00    -0.004 A 
ATOM      5  C5  N4B d   1       4.971   5.648  -3.384  0.00  0.00     0.002 A 
ATOM      6  C6  N4B d   1       3.627   5.616  -3.698  0.00  0.00     0.002 A 
ENDROOT
BRANCH   1   7
ATOM      7  C1' N4B d   1       1.750   5.835  -5.286  0.00  0.00     0.057 C 
BRANCH   7   8
ATOM      8  C2' N4B d   1       0.978   5.929  -3.973  0.00  0.00     0.009 C 
BRANCH   8   9
ATOM      9  C3' N4B d   1      -0.522   5.995  -4.199  0.00  0.00     0.004 C 
ATOM     10  C4' N4B d   1      -1.303   5.994  -2.919  0.00  0.00     0.003 C 
ENDBRANCH   8   9
ENDBRANCH   7   8
ENDBRANCH   1   7
TORSDOF 3
ENDMDL
