MODEL 1
REMARK minimizedAffinity 9.86689377
REMARK minimizedRMSD -1
REMARK  3 active torsions:
REMARK  status: ('A' for Active; 'I' for Inactive)
REMARK    1  A    between atoms: C3'_2  and  C2'_3 
REMARK    2  A    between atoms: C2'_3  and  C1'_4 
REMARK    3  A    between atoms: C1'_4  and  C1_5 
ROOT
ATOM      1  C1  N4B d   1      -0.050   5.994  -5.155  0.00  0.00    -0.075 A 
ATOM      2  C2  N4B d   1      -1.330   5.997  -5.751  0.00  0.00     0.002 A 
ATOM      3  C3  N4B d   1      -2.455   5.989  -4.963  0.00  0.00     0.002 A 
ATOM      4  C4  N4B d   1      -2.325   5.959  -3.583  0.00  0.00    -0.004 A 
ATOM      5  C5  N4B d   1      -1.086   5.981  -3.014  0.00  0.00     0.002 A 
ATOM      6  C6  N4B d   1       0.054   5.993  -3.794  0.00  0.00     0.002 A 
ENDROOT
BRANCH   1   7
ATOM      7  C1' N4B d   1       1.208   5.915  -5.975  0.00  0.00     0.057 C 
BRANCH   7   8
ATOM      8  C2' N4B d   1       2.354   5.434  -5.090  0.00  0.00     0.009 C 
BRANCH   8   9
ATOM      9  C3' N4B d   1       3.692   5.996  -5.538  0.00  0.00     0.004 C 
ATOM     10  C4' N4B d   1       4.847   5.117  -5.160  0.00  0.00     0.003 C 
ENDBRANCH   8   9
ENDBRANCH   7   8
ENDBRANCH   1   7
TORSDOF 3
ENDMDL
