MODEL 1
REMARK minimizedAffinity -0.319972813
REMARK minimizedRMSD -1
REMARK  3 active torsions:
REMARK  status: ('A' for Active; 'I' for Inactive)
REMARK    1  A    between atoms: C3'_2  and  C2'_3 
REMARK    2  A    between atoms: C2'_3  and  C1'_4 
REMARK    3  A    between atoms: C1'_4  and  C1_5 
ROOT
ATOM      1  C1  N4B d   1      -1.436   5.415  -3.765  0.00  0.00    -0.075 A 
ATOM      2  C2  N4B d   1      -0.973   6.000  -2.566  0.00  0.00     0.002 A 
ATOM      3  C3  N4B d   1      -1.739   5.931  -1.428  0.00  0.00     0.002 A 
ATOM      4  C4  N4B d   1      -2.974   5.302  -1.470  0.00  0.00    -0.004 A 
ATOM      5  C5  N4B d   1      -3.403   4.718  -2.625  0.00  0.00     0.002 A 
ATOM      6  C6  N4B d   1      -2.642   4.776  -3.776  0.00  0.00     0.002 A 
ENDROOT
BRANCH   1   7
ATOM      7  C1' N4B d   1      -0.673   5.539  -5.055  0.00  0.00     0.057 C 
BRANCH   7   8
ATOM      8  C2' N4B d   1       0.755   5.982  -4.752  0.00  0.00     0.009 C 
BRANCH   8   9
ATOM      9  C3' N4B d   1       1.622   6.000  -5.999  0.00  0.00     0.004 C 
ATOM     10  C4' N4B d   1       3.066   5.721  -5.707  0.00  0.00     0.003 C 
ENDBRANCH   8   9
ENDBRANCH   7   8
ENDBRANCH   1   7
TORSDOF 3
ENDMDL
