MODEL 1
REMARK minimizedAffinity -1.87602675
REMARK minimizedRMSD -1
REMARK  0 active torsions:
REMARK  status: ('A' for Active; 'I' for Inactive)
ROOT
ATOM      1  C4' PXY d   1       2.764  -1.095  -1.462  0.00  0.00     0.077 C 
ATOM      2  C1' PXY d   1      -2.290  -0.180   1.190  0.00  0.00     0.077 C 
ATOM      3  C1  PXY d   1      -0.958  -0.416   0.506  0.00  0.00    -0.082 A 
ATOM      4  C2  PXY d   1      -0.894  -0.419  -0.816  0.00  0.00     0.003 A 
ATOM      5  C3  PXY d   1       0.296  -0.662  -1.452  0.00  0.00     0.003 A 
ATOM      6  C4  PXY d   1       1.443  -0.852  -0.727  0.00  0.00    -0.082 A 
ATOM      7  C5  PXY d   1       1.387  -0.839   0.621  0.00  0.00     0.003 A 
ATOM      8  C6  PXY d   1       0.161  -0.632   1.248  0.00  0.00     0.003 A 
ENDROOT
TORSDOF 0
ENDMDL
