MODEL 1
REMARK minimizedAffinity -0.106915116
REMARK minimizedRMSD -1
REMARK  0 active torsions:
REMARK  status: ('A' for Active; 'I' for Inactive)
ROOT
ATOM      1  C4' PXY d   1      -1.614   0.750  -1.711  0.00  0.00     0.077 C 
ATOM      2  C1' PXY d   1       1.231  -1.365   2.855  0.00  0.00     0.077 C 
ATOM      3  C1  PXY d   1       0.496  -0.806   1.652  0.00  0.00    -0.082 A 
ATOM      4  C2  PXY d   1      -0.780  -0.473   1.762  0.00  0.00     0.003 A 
ATOM      5  C3  PXY d   1      -1.468   0.004   0.676  0.00  0.00     0.003 A 
ATOM      6  C4  PXY d   1      -0.830   0.191  -0.521  0.00  0.00    -0.082 A 
ATOM      7  C5  PXY d   1       0.474  -0.136  -0.638  0.00  0.00     0.003 A 
ATOM      8  C6  PXY d   1       1.144  -0.657   0.465  0.00  0.00     0.003 A 
ENDROOT
TORSDOF 0
ENDMDL
