MODEL 1
REMARK minimizedAffinity 4.39597511
REMARK minimizedRMSD -1
REMARK  0 active torsions:
REMARK  status: ('A' for Active; 'I' for Inactive)
ROOT
ATOM      1  C4' PXY d   1       2.938  -4.131   1.022  0.00  0.00     0.077 C 
ATOM      2  C1' PXY d   1      -1.074  -0.017   1.650  0.00  0.00     0.077 C 
ATOM      3  C1  PXY d   1      -0.022  -1.098   1.498  0.00  0.00    -0.082 A 
ATOM      4  C2  PXY d   1       0.743  -1.119   0.419  0.00  0.00     0.003 A 
ATOM      5  C3  PXY d   1       1.678  -2.108   0.250  0.00  0.00     0.003 A 
ATOM      6  C4  PXY d   1       1.869  -3.053   1.222  0.00  0.00    -0.082 A 
ATOM      7  C5  PXY d   1       1.100  -3.032   2.331  0.00  0.00     0.003 A 
ATOM      8  C6  PXY d   1       0.128  -2.044   2.464  0.00  0.00     0.003 A 
ENDROOT
TORSDOF 0
ENDMDL
