MODEL 1
REMARK minimizedAffinity -0.0692458078
REMARK minimizedRMSD -1
REMARK  0 active torsions:
REMARK  status: ('A' for Active; 'I' for Inactive)
ROOT
ATOM      1  C4' PXY d   1       2.131  -3.657   1.263  0.00  0.00     0.077 C 
ATOM      2  C1' PXY d   1      -2.170   0.146   1.940  0.00  0.00     0.077 C 
ATOM      3  C1  PXY d   1      -1.044  -0.851   1.749  0.00  0.00    -0.082 A 
ATOM      4  C2  PXY d   1      -0.698  -1.646   2.749  0.00  0.00     0.003 A 
ATOM      5  C3  PXY d   1       0.339  -2.531   2.604  0.00  0.00     0.003 A 
ATOM      6  C4  PXY d   1       0.994  -2.641   1.407  0.00  0.00    -0.082 A 
ATOM      7  C5  PXY d   1       0.640  -1.842   0.379  0.00  0.00     0.003 A 
ATOM      8  C6  PXY d   1      -0.388  -0.921   0.559  0.00  0.00     0.003 A 
ENDROOT
TORSDOF 0
ENDMDL
