MODEL 1
REMARK minimizedAffinity -4.35629892
REMARK minimizedRMSD -1
REMARK  0 active torsions:
REMARK  status: ('A' for Active; 'I' for Inactive)
ROOT
ATOM      1  C4' PXY d   1      -3.265   0.054   1.316  0.00  0.00     0.077 C 
ATOM      2  C1' PXY d   1       1.836  -2.665   1.274  0.00  0.00     0.077 C 
ATOM      3  C1  PXY d   1       0.502  -1.946   1.274  0.00  0.00    -0.082 A 
ATOM      4  C2  PXY d   1      -0.158  -1.791   2.410  0.00  0.00     0.003 A 
ATOM      5  C3  PXY d   1      -1.381  -1.171   2.424  0.00  0.00     0.003 A 
ATOM      6  C4  PXY d   1      -1.910  -0.657   1.270  0.00  0.00    -0.082 A 
ATOM      7  C5  PXY d   1      -1.238  -0.802   0.108  0.00  0.00     0.003 A 
ATOM      8  C6  PXY d   1      -0.017  -1.471   0.109  0.00  0.00     0.003 A 
ENDROOT
TORSDOF 0
ENDMDL
