MODEL 1
REMARK minimizedAffinity 6.72992134
REMARK minimizedRMSD -1
REMARK  0 active torsions:
REMARK  status: ('A' for Active; 'I' for Inactive)
ROOT
ATOM      1  C4' PXY d   1       1.189  -4.230   2.506  0.00  0.00     0.077 C 
ATOM      2  C1' PXY d   1      -1.471   0.790   1.442  0.00  0.00     0.077 C 
ATOM      3  C1  PXY d   1      -0.777  -0.526   1.734  0.00  0.00    -0.082 A 
ATOM      4  C2  PXY d   1       0.198  -0.940   0.942  0.00  0.00     0.003 A 
ATOM      5  C3  PXY d   1       0.815  -2.143   1.172  0.00  0.00     0.003 A 
ATOM      6  C4  PXY d   1       0.466  -2.904   2.256  0.00  0.00    -0.082 A 
ATOM      7  C5  PXY d   1      -0.521  -2.483   3.075  0.00  0.00     0.003 A 
ATOM      8  C6  PXY d   1      -1.162  -1.279   2.800  0.00  0.00     0.003 A 
ENDROOT
TORSDOF 0
ENDMDL
