MODEL 1
REMARK minimizedAffinity -1.54749548
REMARK minimizedRMSD -1
REMARK  0 active torsions:
REMARK  status: ('A' for Active; 'I' for Inactive)
ROOT
ATOM      1  C4' PXY d   1       2.916  -4.124   1.587  0.00  0.00     0.077 C 
ATOM      2  C1' PXY d   1      -0.984   0.117   1.110  0.00  0.00     0.077 C 
ATOM      3  C1  PXY d   1       0.040  -0.993   1.247  0.00  0.00    -0.082 A 
ATOM      4  C2  PXY d   1       0.713  -1.398   0.182  0.00  0.00     0.003 A 
ATOM      5  C3  PXY d   1       1.620  -2.421   0.283  0.00  0.00     0.003 A 
ATOM      6  C4  PXY d   1       1.879  -3.001   1.496  0.00  0.00    -0.082 A 
ATOM      7  C5  PXY d   1       1.205  -2.585   2.589  0.00  0.00     0.003 A 
ATOM      8  C6  PXY d   1       0.259  -1.573   2.458  0.00  0.00     0.003 A 
ENDROOT
TORSDOF 0
ENDMDL
