MODEL 1
REMARK minimizedAffinity 0.540742159
REMARK minimizedRMSD -1
REMARK  0 active torsions:
REMARK  status: ('A' for Active; 'I' for Inactive)
ROOT
ATOM      1  C4' PXY d   1      -1.362  -0.787  -1.101  0.00  0.00     0.077 C 
ATOM      2  C1' PXY d   1       2.023  -0.596   3.582  0.00  0.00     0.077 C 
ATOM      3  C1  PXY d   1       1.140  -0.634   2.350  0.00  0.00    -0.082 A 
ATOM      4  C2  PXY d   1       0.067  -1.408   2.339  0.00  0.00     0.003 A 
ATOM      5  C3  PXY d   1      -0.725  -1.479   1.222  0.00  0.00     0.003 A 
ATOM      6  C4  PXY d   1      -0.446  -0.710   0.124  0.00  0.00    -0.082 A 
ATOM      7  C5  PXY d   1       0.641   0.091   0.132  0.00  0.00     0.003 A 
ATOM      8  C6  PXY d   1       1.455   0.117   1.261  0.00  0.00     0.003 A 
ENDROOT
TORSDOF 0
ENDMDL
