MODEL 1
REMARK minimizedAffinity -2.31433153
REMARK minimizedRMSD -1
REMARK  0 active torsions:
REMARK  status: ('A' for Active; 'I' for Inactive)
ROOT
ATOM      1  C1  DEN d   1      -0.511   0.075   1.175  0.00  0.00     0.130 A 
ATOM      2  C2  DEN d   1      -0.007   0.008  -0.194  0.00  0.00    -0.031 A 
ATOM      3  C3  DEN d   1      -1.100   0.406  -1.103  0.00  0.00     0.027 A 
ATOM      4  C4  DEN d   1      -3.510   1.122  -0.527  0.00  0.00     0.027 A 
ATOM      5  C5  DEN d   1      -4.406   1.322   0.500  0.00  0.00    -0.003 A 
ATOM      6  C6  DEN d   1      -4.080   1.090   1.809  0.00  0.00     0.001 A 
ATOM      7  C7  DEN d   1      -2.811   0.687   2.132  0.00  0.00     0.017 A 
ATOM      8  C8  DEN d   1      -1.904   0.476   1.102  0.00  0.00    -0.094 A 
ATOM      9  C9  DEN d   1      -2.249   0.728  -0.215  0.00  0.00    -0.072 A 
ENDROOT
TORSDOF 0
ENDMDL
