MODEL 1
REMARK minimizedAffinity -4.43490744
REMARK minimizedRMSD -1
REMARK  0 active torsions:
REMARK  status: ('A' for Active; 'I' for Inactive)
ROOT
ATOM      1  C1  DEN d   1      -0.967  -0.636  -0.514  0.00  0.00     0.130 A 
ATOM      2  C2  DEN d   1      -1.427   0.750  -0.521  0.00  0.00    -0.031 A 
ATOM      3  C3  DEN d   1      -0.372   1.584   0.090  0.00  0.00     0.027 A 
ATOM      4  C4  DEN d   1       1.918   0.868   1.036  0.00  0.00     0.027 A 
ATOM      5  C5  DEN d   1       2.748  -0.205   1.273  0.00  0.00    -0.003 A 
ATOM      6  C6  DEN d   1       2.388  -1.490   0.965  0.00  0.00     0.001 A 
ATOM      7  C7  DEN d   1       1.183  -1.730   0.360  0.00  0.00     0.017 A 
ATOM      8  C8  DEN d   1       0.336  -0.655   0.124  0.00  0.00    -0.094 A 
ATOM      9  C9  DEN d   1       0.724   0.638   0.432  0.00  0.00    -0.072 A 
ENDROOT
TORSDOF 0
ENDMDL
