MODEL 1
REMARK minimizedAffinity -4.90999126
REMARK minimizedRMSD -1
REMARK  0 active torsions:
REMARK  status: ('A' for Active; 'I' for Inactive)
ROOT
ATOM      1  C1  DEN d   1       0.689  -1.994   0.051  0.00  0.00     0.130 A 
ATOM      2  C2  DEN d   1       1.976  -2.275   0.679  0.00  0.00    -0.031 A 
ATOM      3  C3  DEN d   1       2.635  -0.985   0.967  0.00  0.00     0.027 A 
ATOM      4  C4  DEN d   1       1.788   1.407   0.508  0.00  0.00     0.027 A 
ATOM      5  C5  DEN d   1       0.755   2.151  -0.020  0.00  0.00    -0.003 A 
ATOM      6  C6  DEN d   1      -0.348   1.569  -0.588  0.00  0.00     0.001 A 
ATOM      7  C7  DEN d   1      -0.464   0.204  -0.600  0.00  0.00     0.017 A 
ATOM      8  C8  DEN d   1       0.576  -0.552  -0.076  0.00  0.00    -0.094 A 
ATOM      9  C9  DEN d   1       1.677   0.055   0.504  0.00  0.00    -0.072 A 
ENDROOT
TORSDOF 0
ENDMDL
