MODEL 1
REMARK minimizedAffinity -1.4605912
REMARK minimizedRMSD -1
REMARK  0 active torsions:
REMARK  status: ('A' for Active; 'I' for Inactive)
ROOT
ATOM      1  C1  DEN d   1       0.008   0.620  -0.158  0.00  0.00     0.130 A 
ATOM      2  C2  DEN d   1      -0.954  -0.448  -0.413  0.00  0.00    -0.031 A 
ATOM      3  C3  DEN d   1      -0.208  -1.719  -0.512  0.00  0.00     0.027 A 
ATOM      4  C4  DEN d   1       2.328  -2.135  -0.293  0.00  0.00     0.027 A 
ATOM      5  C5  DEN d   1       3.550  -1.533  -0.088  0.00  0.00    -0.003 A 
ATOM      6  C6  DEN d   1       3.680  -0.179   0.073  0.00  0.00     0.001 A 
ATOM      7  C7  DEN d   1       2.563   0.614   0.076  0.00  0.00     0.017 A 
ATOM      8  C8  DEN d   1       1.328   0.016  -0.137  0.00  0.00    -0.094 A 
ATOM      9  C9  DEN d   1       1.216  -1.356  -0.286  0.00  0.00    -0.072 A 
ENDROOT
TORSDOF 0
ENDMDL
