MODEL 1
REMARK minimizedAffinity -3.59636426
REMARK minimizedRMSD -1
REMARK  0 active torsions:
REMARK  status: ('A' for Active; 'I' for Inactive)
ROOT
ATOM      1  C1  DEN d   1       1.593  -0.492   1.270  0.00  0.00     0.130 A 
ATOM      2  C2  DEN d   1       1.937  -1.853   0.867  0.00  0.00    -0.031 A 
ATOM      3  C3  DEN d   1       1.008  -2.259  -0.207  0.00  0.00     0.027 A 
ATOM      4  C4  DEN d   1      -0.915  -0.918  -1.283  0.00  0.00     0.027 A 
ATOM      5  C5  DEN d   1      -1.596   0.279  -1.264  0.00  0.00    -0.003 A 
ATOM      6  C6  DEN d   1      -1.287   1.281  -0.383  0.00  0.00     0.001 A 
ATOM      7  C7  DEN d   1      -0.240   1.123   0.485  0.00  0.00     0.017 A 
ATOM      8  C8  DEN d   1       0.447  -0.084   0.477  0.00  0.00    -0.094 A 
ATOM      9  C9  DEN d   1       0.128  -1.080  -0.429  0.00  0.00    -0.072 A 
ENDROOT
TORSDOF 0
ENDMDL
