MODEL 1
REMARK minimizedAffinity -2.50818586
REMARK minimizedRMSD -1
REMARK  0 active torsions:
REMARK  status: ('A' for Active; 'I' for Inactive)
ROOT
ATOM      1  C1  DEN d   1       0.690   1.318   0.882  0.00  0.00     0.130 A 
ATOM      2  C2  DEN d   1      -0.621   1.481   0.260  0.00  0.00    -0.031 A 
ATOM      3  C3  DEN d   1      -0.941   0.234  -0.463  0.00  0.00     0.027 A 
ATOM      4  C4  DEN d   1       0.456  -1.924  -0.674  0.00  0.00     0.027 A 
ATOM      5  C5  DEN d   1       1.643  -2.530  -0.328  0.00  0.00    -0.003 A 
ATOM      6  C6  DEN d   1       2.602  -1.890   0.411  0.00  0.00     0.001 A 
ATOM      7  C7  DEN d   1       2.372  -0.619   0.867  0.00  0.00     0.017 A 
ATOM      8  C8  DEN d   1       1.180   0.002   0.516  0.00  0.00    -0.094 A 
ATOM      9  C9  DEN d   1       0.218  -0.666  -0.222  0.00  0.00    -0.072 A 
ENDROOT
TORSDOF 0
ENDMDL
