MODEL 1
REMARK minimizedAffinity -6.11699438
REMARK minimizedRMSD -1
REMARK  0 active torsions:
REMARK  status: ('A' for Active; 'I' for Inactive)
ROOT
ATOM      1  C1  DEN d   1      -0.097   0.642  -0.381  0.00  0.00     0.130 A 
ATOM      2  C2  DEN d   1      -1.021  -0.477  -0.542  0.00  0.00    -0.031 A 
ATOM      3  C3  DEN d   1      -0.263  -1.728  -0.335  0.00  0.00     0.027 A 
ATOM      4  C4  DEN d   1       2.236  -2.038   0.221  0.00  0.00     0.027 A 
ATOM      5  C5  DEN d   1       3.426  -1.381   0.444  0.00  0.00    -0.003 A 
ATOM      6  C6  DEN d   1       3.532  -0.017   0.375  0.00  0.00     0.001 A 
ATOM      7  C7  DEN d   1       2.418   0.738   0.120  0.00  0.00     0.017 A 
ATOM      8  C8  DEN d   1       1.216   0.082  -0.114  0.00  0.00    -0.094 A 
ATOM      9  C9  DEN d   1       1.127  -1.297  -0.027  0.00  0.00    -0.072 A 
ENDROOT
TORSDOF 0
ENDMDL
