MODEL 1
REMARK minimizedAffinity -5.54023695
REMARK minimizedRMSD -1
REMARK  0 active torsions:
REMARK  status: ('A' for Active; 'I' for Inactive)
ROOT
ATOM      1  C1  DEN d   1      -0.641  -0.922  -0.645  0.00  0.00     0.130 A 
ATOM      2  C2  DEN d   1      -1.198   0.412  -0.852  0.00  0.00    -0.031 A 
ATOM      3  C3  DEN d   1      -0.245   1.396  -0.301  0.00  0.00     0.027 A 
ATOM      4  C4  DEN d   1       2.031   0.986   0.841  0.00  0.00     0.027 A 
ATOM      5  C5  DEN d   1       2.922   0.020   1.254  0.00  0.00    -0.003 A 
ATOM      6  C6  DEN d   1       2.674  -1.318   1.095  0.00  0.00     0.001 A 
ATOM      7  C7  DEN d   1       1.527  -1.726   0.467  0.00  0.00     0.017 A 
ATOM      8  C8  DEN d   1       0.621  -0.758   0.054  0.00  0.00    -0.094 A 
ATOM      9  C9  DEN d   1       0.895   0.590   0.213  0.00  0.00    -0.072 A 
ENDROOT
TORSDOF 0
ENDMDL
