MODEL 1
REMARK minimizedAffinity -4.76585817
REMARK minimizedRMSD -1
REMARK  0 active torsions:
REMARK  status: ('A' for Active; 'I' for Inactive)
ROOT
ATOM      1  C1  DEN d   1       0.040   1.464   0.674  0.00  0.00     0.130 A 
ATOM      2  C2  DEN d   1      -1.217   1.151  -0.001  0.00  0.00    -0.031 A 
ATOM      3  C3  DEN d   1      -1.141  -0.242  -0.485  0.00  0.00     0.027 A 
ATOM      4  C4  DEN d   1       0.788  -1.937  -0.251  0.00  0.00     0.027 A 
ATOM      5  C5  DEN d   1       2.064  -2.127   0.232  0.00  0.00    -0.003 A 
ATOM      6  C6  DEN d   1       2.762  -1.130   0.862  0.00  0.00     0.001 A 
ATOM      7  C7  DEN d   1       2.170   0.088   1.065  0.00  0.00     0.017 A 
ATOM      8  C8  DEN d   1       0.887   0.289   0.574  0.00  0.00    -0.094 A 
ATOM      9  C9  DEN d   1       0.194  -0.734  -0.050  0.00  0.00    -0.072 A 
ENDROOT
TORSDOF 0
ENDMDL
