MODEL 1
REMARK minimizedAffinity -5.03256321
REMARK minimizedRMSD -1
REMARK  0 active torsions:
REMARK  status: ('A' for Active; 'I' for Inactive)
ROOT
ATOM      1  C1  DEN d   1      -0.017   1.347  -0.680  0.00  0.00     0.130 A 
ATOM      2  C2  DEN d   1       0.963   2.392  -0.396  0.00  0.00    -0.031 A 
ATOM      3  C3  DEN d   1       2.213   1.738   0.041  0.00  0.00     0.027 A 
ATOM      4  C4  DEN d   1       2.726  -0.776   0.298  0.00  0.00     0.027 A 
ATOM      5  C5  DEN d   1       2.204  -2.046   0.184  0.00  0.00    -0.003 A 
ATOM      6  C6  DEN d   1       0.906  -2.270  -0.189  0.00  0.00     0.001 A 
ATOM      7  C7  DEN d   1       0.098  -1.211  -0.507  0.00  0.00     0.017 A 
ATOM      8  C8  DEN d   1       0.615   0.072  -0.388  0.00  0.00    -0.094 A 
ATOM      9  C9  DEN d   1       1.934   0.278  -0.020  0.00  0.00    -0.072 A 
ENDROOT
TORSDOF 0
ENDMDL
