MODEL 1
REMARK minimizedAffinity -5.09015465
REMARK minimizedRMSD -1
REMARK  0 active torsions:
REMARK  status: ('A' for Active; 'I' for Inactive)
ROOT
ATOM      1  C1  DEN d   1       3.912   0.434   0.062  0.00  0.00     0.130 A 
ATOM      2  C2  DEN d   1       3.642   1.865   0.180  0.00  0.00    -0.031 A 
ATOM      3  C3  DEN d   1       2.178   2.055   0.174  0.00  0.00     0.027 A 
ATOM      4  C4  DEN d   1       0.311   0.284  -0.001  0.00  0.00     0.027 A 
ATOM      5  C5  DEN d   1       0.050  -1.062  -0.131  0.00  0.00    -0.003 A 
ATOM      6  C6  DEN d   1       1.049  -1.993  -0.239  0.00  0.00     0.001 A 
ATOM      7  C7  DEN d   1       2.358  -1.594  -0.174  0.00  0.00     0.017 A 
ATOM      8  C8  DEN d   1       2.630  -0.238  -0.050  0.00  0.00    -0.094 A 
ATOM      9  C9  DEN d   1       1.606   0.686   0.070  0.00  0.00    -0.072 A 
ENDROOT
TORSDOF 0
ENDMDL
