MODEL 1
REMARK minimizedAffinity 0.967901945
REMARK minimizedRMSD -1
REMARK  0 active torsions:
REMARK  status: ('A' for Active; 'I' for Inactive)
ROOT
ATOM      1  C1  DEN d   1      -0.415  -0.289  -0.358  0.00  0.00     0.130 A 
ATOM      2  C2  DEN d   1      -0.845   1.085  -0.113  0.00  0.00    -0.031 A 
ATOM      3  C3  DEN d   1       0.362   1.919   0.054  0.00  0.00     0.027 A 
ATOM      4  C4  DEN d   1       2.843   1.220  -0.046  0.00  0.00     0.027 A 
ATOM      5  C5  DEN d   1       3.704   0.158  -0.217  0.00  0.00    -0.003 A 
ATOM      6  C6  DEN d   1       3.256  -1.121  -0.411  0.00  0.00     0.001 A 
ATOM      7  C7  DEN d   1       1.910  -1.366  -0.484  0.00  0.00     0.017 A 
ATOM      8  C8  DEN d   1       1.036  -0.302  -0.306  0.00  0.00    -0.094 A 
ATOM      9  C9  DEN d   1       1.508   0.987  -0.123  0.00  0.00    -0.072 A 
ENDROOT
TORSDOF 0
ENDMDL
