MODEL 1
REMARK minimizedAffinity -5.8137064
REMARK minimizedRMSD -1
REMARK  0 active torsions:
REMARK  status: ('A' for Active; 'I' for Inactive)
ROOT
ATOM      1  C1  DEN d   1      -0.165  -1.488  -1.220  0.00  0.00     0.130 A 
ATOM      2  C2  DEN d   1      -1.105  -0.386  -1.405  0.00  0.00    -0.031 A 
ATOM      3  C3  DEN d   1      -0.595   0.779  -0.654  0.00  0.00     0.027 A 
ATOM      4  C4  DEN d   1       1.549   0.984   0.764  0.00  0.00     0.027 A 
ATOM      5  C5  DEN d   1       2.658   0.310   1.226  0.00  0.00    -0.003 A 
ATOM      6  C6  DEN d   1       2.884  -1.010   0.936  0.00  0.00     0.001 A 
ATOM      7  C7  DEN d   1       2.011  -1.685   0.124  0.00  0.00     0.017 A 
ATOM      8  C8  DEN d   1       0.887  -1.014  -0.340  0.00  0.00    -0.094 A 
ATOM      9  C9  DEN d   1       0.683   0.323  -0.045  0.00  0.00    -0.072 A 
ENDROOT
TORSDOF 0
ENDMDL
