MODEL 1
REMARK minimizedAffinity 12.4826155
REMARK minimizedRMSD -1
REMARK  1 active torsions:
REMARK  status: ('A' for Active; 'I' for Inactive)
REMARK    1  A    between atoms: C1_2  and  C2_3 
ROOT
ATOM      1  C2  UNL d   1      -0.576   2.629  -1.639  0.00  0.00    -0.073 A 
ATOM      2  C3  UNL d   1      -0.040   3.875  -1.985  0.00  0.00    -0.002 A 
ATOM      3  C4  UNL d   1      -0.679   4.679  -2.929  0.00  0.00     0.004 A 
ATOM      4  C5  UNL d   1      -1.862   4.250  -3.532  0.00  0.00    -0.004 A 
ATOM      5  C6  UNL d   1      -2.419   3.014  -3.191  0.00  0.00    -0.075 A 
ATOM      6  C7  UNL d   1      -3.690   2.537  -3.831  0.00  0.00     0.076 C 
ATOM      7  C8  UNL d   1      -1.770   2.210  -2.243  0.00  0.00     0.001 A 
ENDROOT
BRANCH   1   8
ATOM      8  C1  UNL d   1       0.107   1.760  -0.615  0.00  0.00     0.053 C 
ATOM      9  C   UNL d   1       0.235   2.456   0.730  0.00  0.00     0.018 C 
ENDBRANCH   1   8
TORSDOF 1
ENDMDL
