MODEL 1
REMARK minimizedAffinity 1.77450264
REMARK minimizedRMSD -1
REMARK  1 active torsions:
REMARK  status: ('A' for Active; 'I' for Inactive)
REMARK    1  A    between atoms: C1_2  and  C2_3 
ROOT
ATOM      1  C2  UNL d   1      -3.539  -4.627  -5.957  0.00  0.00    -0.073 A 
ATOM      2  C3  UNL d   1      -2.154  -4.833  -5.941  0.00  0.00    -0.002 A 
ATOM      3  C4  UNL d   1      -1.280  -3.746  -5.949  0.00  0.00     0.004 A 
ATOM      4  C5  UNL d   1      -1.779  -2.443  -5.966  0.00  0.00    -0.004 A 
ATOM      5  C6  UNL d   1      -3.160  -2.217  -5.970  0.00  0.00    -0.075 A 
ATOM      6  C7  UNL d   1      -3.713  -0.823  -5.991  0.00  0.00     0.076 C 
ATOM      7  C8  UNL d   1      -4.031  -3.315  -5.965  0.00  0.00     0.001 A 
ENDROOT
BRANCH   1   8
ATOM      8  C1  UNL d   1      -4.487  -5.799  -5.942  0.00  0.00     0.053 C 
ATOM      9  C   UNL d   1      -5.941  -5.355  -5.952  0.00  0.00     0.018 C 
ENDBRANCH   1   8
TORSDOF 1
ENDMDL
