MODEL 1
REMARK minimizedAffinity 9.9029026
REMARK minimizedRMSD -1
REMARK  1 active torsions:
REMARK  status: ('A' for Active; 'I' for Inactive)
REMARK    1  A    between atoms: C1_2  and  C2_3 
ROOT
ATOM      1  C2  UNL d   1      -0.579  -3.968  -3.383  0.00  0.00    -0.073 A 
ATOM      2  C3  UNL d   1      -0.081  -3.137  -4.393  0.00  0.00    -0.002 A 
ATOM      3  C4  UNL d   1      -0.575  -3.235  -5.694  0.00  0.00     0.004 A 
ATOM      4  C5  UNL d   1      -1.575  -4.158  -5.998  0.00  0.00    -0.004 A 
ATOM      5  C6  UNL d   1      -2.095  -4.989  -5.000  0.00  0.00    -0.075 A 
ATOM      6  C7  UNL d   1      -3.169  -5.989  -5.310  0.00  0.00     0.076 C 
ATOM      7  C8  UNL d   1      -1.591  -4.887  -3.696  0.00  0.00     0.001 A 
ENDROOT
BRANCH   1   8
ATOM      8  C1  UNL d   1      -0.054  -3.861  -1.975  0.00  0.00     0.053 C 
ATOM      9  C   UNL d   1       1.029  -4.890  -1.691  0.00  0.00     0.018 C 
ENDBRANCH   1   8
TORSDOF 1
ENDMDL
