MODEL 1
REMARK minimizedAffinity 8.72941494
REMARK minimizedRMSD -1
REMARK  1 active torsions:
REMARK  status: ('A' for Active; 'I' for Inactive)
REMARK    1  A    between atoms: C3_4  and  O_7 
ROOT
ATOM      1  C   UNL d   1       1.817   0.933   3.571  0.00  0.00    -0.033 A 
ATOM      2  C1  UNL d   1       1.966  -0.335   3.006  0.00  0.00     0.039 A 
ATOM      3  C2  UNL d   1       2.764  -0.508   1.874  0.00  0.00    -0.080 A 
ATOM      4  C3  UNL d   1       3.408   0.594   1.318  0.00  0.00     0.150 A 
ATOM      5  C4  UNL d   1       3.268   1.860   1.878  0.00  0.00    -0.007 A 
ATOM      6  C5  UNL d   1       2.470   2.030   3.008  0.00  0.00     0.039 A 
ENDROOT
BRANCH   4   7
ATOM      7  O   UNL d   1       4.194   0.476   0.210  0.00  0.00    -0.526 OA
ATOM      8  H5  UNL d   1       4.174  -0.450  -0.084  0.00  0.00     0.418 HD
ENDBRANCH   4   7
TORSDOF 1
ENDMDL
