MODEL 1
REMARK minimizedAffinity 3.6623745
REMARK minimizedRMSD -1
REMARK  1 active torsions:
REMARK  status: ('A' for Active; 'I' for Inactive)
REMARK    1  A    between atoms: C3_4  and  O_7 
ROOT
ATOM      1  C   UNL d   1       2.152  -5.997   0.761  0.00  0.00    -0.033 A 
ATOM      2  C1  UNL d   1       3.369  -5.988   0.076  0.00  0.00     0.039 A 
ATOM      3  C2  UNL d   1       3.386  -5.986  -1.320  0.00  0.00    -0.080 A 
ATOM      4  C3  UNL d   1       2.181  -5.992  -2.018  0.00  0.00     0.150 A 
ATOM      5  C4  UNL d   1       0.966  -5.997  -1.342  0.00  0.00    -0.007 A 
ATOM      6  C5  UNL d   1       0.951  -6.000   0.052  0.00  0.00     0.039 A 
ENDROOT
BRANCH   4   7
ATOM      7  O   UNL d   1       2.147  -5.995  -3.381  0.00  0.00    -0.526 OA
ATOM      8  H5  UNL d   1       3.061  -6.020  -3.711  0.00  0.00     0.418 HD
ENDBRANCH   4   7
TORSDOF 1
ENDMDL
