MODEL 1
REMARK minimizedAffinity 0.267701477
REMARK minimizedRMSD -1
REMARK  1 active torsions:
REMARK  status: ('A' for Active; 'I' for Inactive)
REMARK    1  A    between atoms: C3_4  and  O_7 
ROOT
ATOM      1  C   UNL d   1       1.776  -2.248   2.692  0.00  0.00    -0.033 A 
ATOM      2  C1  UNL d   1       2.434  -1.816   3.845  0.00  0.00     0.039 A 
ATOM      3  C2  UNL d   1       3.149  -2.726   4.626  0.00  0.00    -0.080 A 
ATOM      4  C3  UNL d   1       3.199  -4.063   4.243  0.00  0.00     0.150 A 
ATOM      5  C4  UNL d   1       2.549  -4.500   3.094  0.00  0.00    -0.007 A 
ATOM      6  C5  UNL d   1       1.834  -3.590   2.316  0.00  0.00     0.039 A 
ENDROOT
BRANCH   4   7
ATOM      7  O   UNL d   1       3.881  -4.989   4.975  0.00  0.00    -0.526 OA
ATOM      8  H5  UNL d   1       4.255  -4.548   5.756  0.00  0.00     0.418 HD
ENDBRANCH   4   7
TORSDOF 1
ENDMDL
