MODEL 1
REMARK minimizedAffinity 0.233370125
REMARK minimizedRMSD -1
REMARK  1 active torsions:
REMARK  status: ('A' for Active; 'I' for Inactive)
REMARK    1  A    between atoms: C3_4  and  O_7 
ROOT
ATOM      1  C   UNL d   1       5.697  -4.877   1.765  0.00  0.00    -0.033 A 
ATOM      2  C1  UNL d   1       5.999  -3.530   1.978  0.00  0.00     0.039 A 
ATOM      3  C2  UNL d   1       5.108  -2.715   2.678  0.00  0.00    -0.080 A 
ATOM      4  C3  UNL d   1       3.920  -3.258   3.161  0.00  0.00     0.150 A 
ATOM      5  C4  UNL d   1       3.614  -4.599   2.955  0.00  0.00    -0.007 A 
ATOM      6  C5  UNL d   1       4.505  -5.411   2.255  0.00  0.00     0.039 A 
ENDROOT
BRANCH   4   7
ATOM      7  O   UNL d   1       3.017  -2.501   3.846  0.00  0.00    -0.526 OA
ATOM      8  H5  UNL d   1       3.348  -1.588   3.886  0.00  0.00     0.418 HD
ENDBRANCH   4   7
TORSDOF 1
ENDMDL
