MODEL 1
REMARK minimizedAffinity 4.14737606
REMARK minimizedRMSD -1
REMARK  1 active torsions:
REMARK  status: ('A' for Active; 'I' for Inactive)
REMARK    1  A    between atoms: C3_4  and  O_7 
ROOT
ATOM      1  C   UNL d   1       3.156  -5.797  -1.106  0.00  0.00    -0.033 A 
ATOM      2  C1  UNL d   1       4.537  -6.000  -1.094  0.00  0.00     0.039 A 
ATOM      3  C2  UNL d   1       5.257  -5.985  -2.290  0.00  0.00    -0.080 A 
ATOM      4  C3  UNL d   1       4.585  -5.767  -3.490  0.00  0.00     0.150 A 
ATOM      5  C4  UNL d   1       3.210  -5.560  -3.509  0.00  0.00    -0.007 A 
ATOM      6  C5  UNL d   1       2.492  -5.576  -2.313  0.00  0.00     0.039 A 
ENDROOT
BRANCH   4   7
ATOM      7  O   UNL d   1       5.244  -5.748  -4.683  0.00  0.00    -0.526 OA
ATOM      8  H5  UNL d   1       6.184  -5.934  -4.518  0.00  0.00     0.418 HD
ENDBRANCH   4   7
TORSDOF 1
ENDMDL
