MODEL 1
REMARK minimizedAffinity 3.20857859
REMARK minimizedRMSD -1
REMARK  1 active torsions:
REMARK  status: ('A' for Active; 'I' for Inactive)
REMARK    1  A    between atoms: C3_4  and  O_7 
ROOT
ATOM      1  C   UNL d   1       3.077  -1.597   2.118  0.00  0.00    -0.033 A 
ATOM      2  C1  UNL d   1       2.093  -1.635   3.108  0.00  0.00     0.039 A 
ATOM      3  C2  UNL d   1       0.812  -1.147   2.840  0.00  0.00    -0.080 A 
ATOM      4  C3  UNL d   1       0.529  -0.625   1.580  0.00  0.00     0.150 A 
ATOM      5  C4  UNL d   1       1.504  -0.588   0.589  0.00  0.00    -0.007 A 
ATOM      6  C5  UNL d   1       2.783  -1.075   0.858  0.00  0.00     0.039 A 
ENDROOT
BRANCH   4   7
ATOM      7  O   UNL d   1      -0.704  -0.133   1.274  0.00  0.00    -0.526 OA
ATOM      8  H5  UNL d   1      -1.267  -0.198   2.064  0.00  0.00     0.418 HD
ENDBRANCH   4   7
TORSDOF 1
ENDMDL
