MODEL 1
REMARK minimizedAffinity -0.710394859
REMARK minimizedRMSD -1
REMARK  1 active torsions:
REMARK  status: ('A' for Active; 'I' for Inactive)
REMARK    1  A    between atoms: C3_4  and  O_7 
ROOT
ATOM      1  C   UNL d   1       4.820  -5.994  -1.521  0.00  0.00    -0.033 A 
ATOM      2  C1  UNL d   1       3.505  -5.997  -1.990  0.00  0.00     0.039 A 
ATOM      3  C2  UNL d   1       3.252  -6.000  -3.363  0.00  0.00    -0.080 A 
ATOM      4  C3  UNL d   1       4.320  -6.000  -4.255  0.00  0.00     0.150 A 
ATOM      5  C4  UNL d   1       5.633  -6.000  -3.795  0.00  0.00    -0.007 A 
ATOM      6  C5  UNL d   1       5.884  -5.996  -2.424  0.00  0.00     0.039 A 
ENDROOT
BRANCH   4   7
ATOM      7  O   UNL d   1       4.122  -5.997  -5.604  0.00  0.00    -0.526 OA
ATOM      8  H5  UNL d   1       3.166  -5.968  -5.774  0.00  0.00     0.418 HD
ENDBRANCH   4   7
TORSDOF 1
ENDMDL
