MODEL 1
REMARK minimizedAffinity 4.7009697
REMARK minimizedRMSD -1
REMARK  0 active torsions:
REMARK  status: ('A' for Active; 'I' for Inactive)
ROOT
ATOM      1  C2' OXE d   1      -5.908  -3.489  -5.995  0.00  0.00     0.078 C 
ATOM      2  C1' OXE d   1      -5.910  -0.682  -5.976  0.00  0.00     0.078 C 
ATOM      3  C1  OXE d   1      -4.575  -1.385  -5.978  0.00  0.00    -0.078 A 
ATOM      4  C2  OXE d   1      -4.584  -2.759  -5.940  0.00  0.00    -0.078 A 
ATOM      5  C3  OXE d   1      -3.382  -3.458  -5.996  0.00  0.00     0.003 A 
ATOM      6  C4  OXE d   1      -2.161  -2.774  -5.935  0.00  0.00    -0.002 A 
ATOM      7  C5  OXE d   1      -2.130  -1.376  -5.933  0.00  0.00    -0.002 A 
ATOM      8  C6  OXE d   1      -3.325  -0.667  -5.997  0.00  0.00     0.003 A 
ENDROOT
TORSDOF 0
ENDMDL
