MODEL 1
REMARK minimizedAffinity 5.96794415
REMARK minimizedRMSD -1
REMARK  0 active torsions:
REMARK  status: ('A' for Active; 'I' for Inactive)
ROOT
ATOM      1  C2' OXE d   1       0.576  -0.179   1.087  0.00  0.00     0.078 C 
ATOM      2  C1' OXE d   1      -1.927   0.493   2.167  0.00  0.00     0.078 C 
ATOM      3  C1  OXE d   1      -1.324  -0.833   2.560  0.00  0.00    -0.078 A 
ATOM      4  C2  OXE d   1      -0.121  -1.174   1.990  0.00  0.00    -0.078 A 
ATOM      5  C3  OXE d   1       0.505  -2.361   2.360  0.00  0.00     0.003 A 
ATOM      6  C4  OXE d   1      -0.150  -3.280   3.189  0.00  0.00    -0.002 A 
ATOM      7  C5  OXE d   1      -1.394  -2.970   3.749  0.00  0.00    -0.002 A 
ATOM      8  C6  OXE d   1      -1.974  -1.735   3.479  0.00  0.00     0.003 A 
ENDROOT
TORSDOF 0
ENDMDL
