MODEL 1
REMARK minimizedAffinity 1.49568093
REMARK minimizedRMSD -1
REMARK  0 active torsions:
REMARK  status: ('A' for Active; 'I' for Inactive)
ROOT
ATOM      1  C2' OXE d   1       1.533   0.016  -0.002  0.00  0.00     0.078 C 
ATOM      2  C1' OXE d   1      -1.029   0.440   1.064  0.00  0.00     0.078 C 
ATOM      3  C1  OXE d   1      -0.232  -0.727   1.591  0.00  0.00    -0.078 A 
ATOM      4  C2  OXE d   1       1.002  -0.955   1.030  0.00  0.00    -0.078 A 
ATOM      5  C3  OXE d   1       1.801  -1.985   1.517  0.00  0.00     0.003 A 
ATOM      6  C4  OXE d   1       1.298  -2.884   2.465  0.00  0.00    -0.002 A 
ATOM      7  C5  OXE d   1       0.028  -2.694   3.021  0.00  0.00    -0.002 A 
ATOM      8  C6  OXE d   1      -0.731  -1.598   2.626  0.00  0.00     0.003 A 
ENDROOT
TORSDOF 0
ENDMDL
