MODEL 1
REMARK minimizedAffinity 2.11791468
REMARK minimizedRMSD -1
REMARK  0 active torsions:
REMARK  status: ('A' for Active; 'I' for Inactive)
ROOT
ATOM      1  C2' OXE d   1      -1.053  -0.288   1.987  0.00  0.00     0.078 C 
ATOM      2  C1' OXE d   1       0.812  -0.481  -0.102  0.00  0.00     0.078 C 
ATOM      3  C1  OXE d   1       0.766  -1.602   0.906  0.00  0.00    -0.078 A 
ATOM      4  C2  OXE d   1      -0.117  -1.477   1.951  0.00  0.00    -0.078 A 
ATOM      5  C3  OXE d   1      -0.238  -2.507   2.879  0.00  0.00     0.003 A 
ATOM      6  C4  OXE d   1       0.639  -3.599   2.844  0.00  0.00    -0.002 A 
ATOM      7  C5  OXE d   1       1.573  -3.727   1.811  0.00  0.00    -0.002 A 
ATOM      8  C6  OXE d   1       1.620  -2.760   0.812  0.00  0.00     0.003 A 
ENDROOT
TORSDOF 0
ENDMDL
