MODEL 1
REMARK minimizedAffinity 7.94254637
REMARK minimizedRMSD -1
REMARK  0 active torsions:
REMARK  status: ('A' for Active; 'I' for Inactive)
ROOT
ATOM      1  C2' OXE d   1       5.993   0.743   0.426  0.00  0.00     0.078 C 
ATOM      2  C1' OXE d   1       3.276   0.702  -0.279  0.00  0.00     0.078 C 
ATOM      3  C1  OXE d   1       3.975  -0.622  -0.097  0.00  0.00    -0.078 A 
ATOM      4  C2  OXE d   1       5.316  -0.593   0.202  0.00  0.00    -0.078 A 
ATOM      5  C3  OXE d   1       5.997  -1.784   0.434  0.00  0.00     0.003 A 
ATOM      6  C4  OXE d   1       5.366  -3.015   0.215  0.00  0.00    -0.002 A 
ATOM      7  C5  OXE d   1       4.011  -3.067  -0.128  0.00  0.00    -0.002 A 
ATOM      8  C6  OXE d   1       3.292  -1.883  -0.247  0.00  0.00     0.003 A 
ENDROOT
TORSDOF 0
ENDMDL
