MODEL 1
REMARK minimizedAffinity -2.02548194
REMARK minimizedRMSD -1
REMARK  0 active torsions:
REMARK  status: ('A' for Active; 'I' for Inactive)
ROOT
ATOM      1  C2' OXE d   1       4.403  -3.622   3.824  0.00  0.00     0.078 C 
ATOM      2  C1' OXE d   1       5.377  -4.456   1.326  0.00  0.00     0.078 C 
ATOM      3  C1  OXE d   1       4.134  -3.602   1.347  0.00  0.00    -0.078 A 
ATOM      4  C2  OXE d   1       3.638  -3.237   2.576  0.00  0.00    -0.078 A 
ATOM      5  C3  OXE d   1       2.525  -2.404   2.651  0.00  0.00     0.003 A 
ATOM      6  C4  OXE d   1       1.817  -2.061   1.492  0.00  0.00    -0.002 A 
ATOM      7  C5  OXE d   1       2.282  -2.455   0.233  0.00  0.00    -0.002 A 
ATOM      8  C6  OXE d   1       3.460  -3.189   0.141  0.00  0.00     0.003 A 
ENDROOT
TORSDOF 0
ENDMDL
