MODEL 1
REMARK minimizedAffinity 15.5624962
REMARK minimizedRMSD -1
REMARK  0 active torsions:
REMARK  status: ('A' for Active; 'I' for Inactive)
ROOT
ATOM      1  C2' OXE d   1       4.124  -5.984   2.996  0.00  0.00     0.078 C 
ATOM      2  C1' OXE d   1       5.429  -3.827   1.764  0.00  0.00     0.078 C 
ATOM      3  C1  OXE d   1       5.218  -3.762   3.256  0.00  0.00    -0.078 A 
ATOM      4  C2  OXE d   1       4.537  -4.800   3.844  0.00  0.00    -0.078 A 
ATOM      5  C3  OXE d   1       4.362  -4.816   5.225  0.00  0.00     0.003 A 
ATOM      6  C4  OXE d   1       4.739  -3.712   5.999  0.00  0.00    -0.002 A 
ATOM      7  C5  OXE d   1       5.398  -2.626   5.415  0.00  0.00    -0.002 A 
ATOM      8  C6  OXE d   1       5.683  -2.654   4.054  0.00  0.00     0.003 A 
ENDROOT
TORSDOF 0
ENDMDL
