MODEL 1
REMARK minimizedAffinity 5.21176672
REMARK minimizedRMSD -1
REMARK  0 active torsions:
REMARK  status: ('A' for Active; 'I' for Inactive)
ROOT
ATOM      1  C2' OXE d   1      -2.465   0.680   3.271  0.00  0.00     0.078 C 
ATOM      2  C1' OXE d   1      -2.601  -1.960   2.326  0.00  0.00     0.078 C 
ATOM      3  C1  OXE d   1      -1.236  -1.338   2.482  0.00  0.00    -0.078 A 
ATOM      4  C2  OXE d   1      -1.181  -0.030   2.901  0.00  0.00    -0.078 A 
ATOM      5  C3  OXE d   1       0.055   0.574   3.114  0.00  0.00     0.003 A 
ATOM      6  C4  OXE d   1       1.237  -0.086   2.760  0.00  0.00    -0.002 A 
ATOM      7  C5  OXE d   1       1.202  -1.404   2.294  0.00  0.00    -0.002 A 
ATOM      8  C6  OXE d   1      -0.021  -2.058   2.190  0.00  0.00     0.003 A 
ENDROOT
TORSDOF 0
ENDMDL
