MODEL 1
REMARK minimizedAffinity 0.387996227
REMARK minimizedRMSD -1
REMARK  0 active torsions:
REMARK  status: ('A' for Active; 'I' for Inactive)
ROOT
ATOM      1  C2' OXE d   1       1.886  -0.834  -0.977  0.00  0.00     0.078 C 
ATOM      2  C1' OXE d   1       2.510  -2.959   0.748  0.00  0.00     0.078 C 
ATOM      3  C1  OXE d   1       1.437  -1.991   1.183  0.00  0.00    -0.078 A 
ATOM      4  C2  OXE d   1       1.172  -0.928   0.353  0.00  0.00    -0.078 A 
ATOM      5  C3  OXE d   1       0.154  -0.037   0.680  0.00  0.00     0.003 A 
ATOM      6  C4  OXE d   1      -0.496  -0.125   1.917  0.00  0.00    -0.002 A 
ATOM      7  C5  OXE d   1      -0.212  -1.177   2.794  0.00  0.00    -0.002 A 
ATOM      8  C6  OXE d   1       0.719  -2.141   2.424  0.00  0.00     0.003 A 
ENDROOT
TORSDOF 0
ENDMDL
