MODEL 1
REMARK minimizedAffinity 0.286598712
REMARK minimizedRMSD -1
REMARK  0 active torsions:
REMARK  status: ('A' for Active; 'I' for Inactive)
ROOT
ATOM      1  C2' OXE d   1      -0.288  -2.094   3.044  0.00  0.00     0.078 C 
ATOM      2  C1' OXE d   1       0.574  -0.987   0.612  0.00  0.00     0.078 C 
ATOM      3  C1  OXE d   1       1.228  -2.265   1.075  0.00  0.00    -0.078 A 
ATOM      4  C2  OXE d   1       0.832  -2.774   2.289  0.00  0.00    -0.078 A 
ATOM      5  C3  OXE d   1       1.364  -3.980   2.737  0.00  0.00     0.003 A 
ATOM      6  C4  OXE d   1       2.408  -4.598   2.037  0.00  0.00    -0.002 A 
ATOM      7  C5  OXE d   1       2.853  -4.075   0.818  0.00  0.00    -0.002 A 
ATOM      8  C6  OXE d   1       2.245  -2.935   0.303  0.00  0.00     0.003 A 
ENDROOT
TORSDOF 0
ENDMDL
