MODEL 1
REMARK minimizedAffinity 4.23907995
REMARK minimizedRMSD -1
REMARK  0 active torsions:
REMARK  status: ('A' for Active; 'I' for Inactive)
ROOT
ATOM      1  C   UNL d   1      -0.872   2.901  -0.789  0.00  0.00     0.020 A 
ATOM      2  C1  UNL d   1       0.057   2.316   0.071  0.00  0.00     0.020 A 
ATOM      3  C2  UNL d   1      -0.371   1.436   1.066  0.00  0.00     0.034 A 
ATOM      4  C3  UNL d   1      -1.732   1.138   1.205  0.00  0.00     0.017 A 
ATOM      5  C4  UNL d   1      -2.663   1.725   0.341  0.00  0.00     0.017 A 
ATOM      6  C5  UNL d   1      -2.229   2.606  -0.654  0.00  0.00     0.034 A 
ATOM      7 Cl   UNL d   1      -4.359   1.406   0.450  0.00  0.00    -0.070 Cl
ATOM      8 Cl1  UNL d   1      -2.191   0.040   2.458  0.00  0.00    -0.070 Cl
ENDROOT
TORSDOF 0
ENDMDL
