MODEL 1
REMARK minimizedAffinity 10.2520571
REMARK minimizedRMSD -1
REMARK  0 active torsions:
REMARK  status: ('A' for Active; 'I' for Inactive)
ROOT
ATOM      1  C   UNL d   1      -0.537   2.295   0.066  0.00  0.00     0.020 A 
ATOM      2  C1  UNL d   1      -1.223   3.270  -0.657  0.00  0.00     0.020 A 
ATOM      3  C2  UNL d   1      -2.607   3.176  -0.818  0.00  0.00     0.034 A 
ATOM      4  C3  UNL d   1      -3.310   2.104  -0.255  0.00  0.00     0.017 A 
ATOM      5  C4  UNL d   1      -2.621   1.126   0.470  0.00  0.00     0.017 A 
ATOM      6  C5  UNL d   1      -1.235   1.225   0.629  0.00  0.00     0.034 A 
ATOM      7 Cl   UNL d   1      -3.419  -0.225   1.194  0.00  0.00    -0.070 Cl
ATOM      8 Cl1  UNL d   1      -5.020   2.051  -0.494  0.00  0.00    -0.070 Cl
ENDROOT
TORSDOF 0
ENDMDL
