MODEL 1
REMARK minimizedAffinity 1.68006647
REMARK minimizedRMSD -1
REMARK  0 active torsions:
REMARK  status: ('A' for Active; 'I' for Inactive)
ROOT
ATOM      1  C   UNL d   1      -0.012   1.762   0.159  0.00  0.00     0.020 A 
ATOM      2  C1  UNL d   1      -0.054   0.647   0.995  0.00  0.00     0.020 A 
ATOM      3  C2  UNL d   1      -1.276   0.032   1.277  0.00  0.00     0.034 A 
ATOM      4  C3  UNL d   1      -2.460   0.532   0.724  0.00  0.00     0.017 A 
ATOM      5  C4  UNL d   1      -2.417   1.652  -0.115  0.00  0.00     0.017 A 
ATOM      6  C5  UNL d   1      -1.191   2.263  -0.395  0.00  0.00     0.034 A 
ATOM      7 Cl   UNL d   1      -3.836   2.326  -0.835  0.00  0.00    -0.070 Cl
ATOM      8 Cl1  UNL d   1      -3.935  -0.278   1.116  0.00  0.00    -0.070 Cl
ENDROOT
TORSDOF 0
ENDMDL
