MODEL 1
REMARK minimizedAffinity -4.05624914
REMARK minimizedRMSD -1
REMARK  0 active torsions:
REMARK  status: ('A' for Active; 'I' for Inactive)
ROOT
ATOM      1  C   UNL d   1       0.841   1.628   0.354  0.00  0.00     0.020 A 
ATOM      2  C1  UNL d   1      -0.019   2.486  -0.330  0.00  0.00     0.020 A 
ATOM      3  C2  UNL d   1      -1.401   2.311  -0.234  0.00  0.00     0.034 A 
ATOM      4  C3  UNL d   1      -1.927   1.276   0.547  0.00  0.00     0.017 A 
ATOM      5  C4  UNL d   1      -1.063   0.415   1.233  0.00  0.00     0.017 A 
ATOM      6  C5  UNL d   1       0.320   0.595   1.134  0.00  0.00     0.034 A 
ATOM      7 Cl   UNL d   1      -1.638  -0.885   2.216  0.00  0.00    -0.070 Cl
ATOM      8 Cl1  UNL d   1      -3.646   1.118   0.620  0.00  0.00    -0.070 Cl
ENDROOT
TORSDOF 0
ENDMDL
