MODEL 1
REMARK minimizedAffinity 2.34560227
REMARK minimizedRMSD -1
REMARK  0 active torsions:
REMARK  status: ('A' for Active; 'I' for Inactive)
ROOT
ATOM      1  C   UNL d   1      -2.617   2.100  -0.726  0.00  0.00     0.020 A 
ATOM      2  C1  UNL d   1      -3.314   1.025  -0.177  0.00  0.00     0.020 A 
ATOM      3  C2  UNL d   1      -2.684   0.176   0.736  0.00  0.00     0.034 A 
ATOM      4  C3  UNL d   1      -1.352   0.402   1.102  0.00  0.00     0.017 A 
ATOM      5  C4  UNL d   1      -0.653   1.481   0.550  0.00  0.00     0.017 A 
ATOM      6  C5  UNL d   1      -1.289   2.328  -0.363  0.00  0.00     0.034 A 
ATOM      7 Cl   UNL d   1       0.993   1.824   0.954  0.00  0.00    -0.070 Cl
ATOM      8 Cl1  UNL d   1      -0.635  -0.687   2.236  0.00  0.00    -0.070 Cl
ENDROOT
TORSDOF 0
ENDMDL
