MODEL 1
REMARK minimizedAffinity -1.25764453
REMARK minimizedRMSD -1
REMARK  0 active torsions:
REMARK  status: ('A' for Active; 'I' for Inactive)
ROOT
ATOM      1  C   UNL d   1      -0.487   1.503   0.185  0.00  0.00     0.020 A 
ATOM      2  C1  UNL d   1      -0.529   0.281   0.856  0.00  0.00     0.020 A 
ATOM      3  C2  UNL d   1      -1.754  -0.244   1.273  0.00  0.00     0.034 A 
ATOM      4  C3  UNL d   1      -2.941   0.452   1.019  0.00  0.00     0.017 A 
ATOM      5  C4  UNL d   1      -2.898   1.678   0.345  0.00  0.00     0.017 A 
ATOM      6  C5  UNL d   1      -1.669   2.199  -0.070  0.00  0.00     0.034 A 
ATOM      7 Cl   UNL d   1      -4.321   2.594  -0.004  0.00  0.00    -0.070 Cl
ATOM      8 Cl1  UNL d   1      -4.420  -0.258   1.563  0.00  0.00    -0.070 Cl
ENDROOT
TORSDOF 0
ENDMDL
