MODEL 1
REMARK minimizedAffinity -0.657049119
REMARK minimizedRMSD -1
REMARK  0 active torsions:
REMARK  status: ('A' for Active; 'I' for Inactive)
ROOT
ATOM      1  C   UNL d   1       0.374   0.327   1.093  0.00  0.00     0.020 A 
ATOM      2  C1  UNL d   1       0.429   1.499   0.339  0.00  0.00     0.020 A 
ATOM      3  C2  UNL d   1      -0.752   2.116  -0.078  0.00  0.00     0.034 A 
ATOM      4  C3  UNL d   1      -1.993   1.562   0.258  0.00  0.00     0.017 A 
ATOM      5  C4  UNL d   1      -2.047   0.386   1.014  0.00  0.00     0.017 A 
ATOM      6  C5  UNL d   1      -0.861  -0.228   1.429  0.00  0.00     0.034 A 
ATOM      7 Cl   UNL d   1      -3.540  -0.357   1.467  0.00  0.00    -0.070 Cl
ATOM      8 Cl1  UNL d   1      -3.413   2.380  -0.291  0.00  0.00    -0.070 Cl
ENDROOT
TORSDOF 0
ENDMDL
