MODEL 1
REMARK minimizedAffinity 4.19486046
REMARK minimizedRMSD -1
REMARK  0 active torsions:
REMARK  status: ('A' for Active; 'I' for Inactive)
ROOT
ATOM      1  C   UNL d   1      -2.472  -2.103  -2.593  0.00  0.00     0.020 A 
ATOM      2  C1  UNL d   1      -3.033  -2.235  -1.323  0.00  0.00     0.020 A 
ATOM      3  C2  UNL d   1      -2.730  -3.349  -0.538  0.00  0.00     0.034 A 
ATOM      4  C3  UNL d   1      -1.863  -4.336  -1.022  0.00  0.00     0.017 A 
ATOM      5  C4  UNL d   1      -1.300  -4.202  -2.296  0.00  0.00     0.017 A 
ATOM      6  C5  UNL d   1      -1.607  -3.084  -3.078  0.00  0.00     0.034 A 
ATOM      7 Cl   UNL d   1      -0.221  -5.378  -2.961  0.00  0.00    -0.070 Cl
ATOM      8 Cl1  UNL d   1      -1.532  -5.687   0.003  0.00  0.00    -0.070 Cl
ENDROOT
TORSDOF 0
ENDMDL
