MODEL 1
REMARK minimizedAffinity 1.47050273
REMARK minimizedRMSD -1
REMARK  0 active torsions:
REMARK  status: ('A' for Active; 'I' for Inactive)
ROOT
ATOM      1  C   UNL d   1       0.059   0.887   0.913  0.00  0.00     0.020 A 
ATOM      2  C1  UNL d   1      -0.205   2.003   0.121  0.00  0.00     0.020 A 
ATOM      3  C2  UNL d   1      -1.522   2.330  -0.209  0.00  0.00     0.034 A 
ATOM      4  C3  UNL d   1      -2.580   1.538   0.254  0.00  0.00     0.017 A 
ATOM      5  C4  UNL d   1      -2.314   0.418   1.049  0.00  0.00     0.017 A 
ATOM      6  C5  UNL d   1      -0.993   0.096   1.376  0.00  0.00     0.034 A 
ATOM      7 Cl   UNL d   1      -3.566  -0.606   1.657  0.00  0.00    -0.070 Cl
ATOM      8 Cl1  UNL d   1      -4.184   2.001  -0.193  0.00  0.00    -0.070 Cl
ENDROOT
TORSDOF 0
ENDMDL
