MODEL 1
REMARK minimizedAffinity 8.88738155
REMARK minimizedRMSD -1
REMARK  0 active torsions:
REMARK  status: ('A' for Active; 'I' for Inactive)
ROOT
ATOM      1  C   UNL d   1       0.449   2.321   0.527  0.00  0.00     0.020 A 
ATOM      2  C1  UNL d   1       0.634   1.213   1.353  0.00  0.00     0.020 A 
ATOM      3  C2  UNL d   1      -0.418   0.321   1.572  0.00  0.00     0.034 A 
ATOM      4  C3  UNL d   1      -1.661   0.536   0.964  0.00  0.00     0.017 A 
ATOM      5  C4  UNL d   1      -1.845   1.649   0.135  0.00  0.00     0.017 A 
ATOM      6  C5  UNL d   1      -0.788   2.538  -0.081  0.00  0.00     0.034 A 
ATOM      7 Cl   UNL d   1      -3.349   1.980  -0.650  0.00  0.00    -0.070 Cl
ATOM      8 Cl1  UNL d   1      -2.917  -0.607   1.278  0.00  0.00    -0.070 Cl
ENDROOT
TORSDOF 0
ENDMDL
