MODEL 1
REMARK minimizedAffinity 0.908241987
REMARK minimizedRMSD -1
REMARK  0 active torsions:
REMARK  status: ('A' for Active; 'I' for Inactive)
ROOT
ATOM      1  C   UNL d   1       0.022   1.898  -0.056  0.00  0.00     0.020 A 
ATOM      2  C1  UNL d   1       0.287   0.770   0.720  0.00  0.00     0.020 A 
ATOM      3  C2  UNL d   1      -0.768   0.027   1.256  0.00  0.00     0.034 A 
ATOM      4  C3  UNL d   1      -2.092   0.412   1.016  0.00  0.00     0.017 A 
ATOM      5  C4  UNL d   1      -2.357   1.544   0.237  0.00  0.00     0.017 A 
ATOM      6  C5  UNL d   1      -1.297   2.284  -0.297  0.00  0.00     0.034 A 
ATOM      7 Cl   UNL d   1      -3.964   2.080  -0.102  0.00  0.00    -0.070 Cl
ATOM      8 Cl1  UNL d   1      -3.346  -0.553   1.710  0.00  0.00    -0.070 Cl
ENDROOT
TORSDOF 0
ENDMDL
