MODEL 1
REMARK minimizedAffinity 2.53651595
REMARK minimizedRMSD -1
REMARK  0 active torsions:
REMARK  status: ('A' for Active; 'I' for Inactive)
ROOT
ATOM      1  C   UNL d   1      -1.006   2.972  -0.439  0.00  0.00     0.020 A 
ATOM      2  C1  UNL d   1      -0.017   2.421   0.376  0.00  0.00     0.020 A 
ATOM      3  C2  UNL d   1      -0.348   1.428   1.300  0.00  0.00     0.034 A 
ATOM      4  C3  UNL d   1      -1.670   0.982   1.412  0.00  0.00     0.017 A 
ATOM      5  C4  UNL d   1      -2.661   1.536   0.593  0.00  0.00     0.017 A 
ATOM      6  C5  UNL d   1      -2.325   2.530  -0.331  0.00  0.00     0.034 A 
ATOM      7 Cl   UNL d   1      -4.315   1.037   0.673  0.00  0.00    -0.070 Cl
ATOM      8 Cl1  UNL d   1      -2.007  -0.249   2.576  0.00  0.00    -0.070 Cl
ENDROOT
TORSDOF 0
ENDMDL
