MODEL 1
REMARK minimizedAffinity -1.01122916
REMARK minimizedRMSD -1
REMARK  0 active torsions:
REMARK  status: ('A' for Active; 'I' for Inactive)
ROOT
ATOM      1  C   UNL d   1      -3.524   1.457   0.201  0.00  0.00     0.020 A 
ATOM      2  C1  UNL d   1      -2.645   2.315  -0.459  0.00  0.00     0.020 A 
ATOM      3  C2  UNL d   1      -1.272   2.229  -0.215  0.00  0.00     0.034 A 
ATOM      4  C3  UNL d   1      -0.776   1.283   0.689  0.00  0.00     0.017 A 
ATOM      5  C4  UNL d   1      -1.660   0.423   1.351  0.00  0.00     0.017 A 
ATOM      6  C5  UNL d   1      -3.033   0.513   1.103  0.00  0.00     0.034 A 
ATOM      7 Cl   UNL d   1      -1.122  -0.769   2.481  0.00  0.00    -0.070 Cl
ATOM      8 Cl1  UNL d   1       0.933   1.233   0.942  0.00  0.00    -0.070 Cl
ENDROOT
TORSDOF 0
ENDMDL
