MODEL 1
REMARK minimizedAffinity 1.66990805
REMARK minimizedRMSD -1
REMARK  0 active torsions:
REMARK  status: ('A' for Active; 'I' for Inactive)
ROOT
ATOM      1  C   UNL d   1       2.985   1.202   0.597  0.00  0.00     0.020 A 
ATOM      2  C1  UNL d   1       3.142   2.146   1.611  0.00  0.00     0.020 A 
ATOM      3  C2  UNL d   1       2.029   2.599   2.323  0.00  0.00     0.034 A 
ATOM      4  C3  UNL d   1       0.754   2.108   2.022  0.00  0.00     0.017 A 
ATOM      5  C4  UNL d   1       0.597   1.160   1.004  0.00  0.00     0.017 A 
ATOM      6  C5  UNL d   1       1.714   0.710   0.294  0.00  0.00     0.034 A 
ATOM      7 Cl   UNL d   1      -0.945   0.507   0.575  0.00  0.00    -0.070 Cl
ATOM      8 Cl1  UNL d   1      -0.578   2.711   2.943  0.00  0.00    -0.070 Cl
ENDROOT
TORSDOF 0
ENDMDL
