MODEL 1
REMARK minimizedAffinity 6.03077173
REMARK minimizedRMSD -1
REMARK  0 active torsions:
REMARK  status: ('A' for Active; 'I' for Inactive)
ROOT
ATOM      1  C   UNL d   1      -2.295   2.435  -0.606  0.00  0.00     0.020 A 
ATOM      2  C1  UNL d   1      -1.488   1.624   0.190  0.00  0.00     0.020 A 
ATOM      3  C2  UNL d   1      -2.070   0.728   1.090  0.00  0.00     0.034 A 
ATOM      4  C3  UNL d   1      -3.463   0.642   1.195  0.00  0.00     0.017 A 
ATOM      5  C4  UNL d   1      -4.272   1.457   0.394  0.00  0.00     0.017 A 
ATOM      6  C5  UNL d   1      -3.684   2.351  -0.505  0.00  0.00     0.034 A 
ATOM      7 Cl   UNL d   1      -5.998   1.407   0.467  0.00  0.00    -0.070 Cl
ATOM      8 Cl1  UNL d   1      -4.116  -0.488   2.328  0.00  0.00    -0.070 Cl
ENDROOT
TORSDOF 0
ENDMDL
