MODEL 1
REMARK minimizedAffinity -1.40912867
REMARK minimizedRMSD -1
REMARK  0 active torsions:
REMARK  status: ('A' for Active; 'I' for Inactive)
ROOT
ATOM      1  C   UNL d   1      -0.245   0.586   0.164  0.00  0.00     0.020 A 
ATOM      2  C1  UNL d   1       1.147   0.671   0.158  0.00  0.00     0.020 A 
ATOM      3  C2  UNL d   1       1.792   1.599   0.978  0.00  0.00     0.034 A 
ATOM      4  C3  UNL d   1       1.046   2.445   1.807  0.00  0.00     0.017 A 
ATOM      5  C4  UNL d   1      -0.351   2.359   1.812  0.00  0.00     0.017 A 
ATOM      6  C5  UNL d   1      -0.992   1.428   0.989  0.00  0.00     0.034 A 
ATOM      7 Cl   UNL d   1      -1.339   3.369   2.807  0.00  0.00    -0.070 Cl
ATOM      8 Cl1  UNL d   1       1.911   3.569   2.795  0.00  0.00    -0.070 Cl
ENDROOT
TORSDOF 0
ENDMDL
