MODEL 1
REMARK minimizedAffinity 10.7015953
REMARK minimizedRMSD -1
REMARK  0 active torsions:
REMARK  status: ('A' for Active; 'I' for Inactive)
ROOT
ATOM      1  C   UNL d   1      -2.288  -2.366   0.578  0.00  0.00     0.020 A 
ATOM      2  C1  UNL d   1      -2.624  -1.039   0.311  0.00  0.00     0.020 A 
ATOM      3  C2  UNL d   1      -1.633  -0.055   0.307  0.00  0.00     0.034 A 
ATOM      4  C3  UNL d   1      -0.302  -0.396   0.571  0.00  0.00     0.017 A 
ATOM      5  C4  UNL d   1       0.034  -1.728   0.838  0.00  0.00     0.017 A 
ATOM      6  C5  UNL d   1      -0.962  -2.709   0.841  0.00  0.00     0.034 A 
ATOM      7 Cl   UNL d   1       1.656  -2.226   1.172  0.00  0.00    -0.070 Cl
ATOM      8 Cl1  UNL d   1       0.872   0.872   0.549  0.00  0.00    -0.070 Cl
ENDROOT
TORSDOF 0
ENDMDL
