MODEL 1
REMARK minimizedAffinity 1.61742496
REMARK minimizedRMSD -1
REMARK  1 active torsions:
REMARK  status: ('A' for Active; 'I' for Inactive)
REMARK    1  A    between atoms: N_2  and  C1_3 
ROOT
ATOM      1  C1  UNL d   1       1.494   1.119   5.242  0.00  0.00     0.143 A 
ATOM      2  C2  UNL d   1       1.335   1.414   3.884  0.00  0.00    -0.057 A 
ATOM      3  C3  UNL d   1       2.213   2.280   3.221  0.00  0.00     0.033 A 
ATOM      4  C4  UNL d   1       3.252   2.891   3.915  0.00  0.00    -0.042 A 
ATOM      5  C5  UNL d   1       3.414   2.632   5.272  0.00  0.00     0.033 A 
ATOM      6  C6  UNL d   1       2.538   1.761   5.926  0.00  0.00    -0.057 A 
ENDROOT
BRANCH   1   7
ATOM      7  N   UNL d   1       0.596   0.344   5.980  0.00  0.00    -0.732 N 
ATOM      8  C   UNL d   1      -0.815   0.668   6.000  0.00  0.00     0.284 C 
ATOM      9  H3  UNL d   1       0.792  -0.652   5.908  0.00  0.00     0.395 HD
ENDBRANCH   1   7
TORSDOF 1
ENDMDL
