MODEL 1
REMARK minimizedAffinity 1.30552793
REMARK minimizedRMSD -1
REMARK  1 active torsions:
REMARK  status: ('A' for Active; 'I' for Inactive)
REMARK    1  A    between atoms: N_2  and  C1_3 
ROOT
ATOM      1  C1  UNL d   1       2.102   1.182   5.249  0.00  0.00     0.143 A 
ATOM      2  C2  UNL d   1       1.937   1.613   3.929  0.00  0.00    -0.057 A 
ATOM      3  C3  UNL d   1       2.949   2.314   3.262  0.00  0.00     0.033 A 
ATOM      4  C4  UNL d   1       4.137   2.621   3.916  0.00  0.00    -0.042 A 
ATOM      5  C5  UNL d   1       4.314   2.225   5.237  0.00  0.00     0.033 A 
ATOM      6  C6  UNL d   1       3.302   1.519   5.895  0.00  0.00    -0.057 A 
ENDROOT
BRANCH   1   7
ATOM      7  N   UNL d   1       1.095   0.568   5.999  0.00  0.00    -0.732 N 
ATOM      8  C   UNL d   1      -0.251   1.099   5.999  0.00  0.00     0.284 C 
ATOM      9  H3  UNL d   1       1.142  -0.447   5.953  0.00  0.00     0.395 HD
ENDBRANCH   1   7
TORSDOF 1
ENDMDL
