MODEL 1
REMARK minimizedAffinity 1.31865287
REMARK minimizedRMSD -1
REMARK  1 active torsions:
REMARK  status: ('A' for Active; 'I' for Inactive)
REMARK    1  A    between atoms: N_2  and  C1_3 
ROOT
ATOM      1  C1  UNL d   1      -0.939  -0.406  -1.594  0.00  0.00     0.143 A 
ATOM      2  C2  UNL d   1       0.171  -0.263  -0.755  0.00  0.00    -0.057 A 
ATOM      3  C3  UNL d   1       0.873  -1.379  -0.283  0.00  0.00     0.033 A 
ATOM      4  C4  UNL d   1       0.458  -2.663  -0.620  0.00  0.00    -0.042 A 
ATOM      5  C5  UNL d   1      -0.658  -2.830  -1.433  0.00  0.00     0.033 A 
ATOM      6  C6  UNL d   1      -1.351  -1.712  -1.906  0.00  0.00    -0.057 A 
ENDROOT
BRANCH   1   7
ATOM      7  N   UNL d   1      -1.738   0.659  -2.015  0.00  0.00    -0.732 N 
ATOM      8  C   UNL d   1      -1.219   2.010  -2.027  0.00  0.00     0.284 C 
ATOM      9  H3  UNL d   1      -2.303   0.424  -2.829  0.00  0.00     0.395 HD
ENDBRANCH   1   7
TORSDOF 1
ENDMDL
