MODEL 1
REMARK minimizedAffinity -2.49820399
REMARK minimizedRMSD -1
REMARK  1 active torsions:
REMARK  status: ('A' for Active; 'I' for Inactive)
REMARK    1  A    between atoms: N_2  and  C1_3 
ROOT
ATOM      1  C1  UNL d   1      -0.106  -1.276  -1.017  0.00  0.00     0.143 A 
ATOM      2  C2  UNL d   1      -1.108  -0.753  -1.841  0.00  0.00    -0.057 A 
ATOM      3  C3  UNL d   1      -1.255   0.629  -2.017  0.00  0.00     0.033 A 
ATOM      4  C4  UNL d   1      -0.417   1.514  -1.348  0.00  0.00    -0.042 A 
ATOM      5  C5  UNL d   1       0.571   1.017  -0.505  0.00  0.00     0.033 A 
ATOM      6  C6  UNL d   1       0.716  -0.364  -0.338  0.00  0.00    -0.057 A 
ENDROOT
BRANCH   1   7
ATOM      7  N   UNL d   1       0.029  -2.636  -0.724  0.00  0.00    -0.732 N 
ATOM      8  C   UNL d   1       1.224  -3.136  -0.079  0.00  0.00     0.284 C 
ATOM      9  H3  UNL d   1      -0.835  -3.045  -0.375  0.00  0.00     0.395 HD
ENDBRANCH   1   7
TORSDOF 1
ENDMDL
