MODEL 1
REMARK minimizedAffinity 8.07800961
REMARK minimizedRMSD -1
REMARK  1 active torsions:
REMARK  status: ('A' for Active; 'I' for Inactive)
REMARK    1  A    between atoms: N_2  and  C1_3 
ROOT
ATOM      1  C1  UNL d   1       3.387   0.038  -1.020  0.00  0.00     0.143 A 
ATOM      2  C2  UNL d   1       3.566  -0.275   0.331  0.00  0.00    -0.057 A 
ATOM      3  C3  UNL d   1       3.335  -1.569   0.813  0.00  0.00     0.033 A 
ATOM      4  C4  UNL d   1       2.891  -2.569  -0.046  0.00  0.00    -0.042 A 
ATOM      5  C5  UNL d   1       2.682  -2.274  -1.389  0.00  0.00     0.033 A 
ATOM      6  C6  UNL d   1       2.921  -0.981  -1.865  0.00  0.00    -0.057 A 
ENDROOT
BRANCH   1   7
ATOM      7  N   UNL d   1       3.505   1.329  -1.542  0.00  0.00    -0.732 N 
ATOM      8  C   UNL d   1       4.339   1.585  -2.696  0.00  0.00     0.284 C 
ATOM      9  H3  UNL d   1       2.617   1.826  -1.552  0.00  0.00     0.395 HD
ENDBRANCH   1   7
TORSDOF 1
ENDMDL
