MODEL 1
REMARK minimizedAffinity 2.91707802
REMARK minimizedRMSD -1
REMARK  1 active torsions:
REMARK  status: ('A' for Active; 'I' for Inactive)
REMARK    1  A    between atoms: N_2  and  C1_3 
ROOT
ATOM      1  C1  UNL d   1       4.461   2.181   0.746  0.00  0.00     0.143 A 
ATOM      2  C2  UNL d   1       4.884   2.603  -0.519  0.00  0.00    -0.057 A 
ATOM      3  C3  UNL d   1       4.442   1.964  -1.684  0.00  0.00     0.033 A 
ATOM      4  C4  UNL d   1       3.588   0.869  -1.602  0.00  0.00    -0.042 A 
ATOM      5  C5  UNL d   1       3.174   0.417  -0.354  0.00  0.00     0.033 A 
ATOM      6  C6  UNL d   1       3.614   1.063   0.805  0.00  0.00    -0.057 A 
ENDROOT
BRANCH   1   7
ATOM      7  N   UNL d   1       4.942   2.712   1.945  0.00  0.00    -0.732 N 
ATOM      8  C   UNL d   1       4.072   2.846   3.094  0.00  0.00     0.284 C 
ATOM      9  H3  UNL d   1       5.878   2.381   2.169  0.00  0.00     0.395 HD
ENDBRANCH   1   7
TORSDOF 1
ENDMDL
