MODEL 1
REMARK minimizedAffinity 9.47603321
REMARK minimizedRMSD -1
REMARK  1 active torsions:
REMARK  status: ('A' for Active; 'I' for Inactive)
REMARK    1  A    between atoms: N_2  and  C1_3 
ROOT
ATOM      1  C1  UNL d   1      -3.726   0.144  -1.125  0.00  0.00     0.143 A 
ATOM      2  C2  UNL d   1      -3.546  -0.055  -2.498  0.00  0.00    -0.057 A 
ATOM      3  C3  UNL d   1      -2.266  -0.085  -3.065  0.00  0.00     0.033 A 
ATOM      4  C4  UNL d   1      -1.142   0.112  -2.270  0.00  0.00    -0.042 A 
ATOM      5  C5  UNL d   1      -1.298   0.336  -0.907  0.00  0.00     0.033 A 
ATOM      6  C6  UNL d   1      -2.578   0.359  -0.345  0.00  0.00    -0.057 A 
ENDROOT
BRANCH   1   7
ATOM      7  N   UNL d   1      -4.976   0.283  -0.516  0.00  0.00    -0.732 N 
ATOM      8  C   UNL d   1      -6.000   1.111  -1.116  0.00  0.00     0.284 C 
ATOM      9  H3  UNL d   1      -5.322  -0.595  -0.135  0.00  0.00     0.395 HD
ENDBRANCH   1   7
TORSDOF 1
ENDMDL
