MODEL 1
REMARK minimizedAffinity -0.388761103
REMARK minimizedRMSD -1
REMARK  1 active torsions:
REMARK  status: ('A' for Active; 'I' for Inactive)
REMARK    1  A    between atoms: C1_2  and  C2_3 
ROOT
ATOM      1  C2  UNL d   1      -0.515  -0.348   1.346  0.00  0.00    -0.077 A 
ATOM      2  C3  UNL d   1      -0.746  -1.123   0.201  0.00  0.00     0.002 A 
ATOM      3  C4  UNL d   1      -0.712  -0.539  -1.067  0.00  0.00     0.002 A 
ATOM      4  C5  UNL d   1      -0.444   0.822  -1.201  0.00  0.00    -0.004 A 
ATOM      5  C6  UNL d   1      -0.216   1.602  -0.068  0.00  0.00     0.002 A 
ATOM      6  C7  UNL d   1      -0.250   1.020   1.199  0.00  0.00     0.002 A 
ENDROOT
BRANCH   1   7
ATOM      7  C1  UNL d   1      -0.502  -0.986   2.710  0.00  0.00     0.055 C 
ATOM      8  C   UNL d   1       0.299  -2.280   2.708  0.00  0.00     0.019 C 
ENDBRANCH   1   7
TORSDOF 1
ENDMDL
