MODEL 1
REMARK minimizedAffinity -4.35106564
REMARK minimizedRMSD -1
REMARK  1 active torsions:
REMARK  status: ('A' for Active; 'I' for Inactive)
REMARK    1  A    between atoms: C1_2  and  C2_3 
ROOT
ATOM      1  C2  UNL d   1       0.788  -0.815   0.105  0.00  0.00    -0.077 A 
ATOM      2  C3  UNL d   1       1.313  -0.958   1.397  0.00  0.00     0.002 A 
ATOM      3  C4  UNL d   1       0.519  -0.696   2.516  0.00  0.00     0.002 A 
ATOM      4  C5  UNL d   1      -0.804  -0.292   2.353  0.00  0.00    -0.004 A 
ATOM      5  C6  UNL d   1      -1.335  -0.144   1.072  0.00  0.00     0.002 A 
ATOM      6  C7  UNL d   1      -0.543  -0.405  -0.046  0.00  0.00     0.002 A 
ENDROOT
BRANCH   1   7
ATOM      7  C1  UNL d   1       1.628  -1.145  -1.101  0.00  0.00     0.055 C 
ATOM      8  C   UNL d   1       3.013  -1.628  -0.696  0.00  0.00     0.019 C 
ENDBRANCH   1   7
TORSDOF 1
ENDMDL
