MODEL 1
REMARK minimizedAffinity -1.72800887
REMARK minimizedRMSD -1
REMARK  1 active torsions:
REMARK  status: ('A' for Active; 'I' for Inactive)
REMARK    1  A    between atoms: C1_2  and  C2_3 
ROOT
ATOM      1  C2  UNL d   1      -2.469   1.851  -2.996  0.00  0.00    -0.077 A 
ATOM      2  C3  UNL d   1      -1.115   2.173  -3.167  0.00  0.00     0.002 A 
ATOM      3  C4  UNL d   1      -0.695   3.504  -3.119  0.00  0.00     0.002 A 
ATOM      4  C5  UNL d   1      -1.620   4.521  -2.896  0.00  0.00    -0.004 A 
ATOM      5  C6  UNL d   1      -2.969   4.211  -2.727  0.00  0.00     0.002 A 
ATOM      6  C7  UNL d   1      -3.391   2.882  -2.776  0.00  0.00     0.002 A 
ENDROOT
BRANCH   1   7
ATOM      7  C1  UNL d   1      -2.917   0.413  -2.999  0.00  0.00     0.055 C 
ATOM      8  C   UNL d   1      -1.928  -0.477  -2.261  0.00  0.00     0.019 C 
ENDBRANCH   1   7
TORSDOF 1
ENDMDL
