MODEL 1
REMARK minimizedAffinity -5.87656164
REMARK minimizedRMSD -1
REMARK  1 active torsions:
REMARK  status: ('A' for Active; 'I' for Inactive)
REMARK    1  A    between atoms: C1_2  and  C2_3 
ROOT
ATOM      1  C2  UNL d   1      -0.202   0.481   0.045  0.00  0.00    -0.077 A 
ATOM      2  C3  UNL d   1       1.154   0.438   0.399  0.00  0.00     0.002 A 
ATOM      3  C4  UNL d   1       1.544  -0.065   1.642  0.00  0.00     0.002 A 
ATOM      4  C5  UNL d   1       0.585  -0.533   2.538  0.00  0.00    -0.004 A 
ATOM      5  C6  UNL d   1      -0.766  -0.493   2.196  0.00  0.00     0.002 A 
ATOM      6  C7  UNL d   1      -1.158   0.011   0.955  0.00  0.00     0.002 A 
ENDROOT
BRANCH   1   7
ATOM      7  C1  UNL d   1      -0.622   0.977  -1.314  0.00  0.00     0.055 C 
ATOM      8  C   UNL d   1       0.110   2.259  -1.684  0.00  0.00     0.019 C 
ENDBRANCH   1   7
TORSDOF 1
ENDMDL
