MODEL 1
REMARK minimizedAffinity -4.38712311
REMARK minimizedRMSD -1
REMARK  0 active torsions:
REMARK  status: ('A' for Active; 'I' for Inactive)
ROOT
ATOM      1  N1  IND d   1       0.428  -0.036  -1.609  0.00  0.00    -0.196 N 
ATOM      2  C2  IND d   1       1.390   0.055  -0.643  0.00  0.00     0.054 A 
ATOM      3  C3  IND d   1       0.835  -0.057   0.585  0.00  0.00    -0.031 A 
ATOM      4  C4  IND d   1      -1.616  -0.497   1.239  0.00  0.00     0.051 A 
ATOM      5  C5  IND d   1      -2.868  -0.617   0.705  0.00  0.00    -0.031 A 
ATOM      6  C6  IND d   1      -3.090  -0.551  -0.656  0.00  0.00     0.015 A 
ATOM      7  C7  IND d   1      -2.062  -0.373  -1.537  0.00  0.00    -0.016 A 
ATOM      8  C8  IND d   1      -0.789  -0.243  -0.998  0.00  0.00    -0.047 A 
ATOM      9  C9  IND d   1      -0.564  -0.267   0.384  0.00  0.00    -0.096 A 
ATOM     10  HN1 IND d   1       0.560   0.026  -2.457  0.00  0.00     0.298 HD
ENDROOT
TORSDOF 0
ENDMDL
