MODEL 1
REMARK minimizedAffinity -4.35946274
REMARK minimizedRMSD -1
REMARK  0 active torsions:
REMARK  status: ('A' for Active; 'I' for Inactive)
ROOT
ATOM      1  N1  IND d   1       1.608  -0.690   1.249  0.00  0.00    -0.196 N 
ATOM      2  C2  IND d   1       2.104   0.477   0.738  0.00  0.00     0.054 A 
ATOM      3  C3  IND d   1       1.094   1.277   0.327  0.00  0.00    -0.031 A 
ATOM      4  C4  IND d   1      -1.449   0.915   0.490  0.00  0.00     0.051 A 
ATOM      5  C5  IND d   1      -2.384  -0.015   0.849  0.00  0.00    -0.031 A 
ATOM      6  C6  IND d   1      -2.029  -1.242   1.373  0.00  0.00     0.015 A 
ATOM      7  C7  IND d   1      -0.720  -1.580   1.569  0.00  0.00    -0.016 A 
ATOM      8  C8  IND d   1       0.233  -0.641   1.199  0.00  0.00    -0.047 A 
ATOM      9  C9  IND d   1      -0.121   0.588   0.627  0.00  0.00    -0.096 A 
ATOM     10  HN1 IND d   1       2.077  -1.344   1.552  0.00  0.00     0.298 HD
ENDROOT
TORSDOF 0
ENDMDL
