MODEL 1
REMARK minimizedAffinity -3.77549267
REMARK minimizedRMSD -1
REMARK  0 active torsions:
REMARK  status: ('A' for Active; 'I' for Inactive)
ROOT
ATOM      1  N1  IND d   1       0.587   0.335   0.966  0.00  0.00    -0.196 N 
ATOM      2  C2  IND d   1       1.131   0.813  -0.194  0.00  0.00     0.054 A 
ATOM      3  C3  IND d   1       0.260   0.665  -1.218  0.00  0.00    -0.031 A 
ATOM      4  C4  IND d   1      -2.149  -0.243  -1.198  0.00  0.00     0.051 A 
ATOM      5  C5  IND d   1      -3.071  -0.832  -0.380  0.00  0.00    -0.031 A 
ATOM      6  C6  IND d   1      -2.817  -1.064   0.957  0.00  0.00     0.015 A 
ATOM      7  C7  IND d   1      -1.630  -0.704   1.529  0.00  0.00    -0.016 A 
ATOM      8  C8  IND d   1      -0.689  -0.112   0.700  0.00  0.00    -0.047 A 
ATOM      9  C9  IND d   1      -0.924   0.087  -0.666  0.00  0.00    -0.096 A 
ATOM     10  HN1 IND d   1       0.976   0.317   1.732  0.00  0.00     0.298 HD
ENDROOT
TORSDOF 0
ENDMDL
