MODEL 1
REMARK minimizedAffinity -3.14249969
REMARK minimizedRMSD -1
REMARK  0 active torsions:
REMARK  status: ('A' for Active; 'I' for Inactive)
ROOT
ATOM      1  N1  IND d   1      -0.017  -0.485   1.054  0.00  0.00    -0.196 N 
ATOM      2  C2  IND d   1       1.142   0.015   0.530  0.00  0.00     0.054 A 
ATOM      3  C3  IND d   1       0.971   0.330  -0.774  0.00  0.00    -0.031 A 
ATOM      4  C4  IND d   1      -1.153   0.201  -2.222  0.00  0.00     0.051 A 
ATOM      5  C5  IND d   1      -2.451  -0.226  -2.195  0.00  0.00    -0.031 A 
ATOM      6  C6  IND d   1      -3.016  -0.769  -1.060  0.00  0.00     0.015 A 
ATOM      7  C7  IND d   1      -2.304  -0.896   0.100  0.00  0.00    -0.016 A 
ATOM      8  C8  IND d   1      -0.984  -0.470   0.074  0.00  0.00    -0.047 A 
ATOM      9  C9  IND d   1      -0.392   0.042  -1.088  0.00  0.00    -0.096 A 
ATOM     10  HN1 IND d   1      -0.124  -0.762   1.861  0.00  0.00     0.298 HD
ENDROOT
TORSDOF 0
ENDMDL
