MODEL 1
REMARK minimizedAffinity -5.37712812
REMARK minimizedRMSD -1
REMARK  0 active torsions:
REMARK  status: ('A' for Active; 'I' for Inactive)
ROOT
ATOM      1  N1  IND d   1      -2.890  -0.469  -1.793  0.00  0.00    -0.196 N 
ATOM      2  C2  IND d   1      -3.539  -1.001  -0.715  0.00  0.00     0.054 A 
ATOM      3  C3  IND d   1      -2.730  -1.001   0.369  0.00  0.00    -0.031 A 
ATOM      4  C4  IND d   1      -0.339  -0.082   0.624  0.00  0.00     0.051 A 
ATOM      5  C5  IND d   1       0.687   0.465  -0.094  0.00  0.00    -0.031 A 
ATOM      6  C6  IND d   1       0.570   0.738  -1.442  0.00  0.00     0.015 A 
ATOM      7  C7  IND d   1      -0.587   0.482  -2.122  0.00  0.00    -0.016 A 
ATOM      8  C8  IND d   1      -1.628  -0.081  -1.398  0.00  0.00    -0.047 A 
ATOM      9  C9  IND d   1      -1.501  -0.399  -0.040  0.00  0.00    -0.096 A 
ATOM     10  HN1 IND d   1      -3.215  -0.389  -2.585  0.00  0.00     0.298 HD
ENDROOT
TORSDOF 0
ENDMDL
