MODEL 1
REMARK minimizedAffinity 2.96103358
REMARK minimizedRMSD -1
REMARK  0 active torsions:
REMARK  status: ('A' for Active; 'I' for Inactive)
ROOT
ATOM      1  N1  IND d   1      -1.825  -1.946   1.147  0.00  0.00    -0.196 N 
ATOM      2  C2  IND d   1      -2.819  -1.524   0.309  0.00  0.00     0.054 A 
ATOM      3  C3  IND d   1      -2.350  -0.584  -0.541  0.00  0.00    -0.031 A 
ATOM      4  C4  IND d   1       0.039   0.340  -0.801  0.00  0.00     0.051 A 
ATOM      5  C5  IND d   1       1.283   0.286  -0.236  0.00  0.00    -0.031 A 
ATOM      6  C6  IND d   1       1.560  -0.533   0.839  0.00  0.00     0.015 A 
ATOM      7  C7  IND d   1       0.603  -1.341   1.384  0.00  0.00    -0.016 A 
ATOM      8  C8  IND d   1      -0.663  -1.284   0.817  0.00  0.00    -0.047 A 
ATOM      9  C9  IND d   1      -0.961  -0.423  -0.247  0.00  0.00    -0.096 A 
ATOM     10  HN1 IND d   1      -1.911  -2.527   1.775  0.00  0.00     0.298 HD
ENDROOT
TORSDOF 0
ENDMDL
