MODEL 1
REMARK minimizedAffinity 5.52521849
REMARK minimizedRMSD -1
REMARK  0 active torsions:
REMARK  status: ('A' for Active; 'I' for Inactive)
ROOT
ATOM      1  N1  IND d   1      -0.170  -0.224  -2.604  0.00  0.00    -0.196 N 
ATOM      2  C2  IND d   1       0.756   0.489  -1.895  0.00  0.00     0.054 A 
ATOM      3  C3  IND d   1       0.455   0.473  -0.577  0.00  0.00    -0.031 A 
ATOM      4  C4  IND d   1      -1.453  -0.747   0.649  0.00  0.00     0.051 A 
ATOM      5  C5  IND d   1      -2.573  -1.495   0.423  0.00  0.00    -0.031 A 
ATOM      6  C6  IND d   1      -2.957  -1.868  -0.849  0.00  0.00     0.015 A 
ATOM      7  C7  IND d   1      -2.224  -1.514  -1.946  0.00  0.00    -0.016 A 
ATOM      8  C8  IND d   1      -1.089  -0.748  -1.721  0.00  0.00    -0.047 A 
ATOM      9  C9  IND d   1      -0.718  -0.331  -0.436  0.00  0.00    -0.096 A 
ATOM     10  HN1 IND d   1      -0.178  -0.327  -3.457  0.00  0.00     0.298 HD
ENDROOT
TORSDOF 0
ENDMDL
