MODEL 1
REMARK minimizedAffinity -3.70895863
REMARK minimizedRMSD -1
REMARK  0 active torsions:
REMARK  status: ('A' for Active; 'I' for Inactive)
ROOT
ATOM      1  N1  IND d   1       0.076   0.813   0.366  0.00  0.00    -0.196 N 
ATOM      2  C2  IND d   1       0.697  -0.402   0.280  0.00  0.00     0.054 A 
ATOM      3  C3  IND d   1       2.022  -0.238   0.067  0.00  0.00    -0.031 A 
ATOM      4  C4  IND d   1       3.400   1.932  -0.072  0.00  0.00     0.051 A 
ATOM      5  C5  IND d   1       3.269   3.292  -0.088  0.00  0.00    -0.031 A 
ATOM      6  C6  IND d   1       2.042   3.908   0.052  0.00  0.00     0.015 A 
ATOM      7  C7  IND d   1       0.897   3.184   0.225  0.00  0.00    -0.016 A 
ATOM      8  C8  IND d   1       1.026   1.802   0.235  0.00  0.00    -0.047 A 
ATOM      9  C9  IND d   1       2.262   1.170   0.051  0.00  0.00    -0.096 A 
ATOM     10  HN1 IND d   1      -0.767   0.938   0.482  0.00  0.00     0.298 HD
ENDROOT
TORSDOF 0
ENDMDL
