MODEL 1
REMARK minimizedAffinity 1.85037708
REMARK minimizedRMSD -1
REMARK  0 active torsions:
REMARK  status: ('A' for Active; 'I' for Inactive)
ROOT
ATOM      1  N1  IND d   1       4.674   5.151  -1.445  0.00  0.00    -0.196 N 
ATOM      2  C2  IND d   1       5.242   4.489  -2.498  0.00  0.00     0.054 A 
ATOM      3  C3  IND d   1       5.056   3.156  -2.372  0.00  0.00    -0.031 A 
ATOM      4  C4  IND d   1       3.763   1.849  -0.570  0.00  0.00     0.051 A 
ATOM      5  C5  IND d   1       3.102   2.014   0.615  0.00  0.00    -0.031 A 
ATOM      6  C6  IND d   1       2.926   3.259   1.184  0.00  0.00     0.015 A 
ATOM      7  C7  IND d   1       3.396   4.391   0.581  0.00  0.00    -0.016 A 
ATOM      8  C8  IND d   1       4.074   4.226  -0.619  0.00  0.00    -0.047 A 
ATOM      9  C9  IND d   1       4.293   2.961  -1.180  0.00  0.00    -0.096 A 
ATOM     10  HN1 IND d   1       4.690   6.001  -1.319  0.00  0.00     0.298 HD
ENDROOT
TORSDOF 0
ENDMDL
