MODEL 1
REMARK minimizedAffinity -1.86852741
REMARK minimizedRMSD -1
REMARK  0 active torsions:
REMARK  status: ('A' for Active; 'I' for Inactive)
ROOT
ATOM      1  N1  IND d   1       1.156   0.138  -0.926  0.00  0.00    -0.196 N 
ATOM      2  C2  IND d   1       1.106   0.169   0.440  0.00  0.00     0.054 A 
ATOM      3  C3  IND d   1      -0.077  -0.318   0.878  0.00  0.00    -0.031 A 
ATOM      4  C4  IND d   1      -2.034  -1.314  -0.465  0.00  0.00     0.051 A 
ATOM      5  C5  IND d   1      -2.466  -1.524  -1.745  0.00  0.00    -0.031 A 
ATOM      6  C6  IND d   1      -1.696  -1.185  -2.839  0.00  0.00     0.015 A 
ATOM      7  C7  IND d   1      -0.455  -0.633  -2.693  0.00  0.00    -0.016 A 
ATOM      8  C8  IND d   1      -0.016  -0.413  -1.396  0.00  0.00    -0.047 A 
ATOM      9  C9  IND d   1      -0.810  -0.715  -0.282  0.00  0.00    -0.096 A 
ATOM     10  HN1 IND d   1       1.810   0.416  -1.410  0.00  0.00     0.298 HD
ENDROOT
TORSDOF 0
ENDMDL
