MODEL 1
REMARK minimizedAffinity -5.9469676
REMARK minimizedRMSD -1
REMARK  0 active torsions:
REMARK  status: ('A' for Active; 'I' for Inactive)
ROOT
ATOM      1  N1  IND d   1      -2.732  -0.824  -1.880  0.00  0.00    -0.196 N 
ATOM      2  C2  IND d   1      -3.500  -1.207  -0.815  0.00  0.00     0.054 A 
ATOM      3  C3  IND d   1      -2.811  -1.058   0.338  0.00  0.00    -0.031 A 
ATOM      4  C4  IND d   1      -0.449  -0.108   0.723  0.00  0.00     0.051 A 
ATOM      5  C5  IND d   1       0.654   0.339   0.052  0.00  0.00    -0.031 A 
ATOM      6  C6  IND d   1       0.685   0.426  -1.325  0.00  0.00     0.015 A 
ATOM      7  C7  IND d   1      -0.396   0.078  -2.085  0.00  0.00    -0.016 A 
ATOM      8  C8  IND d   1      -1.516  -0.383  -1.408  0.00  0.00    -0.047 A 
ATOM      9  C9  IND d   1      -1.538  -0.514  -0.013  0.00  0.00    -0.096 A 
ATOM     10  HN1 IND d   1      -2.970  -0.854  -2.706  0.00  0.00     0.298 HD
ENDROOT
TORSDOF 0
ENDMDL
