MODEL 1
REMARK minimizedAffinity -2.12637854
REMARK minimizedRMSD -1
REMARK  0 active torsions:
REMARK  status: ('A' for Active; 'I' for Inactive)
ROOT
ATOM      1  N1  IND d   1       1.399   2.449   0.303  0.00  0.00    -0.196 N 
ATOM      2  C2  IND d   1       2.747   2.290   0.146  0.00  0.00     0.054 A 
ATOM      3  C3  IND d   1       3.081   0.983   0.244  0.00  0.00    -0.031 A 
ATOM      4  C4  IND d   1       1.564  -1.073   0.559  0.00  0.00     0.051 A 
ATOM      5  C5  IND d   1       0.265  -1.428   0.788  0.00  0.00    -0.031 A 
ATOM      6  C6  IND d   1      -0.744  -0.490   0.866  0.00  0.00     0.015 A 
ATOM      7  C7  IND d   1      -0.492   0.843   0.706  0.00  0.00    -0.016 A 
ATOM      8  C8  IND d   1       0.828   1.208   0.480  0.00  0.00    -0.047 A 
ATOM      9  C9  IND d   1       1.863   0.264   0.442  0.00  0.00    -0.096 A 
ATOM     10  HN1 IND d   1       0.978   3.199   0.293  0.00  0.00     0.298 HD
ENDROOT
TORSDOF 0
ENDMDL
