MODEL 1
REMARK minimizedAffinity -1.23388088
REMARK minimizedRMSD -1
REMARK  0 active torsions:
REMARK  status: ('A' for Active; 'I' for Inactive)
ROOT
ATOM      1  N1  IND d   1       1.748  -1.117   1.131  0.00  0.00    -0.196 N 
ATOM      2  C2  IND d   1       2.219  -0.341   0.109  0.00  0.00     0.054 A 
ATOM      3  C3  IND d   1       1.211   0.366  -0.449  0.00  0.00    -0.031 A 
ATOM      4  C4  IND d   1      -1.271   0.484   0.224  0.00  0.00     0.051 A 
ATOM      5  C5  IND d   1      -2.184  -0.073   1.075  0.00  0.00    -0.031 A 
ATOM      6  C6  IND d   1      -1.826  -1.023   2.009  0.00  0.00     0.015 A 
ATOM      7  C7  IND d   1      -0.533  -1.446   2.134  0.00  0.00    -0.016 A 
ATOM      8  C8  IND d   1       0.396  -0.888   1.267  0.00  0.00    -0.047 A 
ATOM      9  C9  IND d   1       0.030   0.046   0.289  0.00  0.00    -0.096 A 
ATOM     10  HN1 IND d   1       2.216  -1.656   1.609  0.00  0.00     0.298 HD
ENDROOT
TORSDOF 0
ENDMDL
