MODEL 1
REMARK minimizedAffinity -5.0670805
REMARK minimizedRMSD -1
REMARK  0 active torsions:
REMARK  status: ('A' for Active; 'I' for Inactive)
ROOT
ATOM      1  N1  IND d   1       1.492   0.482  -0.285  0.00  0.00    -0.196 N 
ATOM      2  C2  IND d   1       2.283  -0.059   0.690  0.00  0.00     0.054 A 
ATOM      3  C3  IND d   1       1.540  -0.803   1.539  0.00  0.00    -0.031 A 
ATOM      4  C4  IND d   1      -0.974  -1.352   1.463  0.00  0.00     0.051 A 
ATOM      5  C5  IND d   1      -2.121  -1.056   0.780  0.00  0.00    -0.031 A 
ATOM      6  C6  IND d   1      -2.121  -0.218  -0.316  0.00  0.00     0.015 A 
ATOM      7  C7  IND d   1      -0.968   0.349  -0.780  0.00  0.00    -0.016 A 
ATOM      8  C8  IND d   1       0.197   0.057  -0.085  0.00  0.00    -0.047 A 
ATOM      9  C9  IND d   1       0.197  -0.759   1.054  0.00  0.00    -0.096 A 
ATOM     10  HN1 IND d   1       1.759   1.002  -0.916  0.00  0.00     0.298 HD
ENDROOT
TORSDOF 0
ENDMDL
