MODEL 1
REMARK minimizedAffinity -4.12910271
REMARK minimizedRMSD -1
REMARK  0 active torsions:
REMARK  status: ('A' for Active; 'I' for Inactive)
ROOT
ATOM      1  N1  IND d   1      -2.348  -0.270  -0.982  0.00  0.00    -0.196 N 
ATOM      2  C2  IND d   1      -3.058  -0.749   0.083  0.00  0.00     0.054 A 
ATOM      3  C3  IND d   1      -2.224  -1.069   1.098  0.00  0.00    -0.031 A 
ATOM      4  C4  IND d   1       0.330  -0.791   1.267  0.00  0.00     0.051 A 
ATOM      5  C5  IND d   1       1.424  -0.429   0.533  0.00  0.00    -0.031 A 
ATOM      6  C6  IND d   1       1.315   0.017  -0.768  0.00  0.00     0.015 A 
ATOM      7  C7  IND d   1       0.101   0.127  -1.384  0.00  0.00    -0.016 A 
ATOM      8  C8  IND d   1      -1.013  -0.246  -0.644  0.00  0.00    -0.047 A 
ATOM      9  C9  IND d   1      -0.904  -0.739   0.662  0.00  0.00    -0.096 A 
ATOM     10  HN1 IND d   1      -2.680  -0.024  -1.737  0.00  0.00     0.298 HD
ENDROOT
TORSDOF 0
ENDMDL
