MODEL 1
REMARK minimizedAffinity -3.08678389
REMARK minimizedRMSD -1
REMARK  0 active torsions:
REMARK  status: ('A' for Active; 'I' for Inactive)
ROOT
ATOM      1  N1  IND d   1      -0.356   0.594   1.000  0.00  0.00    -0.196 N 
ATOM      2  C2  IND d   1       0.817   0.898   0.367  0.00  0.00     0.054 A 
ATOM      3  C3  IND d   1       0.736   0.591  -0.947  0.00  0.00    -0.031 A 
ATOM      4  C4  IND d   1      -1.259  -0.324  -2.293  0.00  0.00     0.051 A 
ATOM      5  C5  IND d   1      -2.534  -0.793  -2.144  0.00  0.00    -0.031 A 
ATOM      6  C6  IND d   1      -3.162  -0.821  -0.916  0.00  0.00     0.015 A 
ATOM      7  C7  IND d   1      -2.539  -0.369   0.213  0.00  0.00    -0.016 A 
ATOM      8  C8  IND d   1      -1.242   0.101   0.067  0.00  0.00    -0.047 A 
ATOM      9  C9  IND d   1      -0.584   0.092  -1.169  0.00  0.00    -0.096 A 
ATOM     10  HN1 IND d   1      -0.514   0.694   1.839  0.00  0.00     0.298 HD
ENDROOT
TORSDOF 0
ENDMDL
