MODEL 1
REMARK minimizedAffinity -1.88606238
REMARK minimizedRMSD -1
REMARK  0 active torsions:
REMARK  status: ('A' for Active; 'I' for Inactive)
ROOT
ATOM      1  N1  IND d   1       0.580   0.055   1.097  0.00  0.00    -0.196 N 
ATOM      2  C2  IND d   1       0.151  -0.231  -0.169  0.00  0.00     0.054 A 
ATOM      3  C3  IND d   1       0.456   0.783  -1.010  0.00  0.00    -0.031 A 
ATOM      4  C4  IND d   1       1.746   2.962  -0.544  0.00  0.00     0.051 A 
ATOM      5  C5  IND d   1       2.306   3.686   0.470  0.00  0.00    -0.031 A 
ATOM      6  C6  IND d   1       2.323   3.226   1.771  0.00  0.00     0.015 A 
ATOM      7  C7  IND d   1       1.787   2.014   2.106  0.00  0.00    -0.016 A 
ATOM      8  C8  IND d   1       1.211   1.280   1.079  0.00  0.00    -0.047 A 
ATOM      9  C9  IND d   1       1.153   1.760  -0.235  0.00  0.00    -0.096 A 
ATOM     10  HN1 IND d   1       0.473  -0.445   1.788  0.00  0.00     0.298 HD
ENDROOT
TORSDOF 0
ENDMDL
