MODEL 1
REMARK minimizedAffinity -1.55898976
REMARK minimizedRMSD -1
REMARK  0 active torsions:
REMARK  status: ('A' for Active; 'I' for Inactive)
ROOT
ATOM      1  N1  IND d   1       1.409   3.490   0.801  0.00  0.00    -0.196 N 
ATOM      2  C2  IND d   1       2.580   3.432   1.504  0.00  0.00     0.054 A 
ATOM      3  C3  IND d   1       2.927   2.146   1.734  0.00  0.00    -0.031 A 
ATOM      4  C4  IND d   1       1.775  -0.023   0.961  0.00  0.00     0.051 A 
ATOM      5  C5  IND d   1       0.656  -0.480   0.324  0.00  0.00    -0.031 A 
ATOM      6  C6  IND d   1      -0.287   0.380  -0.200  0.00  0.00     0.015 A 
ATOM      7  C7  IND d   1      -0.140   1.736  -0.115  0.00  0.00    -0.016 A 
ATOM      8  C8  IND d   1       0.992   2.204   0.537  0.00  0.00    -0.047 A 
ATOM      9  C9  IND d   1       1.931   1.336   1.108  0.00  0.00    -0.096 A 
ATOM     10  HN1 IND d   1       1.001   4.209   0.564  0.00  0.00     0.298 HD
ENDROOT
TORSDOF 0
ENDMDL
