MODEL 1
REMARK minimizedAffinity -3.04316998
REMARK minimizedRMSD -1
REMARK  0 active torsions:
REMARK  status: ('A' for Active; 'I' for Inactive)
ROOT
ATOM      1  N1  IND d   1       0.024  -0.482   0.903  0.00  0.00    -0.196 N 
ATOM      2  C2  IND d   1       0.359   0.358  -0.122  0.00  0.00     0.054 A 
ATOM      3  C3  IND d   1      -0.580   0.313  -1.093  0.00  0.00    -0.031 A 
ATOM      4  C4  IND d   1      -2.798  -0.992  -1.164  0.00  0.00     0.051 A 
ATOM      5  C5  IND d   1      -3.523  -1.922  -0.474  0.00  0.00    -0.031 A 
ATOM      6  C6  IND d   1      -3.095  -2.428   0.737  0.00  0.00     0.015 A 
ATOM      7  C7  IND d   1      -1.927  -2.012   1.310  0.00  0.00    -0.016 A 
ATOM      8  C8  IND d   1      -1.184  -1.073   0.608  0.00  0.00    -0.047 A 
ATOM      9  C9  IND d   1      -1.592  -0.587  -0.641  0.00  0.00    -0.096 A 
ATOM     10  HN1 IND d   1       0.491  -0.618   1.613  0.00  0.00     0.298 HD
ENDROOT
TORSDOF 0
ENDMDL
