MODEL 1
REMARK minimizedAffinity 4.8691926
REMARK minimizedRMSD -1
REMARK  0 active torsions:
REMARK  status: ('A' for Active; 'I' for Inactive)
ROOT
ATOM      1  C   UNL d   1       2.755   1.979   3.053  0.00  0.00     0.020 A 
ATOM      2  C1  UNL d   1       3.108   1.267   4.199  0.00  0.00     0.020 A 
ATOM      3  C2  UNL d   1       2.672  -0.049   4.365  0.00  0.00     0.034 A 
ATOM      4  C3  UNL d   1       1.880  -0.657   3.384  0.00  0.00     0.017 A 
ATOM      5  C4  UNL d   1       1.526   0.058   2.234  0.00  0.00     0.017 A 
ATOM      6  C5  UNL d   1       1.966   1.376   2.073  0.00  0.00     0.034 A 
ATOM      7 Cl   UNL d   1       0.553  -0.625   0.980  0.00  0.00    -0.070 Cl
ATOM      8 Cl1  UNL d   1       1.377  -2.288   3.654  0.00  0.00    -0.070 Cl
ENDROOT
TORSDOF 0
ENDMDL
