MODEL 1
REMARK minimizedAffinity -3.98516583
REMARK minimizedRMSD -1
REMARK  0 active torsions:
REMARK  status: ('A' for Active; 'I' for Inactive)
ROOT
ATOM      1  C   UNL d   1      -1.123  -0.100  -0.143  0.00  0.00     0.020 A 
ATOM      2  C1  UNL d   1      -0.406  -1.250   0.184  0.00  0.00     0.020 A 
ATOM      3  C2  UNL d   1       0.984  -1.195   0.310  0.00  0.00     0.034 A 
ATOM      4  C3  UNL d   1       1.661   0.013   0.109  0.00  0.00     0.017 A 
ATOM      5  C4  UNL d   1       0.941   1.168  -0.219  0.00  0.00     0.017 A 
ATOM      6  C5  UNL d   1      -0.450   1.106  -0.344  0.00  0.00     0.034 A 
ATOM      7 Cl   UNL d   1       1.707   2.695  -0.483  0.00  0.00    -0.070 Cl
ATOM      8 Cl1  UNL d   1       3.381   0.009   0.281  0.00  0.00    -0.070 Cl
ENDROOT
TORSDOF 0
ENDMDL
