MODEL 1
REMARK minimizedAffinity -1.67288554
REMARK minimizedRMSD -1
REMARK  0 active torsions:
REMARK  status: ('A' for Active; 'I' for Inactive)
ROOT
ATOM      1  C   UNL d   1       0.167  -1.993  -0.169  0.00  0.00     0.020 A 
ATOM      2  C1  UNL d   1      -0.859  -1.129  -0.548  0.00  0.00     0.020 A 
ATOM      3  C2  UNL d   1      -0.720   0.247  -0.353  0.00  0.00     0.034 A 
ATOM      4  C3  UNL d   1       0.447   0.763   0.222  0.00  0.00     0.017 A 
ATOM      5  C4  UNL d   1       1.476  -0.106   0.602  0.00  0.00     0.017 A 
ATOM      6  C5  UNL d   1       1.332  -1.483   0.404  0.00  0.00     0.034 A 
ATOM      7 Cl   UNL d   1       2.946   0.456   1.317  0.00  0.00    -0.070 Cl
ATOM      8 Cl1  UNL d   1       0.550   2.475   0.432  0.00  0.00    -0.070 Cl
ENDROOT
TORSDOF 0
ENDMDL
