MODEL 1
REMARK minimizedAffinity -1.70904958
REMARK minimizedRMSD -1
REMARK  0 active torsions:
REMARK  status: ('A' for Active; 'I' for Inactive)
ROOT
ATOM      1  C   UNL d   1       2.267   1.356   0.234  0.00  0.00     0.020 A 
ATOM      2  C1  UNL d   1       2.936   0.372   0.961  0.00  0.00     0.020 A 
ATOM      3  C2  UNL d   1       2.252  -0.769   1.386  0.00  0.00     0.034 A 
ATOM      4  C3  UNL d   1       0.894  -0.929   1.085  0.00  0.00     0.017 A 
ATOM      5  C4  UNL d   1       0.224   0.060   0.355  0.00  0.00     0.017 A 
ATOM      6  C5  UNL d   1       0.914   1.200  -0.068  0.00  0.00     0.034 A 
ATOM      7 Cl   UNL d   1      -1.451  -0.067  -0.056  0.00  0.00    -0.070 Cl
ATOM      8 Cl1  UNL d   1       0.111  -2.365   1.641  0.00  0.00    -0.070 Cl
ENDROOT
TORSDOF 0
ENDMDL
