MODEL 1
REMARK minimizedAffinity -1.97575653
REMARK minimizedRMSD -1
REMARK  0 active torsions:
REMARK  status: ('A' for Active; 'I' for Inactive)
ROOT
ATOM      1  C   UNL d   1       2.066  -0.758   0.071  0.00  0.00     0.020 A 
ATOM      2  C1  UNL d   1       2.639   0.369   0.659  0.00  0.00     0.020 A 
ATOM      3  C2  UNL d   1       1.891   1.540   0.800  0.00  0.00     0.034 A 
ATOM      4  C3  UNL d   1       0.566   1.587   0.351  0.00  0.00     0.017 A 
ATOM      5  C4  UNL d   1      -0.008   0.455  -0.239  0.00  0.00     0.017 A 
ATOM      6  C5  UNL d   1       0.746  -0.715  -0.377  0.00  0.00     0.034 A 
ATOM      7 Cl   UNL d   1      -1.637   0.437  -0.817  0.00  0.00    -0.070 Cl
ATOM      8 Cl1  UNL d   1      -0.300   3.068   0.557  0.00  0.00    -0.070 Cl
ENDROOT
TORSDOF 0
ENDMDL
