MODEL 1
REMARK minimizedAffinity 0.604836166
REMARK minimizedRMSD -1
REMARK  0 active torsions:
REMARK  status: ('A' for Active; 'I' for Inactive)
ROOT
ATOM      1  C   UNL d   1      -3.528  -0.489  -2.812  0.00  0.00     0.020 A 
ATOM      2  C1  UNL d   1      -2.489   0.118  -3.517  0.00  0.00     0.020 A 
ATOM      3  C2  UNL d   1      -1.320   0.493  -2.853  0.00  0.00     0.034 A 
ATOM      4  C3  UNL d   1      -1.186   0.262  -1.479  0.00  0.00     0.017 A 
ATOM      5  C4  UNL d   1      -2.229  -0.347  -0.772  0.00  0.00     0.017 A 
ATOM      6  C5  UNL d   1      -3.398  -0.721  -1.442  0.00  0.00     0.034 A 
ATOM      7 Cl   UNL d   1      -2.137  -0.664   0.925  0.00  0.00    -0.070 Cl
ATOM      8 Cl1  UNL d   1       0.288   0.752  -0.721  0.00  0.00    -0.070 Cl
ENDROOT
TORSDOF 0
ENDMDL
