MODEL 1
REMARK minimizedAffinity -2.24418902
REMARK minimizedRMSD -1
REMARK  0 active torsions:
REMARK  status: ('A' for Active; 'I' for Inactive)
ROOT
ATOM      1  C   UNL d   1       2.473   1.214   0.822  0.00  0.00     0.020 A 
ATOM      2  C1  UNL d   1       1.713   1.928  -0.103  0.00  0.00     0.020 A 
ATOM      3  C2  UNL d   1       0.427   1.494  -0.434  0.00  0.00     0.034 A 
ATOM      4  C3  UNL d   1      -0.102   0.343   0.160  0.00  0.00     0.017 A 
ATOM      5  C4  UNL d   1       0.662  -0.373   1.089  0.00  0.00     0.017 A 
ATOM      6  C5  UNL d   1       1.948   0.066   1.417  0.00  0.00     0.034 A 
ATOM      7 Cl   UNL d   1       0.077  -1.803   1.865  0.00  0.00    -0.070 Cl
ATOM      8 Cl1  UNL d   1      -1.698  -0.135  -0.296  0.00  0.00    -0.070 Cl
ENDROOT
TORSDOF 0
ENDMDL
