MODEL 1
REMARK minimizedAffinity -5.09539175
REMARK minimizedRMSD -1
REMARK  0 active torsions:
REMARK  status: ('A' for Active; 'I' for Inactive)
ROOT
ATOM      1  C   UNL d   1       0.638  -2.654   1.847  0.00  0.00     0.020 A 
ATOM      2  C1  UNL d   1       1.989  -2.354   2.020  0.00  0.00     0.020 A 
ATOM      3  C2  UNL d   1       2.494  -1.129   1.578  0.00  0.00     0.034 A 
ATOM      4  C3  UNL d   1       1.649  -0.201   0.959  0.00  0.00     0.017 A 
ATOM      5  C4  UNL d   1       0.293  -0.504   0.785  0.00  0.00     0.017 A 
ATOM      6  C5  UNL d   1      -0.207  -1.731   1.230  0.00  0.00     0.034 A 
ATOM      7 Cl   UNL d   1      -0.811   0.591   0.031  0.00  0.00    -0.070 Cl
ATOM      8 Cl1  UNL d   1       2.341   1.293   0.436  0.00  0.00    -0.070 Cl
ENDROOT
TORSDOF 0
ENDMDL
