MODEL 1
REMARK minimizedAffinity -3.14197803
REMARK minimizedRMSD -1
REMARK  0 active torsions:
REMARK  status: ('A' for Active; 'I' for Inactive)
ROOT
ATOM      1  C   UNL d   1       2.850   0.229   0.518  0.00  0.00     0.020 A 
ATOM      2  C1  UNL d   1       2.056   1.324   0.180  0.00  0.00     0.020 A 
ATOM      3  C2  UNL d   1       0.665   1.202   0.173  0.00  0.00     0.034 A 
ATOM      4  C3  UNL d   1       0.064  -0.018   0.505  0.00  0.00     0.017 A 
ATOM      5  C4  UNL d   1       0.862  -1.116   0.844  0.00  0.00     0.017 A 
ATOM      6  C5  UNL d   1       2.254  -0.988   0.850  0.00  0.00     0.034 A 
ATOM      7 Cl   UNL d   1       0.193  -2.653   1.265  0.00  0.00    -0.070 Cl
ATOM      8 Cl1  UNL d   1      -1.662  -0.097   0.476  0.00  0.00    -0.070 Cl
ENDROOT
TORSDOF 0
ENDMDL
