MODEL 1
REMARK minimizedAffinity -2.51596975
REMARK minimizedRMSD -1
REMARK  0 active torsions:
REMARK  status: ('A' for Active; 'I' for Inactive)
ROOT
ATOM      1  C   UNL d   1       2.320   1.583   0.433  0.00  0.00     0.020 A 
ATOM      2  C1  UNL d   1       3.082   0.573   1.019  0.00  0.00     0.020 A 
ATOM      3  C2  UNL d   1       2.529  -0.693   1.218  0.00  0.00     0.034 A 
ATOM      4  C3  UNL d   1       1.209  -0.954   0.831  0.00  0.00     0.017 A 
ATOM      5  C4  UNL d   1       0.445   0.060   0.242  0.00  0.00     0.017 A 
ATOM      6  C5  UNL d   1       1.004   1.327   0.045  0.00  0.00     0.034 A 
ATOM      7 Cl   UNL d   1      -1.190  -0.186  -0.262  0.00  0.00    -0.070 Cl
ATOM      8 Cl1  UNL d   1       0.590  -2.543   1.106  0.00  0.00    -0.070 Cl
ENDROOT
TORSDOF 0
ENDMDL
