MODEL 1
REMARK minimizedAffinity -2.60909557
REMARK minimizedRMSD -1
REMARK  0 active torsions:
REMARK  status: ('A' for Active; 'I' for Inactive)
ROOT
ATOM      1  C   UNL d   1      -1.645  -0.314  -0.439  0.00  0.00     0.020 A 
ATOM      2  C1  UNL d   1      -0.661   0.459  -1.055  0.00  0.00     0.020 A 
ATOM      3  C2  UNL d   1       0.688   0.145  -0.875  0.00  0.00     0.034 A 
ATOM      4  C3  UNL d   1       1.057  -0.944  -0.078  0.00  0.00     0.017 A 
ATOM      5  C4  UNL d   1       0.069  -1.720   0.540  0.00  0.00     0.017 A 
ATOM      6  C5  UNL d   1      -1.280  -1.401   0.356  0.00  0.00     0.034 A 
ATOM      7 Cl   UNL d   1       0.446  -3.079   1.538  0.00  0.00    -0.070 Cl
ATOM      8 Cl1  UNL d   1       2.743  -1.275   0.101  0.00  0.00    -0.070 Cl
ENDROOT
TORSDOF 0
ENDMDL
