MODEL 1
REMARK minimizedAffinity -5.25063992
REMARK minimizedRMSD -1
REMARK  0 active torsions:
REMARK  status: ('A' for Active; 'I' for Inactive)
ROOT
ATOM      1  C   UNL d   1      -1.380  -1.136   0.762  0.00  0.00     0.020 A 
ATOM      2  C1  UNL d   1      -0.533  -2.243   0.735  0.00  0.00     0.020 A 
ATOM      3  C2  UNL d   1       0.838  -2.069   0.534  0.00  0.00     0.034 A 
ATOM      4  C3  UNL d   1       1.366  -0.784   0.360  0.00  0.00     0.017 A 
ATOM      5  C4  UNL d   1       0.515   0.327   0.387  0.00  0.00     0.017 A 
ATOM      6  C5  UNL d   1      -0.857   0.146   0.589  0.00  0.00     0.034 A 
ATOM      7 Cl   UNL d   1       1.093   1.942   0.180  0.00  0.00    -0.070 Cl
ATOM      8 Cl1  UNL d   1       3.071  -0.643   0.116  0.00  0.00    -0.070 Cl
ENDROOT
TORSDOF 0
ENDMDL
