MODEL 1
REMARK minimizedAffinity 6.12945747
REMARK minimizedRMSD -1
REMARK  0 active torsions:
REMARK  status: ('A' for Active; 'I' for Inactive)
ROOT
ATOM      1  C   UNL d   1       1.169   4.261  -0.490  0.00  0.00     0.023 A 
ATOM      2  C1  UNL d   1       1.192   4.417  -1.877  0.00  0.00     0.003 A 
ATOM      3  C2  UNL d   1       0.110   3.984  -2.646  0.00  0.00     0.048 A 
ATOM      4  C3  UNL d   1      -0.991   3.398  -2.024  0.00  0.00     0.023 A 
ATOM      5  C4  UNL d   1      -1.019   3.241  -0.637  0.00  0.00     0.048 A 
ATOM      6  C5  UNL d   1       0.066   3.674   0.129  0.00  0.00     0.003 A 
ATOM      7  I   UNL d   1      -2.603   2.753  -3.167  0.00  0.00    -0.146 I 
ENDROOT
TORSDOF 0
ENDMDL
