MODEL 1
REMARK minimizedAffinity 3.4876461
REMARK minimizedRMSD -1
REMARK  0 active torsions:
REMARK  status: ('A' for Active; 'I' for Inactive)
ROOT
ATOM      1  C   UNL d   1      -0.352   2.162   3.002  0.00  0.00     0.023 A 
ATOM      2  C1  UNL d   1      -1.022   1.428   2.023  0.00  0.00     0.003 A 
ATOM      3  C2  UNL d   1      -0.948   1.816   0.684  0.00  0.00     0.048 A 
ATOM      4  C3  UNL d   1      -0.201   2.939   0.330  0.00  0.00     0.023 A 
ATOM      5  C4  UNL d   1       0.472   3.676   1.306  0.00  0.00     0.048 A 
ATOM      6  C5  UNL d   1       0.394   3.284   2.643  0.00  0.00     0.003 A 
ATOM      7  I   UNL d   1      -0.089   3.518  -1.663  0.00  0.00    -0.146 I 
ENDROOT
TORSDOF 0
ENDMDL
