MODEL 1
REMARK minimizedAffinity 2.4267993
REMARK minimizedRMSD -1
REMARK  0 active torsions:
REMARK  status: ('A' for Active; 'I' for Inactive)
ROOT
ATOM      1  C   UNL d   1       0.228   4.285  -1.634  0.00  0.00     0.023 A 
ATOM      2  C1  UNL d   1       0.472   4.770  -0.349  0.00  0.00     0.003 A 
ATOM      3  C2  UNL d   1       0.170   3.982   0.764  0.00  0.00     0.048 A 
ATOM      4  C3  UNL d   1      -0.375   2.711   0.585  0.00  0.00     0.023 A 
ATOM      5  C4  UNL d   1      -0.620   2.222  -0.699  0.00  0.00     0.048 A 
ATOM      6  C5  UNL d   1      -0.317   3.013  -1.809  0.00  0.00     0.003 A 
ATOM      7  I   UNL d   1      -0.825   1.538   2.240  0.00  0.00    -0.146 I 
ENDROOT
TORSDOF 0
ENDMDL
