MODEL 1
REMARK minimizedAffinity 8.11629963
REMARK minimizedRMSD -1
REMARK  0 active torsions:
REMARK  status: ('A' for Active; 'I' for Inactive)
ROOT
ATOM      1  C   UNL d   1       0.540   3.854  -0.027  0.00  0.00     0.023 A 
ATOM      2  C1  UNL d   1       0.013   2.797   0.717  0.00  0.00     0.003 A 
ATOM      3  C2  UNL d   1      -0.941   1.950   0.149  0.00  0.00     0.048 A 
ATOM      4  C3  UNL d   1      -1.364   2.165  -1.162  0.00  0.00     0.023 A 
ATOM      5  C4  UNL d   1      -0.839   3.220  -1.910  0.00  0.00     0.048 A 
ATOM      6  C5  UNL d   1       0.114   4.065  -1.338  0.00  0.00     0.003 A 
ATOM      7  I   UNL d   1      -2.784   0.906  -2.009  0.00  0.00    -0.146 I 
ENDROOT
TORSDOF 0
ENDMDL
