MODEL 1
REMARK minimizedAffinity 14.7580347
REMARK minimizedRMSD -1
REMARK  0 active torsions:
REMARK  status: ('A' for Active; 'I' for Inactive)
ROOT
ATOM      1  C   UNL d   1      -5.999   2.062  -3.798  0.00  0.00     0.023 A 
ATOM      2  C1  UNL d   1      -5.029   1.094  -3.536  0.00  0.00     0.003 A 
ATOM      3  C2  UNL d   1      -3.714   1.478  -3.266  0.00  0.00     0.048 A 
ATOM      4  C3  UNL d   1      -3.376   2.831  -3.258  0.00  0.00     0.023 A 
ATOM      5  C4  UNL d   1      -4.344   3.802  -3.520  0.00  0.00     0.048 A 
ATOM      6  C5  UNL d   1      -5.657   3.414  -3.790  0.00  0.00     0.003 A 
ATOM      7  I   UNL d   1      -1.419   3.404  -2.856  0.00  0.00    -0.146 I 
ENDROOT
TORSDOF 0
ENDMDL
