MODEL 1
REMARK minimizedAffinity 8.70393372
REMARK minimizedRMSD -1
REMARK  0 active torsions:
REMARK  status: ('A' for Active; 'I' for Inactive)
ROOT
ATOM      1  C   UNL d   1       1.126   4.099  -0.754  0.00  0.00     0.023 A 
ATOM      2  C1  UNL d   1      -0.073   3.470  -1.092  0.00  0.00     0.003 A 
ATOM      3  C2  UNL d   1      -1.289   4.014  -0.675  0.00  0.00     0.048 A 
ATOM      4  C3  UNL d   1      -1.300   5.188   0.077  0.00  0.00     0.023 A 
ATOM      5  C4  UNL d   1      -0.103   5.821   0.417  0.00  0.00     0.048 A 
ATOM      6  C5  UNL d   1       1.111   5.273  -0.001  0.00  0.00     0.003 A 
ATOM      7  I   UNL d   1      -3.110   6.000   0.698  0.00  0.00    -0.146 I 
ENDROOT
TORSDOF 0
ENDMDL
