MODEL 1
REMARK minimizedAffinity 6.71880865
REMARK minimizedRMSD -1
REMARK  0 active torsions:
REMARK  status: ('A' for Active; 'I' for Inactive)
ROOT
ATOM      1  C   UNL d   1      -1.614  -2.377   4.463  0.00  0.00     0.023 A 
ATOM      2  C1  UNL d   1      -0.384  -2.198   3.829  0.00  0.00     0.003 A 
ATOM      3  C2  UNL d   1      -0.109  -1.004   3.160  0.00  0.00     0.048 A 
ATOM      4  C3  UNL d   1      -1.068   0.008   3.130  0.00  0.00     0.023 A 
ATOM      5  C4  UNL d   1      -2.300  -0.166   3.763  0.00  0.00     0.048 A 
ATOM      6  C5  UNL d   1      -2.571  -1.362   4.430  0.00  0.00     0.003 A 
ATOM      7  I   UNL d   1      -0.661   1.787   2.135  0.00  0.00    -0.146 I 
ENDROOT
TORSDOF 0
ENDMDL
