MODEL 1
REMARK minimizedAffinity 6.79794884
REMARK minimizedRMSD -1
REMARK  0 active torsions:
REMARK  status: ('A' for Active; 'I' for Inactive)
ROOT
ATOM      1  C   UNL d   1       0.382   4.723   0.799  0.00  0.00     0.023 A 
ATOM      2  C1  UNL d   1       0.894   3.579   0.186  0.00  0.00     0.003 A 
ATOM      3  C2  UNL d   1       0.365   3.141  -1.029  0.00  0.00     0.048 A 
ATOM      4  C3  UNL d   1      -0.675   3.851  -1.627  0.00  0.00     0.023 A 
ATOM      5  C4  UNL d   1      -1.190   4.997  -1.018  0.00  0.00     0.048 A 
ATOM      6  C5  UNL d   1      -0.659   5.431   0.197  0.00  0.00     0.003 A 
ATOM      7  I   UNL d   1      -1.464   3.200  -3.437  0.00  0.00    -0.146 I 
ENDROOT
TORSDOF 0
ENDMDL
