MODEL 1
REMARK minimizedAffinity 2.68643284
REMARK minimizedRMSD -1
REMARK  0 active torsions:
REMARK  status: ('A' for Active; 'I' for Inactive)
ROOT
ATOM      1  C   UNL d   1       0.135   4.095  -1.910  0.00  0.00     0.023 A 
ATOM      2  C1  UNL d   1       0.563   4.495  -0.644  0.00  0.00     0.003 A 
ATOM      3  C2  UNL d   1       0.319   3.684   0.466  0.00  0.00     0.048 A 
ATOM      4  C3  UNL d   1      -0.352   2.472   0.302  0.00  0.00     0.023 A 
ATOM      5  C4  UNL d   1      -0.781   2.067  -0.963  0.00  0.00     0.048 A 
ATOM      6  C5  UNL d   1      -0.536   2.883  -2.070  0.00  0.00     0.003 A 
ATOM      7  I   UNL d   1      -0.715   1.262   1.952  0.00  0.00    -0.146 I 
ENDROOT
TORSDOF 0
ENDMDL
