MODEL 1
REMARK minimizedAffinity 14.2520876
REMARK minimizedRMSD -1
REMARK  0 active torsions:
REMARK  status: ('A' for Active; 'I' for Inactive)
ROOT
ATOM      1  C   UNL d   1      -1.073   3.234  -0.057  0.00  0.00     0.023 A 
ATOM      2  C1  UNL d   1      -1.788   2.071   0.230  0.00  0.00     0.003 A 
ATOM      3  C2  UNL d   1      -1.109   0.893   0.549  0.00  0.00     0.048 A 
ATOM      4  C3  UNL d   1       0.285   0.886   0.581  0.00  0.00     0.023 A 
ATOM      5  C4  UNL d   1       1.005   2.047   0.296  0.00  0.00     0.048 A 
ATOM      6  C5  UNL d   1       0.322   3.222  -0.023  0.00  0.00     0.003 A 
ATOM      7  I   UNL d   1       1.298  -0.866   1.056  0.00  0.00    -0.146 I 
ENDROOT
TORSDOF 0
ENDMDL
