MODEL 1
REMARK minimizedAffinity 12.1626635
REMARK minimizedRMSD -1
REMARK  0 active torsions:
REMARK  status: ('A' for Active; 'I' for Inactive)
ROOT
ATOM      1  C   UNL d   1       0.843   5.052  -1.770  0.00  0.00     0.023 A 
ATOM      2  C1  UNL d   1       0.328   3.895  -2.355  0.00  0.00     0.003 A 
ATOM      3  C2  UNL d   1      -0.012   2.800  -1.557  0.00  0.00     0.048 A 
ATOM      4  C3  UNL d   1       0.165   2.869  -0.176  0.00  0.00     0.023 A 
ATOM      5  C4  UNL d   1       0.679   4.025   0.414  0.00  0.00     0.048 A 
ATOM      6  C5  UNL d   1       1.019   5.117  -0.388  0.00  0.00     0.003 A 
ATOM      7  I   UNL d   1      -0.340   1.241   1.013  0.00  0.00    -0.146 I 
ENDROOT
TORSDOF 0
ENDMDL
