MODEL 1
REMARK minimizedAffinity 8.77314663
REMARK minimizedRMSD -1
REMARK  0 active torsions:
REMARK  status: ('A' for Active; 'I' for Inactive)
ROOT
ATOM      1  C   UNL d   1      -0.102   5.061  -1.973  0.00  0.00     0.023 A 
ATOM      2  C1  UNL d   1      -0.693   3.839  -2.295  0.00  0.00     0.003 A 
ATOM      3  C2  UNL d   1      -0.819   2.846  -1.322  0.00  0.00     0.048 A 
ATOM      4  C3  UNL d   1      -0.354   3.081  -0.028  0.00  0.00     0.023 A 
ATOM      5  C4  UNL d   1       0.236   4.303   0.298  0.00  0.00     0.048 A 
ATOM      6  C5  UNL d   1       0.361   5.293  -0.678  0.00  0.00     0.003 A 
ATOM      7  I   UNL d   1      -0.542   1.604   1.422  0.00  0.00    -0.146 I 
ENDROOT
TORSDOF 0
ENDMDL
