MODEL 1
REMARK minimizedAffinity 1.62823153
REMARK minimizedRMSD -1
REMARK  0 active torsions:
REMARK  status: ('A' for Active; 'I' for Inactive)
ROOT
ATOM      1  C   UNL d   1      -0.629   1.195   1.789  0.00  0.00     0.023 A 
ATOM      2  C1  UNL d   1      -1.496   1.149   2.881  0.00  0.00     0.003 A 
ATOM      3  C2  UNL d   1      -1.661  -0.042   3.593  0.00  0.00     0.048 A 
ATOM      4  C3  UNL d   1      -0.956  -1.181   3.208  0.00  0.00     0.023 A 
ATOM      5  C4  UNL d   1      -0.086  -1.139   2.116  0.00  0.00     0.048 A 
ATOM      6  C5  UNL d   1       0.075   0.053   1.407  0.00  0.00     0.003 A 
ATOM      7  I   UNL d   1      -1.199  -2.953   4.265  0.00  0.00    -0.146 I 
ENDROOT
TORSDOF 0
ENDMDL
