MODEL 1
REMARK minimizedAffinity 6.93050575
REMARK minimizedRMSD -1
REMARK  0 active torsions:
REMARK  status: ('A' for Active; 'I' for Inactive)
ROOT
ATOM      1  C   UNL d   1       0.041   5.432  -1.133  0.00  0.00     0.023 A 
ATOM      2  C1  UNL d   1       0.816   4.279  -1.251  0.00  0.00     0.003 A 
ATOM      3  C2  UNL d   1       0.864   3.358  -0.203  0.00  0.00     0.048 A 
ATOM      4  C3  UNL d   1       0.134   3.596   0.960  0.00  0.00     0.023 A 
ATOM      5  C4  UNL d   1      -0.645   4.748   1.083  0.00  0.00     0.048 A 
ATOM      6  C5  UNL d   1      -0.689   5.667   0.033  0.00  0.00     0.003 A 
ATOM      7  I   UNL d   1       0.203   2.226   2.522  0.00  0.00    -0.146 I 
ENDROOT
TORSDOF 0
ENDMDL
