MODEL 1
REMARK minimizedAffinity -0.753697991
REMARK minimizedRMSD -1
REMARK  0 active torsions:
REMARK  status: ('A' for Active; 'I' for Inactive)
ROOT
ATOM      1  C   UNL d   1      -0.908  -3.372   5.002  0.00  0.00     0.023 A 
ATOM      2  C1  UNL d   1      -1.556  -4.383   5.713  0.00  0.00     0.003 A 
ATOM      3  C2  UNL d   1      -2.919  -4.273   6.000  0.00  0.00     0.048 A 
ATOM      4  C3  UNL d   1      -3.627  -3.151   5.572  0.00  0.00     0.023 A 
ATOM      5  C4  UNL d   1      -2.983  -2.138   4.860  0.00  0.00     0.048 A 
ATOM      6  C5  UNL d   1      -1.621  -2.251   4.576  0.00  0.00     0.003 A 
ATOM      7  I   UNL d   1      -5.655  -2.986   5.997  0.00  0.00    -0.146 I 
ENDROOT
TORSDOF 0
ENDMDL
