MODEL 1
REMARK minimizedAffinity 7.97219992
REMARK minimizedRMSD -1
REMARK  0 active torsions:
REMARK  status: ('A' for Active; 'I' for Inactive)
ROOT
ATOM      1  C   UNL d   1       1.105  -1.606  -5.999  0.00  0.00     0.023 A 
ATOM      2  C1  UNL d   1       0.214  -2.612  -5.623  0.00  0.00     0.003 A 
ATOM      3  C2  UNL d   1       0.318  -3.203  -4.362  0.00  0.00     0.048 A 
ATOM      4  C3  UNL d   1       1.315  -2.784  -3.482  0.00  0.00     0.023 A 
ATOM      5  C4  UNL d   1       2.209  -1.778  -3.854  0.00  0.00     0.048 A 
ATOM      6  C5  UNL d   1       2.101  -1.190  -5.116  0.00  0.00     0.003 A 
ATOM      7  I   UNL d   1       1.473  -3.662  -1.605  0.00  0.00    -0.146 I 
ENDROOT
TORSDOF 0
ENDMDL
