MODEL 1
REMARK minimizedAffinity -3.03091311
REMARK minimizedRMSD -1
REMARK  1 active torsions:
REMARK  status: ('A' for Active; 'I' for Inactive)
REMARK    1  A    between atoms: C1_2  and  C2_3 
ROOT
ATOM      1  C2  UNL d   1       0.897  -1.761  -1.322  0.00  0.00    -0.073 A 
ATOM      2  C3  UNL d   1       1.501  -0.656  -1.931  0.00  0.00    -0.002 A 
ATOM      3  C4  UNL d   1       1.301   0.628  -1.420  0.00  0.00     0.004 A 
ATOM      4  C5  UNL d   1       0.501   0.818  -0.294  0.00  0.00    -0.004 A 
ATOM      5  C6  UNL d   1      -0.102  -0.276   0.336  0.00  0.00    -0.075 A 
ATOM      6  C7  UNL d   1      -0.967  -0.088   1.548  0.00  0.00     0.076 C 
ATOM      7  C8  UNL d   1       0.102  -1.561  -0.184  0.00  0.00     0.001 A 
ENDROOT
BRANCH   1   8
ATOM      8  C1  UNL d   1       1.115  -3.149  -1.866  0.00  0.00     0.053 C 
ATOM      9  C   UNL d   1      -0.196  -3.860  -2.158  0.00  0.00     0.018 C 
ENDBRANCH   1   8
TORSDOF 1
ENDMDL
