MODEL 1
REMARK minimizedAffinity -4.96808434
REMARK minimizedRMSD -1
REMARK  1 active torsions:
REMARK  status: ('A' for Active; 'I' for Inactive)
REMARK    1  A    between atoms: C1_2  and  C2_3 
ROOT
ATOM      1  C2  UNL d   1      -0.315  -1.038  -0.804  0.00  0.00    -0.073 A 
ATOM      2  C3  UNL d   1       0.291  -1.548   0.350  0.00  0.00    -0.002 A 
ATOM      3  C4  UNL d   1       0.146  -0.890   1.572  0.00  0.00     0.004 A 
ATOM      4  C5  UNL d   1      -0.609   0.279   1.654  0.00  0.00    -0.004 A 
ATOM      5  C6  UNL d   1      -1.232   0.798   0.514  0.00  0.00    -0.075 A 
ATOM      6  C7  UNL d   1      -2.047   2.056   0.586  0.00  0.00     0.076 C 
ATOM      7  C8  UNL d   1      -1.081   0.133  -0.710  0.00  0.00     0.001 A 
ENDROOT
BRANCH   1   8
ATOM      8  C1  UNL d   1      -0.168  -1.749  -2.124  0.00  0.00     0.053 C 
ATOM      9  C   UNL d   1       0.364  -3.163  -1.954  0.00  0.00     0.018 C 
ENDBRANCH   1   8
TORSDOF 1
ENDMDL
