MODEL 1
REMARK minimizedAffinity -3.17272472
REMARK minimizedRMSD -1
REMARK  1 active torsions:
REMARK  status: ('A' for Active; 'I' for Inactive)
REMARK    1  A    between atoms: C1_2  and  C2_3 
ROOT
ATOM      1  C2  UNL d   1       0.714  -0.849  -0.581  0.00  0.00    -0.073 A 
ATOM      2  C3  UNL d   1      -0.087  -0.923   0.564  0.00  0.00    -0.002 A 
ATOM      3  C4  UNL d   1      -0.739   0.215   1.043  0.00  0.00     0.004 A 
ATOM      4  C5  UNL d   1      -0.603   1.434   0.379  0.00  0.00    -0.004 A 
ATOM      5  C6  UNL d   1       0.183   1.525  -0.774  0.00  0.00    -0.075 A 
ATOM      6  C7  UNL d   1       0.341   2.829  -1.499  0.00  0.00     0.076 C 
ATOM      7  C8  UNL d   1       0.837   0.379  -1.247  0.00  0.00     0.001 A 
ENDROOT
BRANCH   1   8
ATOM      8  C1  UNL d   1       1.415  -2.075  -1.106  0.00  0.00     0.053 C 
ATOM      9  C   UNL d   1       0.555  -2.843  -2.097  0.00  0.00     0.018 C 
ENDBRANCH   1   8
TORSDOF 1
ENDMDL
