MODEL 1
REMARK minimizedAffinity -5.31402683
REMARK minimizedRMSD -1
REMARK  1 active torsions:
REMARK  status: ('A' for Active; 'I' for Inactive)
REMARK    1  A    between atoms: C1_2  and  C2_3 
ROOT
ATOM      1  C2  UNL d   1      -0.976  -0.633   0.074  0.00  0.00    -0.073 A 
ATOM      2  C3  UNL d   1       0.290  -0.505   0.656  0.00  0.00    -0.002 A 
ATOM      3  C4  UNL d   1       1.399  -1.122   0.075  0.00  0.00     0.004 A 
ATOM      4  C5  UNL d   1       1.254  -1.867  -1.096  0.00  0.00    -0.004 A 
ATOM      5  C6  UNL d   1      -0.001  -1.996  -1.699  0.00  0.00    -0.075 A 
ATOM      6  C7  UNL d   1      -0.174  -2.795  -2.957  0.00  0.00     0.076 C 
ATOM      7  C8  UNL d   1      -1.110  -1.376  -1.108  0.00  0.00     0.001 A 
ENDROOT
BRANCH   1   8
ATOM      8  C1  UNL d   1      -2.175   0.038   0.694  0.00  0.00     0.053 C 
ATOM      9  C   UNL d   1      -1.774   1.106   1.699  0.00  0.00     0.018 C 
ENDBRANCH   1   8
TORSDOF 1
ENDMDL
