MODEL 1
REMARK minimizedAffinity -5.20806932
REMARK minimizedRMSD -1
REMARK  1 active torsions:
REMARK  status: ('A' for Active; 'I' for Inactive)
REMARK    1  A    between atoms: C1_2  and  C2_3 
ROOT
ATOM      1  C2  UNL d   1       0.274  -0.736  -0.967  0.00  0.00    -0.073 A 
ATOM      2  C3  UNL d   1       1.040  -1.079   0.153  0.00  0.00    -0.002 A 
ATOM      3  C4  UNL d   1       0.674  -0.629   1.422  0.00  0.00     0.004 A 
ATOM      4  C5  UNL d   1      -0.464   0.162   1.586  0.00  0.00    -0.004 A 
ATOM      5  C6  UNL d   1      -1.249   0.506   0.480  0.00  0.00    -0.075 A 
ATOM      6  C7  UNL d   1      -2.474   1.358   0.639  0.00  0.00     0.076 C 
ATOM      7  C8  UNL d   1      -0.873   0.052  -0.791  0.00  0.00     0.001 A 
ENDROOT
BRANCH   1   8
ATOM      8  C1  UNL d   1       0.661  -1.225  -2.338  0.00  0.00     0.053 C 
ATOM      9  C   UNL d   1       0.492  -2.729  -2.476  0.00  0.00     0.018 C 
ENDBRANCH   1   8
TORSDOF 1
ENDMDL
