MODEL 1
REMARK minimizedAffinity -4.42202902
REMARK minimizedRMSD -1
REMARK  1 active torsions:
REMARK  status: ('A' for Active; 'I' for Inactive)
REMARK    1  A    between atoms: C1_2  and  C2_3 
ROOT
ATOM      1  C2  UNL d   1       0.722  -0.401  -0.375  0.00  0.00    -0.073 A 
ATOM      2  C3  UNL d   1       1.082   0.621  -1.261  0.00  0.00    -0.002 A 
ATOM      3  C4  UNL d   1       0.450   1.864  -1.197  0.00  0.00     0.004 A 
ATOM      4  C5  UNL d   1      -0.540   2.100  -0.244  0.00  0.00    -0.004 A 
ATOM      5  C6  UNL d   1      -0.905   1.095   0.658  0.00  0.00    -0.075 A 
ATOM      6  C7  UNL d   1      -1.971   1.332   1.687  0.00  0.00     0.076 C 
ATOM      7  C8  UNL d   1      -0.269  -0.151   0.586  0.00  0.00     0.001 A 
ENDROOT
BRANCH   1   8
ATOM      8  C1  UNL d   1       1.405  -1.743  -0.436  0.00  0.00     0.053 C 
ATOM      9  C   UNL d   1       0.947  -2.562  -1.632  0.00  0.00     0.018 C 
ENDBRANCH   1   8
TORSDOF 1
ENDMDL
