MODEL 1
REMARK minimizedAffinity -5.18799496
REMARK minimizedRMSD -1
REMARK  1 active torsions:
REMARK  status: ('A' for Active; 'I' for Inactive)
REMARK    1  A    between atoms: C1_2  and  C2_3 
ROOT
ATOM      1  C2  UNL d   1      -0.284   1.759  -0.089  0.00  0.00    -0.073 A 
ATOM      2  C3  UNL d   1      -1.201   1.738   0.968  0.00  0.00    -0.002 A 
ATOM      3  C4  UNL d   1      -1.455   0.553   1.658  0.00  0.00     0.004 A 
ATOM      4  C5  UNL d   1      -0.791  -0.622   1.304  0.00  0.00    -0.004 A 
ATOM      5  C6  UNL d   1       0.138  -0.619   0.259  0.00  0.00    -0.075 A 
ATOM      6  C7  UNL d   1       0.859  -1.875  -0.136  0.00  0.00     0.076 C 
ATOM      7  C8  UNL d   1       0.385   0.575  -0.431  0.00  0.00     0.001 A 
ENDROOT
BRANCH   1   8
ATOM      8  C1  UNL d   1      -0.002   3.038  -0.833  0.00  0.00     0.053 C 
ATOM      9  C   UNL d   1      -0.013   4.248   0.088  0.00  0.00     0.018 C 
ENDBRANCH   1   8
TORSDOF 1
ENDMDL
