MODEL 1
REMARK minimizedAffinity -3.49711585
REMARK minimizedRMSD -1
REMARK  1 active torsions:
REMARK  status: ('A' for Active; 'I' for Inactive)
REMARK    1  A    between atoms: C1_2  and  C2_3 
ROOT
ATOM      1  C2  UNL d   1       0.508  -0.021  -0.647  0.00  0.00    -0.073 A 
ATOM      2  C3  UNL d   1       1.015   0.789  -1.670  0.00  0.00    -0.002 A 
ATOM      3  C4  UNL d   1       0.499   2.069  -1.877  0.00  0.00     0.004 A 
ATOM      4  C5  UNL d   1      -0.523   2.554  -1.060  0.00  0.00    -0.004 A 
ATOM      5  C6  UNL d   1      -1.034   1.764  -0.026  0.00  0.00    -0.075 A 
ATOM      6  C7  UNL d   1      -2.135   2.270   0.860  0.00  0.00     0.076 C 
ATOM      7  C8  UNL d   1      -0.512   0.479   0.174  0.00  0.00     0.001 A 
ENDROOT
BRANCH   1   8
ATOM      8  C1  UNL d   1       1.067  -1.402  -0.416  0.00  0.00     0.053 C 
ATOM      9  C   UNL d   1       0.721  -2.354  -1.550  0.00  0.00     0.018 C 
ENDBRANCH   1   8
TORSDOF 1
ENDMDL
