MODEL 1
REMARK minimizedAffinity 1.30198133
REMARK minimizedRMSD -1
REMARK  0 active torsions:
REMARK  status: ('A' for Active; 'I' for Inactive)
ROOT
ATOM      1  C   UNL d   1       1.000   0.249  -1.040  0.00  0.00     0.020 A 
ATOM      2  C1  UNL d   1       1.870   0.708  -0.052  0.00  0.00     0.020 A 
ATOM      3  C2  UNL d   1       2.496  -0.200   0.805  0.00  0.00     0.034 A 
ATOM      4  C3  UNL d   1       2.252  -1.572   0.676  0.00  0.00     0.017 A 
ATOM      5  C4  UNL d   1       1.378  -2.032  -0.316  0.00  0.00     0.017 A 
ATOM      6  C5  UNL d   1       0.755  -1.119  -1.171  0.00  0.00     0.034 A 
ATOM      7 Cl   UNL d   1       1.028  -3.710  -0.537  0.00  0.00    -0.070 Cl
ATOM      8 Cl1  UNL d   1       3.061  -2.638   1.769  0.00  0.00    -0.070 Cl
ENDROOT
TORSDOF 0
ENDMDL
