MODEL 1
REMARK minimizedAffinity 17.0983868
REMARK minimizedRMSD -1
REMARK  0 active torsions:
REMARK  status: ('A' for Active; 'I' for Inactive)
ROOT
ATOM      1  C   UNL d   1       2.603   0.836   1.182  0.00  0.00     0.020 A 
ATOM      2  C1  UNL d   1       3.016   1.309  -0.063  0.00  0.00     0.020 A 
ATOM      3  C2  UNL d   1       3.044   0.449  -1.162  0.00  0.00     0.034 A 
ATOM      4  C3  UNL d   1       2.658  -0.889  -1.020  0.00  0.00     0.017 A 
ATOM      5  C4  UNL d   1       2.244  -1.363   0.230  0.00  0.00     0.017 A 
ATOM      6  C5  UNL d   1       2.217  -0.498   1.328  0.00  0.00     0.034 A 
ATOM      7 Cl   UNL d   1       1.753  -3.001   0.484  0.00  0.00    -0.070 Cl
ATOM      8 Cl1  UNL d   1       2.717  -1.896  -2.422  0.00  0.00    -0.070 Cl
ENDROOT
TORSDOF 0
ENDMDL
