MODEL 1
REMARK minimizedAffinity 3.91349888
REMARK minimizedRMSD -1
REMARK  0 active torsions:
REMARK  status: ('A' for Active; 'I' for Inactive)
ROOT
ATOM      1  C   UNL d   1      -4.879   0.157  -0.033  0.00  0.00     0.020 A 
ATOM      2  C1  UNL d   1      -5.945   1.055  -0.046  0.00  0.00     0.020 A 
ATOM      3  C2  UNL d   1      -6.000   2.060  -1.015  0.00  0.00     0.034 A 
ATOM      4  C3  UNL d   1      -4.987   2.167  -1.975  0.00  0.00     0.017 A 
ATOM      5  C4  UNL d   1      -3.917   1.265  -1.961  0.00  0.00     0.017 A 
ATOM      6  C5  UNL d   1      -3.868   0.261  -0.988  0.00  0.00     0.034 A 
ATOM      7 Cl   UNL d   1      -2.631   1.334  -3.113  0.00  0.00    -0.070 Cl
ATOM      8 Cl1  UNL d   1      -5.119   3.433  -3.144  0.00  0.00    -0.070 Cl
ENDROOT
TORSDOF 0
ENDMDL
