MODEL 1
REMARK minimizedAffinity 5.29142046
REMARK minimizedRMSD -1
REMARK  0 active torsions:
REMARK  status: ('A' for Active; 'I' for Inactive)
ROOT
ATOM      1  C   UNL d   1      -4.627   0.602  -2.597  0.00  0.00     0.020 A 
ATOM      2  C1  UNL d   1      -5.093   1.068  -3.826  0.00  0.00     0.020 A 
ATOM      3  C2  UNL d   1      -5.512   2.393  -3.956  0.00  0.00     0.034 A 
ATOM      4  C3  UNL d   1      -5.466   3.258  -2.857  0.00  0.00     0.017 A 
ATOM      5  C4  UNL d   1      -4.998   2.789  -1.623  0.00  0.00     0.017 A 
ATOM      6  C5  UNL d   1      -4.580   1.461  -1.498  0.00  0.00     0.034 A 
ATOM      7 Cl   UNL d   1      -4.913   3.796  -0.221  0.00  0.00    -0.070 Cl
ATOM      8 Cl1  UNL d   1      -6.000   4.885  -3.090  0.00  0.00    -0.070 Cl
ENDROOT
TORSDOF 0
ENDMDL
