MODEL 1
REMARK minimizedAffinity 0.0851966292
REMARK minimizedRMSD -1
REMARK  0 active torsions:
REMARK  status: ('A' for Active; 'I' for Inactive)
ROOT
ATOM      1  C   UNL d   1       2.734  -1.017   0.671  0.00  0.00     0.020 A 
ATOM      2  C1  UNL d   1       2.016  -1.883  -0.153  0.00  0.00     0.020 A 
ATOM      3  C2  UNL d   1       0.995  -1.388  -0.966  0.00  0.00     0.034 A 
ATOM      4  C3  UNL d   1       0.688  -0.022  -0.957  0.00  0.00     0.017 A 
ATOM      5  C4  UNL d   1       1.408   0.846  -0.130  0.00  0.00     0.017 A 
ATOM      6  C5  UNL d   1       2.430   0.345   0.682  0.00  0.00     0.034 A 
ATOM      7 Cl   UNL d   1       1.087   2.543  -0.064  0.00  0.00    -0.070 Cl
ATOM      8 Cl1  UNL d   1      -0.588   0.521  -1.989  0.00  0.00    -0.070 Cl
ENDROOT
TORSDOF 0
ENDMDL
