MODEL 1
REMARK minimizedAffinity 6.90576077
REMARK minimizedRMSD -1
REMARK  0 active torsions:
REMARK  status: ('A' for Active; 'I' for Inactive)
ROOT
ATOM      1  C   UNL d   1       3.202  -2.454   1.101  0.00  0.00     0.020 A 
ATOM      2  C1  UNL d   1       3.498  -1.329   1.869  0.00  0.00     0.020 A 
ATOM      3  C2  UNL d   1       2.914  -0.099   1.560  0.00  0.00     0.034 A 
ATOM      4  C3  UNL d   1       2.031   0.010   0.479  0.00  0.00     0.017 A 
ATOM      5  C4  UNL d   1       1.735  -1.121  -0.291  0.00  0.00     0.017 A 
ATOM      6  C5  UNL d   1       2.322  -2.350   0.023  0.00  0.00     0.034 A 
ATOM      7 Cl   UNL d   1       0.655  -1.065  -1.640  0.00  0.00    -0.070 Cl
ATOM      8 Cl1  UNL d   1       1.346   1.562   0.154  0.00  0.00    -0.070 Cl
ENDROOT
TORSDOF 0
ENDMDL
