MODEL 1
REMARK minimizedAffinity -0.86215806
REMARK minimizedRMSD -1
REMARK  0 active torsions:
REMARK  status: ('A' for Active; 'I' for Inactive)
ROOT
ATOM      1  C   UNL d   1       3.208   1.339  -0.352  0.00  0.00     0.020 A 
ATOM      2  C1  UNL d   1       3.915   1.586  -1.529  0.00  0.00     0.020 A 
ATOM      3  C2  UNL d   1       4.088   0.567  -2.467  0.00  0.00     0.034 A 
ATOM      4  C3  UNL d   1       3.554  -0.705  -2.231  0.00  0.00     0.017 A 
ATOM      5  C4  UNL d   1       2.844  -0.953  -1.050  0.00  0.00     0.017 A 
ATOM      6  C5  UNL d   1       2.674   0.072  -0.114  0.00  0.00     0.034 A 
ATOM      7 Cl   UNL d   1       2.156  -2.496  -0.689  0.00  0.00    -0.070 Cl
ATOM      8 Cl1  UNL d   1       3.805  -1.918  -3.435  0.00  0.00    -0.070 Cl
ENDROOT
TORSDOF 0
ENDMDL
