MODEL 1
REMARK minimizedAffinity -2.3962636
REMARK minimizedRMSD -1
REMARK  0 active torsions:
REMARK  status: ('A' for Active; 'I' for Inactive)
ROOT
ATOM      1  C   UNL d   1       1.545   1.755   0.742  0.00  0.00     0.020 A 
ATOM      2  C1  UNL d   1       1.775   0.380   0.779  0.00  0.00     0.020 A 
ATOM      3  C2  UNL d   1       0.779  -0.482   1.242  0.00  0.00     0.034 A 
ATOM      4  C3  UNL d   1      -0.451   0.030   1.671  0.00  0.00     0.017 A 
ATOM      5  C4  UNL d   1      -0.681   1.410   1.633  0.00  0.00     0.017 A 
ATOM      6  C5  UNL d   1       0.320   2.269   1.168  0.00  0.00     0.034 A 
ATOM      7 Cl   UNL d   1      -2.173   2.116   2.146  0.00  0.00    -0.070 Cl
ATOM      8 Cl1  UNL d   1      -1.638  -1.094   2.232  0.00  0.00    -0.070 Cl
ENDROOT
TORSDOF 0
ENDMDL
