MODEL 1
REMARK minimizedAffinity 6.73965502
REMARK minimizedRMSD -1
REMARK  0 active torsions:
REMARK  status: ('A' for Active; 'I' for Inactive)
ROOT
ATOM      1  C   UNL d   1      -0.423   0.807   0.838  0.00  0.00     0.020 A 
ATOM      2  C1  UNL d   1      -0.752   0.036   1.952  0.00  0.00     0.020 A 
ATOM      3  C2  UNL d   1      -1.598   0.554   2.934  0.00  0.00     0.034 A 
ATOM      4  C3  UNL d   1      -2.119   1.846   2.805  0.00  0.00     0.017 A 
ATOM      5  C4  UNL d   1      -1.789   2.620   1.686  0.00  0.00     0.017 A 
ATOM      6  C5  UNL d   1      -0.941   2.096   0.705  0.00  0.00     0.034 A 
ATOM      7 Cl   UNL d   1      -2.393   4.223   1.456  0.00  0.00    -0.070 Cl
ATOM      8 Cl1  UNL d   1      -3.160   2.423   4.057  0.00  0.00    -0.070 Cl
ENDROOT
TORSDOF 0
ENDMDL
