MODEL 1
REMARK minimizedAffinity -0.839448929
REMARK minimizedRMSD -1
REMARK  0 active torsions:
REMARK  status: ('A' for Active; 'I' for Inactive)
ROOT
ATOM      1  C   UNL d   1      -2.206  -0.177   2.874  0.00  0.00     0.020 A 
ATOM      2  C1  UNL d   1      -0.945  -0.683   2.560  0.00  0.00     0.020 A 
ATOM      3  C2  UNL d   1       0.012   0.145   1.970  0.00  0.00     0.034 A 
ATOM      4  C3  UNL d   1      -0.289   1.483   1.693  0.00  0.00     0.017 A 
ATOM      5  C4  UNL d   1      -1.554   1.990   2.010  0.00  0.00     0.017 A 
ATOM      6  C5  UNL d   1      -2.510   1.157   2.600  0.00  0.00     0.034 A 
ATOM      7 Cl   UNL d   1      -2.000   3.631   1.698  0.00  0.00    -0.070 Cl
ATOM      8 Cl1  UNL d   1       0.943   2.450   0.964  0.00  0.00    -0.070 Cl
ENDROOT
TORSDOF 0
ENDMDL
