MODEL 1
REMARK minimizedAffinity 2.64239526
REMARK minimizedRMSD -1
REMARK  0 active torsions:
REMARK  status: ('A' for Active; 'I' for Inactive)
ROOT
ATOM      1  C   UNL d   1      -0.605  -0.389   1.379  0.00  0.00     0.020 A 
ATOM      2  C1  UNL d   1       0.351   0.336   0.668  0.00  0.00     0.020 A 
ATOM      3  C2  UNL d   1       0.359   1.731   0.731  0.00  0.00     0.034 A 
ATOM      4  C3  UNL d   1      -0.592   2.406   1.506  0.00  0.00     0.017 A 
ATOM      5  C4  UNL d   1      -1.551   1.678   2.219  0.00  0.00     0.017 A 
ATOM      6  C5  UNL d   1      -1.554   0.281   2.152  0.00  0.00     0.034 A 
ATOM      7 Cl   UNL d   1      -2.756   2.440   3.196  0.00  0.00    -0.070 Cl
ATOM      8 Cl1  UNL d   1      -0.523   4.132   1.538  0.00  0.00    -0.070 Cl
ENDROOT
TORSDOF 0
ENDMDL
