MODEL 1
REMARK minimizedAffinity 0.164541736
REMARK minimizedRMSD -1
REMARK  0 active torsions:
REMARK  status: ('A' for Active; 'I' for Inactive)
ROOT
ATOM      1  C   UNL d   1       1.033   1.422   0.871  0.00  0.00     0.020 A 
ATOM      2  C1  UNL d   1       0.768   0.075   0.630  0.00  0.00     0.020 A 
ATOM      3  C2  UNL d   1      -0.432  -0.490   1.066  0.00  0.00     0.034 A 
ATOM      4  C3  UNL d   1      -1.372   0.294   1.746  0.00  0.00     0.017 A 
ATOM      5  C4  UNL d   1      -1.106   1.646   1.987  0.00  0.00     0.017 A 
ATOM      6  C5  UNL d   1       0.098   2.206   1.548  0.00  0.00     0.034 A 
ATOM      7 Cl   UNL d   1      -2.217   2.676   2.819  0.00  0.00    -0.070 Cl
ATOM      8 Cl1  UNL d   1      -2.836  -0.470   2.257  0.00  0.00    -0.070 Cl
ENDROOT
TORSDOF 0
ENDMDL
