MODEL 1
REMARK minimizedAffinity -2.7056644
REMARK minimizedRMSD -1
REMARK  0 active torsions:
REMARK  status: ('A' for Active; 'I' for Inactive)
ROOT
ATOM      1  C   UNL d   1       1.077   0.995   0.926  0.00  0.00     0.020 A 
ATOM      2  C1  UNL d   1       0.649   2.261   1.325  0.00  0.00     0.020 A 
ATOM      3  C2  UNL d   1      -0.582   2.412   1.965  0.00  0.00     0.034 A 
ATOM      4  C3  UNL d   1      -1.391   1.296   2.209  0.00  0.00     0.017 A 
ATOM      5  C4  UNL d   1      -0.961   0.026   1.809  0.00  0.00     0.017 A 
ATOM      6  C5  UNL d   1       0.273  -0.120   1.168  0.00  0.00     0.034 A 
ATOM      7 Cl   UNL d   1      -1.903  -1.399   2.076  0.00  0.00    -0.070 Cl
ATOM      8 Cl1  UNL d   1      -2.901   1.557   3.007  0.00  0.00    -0.070 Cl
ENDROOT
TORSDOF 0
ENDMDL
