MODEL 1
REMARK minimizedAffinity 9.50751495
REMARK minimizedRMSD -1
REMARK  0 active torsions:
REMARK  status: ('A' for Active; 'I' for Inactive)
ROOT
ATOM      1  C   UNL d   1      -2.709   2.977   2.082  0.00  0.00     0.020 A 
ATOM      2  C1  UNL d   1      -1.930   1.836   1.894  0.00  0.00     0.020 A 
ATOM      3  C2  UNL d   1      -2.260   0.648   2.551  0.00  0.00     0.034 A 
ATOM      4  C3  UNL d   1      -3.373   0.599   3.399  0.00  0.00     0.017 A 
ATOM      5  C4  UNL d   1      -4.154   1.745   3.587  0.00  0.00     0.017 A 
ATOM      6  C5  UNL d   1      -3.818   2.931   2.927  0.00  0.00     0.034 A 
ATOM      7 Cl   UNL d   1      -5.541   1.762   4.618  0.00  0.00    -0.070 Cl
ATOM      8 Cl1  UNL d   1      -3.723  -0.902   4.179  0.00  0.00    -0.070 Cl
ENDROOT
TORSDOF 0
ENDMDL
