MODEL 1
REMARK minimizedAffinity 5.62802076
REMARK minimizedRMSD -1
REMARK  0 active torsions:
REMARK  status: ('A' for Active; 'I' for Inactive)
ROOT
ATOM      1  C   UNL d   1      -4.011  -0.178  -2.995  0.00  0.00     0.020 A 
ATOM      2  C1  UNL d   1      -3.469  -1.241  -3.717  0.00  0.00     0.020 A 
ATOM      3  C2  UNL d   1      -3.429  -2.518  -3.155  0.00  0.00     0.034 A 
ATOM      4  C3  UNL d   1      -3.931  -2.737  -1.867  0.00  0.00     0.017 A 
ATOM      5  C4  UNL d   1      -4.475  -1.670  -1.142  0.00  0.00     0.017 A 
ATOM      6  C5  UNL d   1      -4.513  -0.392  -1.710  0.00  0.00     0.034 A 
ATOM      7 Cl   UNL d   1      -5.113  -1.861   0.452  0.00  0.00    -0.070 Cl
ATOM      8 Cl1  UNL d   1      -3.849  -4.343  -1.234  0.00  0.00    -0.070 Cl
ENDROOT
TORSDOF 0
ENDMDL
