MODEL 1
REMARK minimizedAffinity -4.79732704
REMARK minimizedRMSD -1
REMARK  0 active torsions:
REMARK  status: ('A' for Active; 'I' for Inactive)
ROOT
ATOM      1  C   UNL d   1       0.033   2.519   0.985  0.00  0.00     0.020 A 
ATOM      2  C1  UNL d   1      -0.973   3.477   1.098  0.00  0.00     0.020 A 
ATOM      3  C2  UNL d   1      -2.164   3.165   1.757  0.00  0.00     0.034 A 
ATOM      4  C3  UNL d   1      -2.351   1.891   2.306  0.00  0.00     0.017 A 
ATOM      5  C4  UNL d   1      -1.340   0.930   2.192  0.00  0.00     0.017 A 
ATOM      6  C5  UNL d   1      -0.150   1.248   1.531  0.00  0.00     0.034 A 
ATOM      7 Cl   UNL d   1      -1.499  -0.663   2.843  0.00  0.00    -0.070 Cl
ATOM      8 Cl1  UNL d   1      -3.849   1.574   3.108  0.00  0.00    -0.070 Cl
ENDROOT
TORSDOF 0
ENDMDL
