MODEL 1
REMARK minimizedAffinity 0.0752717108
REMARK minimizedRMSD -1
REMARK  0 active torsions:
REMARK  status: ('A' for Active; 'I' for Inactive)
ROOT
ATOM      1  C   UNL d   1       0.394   2.023   1.485  0.00  0.00     0.020 A 
ATOM      2  C1  UNL d   1       0.555   0.649   1.310  0.00  0.00     0.020 A 
ATOM      3  C2  UNL d   1      -0.493  -0.221   1.618  0.00  0.00     0.034 A 
ATOM      4  C3  UNL d   1      -1.706   0.282   2.102  0.00  0.00     0.017 A 
ATOM      5  C4  UNL d   1      -1.867   1.661   2.277  0.00  0.00     0.017 A 
ATOM      6  C5  UNL d   1      -0.814   2.528   1.968  0.00  0.00     0.034 A 
ATOM      7 Cl   UNL d   1      -3.334   2.355   2.870  0.00  0.00    -0.070 Cl
ATOM      8 Cl1  UNL d   1      -2.959  -0.852   2.462  0.00  0.00    -0.070 Cl
ENDROOT
TORSDOF 0
ENDMDL
