MODEL 1
REMARK minimizedAffinity -1.60992348
REMARK minimizedRMSD -1
REMARK  0 active torsions:
REMARK  status: ('A' for Active; 'I' for Inactive)
ROOT
ATOM      1  C   UNL d   1       0.117   2.584   1.577  0.00  0.00     0.020 A 
ATOM      2  C1  UNL d   1       0.845   1.443   1.240  0.00  0.00     0.020 A 
ATOM      3  C2  UNL d   1       0.322   0.177   1.509  0.00  0.00     0.034 A 
ATOM      4  C3  UNL d   1      -0.932   0.047   2.118  0.00  0.00     0.017 A 
ATOM      5  C4  UNL d   1      -1.662   1.193   2.455  0.00  0.00     0.017 A 
ATOM      6  C5  UNL d   1      -1.134   2.459   2.183  0.00  0.00     0.034 A 
ATOM      7 Cl   UNL d   1      -3.216   1.113   3.208  0.00  0.00    -0.070 Cl
ATOM      8 Cl1  UNL d   1      -1.517  -1.550   2.421  0.00  0.00    -0.070 Cl
ENDROOT
TORSDOF 0
ENDMDL
