MODEL 1
REMARK minimizedAffinity 1.22861004
REMARK minimizedRMSD -1
REMARK  0 active torsions:
REMARK  status: ('A' for Active; 'I' for Inactive)
ROOT
ATOM      1  C   UNL d   1       1.285   0.354   0.733  0.00  0.00     0.020 A 
ATOM      2  C1  UNL d   1       1.294   1.714   1.041  0.00  0.00     0.020 A 
ATOM      3  C2  UNL d   1       0.125   2.338   1.481  0.00  0.00     0.034 A 
ATOM      4  C3  UNL d   1      -1.059   1.602   1.612  0.00  0.00     0.017 A 
ATOM      5  C4  UNL d   1      -1.067   0.237   1.302  0.00  0.00     0.017 A 
ATOM      6  C5  UNL d   1       0.107  -0.382   0.863  0.00  0.00     0.034 A 
ATOM      7 Cl   UNL d   1      -2.488  -0.736   1.440  0.00  0.00    -0.070 Cl
ATOM      8 Cl1  UNL d   1      -2.468   2.438   2.161  0.00  0.00    -0.070 Cl
ENDROOT
TORSDOF 0
ENDMDL
