MODEL 1
REMARK minimizedAffinity 8.20429707
REMARK minimizedRMSD -1
REMARK  0 active torsions:
REMARK  status: ('A' for Active; 'I' for Inactive)
ROOT
ATOM      1  C   UNL d   1       0.909   1.785   0.595  0.00  0.00     0.020 A 
ATOM      2  C1  UNL d   1       0.766   0.891   1.656  0.00  0.00     0.020 A 
ATOM      3  C2  UNL d   1      -0.461   0.779   2.314  0.00  0.00     0.034 A 
ATOM      4  C3  UNL d   1      -1.549   1.562   1.912  0.00  0.00     0.017 A 
ATOM      5  C4  UNL d   1      -1.405   2.459   0.848  0.00  0.00     0.017 A 
ATOM      6  C5  UNL d   1      -0.174   2.567   0.192  0.00  0.00     0.034 A 
ATOM      7 Cl   UNL d   1      -2.702   3.459   0.295  0.00  0.00    -0.070 Cl
ATOM      8 Cl1  UNL d   1      -3.036   1.372   2.771  0.00  0.00    -0.070 Cl
ENDROOT
TORSDOF 0
ENDMDL
