MODEL 1
REMARK minimizedAffinity 4.25899792
REMARK minimizedRMSD -1
REMARK  0 active torsions:
REMARK  status: ('A' for Active; 'I' for Inactive)
ROOT
ATOM      1  C   UNL d   1      -2.827   0.969   3.004  0.00  0.00     0.020 A 
ATOM      2  C1  UNL d   1      -2.761   2.188   2.330  0.00  0.00     0.020 A 
ATOM      3  C2  UNL d   1      -1.602   2.541   1.636  0.00  0.00     0.034 A 
ATOM      4  C3  UNL d   1      -0.504   1.674   1.614  0.00  0.00     0.017 A 
ATOM      5  C4  UNL d   1      -0.570   0.450   2.290  0.00  0.00     0.017 A 
ATOM      6  C5  UNL d   1      -1.733   0.102   2.984  0.00  0.00     0.034 A 
ATOM      7 Cl   UNL d   1       0.744  -0.671   2.309  0.00  0.00    -0.070 Cl
ATOM      8 Cl1  UNL d   1       0.897   2.174   0.735  0.00  0.00    -0.070 Cl
ENDROOT
TORSDOF 0
ENDMDL
