MODEL 1
REMARK minimizedAffinity 5.19298315
REMARK minimizedRMSD -1
REMARK  0 active torsions:
REMARK  status: ('A' for Active; 'I' for Inactive)
ROOT
ATOM      1  C   UNL d   1       0.955   1.409   1.329  0.00  0.00     0.020 A 
ATOM      2  C1  UNL d   1       0.919   0.023   1.477  0.00  0.00     0.020 A 
ATOM      3  C2  UNL d   1      -0.266  -0.607   1.863  0.00  0.00     0.034 A 
ATOM      4  C3  UNL d   1      -1.419   0.148   2.103  0.00  0.00     0.017 A 
ATOM      5  C4  UNL d   1      -1.382   1.540   1.955  0.00  0.00     0.017 A 
ATOM      6  C5  UNL d   1      -0.193   2.165   1.568  0.00  0.00     0.034 A 
ATOM      7 Cl   UNL d   1      -2.764   2.539   2.233  0.00  0.00    -0.070 Cl
ATOM      8 Cl1  UNL d   1      -2.849  -0.697   2.578  0.00  0.00    -0.070 Cl
ENDROOT
TORSDOF 0
ENDMDL
