MODEL 1
REMARK minimizedAffinity 0.520242214
REMARK minimizedRMSD -1
REMARK  0 active torsions:
REMARK  status: ('A' for Active; 'I' for Inactive)
ROOT
ATOM      1  C   UNL d   1       1.662   0.169   0.847  0.00  0.00     0.020 A 
ATOM      2  C1  UNL d   1       1.677   1.534   1.130  0.00  0.00     0.020 A 
ATOM      3  C2  UNL d   1       0.494   2.187   1.482  0.00  0.00     0.034 A 
ATOM      4  C3  UNL d   1      -0.709   1.475   1.553  0.00  0.00     0.017 A 
ATOM      5  C4  UNL d   1      -0.722   0.104   1.269  0.00  0.00     0.017 A 
ATOM      6  C5  UNL d   1       0.465  -0.544   0.916  0.00  0.00     0.034 A 
ATOM      7 Cl   UNL d   1      -2.167  -0.842   1.335  0.00  0.00    -0.070 Cl
ATOM      8 Cl1  UNL d   1      -2.134   2.346   1.996  0.00  0.00    -0.070 Cl
ENDROOT
TORSDOF 0
ENDMDL
