MODEL 1
REMARK minimizedAffinity 7.76214409
REMARK minimizedRMSD -1
REMARK  0 active torsions:
REMARK  status: ('A' for Active; 'I' for Inactive)
ROOT
ATOM      1  C   UNL d   1       0.385   2.279   1.303  0.00  0.00     0.020 A 
ATOM      2  C1  UNL d   1      -1.003   2.242   1.433  0.00  0.00     0.020 A 
ATOM      3  C2  UNL d   1      -1.622   1.123   1.993  0.00  0.00     0.034 A 
ATOM      4  C3  UNL d   1      -0.853   0.036   2.425  0.00  0.00     0.017 A 
ATOM      5  C4  UNL d   1       0.540   0.074   2.294  0.00  0.00     0.017 A 
ATOM      6  C5  UNL d   1       1.154   1.197   1.733  0.00  0.00     0.034 A 
ATOM      7 Cl   UNL d   1       1.555  -1.229   2.804  0.00  0.00    -0.070 Cl
ATOM      8 Cl1  UNL d   1      -1.685  -1.316   3.108  0.00  0.00    -0.070 Cl
ENDROOT
TORSDOF 0
ENDMDL
