MODEL 1
REMARK minimizedAffinity 4.94022274
REMARK minimizedRMSD -1
REMARK  0 active torsions:
REMARK  status: ('A' for Active; 'I' for Inactive)
ROOT
ATOM      1  C   UNL d   1       1.268   1.997   0.976  0.00  0.00     0.020 A 
ATOM      2  C1  UNL d   1       1.444   0.614   0.992  0.00  0.00     0.020 A 
ATOM      3  C2  UNL d   1       0.388  -0.220   1.365  0.00  0.00     0.034 A 
ATOM      4  C3  UNL d   1      -0.849   0.328   1.724  0.00  0.00     0.017 A 
ATOM      5  C4  UNL d   1      -1.025   1.716   1.707  0.00  0.00     0.017 A 
ATOM      6  C5  UNL d   1       0.036   2.547   1.332  0.00  0.00     0.034 A 
ATOM      7 Cl   UNL d   1      -2.522   2.466   2.136  0.00  0.00    -0.070 Cl
ATOM      8 Cl1  UNL d   1      -2.111  -0.763   2.174  0.00  0.00    -0.070 Cl
ENDROOT
TORSDOF 0
ENDMDL
