MODEL 1
REMARK minimizedAffinity 2.42876673
REMARK minimizedRMSD -1
REMARK  0 active torsions:
REMARK  status: ('A' for Active; 'I' for Inactive)
ROOT
ATOM      1  C   UNL d   1       0.454   2.440   1.968  0.00  0.00     0.020 A 
ATOM      2  C1  UNL d   1       0.147   1.629   3.059  0.00  0.00     0.020 A 
ATOM      3  C2  UNL d   1      -1.175   1.510   3.492  0.00  0.00     0.034 A 
ATOM      4  C3  UNL d   1      -2.196   2.204   2.832  0.00  0.00     0.017 A 
ATOM      5  C4  UNL d   1      -1.888   3.018   1.736  0.00  0.00     0.017 A 
ATOM      6  C5  UNL d   1      -0.562   3.134   1.308  0.00  0.00     0.034 A 
ATOM      7 Cl   UNL d   1      -3.093   3.905   0.872  0.00  0.00    -0.070 Cl
ATOM      8 Cl1  UNL d   1      -3.809   2.011   3.420  0.00  0.00    -0.070 Cl
ENDROOT
TORSDOF 0
ENDMDL
