MODEL 1
REMARK minimizedAffinity -2.24742699
REMARK minimizedRMSD -1
REMARK  1 active torsions:
REMARK  status: ('A' for Active; 'I' for Inactive)
REMARK    1  A    between atoms: C1_2  and  C2_3 
ROOT
ATOM      1  C2  UNL d   1       0.354   2.205   0.247  0.00  0.00    -0.073 A 
ATOM      2  C3  UNL d   1       0.708   1.653  -0.989  0.00  0.00    -0.002 A 
ATOM      3  C4  UNL d   1       1.097   0.316  -1.078  0.00  0.00     0.004 A 
ATOM      4  C5  UNL d   1       1.131  -0.483   0.064  0.00  0.00    -0.004 A 
ATOM      5  C6  UNL d   1       0.770   0.047   1.307  0.00  0.00    -0.075 A 
ATOM      6  C7  UNL d   1       0.804  -0.798   2.546  0.00  0.00     0.076 C 
ATOM      7  C8  UNL d   1       0.383   1.391   1.389  0.00  0.00     0.001 A 
ENDROOT
BRANCH   1   8
ATOM      8  C1  UNL d   1      -0.073   3.647   0.347  0.00  0.00     0.053 C 
ATOM      9  C   UNL d   1       0.769   4.553  -0.536  0.00  0.00     0.018 C 
ENDBRANCH   1   8
TORSDOF 1
ENDMDL
