MODEL 1
REMARK minimizedAffinity -2.93650699
REMARK minimizedRMSD -1
REMARK  1 active torsions:
REMARK  status: ('A' for Active; 'I' for Inactive)
REMARK    1  A    between atoms: C1_2  and  C2_3 
ROOT
ATOM      1  C2  UNL d   1       0.187   3.129   0.429  0.00  0.00    -0.073 A 
ATOM      2  C3  UNL d   1      -0.058   3.229   1.803  0.00  0.00    -0.002 A 
ATOM      3  C4  UNL d   1       0.044   2.102   2.621  0.00  0.00     0.004 A 
ATOM      4  C5  UNL d   1       0.398   0.869   2.075  0.00  0.00    -0.004 A 
ATOM      5  C6  UNL d   1       0.659   0.751   0.706  0.00  0.00    -0.075 A 
ATOM      6  C7  UNL d   1       1.040  -0.569   0.104  0.00  0.00     0.076 C 
ATOM      7  C8  UNL d   1       0.552   1.886  -0.109  0.00  0.00     0.001 A 
ENDROOT
BRANCH   1   8
ATOM      8  C1  UNL d   1       0.085   4.344  -0.457  0.00  0.00     0.053 C 
ATOM      9  C   UNL d   1       1.193   5.347  -0.179  0.00  0.00     0.018 C 
ENDBRANCH   1   8
TORSDOF 1
ENDMDL
