MODEL 1
REMARK minimizedAffinity -3.49582911
REMARK minimizedRMSD -1
REMARK  2 active torsions:
REMARK  status: ('A' for Active; 'I' for Inactive)
REMARK    1  A    between atoms: C1_2  and  C2_3 
REMARK    2  A    between atoms: C2_3  and  C3_4 
ROOT
ATOM      1  C3  UNL d   1      -0.694  -0.393   0.119  0.00  0.00    -0.075 A 
ATOM      2  C4  UNL d   1      -1.661   0.250   0.906  0.00  0.00     0.002 A 
ATOM      3  C5  UNL d   1      -3.015   0.146   0.590  0.00  0.00     0.002 A 
ATOM      4  C6  UNL d   1      -3.420  -0.591  -0.521  0.00  0.00    -0.004 A 
ATOM      5  C7  UNL d   1      -2.467  -1.220  -1.320  0.00  0.00     0.002 A 
ATOM      6  C8  UNL d   1      -1.111  -1.122  -1.003  0.00  0.00     0.002 A 
ENDROOT
BRANCH   1   7
ATOM      7  C2  UNL d   1       0.771  -0.309   0.473  0.00  0.00     0.056 C 
BRANCH   7   8
ATOM      8  C1  UNL d   1       1.373  -1.633   0.956  0.00  0.00     0.007 C 
ATOM      9  C   UNL d   1       0.396  -2.477   1.764  0.00  0.00     0.009 C 
ENDBRANCH   7   8
ENDBRANCH   1   7
TORSDOF 2
ENDMDL
