MODEL 1
REMARK minimizedAffinity -4.95721769
REMARK minimizedRMSD -1
REMARK  2 active torsions:
REMARK  status: ('A' for Active; 'I' for Inactive)
REMARK    1  A    between atoms: C1_2  and  C2_3 
REMARK    2  A    between atoms: C2_3  and  C3_4 
ROOT
ATOM      1  C3  UNL d   1       0.206  -0.022  -0.118  0.00  0.00    -0.075 A 
ATOM      2  C4  UNL d   1      -0.704  -0.743   0.669  0.00  0.00     0.002 A 
ATOM      3  C5  UNL d   1      -2.027  -0.902   0.255  0.00  0.00     0.002 A 
ATOM      4  C6  UNL d   1      -2.459  -0.336  -0.942  0.00  0.00    -0.004 A 
ATOM      5  C7  UNL d   1      -1.568   0.397  -1.723  0.00  0.00     0.002 A 
ATOM      6  C8  UNL d   1      -0.243   0.554  -1.314  0.00  0.00     0.002 A 
ENDROOT
BRANCH   1   7
ATOM      7  C2  UNL d   1       1.646   0.130   0.310  0.00  0.00     0.056 C 
BRANCH   7   8
ATOM      8  C1  UNL d   1       2.107   1.585   0.445  0.00  0.00     0.007 C 
ATOM      9  C   UNL d   1       2.226   2.044   1.892  0.00  0.00     0.009 C 
ENDBRANCH   7   8
ENDBRANCH   1   7
TORSDOF 2
ENDMDL
