MODEL 1
REMARK minimizedAffinity -2.97062945
REMARK minimizedRMSD -1
REMARK  2 active torsions:
REMARK  status: ('A' for Active; 'I' for Inactive)
REMARK    1  A    between atoms: C1_2  and  C2_3 
REMARK    2  A    between atoms: C2_3  and  C3_4 
ROOT
ATOM      1  C3  UNL d   1       0.511   0.143   0.004  0.00  0.00    -0.075 A 
ATOM      2  C4  UNL d   1      -0.289  -0.420   1.008  0.00  0.00     0.002 A 
ATOM      3  C5  UNL d   1      -1.599  -0.814   0.733  0.00  0.00     0.002 A 
ATOM      4  C6  UNL d   1      -2.127  -0.640  -0.545  0.00  0.00    -0.004 A 
ATOM      5  C7  UNL d   1      -1.347  -0.066  -1.545  0.00  0.00     0.002 A 
ATOM      6  C8  UNL d   1      -0.034   0.325  -1.273  0.00  0.00     0.002 A 
ENDROOT
BRANCH   1   7
ATOM      7  C2  UNL d   1       1.939   0.544   0.289  0.00  0.00     0.056 C 
BRANCH   7   8
ATOM      8  C1  UNL d   1       2.096   1.486   1.488  0.00  0.00     0.007 C 
ATOM      9  C   UNL d   1       3.092   2.611   1.241  0.00  0.00     0.009 C 
ENDBRANCH   7   8
ENDBRANCH   1   7
TORSDOF 2
ENDMDL
