MODEL 1
REMARK minimizedAffinity -1.17876363
REMARK minimizedRMSD -1
REMARK  2 active torsions:
REMARK  status: ('A' for Active; 'I' for Inactive)
REMARK    1  A    between atoms: C1_2  and  C2_3 
REMARK    2  A    between atoms: C2_3  and  C3_4 
ROOT
ATOM      1  C3  UNL d   1       0.200   0.673   0.061  0.00  0.00    -0.075 A 
ATOM      2  C4  UNL d   1       0.644  -0.204  -0.940  0.00  0.00     0.002 A 
ATOM      3  C5  UNL d   1      -0.217  -0.608  -1.961  0.00  0.00     0.002 A 
ATOM      4  C6  UNL d   1      -1.533  -0.150  -1.988  0.00  0.00    -0.004 A 
ATOM      5  C7  UNL d   1      -1.989   0.708  -0.990  0.00  0.00     0.002 A 
ATOM      6  C8  UNL d   1      -1.129   1.117   0.030  0.00  0.00     0.002 A 
ENDROOT
BRANCH   1   7
ATOM      7  C2  UNL d   1       1.135   1.137   1.152  0.00  0.00     0.056 C 
BRANCH   7   8
ATOM      8  C1  UNL d   1       1.777   2.502   0.884  0.00  0.00     0.007 C 
ATOM      9  C   UNL d   1       2.006   3.317   2.150  0.00  0.00     0.009 C 
ENDBRANCH   7   8
ENDBRANCH   1   7
TORSDOF 2
ENDMDL
