MODEL 1
REMARK minimizedAffinity -3.53937864
REMARK minimizedRMSD -1
REMARK  2 active torsions:
REMARK  status: ('A' for Active; 'I' for Inactive)
REMARK    1  A    between atoms: C1_2  and  C2_3 
REMARK    2  A    between atoms: C2_3  and  C3_4 
ROOT
ATOM      1  C3  UNL d   1      -0.205   0.215  -0.197  0.00  0.00    -0.075 A 
ATOM      2  C4  UNL d   1      -0.832   0.041  -1.439  0.00  0.00     0.002 A 
ATOM      3  C5  UNL d   1      -2.097  -0.543  -1.518  0.00  0.00     0.002 A 
ATOM      4  C6  UNL d   1      -2.744  -0.969  -0.360  0.00  0.00    -0.004 A 
ATOM      5  C7  UNL d   1      -2.123  -0.817   0.877  0.00  0.00     0.002 A 
ATOM      6  C8  UNL d   1      -0.860  -0.229   0.960  0.00  0.00     0.002 A 
ENDROOT
BRANCH   1   7
ATOM      7  C2  UNL d   1       1.151   0.873  -0.102  0.00  0.00     0.056 C 
BRANCH   7   8
ATOM      8  C1  UNL d   1       1.245   1.953   0.981  0.00  0.00     0.007 C 
ATOM      9  C   UNL d   1       2.301   3.010   0.685  0.00  0.00     0.009 C 
ENDBRANCH   7   8
ENDBRANCH   1   7
TORSDOF 2
ENDMDL
