MODEL 1
REMARK minimizedAffinity -5.11762476
REMARK minimizedRMSD -1
REMARK  2 active torsions:
REMARK  status: ('A' for Active; 'I' for Inactive)
REMARK    1  A    between atoms: C1_2  and  C2_3 
REMARK    2  A    between atoms: C2_3  and  C3_4 
ROOT
ATOM      1  C3  UNL d   1       0.172   0.092   0.103  0.00  0.00    -0.075 A 
ATOM      2  C4  UNL d   1      -0.472   0.344  -1.117  0.00  0.00     0.002 A 
ATOM      3  C5  UNL d   1      -1.836   0.091  -1.264  0.00  0.00     0.002 A 
ATOM      4  C6  UNL d   1      -2.570  -0.424  -0.198  0.00  0.00    -0.004 A 
ATOM      5  C7  UNL d   1      -1.938  -0.694   1.013  0.00  0.00     0.002 A 
ATOM      6  C8  UNL d   1      -0.574  -0.439   1.164  0.00  0.00     0.002 A 
ENDROOT
BRANCH   1   7
ATOM      7  C2  UNL d   1       1.642   0.390   0.277  0.00  0.00     0.056 C 
BRANCH   7   8
ATOM      8  C1  UNL d   1       1.954   1.324   1.451  0.00  0.00     0.007 C 
ATOM      9  C   UNL d   1       2.698   2.585   1.034  0.00  0.00     0.009 C 
ENDBRANCH   7   8
ENDBRANCH   1   7
TORSDOF 2
ENDMDL
