MODEL 1
REMARK minimizedAffinity -4.43112278
REMARK minimizedRMSD -1
REMARK  2 active torsions:
REMARK  status: ('A' for Active; 'I' for Inactive)
REMARK    1  A    between atoms: C1_2  and  C2_3 
REMARK    2  A    between atoms: C2_3  and  C3_4 
ROOT
ATOM      1  C3  UNL d   1       0.110   0.144  -0.087  0.00  0.00    -0.075 A 
ATOM      2  C4  UNL d   1      -0.495  -0.526   0.986  0.00  0.00     0.002 A 
ATOM      3  C5  UNL d   1      -1.783  -1.048   0.860  0.00  0.00     0.002 A 
ATOM      4  C6  UNL d   1      -2.485  -0.898  -0.334  0.00  0.00    -0.004 A 
ATOM      5  C7  UNL d   1      -1.900  -0.220  -1.401  0.00  0.00     0.002 A 
ATOM      6  C8  UNL d   1      -0.610   0.299  -1.279  0.00  0.00     0.002 A 
ENDROOT
BRANCH   1   7
ATOM      7  C2  UNL d   1       1.514   0.685   0.033  0.00  0.00     0.056 C 
BRANCH   7   8
ATOM      8  C1  UNL d   1       1.617   1.977   0.850  0.00  0.00     0.007 C 
ATOM      9  C   UNL d   1       2.945   2.700   0.665  0.00  0.00     0.009 C 
ENDBRANCH   7   8
ENDBRANCH   1   7
TORSDOF 2
ENDMDL
