MODEL 1
REMARK minimizedAffinity -5.09630585
REMARK minimizedRMSD -1
REMARK  2 active torsions:
REMARK  status: ('A' for Active; 'I' for Inactive)
REMARK    1  A    between atoms: C1_2  and  C2_3 
REMARK    2  A    between atoms: C2_3  and  C3_4 
ROOT
ATOM      1  C3  UNL d   1       0.086   0.047  -0.097  0.00  0.00    -0.075 A 
ATOM      2  C4  UNL d   1      -1.025  -0.593   0.472  0.00  0.00     0.002 A 
ATOM      3  C5  UNL d   1      -2.210  -0.731  -0.252  0.00  0.00     0.002 A 
ATOM      4  C6  UNL d   1      -2.302  -0.224  -1.546  0.00  0.00    -0.004 A 
ATOM      5  C7  UNL d   1      -1.210   0.428  -2.115  0.00  0.00     0.002 A 
ATOM      6  C8  UNL d   1      -0.022   0.564  -1.395  0.00  0.00     0.002 A 
ENDROOT
BRANCH   1   7
ATOM      7  C2  UNL d   1       1.381   0.174   0.670  0.00  0.00     0.056 C 
BRANCH   7   8
ATOM      8  C1  UNL d   1       2.080   1.525   0.493  0.00  0.00     0.007 C 
ATOM      9  C   UNL d   1       2.270   2.279   1.802  0.00  0.00     0.009 C 
ENDBRANCH   7   8
ENDBRANCH   1   7
TORSDOF 2
ENDMDL
