MODEL 1
REMARK minimizedAffinity -1.17842853
REMARK minimizedRMSD -1
REMARK  2 active torsions:
REMARK  status: ('A' for Active; 'I' for Inactive)
REMARK    1  A    between atoms: C2'_3  and  C1'_4 
REMARK    2  A    between atoms: C1'_4  and  C1_5 
ROOT
ATOM      1  C1  I4B d   1      -0.568  -1.109   0.094  0.00  0.00    -0.075 A 
ATOM      2  C2  I4B d   1      -1.605  -0.338   0.556  0.00  0.00     0.003 A 
ATOM      3  C3  I4B d   1      -1.497   1.074   0.560  0.00  0.00     0.002 A 
ATOM      4  C4  I4B d   1      -0.323   1.667   0.143  0.00  0.00    -0.004 A 
ATOM      5  C5  I4B d   1       0.719   0.885  -0.346  0.00  0.00     0.002 A 
ATOM      6  C6  I4B d   1       0.592  -0.511  -0.383  0.00  0.00     0.003 A 
ENDROOT
BRANCH   1   7
ATOM      7  C1' I4B d   1      -0.703  -2.598   0.135  0.00  0.00     0.060 C 
BRANCH   7   8
ATOM      8  C2' I4B d   1      -1.459  -3.032  -1.104  0.00  0.00    -0.013 C 
ATOM      9  C4' I4B d   1      -0.521  -3.546  -2.164  0.00  0.00     0.013 C 
ATOM     10  C3' I4B d   1      -2.447  -4.085  -0.699  0.00  0.00     0.013 C 
ENDBRANCH   7   8
ENDBRANCH   1   7
TORSDOF 2
ENDMDL
