MODEL 1
REMARK minimizedAffinity -5.36768484
REMARK minimizedRMSD -1
REMARK  2 active torsions:
REMARK  status: ('A' for Active; 'I' for Inactive)
REMARK    1  A    between atoms: C2'_3  and  C1'_4 
REMARK    2  A    between atoms: C1'_4  and  C1_5 
ROOT
ATOM      1  C1  I4B d   1       0.305  -0.040   0.124  0.00  0.00    -0.075 A 
ATOM      2  C2  I4B d   1      -0.865   0.676   0.165  0.00  0.00     0.003 A 
ATOM      3  C3  I4B d   1      -0.838   2.090   0.103  0.00  0.00     0.002 A 
ATOM      4  C4  I4B d   1       0.375   2.745   0.052  0.00  0.00    -0.004 A 
ATOM      5  C5  I4B d   1       1.560   2.017  -0.012  0.00  0.00     0.002 A 
ATOM      6  C6  I4B d   1       1.525   0.615   0.012  0.00  0.00     0.003 A 
ENDROOT
BRANCH   1   7
ATOM      7  C1' I4B d   1       0.242  -1.531   0.225  0.00  0.00     0.060 C 
BRANCH   7   8
ATOM      8  C2' I4B d   1      -0.501  -2.050  -0.989  0.00  0.00    -0.013 C 
ATOM      9  C4' I4B d   1       0.446  -2.344  -2.123  0.00  0.00     0.013 C 
ATOM     10  C3' I4B d   1      -1.254  -3.281  -0.580  0.00  0.00     0.013 C 
ENDBRANCH   7   8
ENDBRANCH   1   7
TORSDOF 2
ENDMDL
