MODEL 1
REMARK minimizedAffinity -2.02442646
REMARK minimizedRMSD -1
REMARK  2 active torsions:
REMARK  status: ('A' for Active; 'I' for Inactive)
REMARK    1  A    between atoms: C2'_3  and  C1'_4 
REMARK    2  A    between atoms: C1'_4  and  C1_5 
ROOT
ATOM      1  C1  I4B d   1      -0.244  -0.727  -0.155  0.00  0.00    -0.075 A 
ATOM      2  C2  I4B d   1       0.673  -0.077   0.632  0.00  0.00     0.003 A 
ATOM      3  C3  I4B d   1       0.401   1.226   1.116  0.00  0.00     0.002 A 
ATOM      4  C4  I4B d   1      -0.771   1.856   0.750  0.00  0.00    -0.004 A 
ATOM      5  C5  I4B d   1      -1.710   1.186  -0.029  0.00  0.00     0.002 A 
ATOM      6  C6  I4B d   1      -1.451  -0.118  -0.474  0.00  0.00     0.003 A 
ENDROOT
BRANCH   1   7
ATOM      7  C1' I4B d   1       0.090  -2.089  -0.676  0.00  0.00     0.060 C 
BRANCH   7   8
ATOM      8  C2' I4B d   1      -0.855  -2.395  -1.821  0.00  0.00    -0.013 C 
ATOM      9  C4' I4B d   1      -0.115  -2.481  -3.130  0.00  0.00     0.013 C 
ATOM     10  C3' I4B d   1      -1.557  -3.683  -1.509  0.00  0.00     0.013 C 
ENDBRANCH   7   8
ENDBRANCH   1   7
TORSDOF 2
ENDMDL
