MODEL 1
REMARK minimizedAffinity -3.79819131
REMARK minimizedRMSD -1
REMARK  2 active torsions:
REMARK  status: ('A' for Active; 'I' for Inactive)
REMARK    1  A    between atoms: C2'_3  and  C1'_4 
REMARK    2  A    between atoms: C1'_4  and  C1_5 
ROOT
ATOM      1  C1  I4B d   1      -0.026  -1.075   0.091  0.00  0.00    -0.075 A 
ATOM      2  C2  I4B d   1       1.085  -0.325  -0.207  0.00  0.00     0.003 A 
ATOM      3  C3  I4B d   1       1.043   1.085  -0.095  0.00  0.00     0.002 A 
ATOM      4  C4  I4B d   1      -0.136   1.704   0.268  0.00  0.00    -0.004 A 
ATOM      5  C5  I4B d   1      -1.254   0.941   0.591  0.00  0.00     0.002 A 
ATOM      6  C6  I4B d   1      -1.195  -0.458   0.514  0.00  0.00     0.003 A 
ENDROOT
BRANCH   1   7
ATOM      7  C1' I4B d   1       0.044  -2.561  -0.071  0.00  0.00     0.060 C 
BRANCH   7   8
ATOM      8  C2' I4B d   1      -0.040  -2.874  -1.551  0.00  0.00    -0.013 C 
ATOM      9  C4' I4B d   1       0.981  -3.908  -1.947  0.00  0.00     0.013 C 
ATOM     10  C3' I4B d   1      -1.432  -3.346  -1.847  0.00  0.00     0.013 C 
ENDBRANCH   7   8
ENDBRANCH   1   7
TORSDOF 2
ENDMDL
