MODEL 1
REMARK minimizedAffinity -4.07112932
REMARK minimizedRMSD -1
REMARK  2 active torsions:
REMARK  status: ('A' for Active; 'I' for Inactive)
REMARK    1  A    between atoms: C2'_3  and  C1'_4 
REMARK    2  A    between atoms: C1'_4  and  C1_5 
ROOT
ATOM      1  C1  I4B d   1      -0.017  -0.015   0.151  0.00  0.00    -0.075 A 
ATOM      2  C2  I4B d   1       0.932   0.890  -0.253  0.00  0.00     0.003 A 
ATOM      3  C3  I4B d   1       0.681   2.280  -0.149  0.00  0.00     0.002 A 
ATOM      4  C4  I4B d   1      -0.544   2.717   0.314  0.00  0.00    -0.004 A 
ATOM      5  C5  I4B d   1      -1.496   1.797   0.744  0.00  0.00     0.002 A 
ATOM      6  C6  I4B d   1      -1.227   0.422   0.673  0.00  0.00     0.003 A 
ENDROOT
BRANCH   1   7
ATOM      7  C1' I4B d   1       0.268  -1.476  -0.004  0.00  0.00     0.060 C 
BRANCH   7   8
ATOM      8  C2' I4B d   1      -0.689  -2.031  -1.039  0.00  0.00    -0.013 C 
ATOM      9  C4' I4B d   1      -0.045  -2.093  -2.399  0.00  0.00     0.013 C 
ATOM     10  C3' I4B d   1      -1.124  -3.392  -0.584  0.00  0.00     0.013 C 
ENDBRANCH   7   8
ENDBRANCH   1   7
TORSDOF 2
ENDMDL
