MODEL 1
REMARK minimizedAffinity -3.09565115
REMARK minimizedRMSD -1
REMARK  2 active torsions:
REMARK  status: ('A' for Active; 'I' for Inactive)
REMARK    1  A    between atoms: C2'_3  and  C1'_4 
REMARK    2  A    between atoms: C1'_4  and  C1_5 
ROOT
ATOM      1  C1  I4B d   1      -0.457  -1.594  -0.087  0.00  0.00    -0.075 A 
ATOM      2  C2  I4B d   1      -1.753  -1.171   0.073  0.00  0.00     0.003 A 
ATOM      3  C3  I4B d   1      -2.033   0.198   0.306  0.00  0.00     0.002 A 
ATOM      4  C4  I4B d   1      -0.990   1.094   0.420  0.00  0.00    -0.004 A 
ATOM      5  C5  I4B d   1       0.322   0.667   0.235  0.00  0.00     0.002 A 
ATOM      6  C6  I4B d   1       0.590  -0.683  -0.032  0.00  0.00     0.003 A 
ENDROOT
BRANCH   1   7
ATOM      7  C1' I4B d   1      -0.196  -3.052  -0.298  0.00  0.00     0.060 C 
BRANCH   7   8
ATOM      8  C2' I4B d   1      -1.057  -3.518  -1.454  0.00  0.00    -0.013 C 
ATOM      9  C4' I4B d   1      -0.253  -4.315  -2.447  0.00  0.00     0.013 C 
ATOM     10  C3' I4B d   1      -2.185  -4.332  -0.893  0.00  0.00     0.013 C 
ENDBRANCH   7   8
ENDBRANCH   1   7
TORSDOF 2
ENDMDL
