MODEL 1
REMARK minimizedAffinity -4.7908864
REMARK minimizedRMSD -1
REMARK  2 active torsions:
REMARK  status: ('A' for Active; 'I' for Inactive)
REMARK    1  A    between atoms: C2'_3  and  C1'_4 
REMARK    2  A    between atoms: C1'_4  and  C1_5 
ROOT
ATOM      1  C1  I4B d   1      -0.489  -2.033  -0.509  0.00  0.00    -0.075 A 
ATOM      2  C2  I4B d   1      -1.621  -2.803  -0.407  0.00  0.00     0.003 A 
ATOM      3  C3  I4B d   1      -1.953  -3.721  -1.433  0.00  0.00     0.002 A 
ATOM      4  C4  I4B d   1      -1.158  -3.800  -2.558  0.00  0.00    -0.004 A 
ATOM      5  C5  I4B d   1       0.002  -3.035  -2.649  0.00  0.00     0.002 A 
ATOM      6  C6  I4B d   1       0.345  -2.155  -1.612  0.00  0.00     0.003 A 
ENDROOT
BRANCH   1   7
ATOM      7  C1' I4B d   1      -0.187  -1.050   0.577  0.00  0.00     0.060 C 
BRANCH   7   8
ATOM      8  C2' I4B d   1      -1.215   0.060   0.502  0.00  0.00    -0.013 C 
ATOM      9  C4' I4B d   1      -2.010   0.155   1.777  0.00  0.00     0.013 C 
ATOM     10  C3' I4B d   1      -0.491   1.343   0.219  0.00  0.00     0.013 C 
ENDBRANCH   7   8
ENDBRANCH   1   7
TORSDOF 2
ENDMDL
