MODEL 1
REMARK minimizedAffinity -4.83134365
REMARK minimizedRMSD -1
REMARK  2 active torsions:
REMARK  status: ('A' for Active; 'I' for Inactive)
REMARK    1  A    between atoms: C2'_3  and  C1'_4 
REMARK    2  A    between atoms: C1'_4  and  C1_5 
ROOT
ATOM      1  C1  I4B d   1      -0.135  -0.551  -0.085  0.00  0.00    -0.075 A 
ATOM      2  C2  I4B d   1       0.750   0.445  -0.415  0.00  0.00     0.003 A 
ATOM      3  C3  I4B d   1       0.399   1.803  -0.222  0.00  0.00     0.002 A 
ATOM      4  C4  I4B d   1      -0.857   2.119   0.253  0.00  0.00    -0.004 A 
ATOM      5  C5  I4B d   1      -1.745   1.107   0.609  0.00  0.00     0.002 A 
ATOM      6  C6  I4B d   1      -1.377  -0.237   0.451  0.00  0.00     0.003 A 
ENDROOT
BRANCH   1   7
ATOM      7  C1' I4B d   1       0.256  -1.974  -0.333  0.00  0.00     0.060 C 
BRANCH   7   8
ATOM      8  C2' I4B d   1      -0.468  -2.447  -1.576  0.00  0.00    -0.013 C 
ATOM      9  C4' I4B d   1       0.487  -2.632  -2.726  0.00  0.00     0.013 C 
ATOM     10  C3' I4B d   1      -1.170  -3.729  -1.243  0.00  0.00     0.013 C 
ENDBRANCH   7   8
ENDBRANCH   1   7
TORSDOF 2
ENDMDL
