MODEL 1
REMARK minimizedAffinity -5.17079258
REMARK minimizedRMSD -1
REMARK  2 active torsions:
REMARK  status: ('A' for Active; 'I' for Inactive)
REMARK    1  A    between atoms: C2'_3  and  C1'_4 
REMARK    2  A    between atoms: C1'_4  and  C1_5 
ROOT
ATOM      1  C1  I4B d   1       0.320   0.900   0.005  0.00  0.00    -0.075 A 
ATOM      2  C2  I4B d   1      -0.255   2.127   0.222  0.00  0.00     0.003 A 
ATOM      3  C3  I4B d   1       0.549   3.243   0.558  0.00  0.00     0.002 A 
ATOM      4  C4  I4B d   1       1.910   3.076   0.716  0.00  0.00    -0.004 A 
ATOM      5  C5  I4B d   1       2.495   1.837   0.473  0.00  0.00     0.002 A 
ATOM      6  C6  I4B d   1       1.697   0.744   0.104  0.00  0.00     0.003 A 
ENDROOT
BRANCH   1   7
ATOM      7  C1' I4B d   1      -0.563  -0.264  -0.316  0.00  0.00     0.060 C 
BRANCH   7   8
ATOM      8  C2' I4B d   1       0.287  -1.518  -0.282  0.00  0.00    -0.013 C 
ATOM      9  C4' I4B d   1       0.276  -2.147   1.087  0.00  0.00     0.013 C 
ATOM     10  C3' I4B d   1      -0.243  -2.464  -1.317  0.00  0.00     0.013 C 
ENDBRANCH   7   8
ENDBRANCH   1   7
TORSDOF 2
ENDMDL
