MODEL 1
REMARK minimizedAffinity -4.33985615
REMARK minimizedRMSD -1
REMARK  2 active torsions:
REMARK  status: ('A' for Active; 'I' for Inactive)
REMARK    1  A    between atoms: C2'_3  and  C1'_4 
REMARK    2  A    between atoms: C1'_4  and  C1_5 
ROOT
ATOM      1  C1  I4B d   1       1.425   2.734   0.522  0.00  0.00    -0.075 A 
ATOM      2  C2  I4B d   1       2.390   1.813   0.847  0.00  0.00     0.003 A 
ATOM      3  C3  I4B d   1       2.489   0.599   0.124  0.00  0.00     0.002 A 
ATOM      4  C4  I4B d   1       1.577   0.327  -0.875  0.00  0.00    -0.004 A 
ATOM      5  C5  I4B d   1       0.614   1.272  -1.218  0.00  0.00     0.002 A 
ATOM      6  C6  I4B d   1       0.545   2.488  -0.523  0.00  0.00     0.003 A 
ENDROOT
BRANCH   1   7
ATOM      7  C1' I4B d   1       1.328   3.991   1.328  0.00  0.00     0.060 C 
BRANCH   7   8
ATOM      8  C2' I4B d   1       1.160   3.601   2.782  0.00  0.00    -0.013 C 
ATOM      9  C4' I4B d   1       1.871   4.569   3.691  0.00  0.00     0.013 C 
ATOM     10  C3' I4B d   1      -0.308   3.555   3.082  0.00  0.00     0.013 C 
ENDBRANCH   7   8
ENDBRANCH   1   7
TORSDOF 2
ENDMDL
