MODEL 1
REMARK minimizedAffinity -5.48204708
REMARK minimizedRMSD -1
REMARK  2 active torsions:
REMARK  status: ('A' for Active; 'I' for Inactive)
REMARK    1  A    between atoms: C2'_3  and  C1'_4 
REMARK    2  A    between atoms: C1'_4  and  C1_5 
ROOT
ATOM      1  C1  I4B d   1       0.392   0.637  -0.137  0.00  0.00    -0.075 A 
ATOM      2  C2  I4B d   1       1.415   1.543  -0.005  0.00  0.00     0.003 A 
ATOM      3  C3  I4B d   1       1.170   2.816   0.564  0.00  0.00     0.002 A 
ATOM      4  C4  I4B d   1      -0.113   3.157   0.939  0.00  0.00    -0.004 A 
ATOM      5  C5  I4B d   1      -1.144   2.229   0.826  0.00  0.00     0.002 A 
ATOM      6  C6  I4B d   1      -0.888   0.956   0.296  0.00  0.00     0.003 A 
ENDROOT
BRANCH   1   7
ATOM      7  C1' I4B d   1       0.679  -0.687  -0.773  0.00  0.00     0.060 C 
BRANCH   7   8
ATOM      8  C2' I4B d   1       0.114  -1.768   0.125  0.00  0.00    -0.013 C 
ATOM      9  C4' I4B d   1      -0.342  -2.959  -0.677  0.00  0.00     0.013 C 
ATOM     10  C3' I4B d   1       1.176  -2.154   1.111  0.00  0.00     0.013 C 
ENDBRANCH   7   8
ENDBRANCH   1   7
TORSDOF 2
ENDMDL
