MODEL 1
REMARK minimizedAffinity -4.45256042
REMARK minimizedRMSD -1
REMARK  2 active torsions:
REMARK  status: ('A' for Active; 'I' for Inactive)
REMARK    1  A    between atoms: C2'_3  and  C1'_4 
REMARK    2  A    between atoms: C1'_4  and  C1_5 
ROOT
ATOM      1  C1  I4B d   1       0.138  -0.440   0.021  0.00  0.00    -0.075 A 
ATOM      2  C2  I4B d   1      -1.025   0.012   0.595  0.00  0.00     0.003 A 
ATOM      3  C3  I4B d   1      -1.255   1.402   0.738  0.00  0.00     0.002 A 
ATOM      4  C4  I4B d   1      -0.281   2.296   0.343  0.00  0.00    -0.004 A 
ATOM      5  C5  I4B d   1       0.887   1.837  -0.259  0.00  0.00     0.002 A 
ATOM      6  C6  I4B d   1       1.093   0.460  -0.432  0.00  0.00     0.003 A 
ENDROOT
BRANCH   1   7
ATOM      7  C1' I4B d   1       0.362  -1.915  -0.084  0.00  0.00     0.060 C 
BRANCH   7   8
ATOM      8  C2' I4B d   1      -0.448  -2.428  -1.257  0.00  0.00    -0.013 C 
ATOM      9  C4' I4B d   1       0.404  -2.566  -2.491  0.00  0.00     0.013 C 
ATOM     10  C3' I4B d   1      -1.049  -3.745  -0.864  0.00  0.00     0.013 C 
ENDBRANCH   7   8
ENDBRANCH   1   7
TORSDOF 2
ENDMDL
