MODEL 1
REMARK minimizedAffinity -2.15483427
REMARK minimizedRMSD -1
REMARK  2 active torsions:
REMARK  status: ('A' for Active; 'I' for Inactive)
REMARK    1  A    between atoms: C2'_3  and  C1'_4 
REMARK    2  A    between atoms: C1'_4  and  C1_5 
ROOT
ATOM      1  C1  I4B d   1       0.095  -0.447  -0.102  0.00  0.00    -0.075 A 
ATOM      2  C2  I4B d   1       1.350   0.052  -0.346  0.00  0.00     0.003 A 
ATOM      3  C3  I4B d   1       1.562   1.451  -0.407  0.00  0.00     0.002 A 
ATOM      4  C4  I4B d   1       0.488   2.307  -0.269  0.00  0.00    -0.004 A 
ATOM      5  C5  I4B d   1      -0.779   1.800   0.001  0.00  0.00     0.002 A 
ATOM      6  C6  I4B d   1      -0.976   0.415   0.097  0.00  0.00     0.003 A 
ENDROOT
BRANCH   1   7
ATOM      7  C1' I4B d   1      -0.099  -1.930  -0.078  0.00  0.00     0.060 C 
BRANCH   7   8
ATOM      8  C2' I4B d   1      -0.612  -2.356  -1.438  0.00  0.00    -0.013 C 
ATOM      9  C4' I4B d   1       0.499  -2.911  -2.290  0.00  0.00     0.013 C 
ATOM     10  C3' I4B d   1      -1.693  -3.374  -1.227  0.00  0.00     0.013 C 
ENDBRANCH   7   8
ENDBRANCH   1   7
TORSDOF 2
ENDMDL
