MODEL 1
REMARK minimizedAffinity -3.32342196
REMARK minimizedRMSD -1
REMARK  1 active torsions:
REMARK  status: ('A' for Active; 'I' for Inactive)
REMARK    1  A    between atoms: C1_2  and  C2_3 
ROOT
ATOM      1  C2  UNL d   1      -0.256   1.667  -0.058  0.00  0.00    -0.076 A 
ATOM      2  C3  UNL d   1      -0.717   2.135   1.185  0.00  0.00     0.004 A 
ATOM      3  C4  UNL d   1      -0.842   1.274   2.274  0.00  0.00    -0.003 A 
ATOM      4  C5  UNL d   1      -0.507  -0.069   2.138  0.00  0.00     0.000 A 
ATOM      5  C6  UNL d   1      -0.032  -0.547   0.917  0.00  0.00     0.000 A 
ATOM      6  C7  UNL d   1       0.115   0.311  -0.186  0.00  0.00    -0.073 A 
ATOM      7  C8  UNL d   1       0.627  -0.259  -1.481  0.00  0.00     0.078 C 
ENDROOT
BRANCH   1   8
ATOM      8  C1  UNL d   1      -0.168   2.641  -1.211  0.00  0.00     0.053 C 
ATOM      9  C   UNL d   1      -0.307   4.088  -0.764  0.00  0.00     0.018 C 
ENDBRANCH   1   8
TORSDOF 1
ENDMDL
