MODEL 1
REMARK minimizedAffinity -1.23687255
REMARK minimizedRMSD -1
REMARK  1 active torsions:
REMARK  status: ('A' for Active; 'I' for Inactive)
REMARK    1  A    between atoms: C1_2  and  C2_3 
ROOT
ATOM      1  C2  UNL d   1      -0.125  -0.940  -0.059  0.00  0.00    -0.076 A 
ATOM      2  C3  UNL d   1      -0.423  -1.073   1.308  0.00  0.00     0.004 A 
ATOM      3  C4  UNL d   1      -0.365   0.024   2.166  0.00  0.00    -0.003 A 
ATOM      4  C5  UNL d   1      -0.008   1.273   1.669  0.00  0.00     0.000 A 
ATOM      5  C6  UNL d   1       0.273   1.427   0.312  0.00  0.00     0.000 A 
ATOM      6  C7  UNL d   1       0.203   0.334  -0.569  0.00  0.00    -0.073 A 
ATOM      7  C8  UNL d   1       0.523   0.557  -2.022  0.00  0.00     0.078 C 
ENDROOT
BRANCH   1   8
ATOM      8  C1  UNL d   1      -0.179  -2.171  -0.935  0.00  0.00     0.053 C 
ATOM      9  C   UNL d   1      -1.342  -3.086  -0.584  0.00  0.00     0.018 C 
ENDBRANCH   1   8
TORSDOF 1
ENDMDL
