MODEL 1
REMARK minimizedAffinity -1.46035051
REMARK minimizedRMSD -1
REMARK  1 active torsions:
REMARK  status: ('A' for Active; 'I' for Inactive)
REMARK    1  A    between atoms: C1_2  and  C2_3 
ROOT
ATOM      1  C2  UNL d   1       0.235  -0.021  -0.112  0.00  0.00    -0.076 A 
ATOM      2  C3  UNL d   1       0.531  -0.609   1.129  0.00  0.00     0.004 A 
ATOM      3  C4  UNL d   1       0.483   0.136   2.306  0.00  0.00    -0.003 A 
ATOM      4  C5  UNL d   1       0.138   1.482   2.261  0.00  0.00     0.000 A 
ATOM      5  C6  UNL d   1      -0.176   2.078   1.040  0.00  0.00     0.000 A 
ATOM      6  C7  UNL d   1      -0.149   1.337  -0.154  0.00  0.00    -0.073 A 
ATOM      7  C8  UNL d   1      -0.491   2.032  -1.444  0.00  0.00     0.078 C 
ENDROOT
BRANCH   1   8
ATOM      8  C1  UNL d   1       0.330  -0.872  -1.359  0.00  0.00     0.053 C 
ATOM      9  C   UNL d   1      -0.771  -1.919  -1.434  0.00  0.00     0.018 C 
ENDBRANCH   1   8
TORSDOF 1
ENDMDL
