MODEL 1
REMARK minimizedAffinity -0.608236134
REMARK minimizedRMSD -1
REMARK  1 active torsions:
REMARK  status: ('A' for Active; 'I' for Inactive)
REMARK    1  A    between atoms: C1_2  and  C2_3 
ROOT
ATOM      1  C2  UNL d   1      -0.503  -1.542  -0.235  0.00  0.00    -0.076 A 
ATOM      2  C3  UNL d   1      -1.506  -2.524  -0.154  0.00  0.00     0.004 A 
ATOM      3  C4  UNL d   1      -1.316  -3.789  -0.707  0.00  0.00    -0.003 A 
ATOM      4  C5  UNL d   1      -0.121  -4.094  -1.349  0.00  0.00     0.000 A 
ATOM      5  C6  UNL d   1       0.891  -3.137  -1.423  0.00  0.00     0.000 A 
ATOM      6  C7  UNL d   1       0.722  -1.862  -0.857  0.00  0.00    -0.073 A 
ATOM      7  C8  UNL d   1       1.845  -0.867  -0.972  0.00  0.00     0.078 C 
ENDROOT
BRANCH   1   8
ATOM      8  C1  UNL d   1      -0.776  -0.178   0.358  0.00  0.00     0.053 C 
ATOM      9  C   UNL d   1      -0.396  -0.096   1.829  0.00  0.00     0.018 C 
ENDBRANCH   1   8
TORSDOF 1
ENDMDL
