MODEL 1
REMARK minimizedAffinity -3.92935658
REMARK minimizedRMSD -1
REMARK  1 active torsions:
REMARK  status: ('A' for Active; 'I' for Inactive)
REMARK    1  A    between atoms: C1_2  and  C2_3 
ROOT
ATOM      1  C2  UNL d   1       0.135  -0.510   0.069  0.00  0.00    -0.076 A 
ATOM      2  C3  UNL d   1       0.141  -0.753   1.454  0.00  0.00     0.004 A 
ATOM      3  C4  UNL d   1      -0.165   0.260   2.361  0.00  0.00    -0.003 A 
ATOM      4  C5  UNL d   1      -0.484   1.532   1.899  0.00  0.00     0.000 A 
ATOM      5  C6  UNL d   1      -0.512   1.786   0.528  0.00  0.00     0.000 A 
ATOM      6  C7  UNL d   1      -0.221   0.772  -0.401  0.00  0.00    -0.073 A 
ATOM      7  C8  UNL d   1      -0.261   1.104  -1.867  0.00  0.00     0.078 C 
ENDROOT
BRANCH   1   8
ATOM      8  C1  UNL d   1       0.502  -1.640  -0.866  0.00  0.00     0.053 C 
ATOM      9  C   UNL d   1      -0.637  -2.630  -1.058  0.00  0.00     0.018 C 
ENDBRANCH   1   8
TORSDOF 1
ENDMDL
