MODEL 1
REMARK minimizedAffinity -0.0986839905
REMARK minimizedRMSD -1
REMARK  1 active torsions:
REMARK  status: ('A' for Active; 'I' for Inactive)
REMARK    1  A    between atoms: C1_2  and  C2_3 
ROOT
ATOM      1  C2  UNL d   1       0.190  -2.294  -0.653  0.00  0.00    -0.076 A 
ATOM      2  C3  UNL d   1      -1.165  -2.176  -1.008  0.00  0.00     0.004 A 
ATOM      3  C4  UNL d   1      -2.007  -3.287  -1.006  0.00  0.00    -0.003 A 
ATOM      4  C5  UNL d   1      -1.508  -4.534  -0.649  0.00  0.00     0.000 A 
ATOM      5  C6  UNL d   1      -0.171  -4.667  -0.276  0.00  0.00     0.000 A 
ATOM      6  C7  UNL d   1       0.688  -3.554  -0.257  0.00  0.00    -0.073 A 
ATOM      7  C8  UNL d   1       2.122  -3.756   0.147  0.00  0.00     0.078 C 
ENDROOT
BRANCH   1   8
ATOM      8  C1  UNL d   1       1.061  -1.060  -0.700  0.00  0.00     0.053 C 
ATOM      9  C   UNL d   1       0.686  -0.041   0.365  0.00  0.00     0.018 C 
ENDBRANCH   1   8
TORSDOF 1
ENDMDL
