MODEL 1
REMARK minimizedAffinity -1.52494574
REMARK minimizedRMSD -1
REMARK  1 active torsions:
REMARK  status: ('A' for Active; 'I' for Inactive)
REMARK    1  A    between atoms: C1_2  and  C2_3 
ROOT
ATOM      1  C2  UNL d   1       0.422   0.221  -0.146  0.00  0.00    -0.076 A 
ATOM      2  C3  UNL d   1       0.646  -0.347   1.120  0.00  0.00     0.004 A 
ATOM      3  C4  UNL d   1       0.545   0.421   2.279  0.00  0.00    -0.003 A 
ATOM      4  C5  UNL d   1       0.218   1.769   2.191  0.00  0.00     0.000 A 
ATOM      5  C6  UNL d   1      -0.025   2.345   0.945  0.00  0.00     0.000 A 
ATOM      6  C7  UNL d   1       0.057   1.582  -0.232  0.00  0.00    -0.073 A 
ATOM      7  C8  UNL d   1      -0.209   2.256  -1.550  0.00  0.00     0.078 C 
ENDROOT
BRANCH   1   8
ATOM      8  C1  UNL d   1       0.572  -0.654  -1.370  0.00  0.00     0.053 C 
ATOM      9  C   UNL d   1       0.229  -2.109  -1.091  0.00  0.00     0.018 C 
ENDBRANCH   1   8
TORSDOF 1
ENDMDL
