MODEL 1
REMARK minimizedAffinity -1.56298554
REMARK minimizedRMSD -1
REMARK  1 active torsions:
REMARK  status: ('A' for Active; 'I' for Inactive)
REMARK    1  A    between atoms: C1_2  and  C2_3 
ROOT
ATOM      1  C2  UNL d   1      -0.563  -1.557  -0.379  0.00  0.00    -0.076 A 
ATOM      2  C3  UNL d   1      -1.165  -1.764   0.874  0.00  0.00     0.004 A 
ATOM      3  C4  UNL d   1      -0.892  -0.920   1.949  0.00  0.00    -0.003 A 
ATOM      4  C5  UNL d   1      -0.012   0.145   1.789  0.00  0.00     0.000 A 
ATOM      5  C6  UNL d   1       0.580   0.375   0.548  0.00  0.00     0.000 A 
ATOM      6  C7  UNL d   1       0.303  -0.456  -0.551  0.00  0.00    -0.073 A 
ATOM      7  C8  UNL d   1       0.975  -0.164  -1.865  0.00  0.00     0.078 C 
ENDROOT
BRANCH   1   8
ATOM      8  C1  UNL d   1      -0.877  -2.520  -1.501  0.00  0.00     0.053 C 
ATOM      9  C   UNL d   1      -0.859  -3.971  -1.046  0.00  0.00     0.018 C 
ENDBRANCH   1   8
TORSDOF 1
ENDMDL
