MODEL 1
REMARK minimizedAffinity -0.622392893
REMARK minimizedRMSD -1
REMARK  3 active torsions:
REMARK  status: ('A' for Active; 'I' for Inactive)
REMARK    1  A    between atoms: C3'_2  and  C2'_3 
REMARK    2  A    between atoms: C2'_3  and  C1'_4 
REMARK    3  A    between atoms: C1'_4  and  C1_5 
ROOT
ATOM      1  C1  N4B d   1       0.763   1.251   0.027  0.00  0.00    -0.075 A 
ATOM      2  C2  N4B d   1       1.003   2.129  -1.052  0.00  0.00     0.002 A 
ATOM      3  C3  N4B d   1       1.235   1.626  -2.308  0.00  0.00     0.002 A 
ATOM      4  C4  N4B d   1       1.251   0.253  -2.505  0.00  0.00    -0.004 A 
ATOM      5  C5  N4B d   1       0.993  -0.588  -1.463  0.00  0.00     0.002 A 
ATOM      6  C6  N4B d   1       0.754  -0.096  -0.195  0.00  0.00     0.002 A 
ENDROOT
BRANCH   1   7
ATOM      7  C1' N4B d   1       0.590   1.751   1.435  0.00  0.00     0.057 C 
BRANCH   7   8
ATOM      8  C2' N4B d   1       1.900   1.569   2.197  0.00  0.00     0.009 C 
BRANCH   8   9
ATOM      9  C3' N4B d   1       2.751   2.827   2.171  0.00  0.00     0.004 C 
ATOM     10  C4' N4B d   1       1.936   4.078   2.035  0.00  0.00     0.003 C 
ENDBRANCH   8   9
ENDBRANCH   7   8
ENDBRANCH   1   7
TORSDOF 3
ENDMDL
