MODEL 1
REMARK minimizedAffinity -2.52189517
REMARK minimizedRMSD -1
REMARK  3 active torsions:
REMARK  status: ('A' for Active; 'I' for Inactive)
REMARK    1  A    between atoms: C3'_2  and  C2'_3 
REMARK    2  A    between atoms: C2'_3  and  C1'_4 
REMARK    3  A    between atoms: C1'_4  and  C1_5 
ROOT
ATOM      1  C1  N4B d   1       1.049   0.770  -0.123  0.00  0.00    -0.075 A 
ATOM      2  C2  N4B d   1       0.929   1.841   0.790  0.00  0.00     0.002 A 
ATOM      3  C3  N4B d   1       0.948   3.137   0.335  0.00  0.00     0.002 A 
ATOM      4  C4  N4B d   1       1.103   3.385  -1.021  0.00  0.00    -0.004 A 
ATOM      5  C5  N4B d   1       1.193   2.345  -1.899  0.00  0.00     0.002 A 
ATOM      6  C6  N4B d   1       1.172   1.037  -1.456  0.00  0.00     0.002 A 
ENDROOT
BRANCH   1   7
ATOM      7  C1' N4B d   1       1.120  -0.661   0.336  0.00  0.00     0.057 C 
BRANCH   7   8
ATOM      8  C2' N4B d   1       1.156  -1.577  -0.883  0.00  0.00     0.009 C 
BRANCH   8   9
ATOM      9  C3' N4B d   1       0.906  -3.028  -0.511  0.00  0.00     0.004 C 
ATOM     10  C4' N4B d   1      -0.347  -3.578  -1.124  0.00  0.00     0.003 C 
ENDBRANCH   8   9
ENDBRANCH   7   8
ENDBRANCH   1   7
TORSDOF 3
ENDMDL
