MODEL 1
REMARK minimizedAffinity 2.63406181
REMARK minimizedRMSD -1
REMARK  3 active torsions:
REMARK  status: ('A' for Active; 'I' for Inactive)
REMARK    1  A    between atoms: C3'_2  and  C2'_3 
REMARK    2  A    between atoms: C2'_3  and  C1'_4 
REMARK    3  A    between atoms: C1'_4  and  C1_5 
ROOT
ATOM      1  C1  N4B d   1       1.050   2.160  -0.853  0.00  0.00    -0.075 A 
ATOM      2  C2  N4B d   1       0.703   1.003  -1.585  0.00  0.00     0.002 A 
ATOM      3  C3  N4B d   1       0.777  -0.233  -0.991  0.00  0.00     0.002 A 
ATOM      4  C4  N4B d   1       1.211  -0.338   0.321  0.00  0.00    -0.004 A 
ATOM      5  C5  N4B d   1       1.520   0.786   1.030  0.00  0.00     0.002 A 
ATOM      6  C6  N4B d   1       1.446   2.035   0.447  0.00  0.00     0.002 A 
ENDROOT
BRANCH   1   7
ATOM      7  C1' N4B d   1       1.067   3.525  -1.485  0.00  0.00     0.057 C 
BRANCH   7   8
ATOM      8  C2' N4B d   1       1.367   4.569  -0.414  0.00  0.00     0.009 C 
BRANCH   8   9
ATOM      9  C3' N4B d   1       1.743   5.911  -1.019  0.00  0.00     0.004 C 
ATOM     10  C4' N4B d   1       3.196   5.998  -1.381  0.00  0.00     0.003 C 
ENDBRANCH   8   9
ENDBRANCH   7   8
ENDBRANCH   1   7
TORSDOF 3
ENDMDL
