MODEL 1
REMARK minimizedAffinity 13.1491346
REMARK minimizedRMSD -1
REMARK  3 active torsions:
REMARK  status: ('A' for Active; 'I' for Inactive)
REMARK    1  A    between atoms: C3'_2  and  C2'_3 
REMARK    2  A    between atoms: C2'_3  and  C1'_4 
REMARK    3  A    between atoms: C1'_4  and  C1_5 
ROOT
ATOM      1  C1  N4B d   1       1.131   0.216  -1.842  0.00  0.00    -0.075 A 
ATOM      2  C2  N4B d   1       0.581   1.421  -2.331  0.00  0.00     0.002 A 
ATOM      3  C3  N4B d   1       0.764   2.591  -1.635  0.00  0.00     0.002 A 
ATOM      4  C4  N4B d   1       1.472   2.576  -0.443  0.00  0.00    -0.004 A 
ATOM      5  C5  N4B d   1       2.021   1.412   0.010  0.00  0.00     0.002 A 
ATOM      6  C6  N4B d   1       1.849   0.230  -0.682  0.00  0.00     0.002 A 
ENDROOT
BRANCH   1   7
ATOM      7  C1' N4B d   1       0.885  -1.103  -2.523  0.00  0.00     0.057 C 
BRANCH   7   8
ATOM      8  C2' N4B d   1       1.156  -0.952  -4.017  0.00  0.00     0.009 C 
BRANCH   8   9
ATOM      9  C3' N4B d   1       1.825  -2.185  -4.601  0.00  0.00     0.004 C 
ATOM     10  C4' N4B d   1       2.322  -1.969  -5.999  0.00  0.00     0.003 C 
ENDBRANCH   8   9
ENDBRANCH   7   8
ENDBRANCH   1   7
TORSDOF 3
ENDMDL
