MODEL 1
REMARK minimizedAffinity 0.951270044
REMARK minimizedRMSD -1
REMARK  3 active torsions:
REMARK  status: ('A' for Active; 'I' for Inactive)
REMARK    1  A    between atoms: C3'_2  and  C2'_3 
REMARK    2  A    between atoms: C2'_3  and  C1'_4 
REMARK    3  A    between atoms: C1'_4  and  C1_5 
ROOT
ATOM      1  C1  N4B d   1       1.595   0.294  -0.569  0.00  0.00    -0.075 A 
ATOM      2  C2  N4B d   1       0.850   1.197   0.221  0.00  0.00     0.002 A 
ATOM      3  C3  N4B d   1       0.492   2.421  -0.289  0.00  0.00     0.002 A 
ATOM      4  C4  N4B d   1       0.883   2.770  -1.573  0.00  0.00    -0.004 A 
ATOM      5  C5  N4B d   1       1.580   1.882  -2.338  0.00  0.00     0.002 A 
ATOM      6  C6  N4B d   1       1.944   0.647  -1.840  0.00  0.00     0.002 A 
ENDROOT
BRANCH   1   7
ATOM      7  C1' N4B d   1       2.084  -1.021  -0.025  0.00  0.00     0.057 C 
BRANCH   7   8
ATOM      8  C2' N4B d   1       3.609  -1.035  -0.043  0.00  0.00     0.009 C 
BRANCH   8   9
ATOM      9  C3' N4B d   1       4.165  -2.448   0.005  0.00  0.00     0.004 C 
ATOM     10  C4' N4B d   1       3.091  -3.493   0.062  0.00  0.00     0.003 C 
ENDBRANCH   8   9
ENDBRANCH   7   8
ENDBRANCH   1   7
TORSDOF 3
ENDMDL
