MODEL 1
REMARK minimizedAffinity 2.21508431
REMARK minimizedRMSD -1
REMARK  3 active torsions:
REMARK  status: ('A' for Active; 'I' for Inactive)
REMARK    1  A    between atoms: C3'_2  and  C2'_3 
REMARK    2  A    between atoms: C2'_3  and  C1'_4 
REMARK    3  A    between atoms: C1'_4  and  C1_5 
ROOT
ATOM      1  C1  N4B d   1       0.540   2.200  -0.911  0.00  0.00    -0.075 A 
ATOM      2  C2  N4B d   1       0.639   2.663   0.419  0.00  0.00     0.002 A 
ATOM      3  C3  N4B d   1       1.023   3.958   0.669  0.00  0.00     0.002 A 
ATOM      4  C4  N4B d   1       1.329   4.799  -0.390  0.00  0.00    -0.004 A 
ATOM      5  C5  N4B d   1       1.206   4.352  -1.673  0.00  0.00     0.002 A 
ATOM      6  C6  N4B d   1       0.818   3.054  -1.939  0.00  0.00     0.002 A 
ENDROOT
BRANCH   1   7
ATOM      7  C1' N4B d   1       0.209   0.768  -1.231  0.00  0.00     0.057 C 
BRANCH   7   8
ATOM      8  C2' N4B d   1       1.478  -0.073  -1.134  0.00  0.00     0.009 C 
BRANCH   8   9
ATOM      9  C3' N4B d   1       1.724  -0.569   0.280  0.00  0.00     0.004 C 
ATOM     10  C4' N4B d   1       2.774   0.223   0.999  0.00  0.00     0.003 C 
ENDBRANCH   8   9
ENDBRANCH   7   8
ENDBRANCH   1   7
TORSDOF 3
ENDMDL
