MODEL 1
REMARK minimizedAffinity 6.78842354
REMARK minimizedRMSD -1
REMARK  3 active torsions:
REMARK  status: ('A' for Active; 'I' for Inactive)
REMARK    1  A    between atoms: C3'_2  and  C2'_3 
REMARK    2  A    between atoms: C2'_3  and  C1'_4 
REMARK    3  A    between atoms: C1'_4  and  C1_5 
ROOT
ATOM      1  C1  N4B d   1       1.202   1.213  -0.945  0.00  0.00    -0.075 A 
ATOM      2  C2  N4B d   1       1.887   1.345  -2.173  0.00  0.00     0.002 A 
ATOM      3  C3  N4B d   1       1.943   2.566  -2.799  0.00  0.00     0.002 A 
ATOM      4  C4  N4B d   1       1.309   3.660  -2.229  0.00  0.00    -0.004 A 
ATOM      5  C5  N4B d   1       0.671   3.529  -1.030  0.00  0.00     0.002 A 
ATOM      6  C6  N4B d   1       0.610   2.309  -0.387  0.00  0.00     0.002 A 
ENDROOT
BRANCH   1   7
ATOM      7  C1' N4B d   1       1.040  -0.120  -0.266  0.00  0.00     0.057 C 
BRANCH   7   8
ATOM      8  C2' N4B d   1       1.563  -0.020   1.164  0.00  0.00     0.009 C 
BRANCH   8   9
ATOM      9  C3' N4B d   1       2.899   0.700   1.231  0.00  0.00     0.004 C 
ATOM     10  C4' N4B d   1       3.975   0.002   0.454  0.00  0.00     0.003 C 
ENDBRANCH   8   9
ENDBRANCH   7   8
ENDBRANCH   1   7
TORSDOF 3
ENDMDL
