MODEL 1
REMARK minimizedAffinity -1.79447603
REMARK minimizedRMSD -1
REMARK  3 active torsions:
REMARK  status: ('A' for Active; 'I' for Inactive)
REMARK    1  A    between atoms: C3'_2  and  C2'_3 
REMARK    2  A    between atoms: C2'_3  and  C1'_4 
REMARK    3  A    between atoms: C1'_4  and  C1_5 
ROOT
ATOM      1  C1  N4B d   1       0.961   1.963  -0.772  0.00  0.00    -0.075 A 
ATOM      2  C2  N4B d   1       0.915   0.578  -1.045  0.00  0.00     0.002 A 
ATOM      3  C3  N4B d   1       0.807  -0.322  -0.014  0.00  0.00     0.002 A 
ATOM      4  C4  N4B d   1       0.763   0.136   1.295  0.00  0.00    -0.004 A 
ATOM      5  C5  N4B d   1       0.782   1.477   1.548  0.00  0.00     0.002 A 
ATOM      6  C6  N4B d   1       0.886   2.393   0.521  0.00  0.00     0.002 A 
ENDROOT
BRANCH   1   7
ATOM      7  C1' N4B d   1       1.165   2.980  -1.861  0.00  0.00     0.057 C 
BRANCH   7   8
ATOM      8  C2' N4B d   1       0.540   4.305  -1.432  0.00  0.00     0.009 C 
BRANCH   8   9
ATOM      9  C3' N4B d   1       1.592   5.357  -1.126  0.00  0.00     0.004 C 
ATOM     10  C4' N4B d   1       1.399   5.997   0.216  0.00  0.00     0.003 C 
ENDBRANCH   8   9
ENDBRANCH   7   8
ENDBRANCH   1   7
TORSDOF 3
ENDMDL
