MODEL 1
REMARK minimizedAffinity 4.20842457
REMARK minimizedRMSD -1
REMARK  3 active torsions:
REMARK  status: ('A' for Active; 'I' for Inactive)
REMARK    1  A    between atoms: C3'_2  and  C2'_3 
REMARK    2  A    between atoms: C2'_3  and  C1'_4 
REMARK    3  A    between atoms: C1'_4  and  C1_5 
ROOT
ATOM      1  C1  N4B d   1       1.302   1.830  -1.335  0.00  0.00    -0.075 A 
ATOM      2  C2  N4B d   1       0.486   1.863  -0.183  0.00  0.00     0.002 A 
ATOM      3  C3  N4B d   1       0.390   0.754   0.622  0.00  0.00     0.002 A 
ATOM      4  C4  N4B d   1       1.082  -0.399   0.287  0.00  0.00    -0.004 A 
ATOM      5  C5  N4B d   1       1.889  -0.414  -0.814  0.00  0.00     0.002 A 
ATOM      6  C6  N4B d   1       1.998   0.694  -1.630  0.00  0.00     0.002 A 
ENDROOT
BRANCH   1   7
ATOM      7  C1' N4B d   1       1.372   2.988  -2.292  0.00  0.00     0.057 C 
BRANCH   7   8
ATOM      8  C2' N4B d   1       0.439   4.095  -1.807  0.00  0.00     0.009 C 
BRANCH   8   9
ATOM      9  C3' N4B d   1       1.171   5.129  -0.970  0.00  0.00     0.004 C 
ATOM     10  C4' N4B d   1       2.080   5.999  -1.786  0.00  0.00     0.003 C 
ENDBRANCH   8   9
ENDBRANCH   7   8
ENDBRANCH   1   7
TORSDOF 3
ENDMDL
