MODEL 1
REMARK minimizedAffinity -1.53630412
REMARK minimizedRMSD -1
REMARK  3 active torsions:
REMARK  status: ('A' for Active; 'I' for Inactive)
REMARK    1  A    between atoms: C3'_2  and  C2'_3 
REMARK    2  A    between atoms: C2'_3  and  C1'_4 
REMARK    3  A    between atoms: C1'_4  and  C1_5 
ROOT
ATOM      1  C1  N4B d   1       0.809   0.781  -0.567  0.00  0.00    -0.075 A 
ATOM      2  C2  N4B d   1       1.121   1.509  -1.737  0.00  0.00     0.002 A 
ATOM      3  C3  N4B d   1       1.267   2.873  -1.678  0.00  0.00     0.002 A 
ATOM      4  C4  N4B d   1       1.087   3.530  -0.470  0.00  0.00    -0.004 A 
ATOM      5  C5  N4B d   1       0.811   2.818   0.660  0.00  0.00     0.002 A 
ATOM      6  C6  N4B d   1       0.665   1.446   0.616  0.00  0.00     0.002 A 
ENDROOT
BRANCH   1   7
ATOM      7  C1' N4B d   1       0.555  -0.701  -0.599  0.00  0.00     0.057 C 
BRANCH   7   8
ATOM      8  C2' N4B d   1      -0.555  -0.998  -1.602  0.00  0.00     0.009 C 
BRANCH   8   9
ATOM      9  C3' N4B d   1      -0.962  -2.462  -1.583  0.00  0.00     0.004 C 
ATOM     10  C4' N4B d   1      -1.984  -2.794  -2.629  0.00  0.00     0.003 C 
ENDBRANCH   8   9
ENDBRANCH   7   8
ENDBRANCH   1   7
TORSDOF 3
ENDMDL
