MODEL 1
REMARK minimizedAffinity 1.7594887
REMARK minimizedRMSD -1
REMARK  3 active torsions:
REMARK  status: ('A' for Active; 'I' for Inactive)
REMARK    1  A    between atoms: C3'_2  and  C2'_3 
REMARK    2  A    between atoms: C2'_3  and  C1'_4 
REMARK    3  A    between atoms: C1'_4  and  C1_5 
ROOT
ATOM      1  C1  N4B d   1       0.592   1.519   0.421  0.00  0.00    -0.075 A 
ATOM      2  C2  N4B d   1       0.711   2.328  -0.731  0.00  0.00     0.002 A 
ATOM      3  C3  N4B d   1       1.178   1.787  -1.903  0.00  0.00     0.002 A 
ATOM      4  C4  N4B d   1       1.550   0.451  -1.943  0.00  0.00    -0.004 A 
ATOM      5  C5  N4B d   1       1.408  -0.329  -0.833  0.00  0.00     0.002 A 
ATOM      6  C6  N4B d   1       0.935   0.200   0.352  0.00  0.00     0.002 A 
ENDROOT
BRANCH   1   7
ATOM      7  C1' N4B d   1       0.166   2.086   1.748  0.00  0.00     0.057 C 
BRANCH   7   8
ATOM      8  C2' N4B d   1      -1.305   2.483   1.675  0.00  0.00     0.009 C 
BRANCH   8   9
ATOM      9  C3' N4B d   1      -1.831   2.965   3.016  0.00  0.00     0.004 C 
ATOM     10  C4' N4B d   1      -3.325   3.094   3.042  0.00  0.00     0.003 C 
ENDBRANCH   8   9
ENDBRANCH   7   8
ENDBRANCH   1   7
TORSDOF 3
ENDMDL
