MODEL 1
REMARK minimizedAffinity -2.65729856
REMARK minimizedRMSD -1
REMARK  3 active torsions:
REMARK  status: ('A' for Active; 'I' for Inactive)
REMARK    1  A    between atoms: C3'_2  and  C2'_3 
REMARK    2  A    between atoms: C2'_3  and  C1'_4 
REMARK    3  A    between atoms: C1'_4  and  C1_5 
ROOT
ATOM      1  C1  N4B d   1       0.612   1.604   0.761  0.00  0.00    -0.075 A 
ATOM      2  C2  N4B d   1       1.109   0.672  -0.176  0.00  0.00     0.002 A 
ATOM      3  C3  N4B d   1       1.562   1.102  -1.399  0.00  0.00     0.002 A 
ATOM      4  C4  N4B d   1       1.512   2.452  -1.713  0.00  0.00    -0.004 A 
ATOM      5  C5  N4B d   1       1.055   3.349  -0.792  0.00  0.00     0.002 A 
ATOM      6  C6  N4B d   1       0.600   2.931   0.442  0.00  0.00     0.002 A 
ENDROOT
BRANCH   1   7
ATOM      7  C1' N4B d   1       0.026   1.172   2.077  0.00  0.00     0.057 C 
BRANCH   7   8
ATOM      8  C2' N4B d   1      -1.269   1.940   2.325  0.00  0.00     0.009 C 
BRANCH   8   9
ATOM      9  C3' N4B d   1      -1.837   1.664   3.707  0.00  0.00     0.004 C 
ATOM     10  C4' N4B d   1      -2.980   2.570   4.056  0.00  0.00     0.003 C 
ENDBRANCH   8   9
ENDBRANCH   7   8
ENDBRANCH   1   7
TORSDOF 3
ENDMDL
