MODEL 1
REMARK minimizedAffinity 7.1227932
REMARK minimizedRMSD -1
REMARK  3 active torsions:
REMARK  status: ('A' for Active; 'I' for Inactive)
REMARK    1  A    between atoms: C3'_2  and  C2'_3 
REMARK    2  A    between atoms: C2'_3  and  C1'_4 
REMARK    3  A    between atoms: C1'_4  and  C1_5 
ROOT
ATOM      1  C1  N4B d   1      -2.493   1.309   4.275  0.00  0.00    -0.075 A 
ATOM      2  C2  N4B d   1      -3.488   0.698   3.481  0.00  0.00     0.002 A 
ATOM      3  C3  N4B d   1      -3.828   1.243   2.267  0.00  0.00     0.002 A 
ATOM      4  C4  N4B d   1      -3.202   2.403   1.837  0.00  0.00    -0.004 A 
ATOM      5  C5  N4B d   1      -2.223   2.973   2.598  0.00  0.00     0.002 A 
ATOM      6  C6  N4B d   1      -1.869   2.434   3.818  0.00  0.00     0.002 A 
ENDROOT
BRANCH   1   7
ATOM      7  C1' N4B d   1      -2.148   0.799   5.648  0.00  0.00     0.057 C 
BRANCH   7   8
ATOM      8  C2' N4B d   1      -3.078  -0.359   6.000  0.00  0.00     0.009 C 
BRANCH   8   9
ATOM      9  C3' N4B d   1      -2.683  -1.641   5.287  0.00  0.00     0.004 C 
ATOM     10  C4' N4B d   1      -3.161  -2.872   5.999  0.00  0.00     0.003 C 
ENDBRANCH   8   9
ENDBRANCH   7   8
ENDBRANCH   1   7
TORSDOF 3
ENDMDL
