MODEL 1
REMARK minimizedAffinity 9.69024277
REMARK minimizedRMSD -1
REMARK  0 active torsions:
REMARK  status: ('A' for Active; 'I' for Inactive)
ROOT
ATOM      1  C   UNL d   1       1.775  -1.093  -1.251  0.00  0.00    -0.002 A 
ATOM      2  C1  UNL d   1       0.985  -1.696  -2.219  0.00  0.00     0.010 A 
ATOM      3  C2  UNL d   1       1.309  -2.961  -2.714  0.00  0.00     0.041 A 
ATOM      4  C3  UNL d   1       2.450  -3.617  -2.213  0.00  0.00    -0.075 A 
ATOM      5  S   UNL d   1       3.040  -5.171  -2.670  0.00  0.00     0.015 SA
ATOM      6  C4  UNL d   1       4.355  -5.072  -1.590  0.00  0.00     0.022 A 
ATOM      7  C5  UNL d   1       4.359  -3.889  -0.890  0.00  0.00     0.026 A 
ATOM      8  C6  UNL d   1       3.261  -3.031  -1.237  0.00  0.00    -0.082 A 
ATOM      9  C7  UNL d   1       2.907  -1.747  -0.756  0.00  0.00     0.045 A 
ENDROOT
TORSDOF 0
ENDMDL
