MODEL 1
REMARK minimizedAffinity 12.5051003
REMARK minimizedRMSD -1
REMARK  0 active torsions:
REMARK  status: ('A' for Active; 'I' for Inactive)
ROOT
ATOM      1  C   UNL d   1       1.230  -3.970  -1.761  0.00  0.00    -0.002 A 
ATOM      2  C1  UNL d   1       2.196  -4.180  -0.787  0.00  0.00     0.010 A 
ATOM      3  C2  UNL d   1       2.911  -3.106  -0.252  0.00  0.00     0.041 A 
ATOM      4  C3  UNL d   1       2.636  -1.805  -0.717  0.00  0.00    -0.075 A 
ATOM      5  S   UNL d   1       3.386  -0.339  -0.207  0.00  0.00     0.015 SA
ATOM      6  C4  UNL d   1       2.442   0.601  -1.270  0.00  0.00     0.022 A 
ATOM      7  C5  UNL d   1       1.571  -0.169  -2.004  0.00  0.00     0.026 A 
ATOM      8  C6  UNL d   1       1.668  -1.568  -1.697  0.00  0.00    -0.082 A 
ATOM      9  C7  UNL d   1       0.960  -2.677  -2.220  0.00  0.00     0.045 A 
ENDROOT
TORSDOF 0
ENDMDL
