MODEL 1
REMARK minimizedAffinity 18.4074745
REMARK minimizedRMSD -1
REMARK  0 active torsions:
REMARK  status: ('A' for Active; 'I' for Inactive)
ROOT
ATOM      1  C   UNL d   1       2.863  -0.022  -1.115  0.00  0.00    -0.002 A 
ATOM      2  C1  UNL d   1       3.723  -0.954  -0.551  0.00  0.00     0.010 A 
ATOM      3  C2  UNL d   1       3.360  -2.301  -0.476  0.00  0.00     0.041 A 
ATOM      4  C3  UNL d   1       2.108  -2.699  -0.984  0.00  0.00    -0.075 A 
ATOM      5  S   UNL d   1       1.452  -4.293  -1.001  0.00  0.00     0.015 SA
ATOM      6  C4  UNL d   1       0.015  -3.775  -1.757  0.00  0.00     0.022 A 
ATOM      7  C5  UNL d   1       0.019  -2.421  -1.997  0.00  0.00     0.026 A 
ATOM      8  C6  UNL d   1       1.225  -1.779  -1.556  0.00  0.00    -0.082 A 
ATOM      9  C7  UNL d   1       1.621  -0.421  -1.617  0.00  0.00     0.045 A 
ENDROOT
TORSDOF 0
ENDMDL
