MODEL 1
REMARK minimizedAffinity 15.1750784
REMARK minimizedRMSD -1
REMARK  0 active torsions:
REMARK  status: ('A' for Active; 'I' for Inactive)
ROOT
ATOM      1  C   UNL d   1       1.782  -0.719  -3.052  0.00  0.00    -0.002 A 
ATOM      2  C1  UNL d   1       2.564  -1.172  -1.999  0.00  0.00     0.010 A 
ATOM      3  C2  UNL d   1       2.830  -0.347  -0.904  0.00  0.00     0.041 A 
ATOM      4  C3  UNL d   1       2.289   0.953  -0.884  0.00  0.00    -0.075 A 
ATOM      5  S   UNL d   1       2.479   2.139   0.353  0.00  0.00     0.015 SA
ATOM      6  C4  UNL d   1       1.526   3.276  -0.487  0.00  0.00     0.022 A 
ATOM      7  C5  UNL d   1       1.066   2.779  -1.683  0.00  0.00     0.026 A 
ATOM      8  C6  UNL d   1       1.497   1.432  -1.932  0.00  0.00    -0.082 A 
ATOM      9  C7  UNL d   1       1.247   0.572  -3.028  0.00  0.00     0.045 A 
ENDROOT
TORSDOF 0
ENDMDL
