MODEL 1
REMARK minimizedAffinity 7.06788778
REMARK minimizedRMSD -1
REMARK  0 active torsions:
REMARK  status: ('A' for Active; 'I' for Inactive)
ROOT
ATOM      1  C   UNL d   1      -1.049  -4.778  -4.092  0.00  0.00    -0.002 A 
ATOM      2  C1  UNL d   1      -1.693  -5.982  -4.344  0.00  0.00     0.010 A 
ATOM      3  C2  UNL d   1      -2.959  -6.000  -4.933  0.00  0.00     0.041 A 
ATOM      4  C3  UNL d   1      -3.572  -4.777  -5.269  0.00  0.00    -0.075 A 
ATOM      5  S   UNL d   1      -5.118  -4.555  -5.999  0.00  0.00     0.015 SA
ATOM      6  C4  UNL d   1      -4.960  -2.858  -5.994  0.00  0.00     0.022 A 
ATOM      7  C5  UNL d   1      -3.763  -2.453  -5.452  0.00  0.00     0.026 A 
ATOM      8  C6  UNL d   1      -2.943  -3.553  -5.026  0.00  0.00    -0.082 A 
ATOM      9  C7  UNL d   1      -1.660  -3.567  -4.427  0.00  0.00     0.045 A 
ENDROOT
TORSDOF 0
ENDMDL
