MODEL 1
REMARK minimizedAffinity 16.0239086
REMARK minimizedRMSD -1
REMARK  0 active torsions:
REMARK  status: ('A' for Active; 'I' for Inactive)
ROOT
ATOM      1  C   UNL d   1       2.639   0.740  -0.476  0.00  0.00    -0.002 A 
ATOM      2  C1  UNL d   1       2.704  -0.640  -0.607  0.00  0.00     0.010 A 
ATOM      3  C2  UNL d   1       2.380  -1.255  -1.818  0.00  0.00     0.041 A 
ATOM      4  C3  UNL d   1       1.988  -0.452  -2.906  0.00  0.00    -0.075 A 
ATOM      5  S   UNL d   1       1.546  -0.985  -4.485  0.00  0.00     0.015 SA
ATOM      6  C4  UNL d   1       1.261   0.607  -5.024  0.00  0.00     0.022 A 
ATOM      7  C5  UNL d   1       1.492   1.535  -4.036  0.00  0.00     0.026 A 
ATOM      8  C6  UNL d   1       1.915   0.940  -2.800  0.00  0.00    -0.082 A 
ATOM      9  C7  UNL d   1       2.249   1.534  -1.558  0.00  0.00     0.045 A 
ENDROOT
TORSDOF 0
ENDMDL
