MODEL 1
REMARK minimizedAffinity 13.2297964
REMARK minimizedRMSD -1
REMARK  0 active torsions:
REMARK  status: ('A' for Active; 'I' for Inactive)
ROOT
ATOM      1  C   UNL d   1       2.370  -3.383  -0.525  0.00  0.00    -0.002 A 
ATOM      2  C1  UNL d   1       2.197  -2.017  -0.700  0.00  0.00     0.010 A 
ATOM      3  C2  UNL d   1       1.045  -1.520  -1.311  0.00  0.00     0.041 A 
ATOM      4  C3  UNL d   1       0.059  -2.427  -1.747  0.00  0.00    -0.075 A 
ATOM      5  S   UNL d   1      -1.434  -2.046  -2.521  0.00  0.00     0.015 SA
ATOM      6  C4  UNL d   1      -1.878  -3.688  -2.637  0.00  0.00     0.022 A 
ATOM      7  C5  UNL d   1      -0.922  -4.519  -2.104  0.00  0.00     0.026 A 
ATOM      8  C6  UNL d   1       0.210  -3.806  -1.581  0.00  0.00    -0.082 A 
ATOM      9  C7  UNL d   1       1.390  -4.279  -0.959  0.00  0.00     0.045 A 
ENDROOT
TORSDOF 0
ENDMDL
