MODEL 1
REMARK minimizedAffinity 12.3537893
REMARK minimizedRMSD -1
REMARK  0 active torsions:
REMARK  status: ('A' for Active; 'I' for Inactive)
ROOT
ATOM      1  C   UNL d   1       1.670   0.059  -2.994  0.00  0.00    -0.002 A 
ATOM      2  C1  UNL d   1       2.273   1.258  -2.641  0.00  0.00     0.010 A 
ATOM      3  C2  UNL d   1       3.245   1.296  -1.639  0.00  0.00     0.041 A 
ATOM      4  C3  UNL d   1       3.606   0.097  -0.993  0.00  0.00    -0.075 A 
ATOM      5  S   UNL d   1       4.772  -0.098   0.262  0.00  0.00     0.015 SA
ATOM      6  C4  UNL d   1       4.497  -1.777   0.358  0.00  0.00     0.022 A 
ATOM      7  C5  UNL d   1       3.542  -2.196  -0.538  0.00  0.00     0.026 A 
ATOM      8  C6  UNL d   1       3.013  -1.123  -1.332  0.00  0.00    -0.082 A 
ATOM      9  C7  UNL d   1       2.030  -1.128  -2.351  0.00  0.00     0.045 A 
ENDROOT
TORSDOF 0
ENDMDL
