MODEL 1
REMARK minimizedAffinity 17.9209805
REMARK minimizedRMSD -1
REMARK  1 active torsions:
REMARK  status: ('A' for Active; 'I' for Inactive)
REMARK    1  A    between atoms: C1_2  and  C2_3 
ROOT
ATOM      1  C2  UNL d   1      -5.703   2.249  -3.731  0.00  0.00    -0.076 A 
ATOM      2  C3  UNL d   1      -6.000   0.891  -3.520  0.00  0.00     0.004 A 
ATOM      3  C4  UNL d   1      -5.826  -0.047  -4.536  0.00  0.00    -0.003 A 
ATOM      4  C5  UNL d   1      -5.351   0.357  -5.779  0.00  0.00     0.000 A 
ATOM      5  C6  UNL d   1      -5.035   1.697  -6.000  0.00  0.00     0.000 A 
ATOM      6  C7  UNL d   1      -5.189   2.653  -4.981  0.00  0.00    -0.073 A 
ATOM      7  C8  UNL d   1      -4.838   4.085  -5.277  0.00  0.00     0.078 C 
ENDROOT
BRANCH   1   8
ATOM      8  C1  UNL d   1      -5.938   3.225  -2.601  0.00  0.00     0.053 C 
ATOM      9  C   UNL d   1      -4.776   3.273  -1.621  0.00  0.00     0.018 C 
ENDBRANCH   1   8
TORSDOF 1
ENDMDL
