MODEL 1
REMARK minimizedAffinity 11.6745949
REMARK minimizedRMSD -1
REMARK  1 active torsions:
REMARK  status: ('A' for Active; 'I' for Inactive)
REMARK    1  A    between atoms: C1_2  and  C2_3 
ROOT
ATOM      1  C2  UNL d   1      -3.678   5.325   3.868  0.00  0.00    -0.076 A 
ATOM      2  C3  UNL d   1      -3.667   4.683   2.618  0.00  0.00     0.004 A 
ATOM      3  C4  UNL d   1      -4.799   4.025   2.139  0.00  0.00    -0.003 A 
ATOM      4  C5  UNL d   1      -5.960   3.998   2.904  0.00  0.00     0.000 A 
ATOM      5  C6  UNL d   1      -5.994   4.644   4.139  0.00  0.00     0.000 A 
ATOM      6  C7  UNL d   1      -4.867   5.326   4.629  0.00  0.00    -0.073 A 
ATOM      7  C8  UNL d   1      -4.957   6.000   5.970  0.00  0.00     0.078 C 
ENDROOT
BRANCH   1   8
ATOM      8  C1  UNL d   1      -2.412   5.999   4.347  0.00  0.00     0.053 C 
ATOM      9  C   UNL d   1      -2.266   5.956   5.861  0.00  0.00     0.018 C 
ENDBRANCH   1   8
TORSDOF 1
ENDMDL
