MODEL 1
REMARK minimizedAffinity 8.80059338
REMARK minimizedRMSD -1
REMARK  1 active torsions:
REMARK  status: ('A' for Active; 'I' for Inactive)
REMARK    1  A    between atoms: C1_2  and  C2_3 
ROOT
ATOM      1  C2  UNL d   1       1.368   0.707  -0.750  0.00  0.00    -0.076 A 
ATOM      2  C3  UNL d   1       2.332   0.722  -1.773  0.00  0.00     0.004 A 
ATOM      3  C4  UNL d   1       3.659   0.384  -1.514  0.00  0.00    -0.003 A 
ATOM      4  C5  UNL d   1       4.044   0.024  -0.227  0.00  0.00     0.000 A 
ATOM      5  C6  UNL d   1       3.097  -0.014   0.797  0.00  0.00     0.000 A 
ATOM      6  C7  UNL d   1       1.752   0.309   0.549  0.00  0.00    -0.073 A 
ATOM      7  C8  UNL d   1       0.775   0.258   1.691  0.00  0.00     0.078 C 
ENDROOT
BRANCH   1   8
ATOM      8  C1  UNL d   1      -0.050   1.110  -1.085  0.00  0.00     0.053 C 
ATOM      9  C   UNL d   1      -0.876  -0.051  -1.615  0.00  0.00     0.018 C 
ENDBRANCH   1   8
TORSDOF 1
ENDMDL
