MODEL 1
REMARK minimizedAffinity 5.41330528
REMARK minimizedRMSD -1
REMARK  1 active torsions:
REMARK  status: ('A' for Active; 'I' for Inactive)
REMARK    1  A    between atoms: C1_2  and  C2_3 
ROOT
ATOM      1  C2  UNL d   1       3.063   0.157  -0.999  0.00  0.00    -0.076 A 
ATOM      2  C3  UNL d   1       2.612  -1.029  -1.603  0.00  0.00     0.004 A 
ATOM      3  C4  UNL d   1       2.314  -2.156  -0.839  0.00  0.00    -0.003 A 
ATOM      4  C5  UNL d   1       2.462  -2.115   0.543  0.00  0.00     0.000 A 
ATOM      5  C6  UNL d   1       2.891  -0.941   1.162  0.00  0.00     0.000 A 
ATOM      6  C7  UNL d   1       3.180   0.209   0.407  0.00  0.00    -0.073 A 
ATOM      7  C8  UNL d   1       3.645   1.446   1.125  0.00  0.00     0.078 C 
ENDROOT
BRANCH   1   8
ATOM      8  C1  UNL d   1       3.397   1.338  -1.881  0.00  0.00     0.053 C 
ATOM      9  C   UNL d   1       4.870   1.389  -2.255  0.00  0.00     0.018 C 
ENDBRANCH   1   8
TORSDOF 1
ENDMDL
