MODEL 1
REMARK minimizedAffinity 9.8405714
REMARK minimizedRMSD -1
REMARK  1 active torsions:
REMARK  status: ('A' for Active; 'I' for Inactive)
REMARK    1  A    between atoms: C1_2  and  C2_3 
ROOT
ATOM      1  C2  UNL d   1      -4.791   0.638  -2.023  0.00  0.00    -0.076 A 
ATOM      2  C3  UNL d   1      -5.393  -0.174  -3.000  0.00  0.00     0.004 A 
ATOM      3  C4  UNL d   1      -5.993   0.385  -4.127  0.00  0.00    -0.003 A 
ATOM      4  C5  UNL d   1      -6.000   1.766  -4.295  0.00  0.00     0.000 A 
ATOM      5  C6  UNL d   1      -5.391   2.585  -3.345  0.00  0.00     0.000 A 
ATOM      6  C7  UNL d   1      -4.768   2.036  -2.211  0.00  0.00    -0.073 A 
ATOM      7  C8  UNL d   1      -4.133   2.967  -1.215  0.00  0.00     0.078 C 
ENDROOT
BRANCH   1   8
ATOM      8  C1  UNL d   1      -4.180  -0.024  -0.808  0.00  0.00     0.053 C 
ATOM      9  C   UNL d   1      -4.162   0.891   0.407  0.00  0.00     0.018 C 
ENDBRANCH   1   8
TORSDOF 1
ENDMDL
