MODEL 1
REMARK minimizedAffinity 1.10813463
REMARK minimizedRMSD -1
REMARK  2 active torsions:
REMARK  status: ('A' for Active; 'I' for Inactive)
REMARK    1  A    between atoms: C2'_3  and  C1'_4 
REMARK    2  A    between atoms: C1'_4  and  C1_5 
ROOT
ATOM      1  C1  I4B d   1       2.024  -0.443   2.993  0.00  0.00    -0.075 A 
ATOM      2  C2  I4B d   1       2.138   0.433   4.044  0.00  0.00     0.003 A 
ATOM      3  C3  I4B d   1       2.456   1.792   3.808  0.00  0.00     0.002 A 
ATOM      4  C4  I4B d   1       2.699   2.220   2.519  0.00  0.00    -0.004 A 
ATOM      5  C5  I4B d   1       2.560   1.336   1.452  0.00  0.00     0.002 A 
ATOM      6  C6  I4B d   1       2.208  -0.001   1.689  0.00  0.00     0.003 A 
ENDROOT
BRANCH   1   7
ATOM      7  C1' I4B d   1       1.720  -1.879   3.280  0.00  0.00     0.060 C 
BRANCH   7   8
ATOM      8  C2' I4B d   1       2.801  -2.410   4.199  0.00  0.00    -0.013 C 
ATOM      9  C4' I4B d   1       2.629  -3.885   4.448  0.00  0.00     0.013 C 
ATOM     10  C3' I4B d   1       4.130  -2.118   3.568  0.00  0.00     0.013 C 
ENDBRANCH   7   8
ENDBRANCH   1   7
TORSDOF 2
ENDMDL
