MODEL 1
REMARK minimizedAffinity 4.98193216
REMARK minimizedRMSD -1
REMARK  2 active torsions:
REMARK  status: ('A' for Active; 'I' for Inactive)
REMARK    1  A    between atoms: C2'_3  and  C1'_4 
REMARK    2  A    between atoms: C1'_4  and  C1_5 
ROOT
ATOM      1  C1  I4B d   1       1.716   0.959   1.088  0.00  0.00    -0.075 A 
ATOM      2  C2  I4B d   1       0.841  -0.080   1.281  0.00  0.00     0.003 A 
ATOM      3  C3  I4B d   1      -0.293  -0.222   0.446  0.00  0.00     0.002 A 
ATOM      4  C4  I4B d   1      -0.540   0.720  -0.531  0.00  0.00    -0.004 A 
ATOM      5  C5  I4B d   1       0.360   1.761  -0.741  0.00  0.00     0.002 A 
ATOM      6  C6  I4B d   1       1.502   1.874   0.065  0.00  0.00     0.003 A 
ENDROOT
BRANCH   1   7
ATOM      7  C1' I4B d   1       2.886   1.098   2.009  0.00  0.00     0.060 C 
BRANCH   7   8
ATOM      8  C2' I4B d   1       2.386   0.923   3.429  0.00  0.00    -0.013 C 
ATOM      9  C4' I4B d   1       2.968  -0.312   4.064  0.00  0.00     0.013 C 
ATOM     10  C3' I4B d   1       2.752   2.154   4.203  0.00  0.00     0.013 C 
ENDBRANCH   7   8
ENDBRANCH   1   7
TORSDOF 2
ENDMDL
