MODEL 1
REMARK minimizedAffinity 6.27814865
REMARK minimizedRMSD -1
REMARK  2 active torsions:
REMARK  status: ('A' for Active; 'I' for Inactive)
REMARK    1  A    between atoms: C2'_3  and  C1'_4 
REMARK    2  A    between atoms: C1'_4  and  C1_5 
ROOT
ATOM      1  C1  I4B d   1       0.456  -0.552   0.328  0.00  0.00    -0.075 A 
ATOM      2  C2  I4B d   1       1.706   0.002   0.211  0.00  0.00     0.003 A 
ATOM      3  C3  I4B d   1       1.856   1.406   0.109  0.00  0.00     0.002 A 
ATOM      4  C4  I4B d   1       0.735   2.209   0.077  0.00  0.00    -0.004 A 
ATOM      5  C5  I4B d   1      -0.531   1.647   0.219  0.00  0.00     0.002 A 
ATOM      6  C6  I4B d   1      -0.671   0.259   0.358  0.00  0.00     0.003 A 
ENDROOT
BRANCH   1   7
ATOM      7  C1' I4B d   1       0.332  -2.041   0.401  0.00  0.00     0.060 C 
BRANCH   7   8
ATOM      8  C2' I4B d   1       0.233  -2.571  -1.015  0.00  0.00    -0.013 C 
ATOM      9  C4' I4B d   1       0.820  -3.954  -1.122  0.00  0.00     0.013 C 
ATOM     10  C3' I4B d   1      -1.214  -2.565  -1.411  0.00  0.00     0.013 C 
ENDBRANCH   7   8
ENDBRANCH   1   7
TORSDOF 2
ENDMDL
