MODEL 1
REMARK minimizedAffinity 17.4351273
REMARK minimizedRMSD -1
REMARK  1 active torsions:
REMARK  status: ('A' for Active; 'I' for Inactive)
REMARK    1  A    between atoms: C1_2  and  C2_3 
ROOT
ATOM      1  C2  UNL d   1       4.913   4.473   2.545  0.00  0.00    -0.076 A 
ATOM      2  C3  UNL d   1       5.769   4.748   3.625  0.00  0.00     0.004 A 
ATOM      3  C4  UNL d   1       5.982   3.806   4.630  0.00  0.00    -0.003 A 
ATOM      4  C5  UNL d   1       5.343   2.572   4.570  0.00  0.00     0.000 A 
ATOM      5  C6  UNL d   1       4.504   2.276   3.497  0.00  0.00     0.000 A 
ATOM      6  C7  UNL d   1       4.291   3.208   2.467  0.00  0.00    -0.073 A 
ATOM      7  C8  UNL d   1       3.371   2.838   1.336  0.00  0.00     0.078 C 
ENDROOT
BRANCH   1   8
ATOM      8  C1  UNL d   1       4.699   5.544   1.499  0.00  0.00     0.053 C 
ATOM      9  C   UNL d   1       6.000   6.000   0.857  0.00  0.00     0.018 C 
ENDBRANCH   1   8
TORSDOF 1
ENDMDL
