MODEL 1
REMARK minimizedAffinity 15.3394117
REMARK minimizedRMSD -1
REMARK  1 active torsions:
REMARK  status: ('A' for Active; 'I' for Inactive)
REMARK    1  A    between atoms: C1_2  and  C2_3 
ROOT
ATOM      1  C2  UNL d   1       0.774  -0.007   4.783  0.00  0.00    -0.076 A 
ATOM      2  C3  UNL d   1       0.077   0.448   3.650  0.00  0.00     0.004 A 
ATOM      3  C4  UNL d   1       0.003  -0.327   2.494  0.00  0.00    -0.003 A 
ATOM      4  C5  UNL d   1       0.624  -1.570   2.452  0.00  0.00     0.000 A 
ATOM      5  C6  UNL d   1       1.305  -2.045   3.573  0.00  0.00     0.000 A 
ATOM      6  C7  UNL d   1       1.375  -1.284   4.752  0.00  0.00    -0.073 A 
ATOM      7  C8  UNL d   1       2.128  -1.842   5.928  0.00  0.00     0.078 C 
ENDROOT
BRANCH   1   8
ATOM      8  C1  UNL d   1       0.843   0.889   5.999  0.00  0.00     0.053 C 
ATOM      9  C   UNL d   1      -0.235   1.961   5.995  0.00  0.00     0.018 C 
ENDBRANCH   1   8
TORSDOF 1
ENDMDL
