MODEL 1
REMARK minimizedAffinity 6.92163801
REMARK minimizedRMSD -1
REMARK  1 active torsions:
REMARK  status: ('A' for Active; 'I' for Inactive)
REMARK    1  A    between atoms: C1_2  and  C2_3 
ROOT
ATOM      1  C2  UNL d   1       1.700  -0.455   4.683  0.00  0.00    -0.076 A 
ATOM      2  C3  UNL d   1       0.633  -0.373   3.771  0.00  0.00     0.004 A 
ATOM      3  C4  UNL d   1       0.693  -1.016   2.536  0.00  0.00    -0.003 A 
ATOM      4  C5  UNL d   1       1.822  -1.752   2.192  0.00  0.00     0.000 A 
ATOM      5  C6  UNL d   1       2.882  -1.860   3.092  0.00  0.00     0.000 A 
ATOM      6  C7  UNL d   1       2.830  -1.231   4.348  0.00  0.00    -0.073 A 
ATOM      7  C8  UNL d   1       4.005  -1.375   5.276  0.00  0.00     0.078 C 
ENDROOT
BRANCH   1   8
ATOM      8  C1  UNL d   1       1.589   0.285   5.996  0.00  0.00     0.053 C 
ATOM      9  C   UNL d   1       0.493   1.341   5.979  0.00  0.00     0.018 C 
ENDBRANCH   1   8
TORSDOF 1
ENDMDL
