MODEL 1
REMARK minimizedAffinity 12.2613459
REMARK minimizedRMSD -1
REMARK  1 active torsions:
REMARK  status: ('A' for Active; 'I' for Inactive)
REMARK    1  A    between atoms: C1_2  and  C2_3 
ROOT
ATOM      1  C2  UNL d   1       0.527   4.550  -1.132  0.00  0.00    -0.076 A 
ATOM      2  C3  UNL d   1       0.482   3.890  -2.373  0.00  0.00     0.004 A 
ATOM      3  C4  UNL d   1      -0.675   3.897  -3.148  0.00  0.00    -0.003 A 
ATOM      4  C5  UNL d   1      -1.808   4.566  -2.697  0.00  0.00     0.000 A 
ATOM      5  C6  UNL d   1      -1.776   5.242  -1.477  0.00  0.00     0.000 A 
ATOM      6  C7  UNL d   1      -0.612   5.258  -0.691  0.00  0.00    -0.073 A 
ATOM      7  C8  UNL d   1      -0.635   5.997   0.619  0.00  0.00     0.078 C 
ENDROOT
BRANCH   1   8
ATOM      8  C1  UNL d   1       1.802   4.485  -0.322  0.00  0.00     0.053 C 
ATOM      9  C   UNL d   1       1.604   3.799   1.021  0.00  0.00     0.018 C 
ENDBRANCH   1   8
TORSDOF 1
ENDMDL
