MODEL 1
REMARK minimizedAffinity 9.27004242
REMARK minimizedRMSD -1
REMARK  1 active torsions:
REMARK  status: ('A' for Active; 'I' for Inactive)
REMARK    1  A    between atoms: C1_2  and  C2_3 
ROOT
ATOM      1  C2  UNL d   1      -0.698  -0.531   2.416  0.00  0.00    -0.076 A 
ATOM      2  C3  UNL d   1      -1.378  -1.757   2.318  0.00  0.00     0.004 A 
ATOM      3  C4  UNL d   1      -2.685  -1.816   1.837  0.00  0.00    -0.003 A 
ATOM      4  C5  UNL d   1      -3.333  -0.650   1.446  0.00  0.00     0.000 A 
ATOM      5  C6  UNL d   1      -2.668   0.573   1.520  0.00  0.00     0.000 A 
ATOM      6  C7  UNL d   1      -1.344   0.648   1.987  0.00  0.00    -0.073 A 
ATOM      7  C8  UNL d   1      -0.677   1.995   2.051  0.00  0.00     0.078 C 
ENDROOT
BRANCH   1   8
ATOM      8  C1  UNL d   1       0.708  -0.525   2.970  0.00  0.00     0.053 C 
ATOM      9  C   UNL d   1       1.754  -0.830   1.909  0.00  0.00     0.018 C 
ENDBRANCH   1   8
TORSDOF 1
ENDMDL
