MODEL 1
REMARK minimizedAffinity -2.57754254
REMARK minimizedRMSD -1
REMARK  1 active torsions:
REMARK  status: ('A' for Active; 'I' for Inactive)
REMARK    1  A    between atoms: C1_2  and  C2_3 
ROOT
ATOM      1  C2  UNL d   1      -0.239  -2.775  -3.359  0.00  0.00    -0.076 A 
ATOM      2  C3  UNL d   1      -1.101  -2.505  -4.436  0.00  0.00     0.004 A 
ATOM      3  C4  UNL d   1      -1.111  -1.255  -5.052  0.00  0.00    -0.003 A 
ATOM      4  C5  UNL d   1      -0.258  -0.254  -4.601  0.00  0.00     0.000 A 
ATOM      5  C6  UNL d   1       0.617  -0.509  -3.545  0.00  0.00     0.000 A 
ATOM      6  C7  UNL d   1       0.651  -1.769  -2.924  0.00  0.00    -0.073 A 
ATOM      7  C8  UNL d   1       1.609  -1.987  -1.785  0.00  0.00     0.078 C 
ENDROOT
BRANCH   1   8
ATOM      8  C1  UNL d   1      -0.292  -4.141  -2.713  0.00  0.00     0.053 C 
ATOM      9  C   UNL d   1       0.563  -5.164  -3.444  0.00  0.00     0.018 C 
ENDBRANCH   1   8
TORSDOF 1
ENDMDL
