MODEL 1
REMARK minimizedAffinity -2.19245315
REMARK minimizedRMSD -1
REMARK  0 active torsions:
REMARK  status: ('A' for Active; 'I' for Inactive)
ROOT
ATOM      1  O1  BZF d   1      -1.037   0.473   0.288  0.00  0.00    -0.204 OA
ATOM      2  C2  BZF d   1      -0.074   1.315  -0.236  0.00  0.00     0.174 A 
ATOM      3  C3  BZF d   1       1.042   0.627  -0.551  0.00  0.00    -0.012 A 
ATOM      4  C3A BZF d   1       0.727  -0.744  -0.289  0.00  0.00    -0.107 A 
ATOM      5  C4  BZF d   1       1.425  -1.910  -0.420  0.00  0.00     0.055 A 
ATOM      6  C5  BZF d   1       0.854  -3.072  -0.007  0.00  0.00    -0.016 A 
ATOM      7  C6  BZF d   1      -0.409  -3.104   0.546  0.00  0.00     0.022 A 
ATOM      8  C7  BZF d   1      -1.143  -1.973   0.693  0.00  0.00     0.029 A 
ATOM      9  C7A BZF d   1      -0.581  -0.802   0.246  0.00  0.00     0.058 A 
ENDROOT
TORSDOF 0
ENDMDL
