MODEL 1
REMARK minimizedAffinity -2.11302567
REMARK minimizedRMSD -1
REMARK  0 active torsions:
REMARK  status: ('A' for Active; 'I' for Inactive)
ROOT
ATOM      1  O1  BZF d   1       0.103  -0.628  -0.762  0.00  0.00    -0.204 OA
ATOM      2  C2  BZF d   1       0.282   0.682  -0.363  0.00  0.00     0.174 A 
ATOM      3  C3  BZF d   1      -0.342   0.914   0.810  0.00  0.00    -0.012 A 
ATOM      4  C3A BZF d   1      -0.872  -0.352   1.212  0.00  0.00    -0.107 A 
ATOM      5  C4  BZF d   1      -1.582  -0.770   2.300  0.00  0.00     0.055 A 
ATOM      6  C5  BZF d   1      -2.011  -2.059   2.355  0.00  0.00    -0.016 A 
ATOM      7  C6  BZF d   1      -1.751  -2.954   1.338  0.00  0.00     0.022 A 
ATOM      8  C7  BZF d   1      -1.045  -2.587   0.240  0.00  0.00     0.029 A 
ATOM      9  C7A BZF d   1      -0.583  -1.294   0.197  0.00  0.00     0.058 A 
ENDROOT
TORSDOF 0
ENDMDL
