MODEL 1
REMARK minimizedAffinity -3.45383739
REMARK minimizedRMSD -1
REMARK  0 active torsions:
REMARK  status: ('A' for Active; 'I' for Inactive)
ROOT
ATOM      1  O1  BZF d   1      -1.788  -0.693   0.594  0.00  0.00    -0.204 OA
ATOM      2  C2  BZF d   1      -1.124   0.506   0.427  0.00  0.00     0.174 A 
ATOM      3  C3  BZF d   1       0.075   0.311  -0.159  0.00  0.00    -0.012 A 
ATOM      4  C3A BZF d   1       0.126  -1.087  -0.455  0.00  0.00    -0.107 A 
ATOM      5  C4  BZF d   1       1.058  -1.887  -1.054  0.00  0.00     0.055 A 
ATOM      6  C5  BZF d   1       0.832  -3.225  -1.123  0.00  0.00    -0.016 A 
ATOM      7  C6  BZF d   1      -0.309  -3.798  -0.601  0.00  0.00     0.022 A 
ATOM      8  C7  BZF d   1      -1.264  -3.044  -0.003  0.00  0.00     0.029 A 
ATOM      9  C7A BZF d   1      -1.055  -1.688   0.039  0.00  0.00     0.058 A 
ENDROOT
TORSDOF 0
ENDMDL
