MODEL 1
REMARK minimizedAffinity -2.01967645
REMARK minimizedRMSD -1
REMARK  0 active torsions:
REMARK  status: ('A' for Active; 'I' for Inactive)
ROOT
ATOM      1  O1  BZF d   1      -0.888   2.397   0.505  0.00  0.00    -0.204 OA
ATOM      2  C2  BZF d   1      -0.783   1.163  -0.106  0.00  0.00     0.174 A 
ATOM      3  C3  BZF d   1       0.507   0.864  -0.362  0.00  0.00    -0.012 A 
ATOM      4  C3A BZF d   1       1.262   1.940   0.202  0.00  0.00    -0.107 A 
ATOM      5  C4  BZF d   1       2.598   2.208   0.283  0.00  0.00     0.055 A 
ATOM      6  C5  BZF d   1       3.004   3.382   0.834  0.00  0.00    -0.016 A 
ATOM      7  C6  BZF d   1       2.102   4.312   1.308  0.00  0.00     0.022 A 
ATOM      8  C7  BZF d   1       0.767   4.089   1.254  0.00  0.00     0.029 A 
ATOM      9  C7A BZF d   1       0.354   2.889   0.728  0.00  0.00     0.058 A 
ENDROOT
TORSDOF 0
ENDMDL
