MODEL 1
REMARK minimizedAffinity 0.136253029
REMARK minimizedRMSD -1
REMARK  0 active torsions:
REMARK  status: ('A' for Active; 'I' for Inactive)
ROOT
ATOM      1  O1  BZF d   1       0.930  -0.914  -0.132  0.00  0.00    -0.204 OA
ATOM      2  C2  BZF d   1       1.466  -2.003  -0.793  0.00  0.00     0.174 A 
ATOM      3  C3  BZF d   1       0.652  -3.073  -0.690  0.00  0.00    -0.012 A 
ATOM      4  C3A BZF d   1      -0.505  -2.600   0.006  0.00  0.00    -0.107 A 
ATOM      5  C4  BZF d   1      -1.673  -3.191   0.396  0.00  0.00     0.055 A 
ATOM      6  C5  BZF d   1      -2.567  -2.471   1.123  0.00  0.00    -0.016 A 
ATOM      7  C6  BZF d   1      -2.325  -1.160   1.480  0.00  0.00     0.022 A 
ATOM      8  C7  BZF d   1      -1.183  -0.530   1.111  0.00  0.00     0.029 A 
ATOM      9  C7A BZF d   1      -0.292  -1.245   0.349  0.00  0.00     0.058 A 
ENDROOT
TORSDOF 0
ENDMDL
