MODEL 1
REMARK minimizedAffinity -4.64026165
REMARK minimizedRMSD -1
REMARK  0 active torsions:
REMARK  status: ('A' for Active; 'I' for Inactive)
ROOT
ATOM      1  O1  BZF d   1       0.997   0.214  -0.590  0.00  0.00    -0.204 OA
ATOM      2  C2  BZF d   1       0.610   1.509  -0.303  0.00  0.00     0.174 A 
ATOM      3  C3  BZF d   1      -0.516   1.519   0.439  0.00  0.00    -0.012 A 
ATOM      4  C3A BZF d   1      -0.803   0.143   0.706  0.00  0.00    -0.107 A 
ATOM      5  C4  BZF d   1      -1.787  -0.491   1.409  0.00  0.00     0.055 A 
ATOM      6  C5  BZF d   1      -1.823  -1.850   1.415  0.00  0.00    -0.016 A 
ATOM      7  C6  BZF d   1      -0.896  -2.604   0.726  0.00  0.00     0.022 A 
ATOM      8  C7  BZF d   1       0.101  -2.019   0.018  0.00  0.00     0.029 A 
ATOM      9  C7A BZF d   1       0.160  -0.647   0.038  0.00  0.00     0.058 A 
ENDROOT
TORSDOF 0
ENDMDL
