MODEL 1
REMARK minimizedAffinity -2.99033165
REMARK minimizedRMSD -1
REMARK  0 active torsions:
REMARK  status: ('A' for Active; 'I' for Inactive)
ROOT
ATOM      1  O1  BZF d   1       1.334   0.688  -0.695  0.00  0.00    -0.204 OA
ATOM      2  C2  BZF d   1       0.078   0.158  -0.471  0.00  0.00     0.174 A 
ATOM      3  C3  BZF d   1      -0.684   1.016   0.237  0.00  0.00    -0.012 A 
ATOM      4  C3A BZF d   1       0.117   2.192   0.392  0.00  0.00    -0.107 A 
ATOM      5  C4  BZF d   1      -0.094   3.400   0.991  0.00  0.00     0.055 A 
ATOM      6  C5  BZF d   1       0.918   4.306   1.028  0.00  0.00    -0.016 A 
ATOM      7  C6  BZF d   1       2.155   4.034   0.482  0.00  0.00     0.022 A 
ATOM      8  C7  BZF d   1       2.412   2.851  -0.128  0.00  0.00     0.029 A 
ATOM      9  C7A BZF d   1       1.380   1.947  -0.196  0.00  0.00     0.058 A 
ENDROOT
TORSDOF 0
ENDMDL
