MODEL 1
REMARK minimizedAffinity -4.61740351
REMARK minimizedRMSD -1
REMARK  0 active torsions:
REMARK  status: ('A' for Active; 'I' for Inactive)
ROOT
ATOM      1  O1  BZF d   1       1.178   0.334  -0.623  0.00  0.00    -0.204 OA
ATOM      2  C2  BZF d   1       0.770   1.483   0.026  0.00  0.00     0.174 A 
ATOM      3  C3  BZF d   1      -0.194   1.206   0.927  0.00  0.00    -0.012 A 
ATOM      4  C3A BZF d   1      -0.336  -0.217   0.901  0.00  0.00    -0.107 A 
ATOM      5  C4  BZF d   1      -1.128  -1.095   1.586  0.00  0.00     0.055 A 
ATOM      6  C5  BZF d   1      -1.075  -2.416   1.272  0.00  0.00    -0.016 A 
ATOM      7  C6  BZF d   1      -0.248  -2.893   0.276  0.00  0.00     0.022 A 
ATOM      8  C7  BZF d   1       0.559  -2.062  -0.428  0.00  0.00     0.029 A 
ATOM      9  C7A BZF d   1       0.532  -0.730  -0.090  0.00  0.00     0.058 A 
ENDROOT
TORSDOF 0
ENDMDL
