MODEL 1
REMARK minimizedAffinity -4.52598476
REMARK minimizedRMSD -1
REMARK  0 active torsions:
REMARK  status: ('A' for Active; 'I' for Inactive)
ROOT
ATOM      1  O1  BZF d   1       0.417   0.116  -0.616  0.00  0.00    -0.204 OA
ATOM      2  C2  BZF d   1      -0.378   0.987   0.103  0.00  0.00     0.174 A 
ATOM      3  C3  BZF d   1      -1.202   0.312   0.929  0.00  0.00    -0.012 A 
ATOM      4  C3A BZF d   1      -0.839  -1.064   0.781  0.00  0.00    -0.107 A 
ATOM      5  C4  BZF d   1      -1.287  -2.221   1.353  0.00  0.00     0.055 A 
ATOM      6  C5  BZF d   1      -0.771  -3.407   0.936  0.00  0.00    -0.016 A 
ATOM      7  C6  BZF d   1       0.189  -3.474  -0.053  0.00  0.00     0.022 A 
ATOM      8  C7  BZF d   1       0.668  -2.353  -0.646  0.00  0.00     0.029 A 
ATOM      9  C7A BZF d   1       0.173  -1.151  -0.204  0.00  0.00     0.058 A 
ENDROOT
TORSDOF 0
ENDMDL
