MODEL 1
REMARK minimizedAffinity -4.01749516
REMARK minimizedRMSD -1
REMARK  0 active torsions:
REMARK  status: ('A' for Active; 'I' for Inactive)
ROOT
ATOM      1  O1  BZF d   1       0.888  -0.754  -0.935  0.00  0.00    -0.204 OA
ATOM      2  C2  BZF d   1       0.784   0.594  -0.652  0.00  0.00     0.174 A 
ATOM      3  C3  BZF d   1      -0.279   0.835   0.143  0.00  0.00    -0.012 A 
ATOM      4  C3A BZF d   1      -0.822  -0.453   0.446  0.00  0.00    -0.107 A 
ATOM      5  C4  BZF d   1      -1.877  -0.872   1.205  0.00  0.00     0.055 A 
ATOM      6  C5  BZF d   1      -2.185  -2.196   1.235  0.00  0.00    -0.016 A 
ATOM      7  C6  BZF d   1      -1.464  -3.125   0.514  0.00  0.00     0.022 A 
ATOM      8  C7  BZF d   1      -0.406  -2.758  -0.249  0.00  0.00     0.029 A 
ATOM      9  C7A BZF d   1      -0.072  -1.425  -0.255  0.00  0.00     0.058 A 
ENDROOT
TORSDOF 0
ENDMDL
