MODEL 1
REMARK minimizedAffinity -4.16778278
REMARK minimizedRMSD -1
REMARK  0 active torsions:
REMARK  status: ('A' for Active; 'I' for Inactive)
ROOT
ATOM      1  O1  BZF d   1      -1.562  -2.996   0.986  0.00  0.00    -0.204 OA
ATOM      2  C2  BZF d   1      -0.655  -3.826   0.356  0.00  0.00     0.174 A 
ATOM      3  C3  BZF d   1       0.198  -3.111  -0.406  0.00  0.00    -0.012 A 
ATOM      4  C3A BZF d   1      -0.142  -1.742  -0.169  0.00  0.00    -0.107 A 
ATOM      5  C4  BZF d   1       0.359  -0.557  -0.627  0.00  0.00     0.055 A 
ATOM      6  C5  BZF d   1      -0.246   0.603  -0.259  0.00  0.00    -0.016 A 
ATOM      7  C6  BZF d   1      -1.355   0.614   0.560  0.00  0.00     0.022 A 
ATOM      8  C7  BZF d   1      -1.885  -0.535   1.044  0.00  0.00     0.029 A 
ATOM      9  C7A BZF d   1      -1.256  -1.707   0.701  0.00  0.00     0.058 A 
ENDROOT
TORSDOF 0
ENDMDL
