MODEL 1
REMARK minimizedAffinity -4.1193409
REMARK minimizedRMSD -1
REMARK  0 active torsions:
REMARK  status: ('A' for Active; 'I' for Inactive)
ROOT
ATOM      1  O1  BZF d   1      -1.420   0.348   0.852  0.00  0.00    -0.204 OA
ATOM      2  C2  BZF d   1      -0.605   1.336   0.334  0.00  0.00     0.174 A 
ATOM      3  C3  BZF d   1       0.503   0.801  -0.219  0.00  0.00    -0.012 A 
ATOM      4  C3A BZF d   1       0.328  -0.615  -0.117  0.00  0.00    -0.107 A 
ATOM      5  C4  BZF d   1       1.084  -1.685  -0.504  0.00  0.00     0.055 A 
ATOM      6  C5  BZF d   1       0.663  -2.939  -0.191  0.00  0.00    -0.016 A 
ATOM      7  C6  BZF d   1      -0.503  -3.159   0.512  0.00  0.00     0.022 A 
ATOM      8  C7  BZF d   1      -1.289  -2.130   0.913  0.00  0.00     0.029 A 
ATOM      9  C7A BZF d   1      -0.884  -0.863   0.569  0.00  0.00     0.058 A 
ENDROOT
TORSDOF 0
ENDMDL
