MODEL 1
REMARK minimizedAffinity -4.18115425
REMARK minimizedRMSD -1
REMARK  0 active torsions:
REMARK  status: ('A' for Active; 'I' for Inactive)
ROOT
ATOM      1  O1  BZF d   1      -1.325   0.542   0.451  0.00  0.00    -0.204 OA
ATOM      2  C2  BZF d   1      -0.408   1.136  -0.394  0.00  0.00     0.174 A 
ATOM      3  C3  BZF d   1       0.552   0.258  -0.752  0.00  0.00    -0.012 A 
ATOM      4  C3A BZF d   1       0.162  -0.986  -0.162  0.00  0.00    -0.107 A 
ATOM      5  C4  BZF d   1       0.703  -2.240  -0.172  0.00  0.00     0.055 A 
ATOM      6  C5  BZF d   1       0.115  -3.219   0.565  0.00  0.00    -0.016 A 
ATOM      7  C6  BZF d   1      -1.010  -2.978   1.326  0.00  0.00     0.022 A 
ATOM      8  C7  BZF d   1      -1.586  -1.752   1.363  0.00  0.00     0.029 A 
ATOM      9  C7A BZF d   1      -1.013  -0.769   0.593  0.00  0.00     0.058 A 
ENDROOT
TORSDOF 0
ENDMDL
