MODEL 1
REMARK minimizedAffinity -3.55719519
REMARK minimizedRMSD -1
REMARK  0 active torsions:
REMARK  status: ('A' for Active; 'I' for Inactive)
ROOT
ATOM      1  O1  BZF d   1      -0.177   0.938   0.907  0.00  0.00    -0.204 OA
ATOM      2  C2  BZF d   1       0.675   1.195  -0.150  0.00  0.00     0.174 A 
ATOM      3  C3  BZF d   1       0.903   0.074  -0.864  0.00  0.00    -0.012 A 
ATOM      4  C3A BZF d   1       0.073  -0.927  -0.268  0.00  0.00    -0.107 A 
ATOM      5  C4  BZF d   1      -0.152  -2.246  -0.543  0.00  0.00     0.055 A 
ATOM      6  C5  BZF d   1      -0.967  -2.961   0.277  0.00  0.00    -0.016 A 
ATOM      7  C6  BZF d   1      -1.567  -2.393   1.380  0.00  0.00     0.022 A 
ATOM      8  C7  BZF d   1      -1.378  -1.087   1.691  0.00  0.00     0.029 A 
ATOM      9  C7A BZF d   1      -0.582  -0.353   0.846  0.00  0.00     0.058 A 
ENDROOT
TORSDOF 0
ENDMDL
