MODEL 1
REMARK minimizedAffinity -4.03155375
REMARK minimizedRMSD -1
REMARK  0 active torsions:
REMARK  status: ('A' for Active; 'I' for Inactive)
ROOT
ATOM      1  O1  BZF d   1       0.332  -0.196  -0.838  0.00  0.00    -0.204 OA
ATOM      2  C2  BZF d   1      -0.041   0.541   0.269  0.00  0.00     0.174 A 
ATOM      3  C3  BZF d   1      -0.679  -0.236   1.168  0.00  0.00    -0.012 A 
ATOM      4  C3A BZF d   1      -0.626  -1.559   0.627  0.00  0.00    -0.107 A 
ATOM      5  C4  BZF d   1      -1.074  -2.772   1.066  0.00  0.00     0.055 A 
ATOM      6  C5  BZF d   1      -0.926  -3.860   0.265  0.00  0.00    -0.016 A 
ATOM      7  C6  BZF d   1      -0.340  -3.771  -0.981  0.00  0.00     0.022 A 
ATOM      8  C7  BZF d   1       0.125  -2.590  -1.457  0.00  0.00     0.029 A 
ATOM      9  C7A BZF d   1       0.006  -1.495  -0.637  0.00  0.00     0.058 A 
ENDROOT
TORSDOF 0
ENDMDL
