MODEL 1
REMARK minimizedAffinity -5.64480114
REMARK minimizedRMSD -1
REMARK  0 active torsions:
REMARK  status: ('A' for Active; 'I' for Inactive)
ROOT
ATOM      1  O1  BZF d   1       0.284  -0.525  -2.250  0.00  0.00    -0.204 OA
ATOM      2  C2  BZF d   1       0.056   0.731  -1.721  0.00  0.00     0.174 A 
ATOM      3  C3  BZF d   1      -0.321   0.645  -0.429  0.00  0.00    -0.012 A 
ATOM      4  C3A BZF d   1      -0.240  -0.747  -0.106  0.00  0.00    -0.107 A 
ATOM      5  C4  BZF d   1      -0.475  -1.461   1.034  0.00  0.00     0.055 A 
ATOM      6  C5  BZF d   1      -0.374  -2.815   0.998  0.00  0.00    -0.016 A 
ATOM      7  C6  BZF d   1      -0.045  -3.488  -0.161  0.00  0.00     0.022 A 
ATOM      8  C7  BZF d   1       0.202  -2.823  -1.316  0.00  0.00     0.029 A 
ATOM      9  C7A BZF d   1       0.133  -1.451  -1.274  0.00  0.00     0.058 A 
ENDROOT
TORSDOF 0
ENDMDL
