MODEL 1
REMARK minimizedAffinity 1.34215832
REMARK minimizedRMSD -1
REMARK  0 active torsions:
REMARK  status: ('A' for Active; 'I' for Inactive)
ROOT
ATOM      1  N1  IND d   1       0.636   3.812  -2.981  0.00  0.00    -0.196 N 
ATOM      2  C2  IND d   1       0.364   3.190  -4.168  0.00  0.00     0.054 A 
ATOM      3  C3  IND d   1       0.979   1.987  -4.221  0.00  0.00    -0.031 A 
ATOM      4  C4  IND d   1       2.396   0.795  -2.432  0.00  0.00     0.051 A 
ATOM      5  C5  IND d   1       2.951   0.981  -1.197  0.00  0.00    -0.031 A 
ATOM      6  C6  IND d   1       2.757   2.143  -0.478  0.00  0.00     0.015 A 
ATOM      7  C7  IND d   1       1.987   3.161  -0.965  0.00  0.00    -0.016 A 
ATOM      8  C8  IND d   1       1.427   2.979  -2.221  0.00  0.00    -0.047 A 
ATOM      9  C9  IND d   1       1.656   1.820  -2.974  0.00  0.00    -0.096 A 
ATOM     10  HN1 IND d   1       0.358   4.591  -2.748  0.00  0.00     0.298 HD
ENDROOT
TORSDOF 0
ENDMDL
