MODEL 1
REMARK minimizedAffinity 9.51461887
REMARK minimizedRMSD -1
REMARK  0 active torsions:
REMARK  status: ('A' for Active; 'I' for Inactive)
ROOT
ATOM      1  N1  IND d   1       1.090  -1.581  -0.587  0.00  0.00    -0.196 N 
ATOM      2  C2  IND d   1       2.229  -1.032  -1.107  0.00  0.00     0.054 A 
ATOM      3  C3  IND d   1       3.000  -0.525  -0.119  0.00  0.00    -0.031 A 
ATOM      4  C4  IND d   1       2.635  -0.575   2.429  0.00  0.00     0.051 A 
ATOM      5  C5  IND d   1       1.722  -0.935   3.380  0.00  0.00    -0.031 A 
ATOM      6  C6  IND d   1       0.528  -1.544   3.050  0.00  0.00     0.015 A 
ATOM      7  C7  IND d   1       0.207  -1.827   1.753  0.00  0.00    -0.016 A 
ATOM      8  C8  IND d   1       1.129  -1.456   0.784  0.00  0.00    -0.047 A 
ATOM      9  C9  IND d   1       2.323  -0.799   1.109  0.00  0.00    -0.096 A 
ATOM     10  HN1 IND d   1       0.455  -1.943  -1.041  0.00  0.00     0.298 HD
ENDROOT
TORSDOF 0
ENDMDL
