MODEL 1
REMARK minimizedAffinity 5.00940371
REMARK minimizedRMSD -1
REMARK  0 active torsions:
REMARK  status: ('A' for Active; 'I' for Inactive)
ROOT
ATOM      1  N1  IND d   1       1.016  -1.008  -1.656  0.00  0.00    -0.196 N 
ATOM      2  C2  IND d   1       1.677  -1.408  -0.528  0.00  0.00     0.054 A 
ATOM      3  C3  IND d   1       2.277  -0.352   0.066  0.00  0.00    -0.031 A 
ATOM      4  C4  IND d   1       2.221   2.138  -0.584  0.00  0.00     0.051 A 
ATOM      5  C5  IND d   1       1.777   2.988  -1.559  0.00  0.00    -0.031 A 
ATOM      6  C6  IND d   1       1.040   2.540  -2.636  0.00  0.00     0.015 A 
ATOM      7  C7  IND d   1       0.708   1.222  -2.773  0.00  0.00    -0.016 A 
ATOM      8  C8  IND d   1       1.163   0.356  -1.789  0.00  0.00    -0.047 A 
ATOM      9  C9  IND d   1       1.947   0.798  -0.716  0.00  0.00    -0.096 A 
ATOM     10  HN1 IND d   1       0.583  -1.521  -2.192  0.00  0.00     0.298 HD
ENDROOT
TORSDOF 0
ENDMDL
