MODEL 1
REMARK minimizedAffinity 1.07303548
REMARK minimizedRMSD -1
REMARK  0 active torsions:
REMARK  status: ('A' for Active; 'I' for Inactive)
ROOT
ATOM      1  N1  IND d   1       1.995   1.988  -3.113  0.00  0.00    -0.196 N 
ATOM      2  C2  IND d   1       1.266   2.886  -2.385  0.00  0.00     0.054 A 
ATOM      3  C3  IND d   1       0.949   2.366  -1.178  0.00  0.00    -0.031 A 
ATOM      4  C4  IND d   1       1.608   0.100  -0.149  0.00  0.00     0.051 A 
ATOM      5  C5  IND d   1       2.238  -1.075  -0.446  0.00  0.00    -0.031 A 
ATOM      6  C6  IND d   1       2.834  -1.293  -1.672  0.00  0.00     0.015 A 
ATOM      7  C7  IND d   1       2.832  -0.335  -2.645  0.00  0.00    -0.016 A 
ATOM      8  C8  IND d   1       2.187   0.857  -2.349  0.00  0.00    -0.047 A 
ATOM      9  C9  IND d   1       1.543   1.068  -1.123  0.00  0.00    -0.096 A 
ATOM     10  HN1 IND d   1       2.286   2.109  -3.913  0.00  0.00     0.298 HD
ENDROOT
TORSDOF 0
ENDMDL
