MODEL 1
REMARK minimizedAffinity 7.60745764
REMARK minimizedRMSD -1
REMARK  0 active torsions:
REMARK  status: ('A' for Active; 'I' for Inactive)
ROOT
ATOM      1  N1  IND d   1       1.146  -1.366  -0.505  0.00  0.00    -0.196 N 
ATOM      2  C2  IND d   1       2.486  -1.325  -0.772  0.00  0.00     0.054 A 
ATOM      3  C3  IND d   1       3.182  -1.049   0.354  0.00  0.00    -0.031 A 
ATOM      4  C4  IND d   1       2.333  -0.729   2.764  0.00  0.00     0.051 A 
ATOM      5  C5  IND d   1       1.184  -0.640   3.498  0.00  0.00    -0.031 A 
ATOM      6  C6  IND d   1      -0.062  -0.794   2.925  0.00  0.00     0.015 A 
ATOM      7  C7  IND d   1      -0.204  -1.056   1.592  0.00  0.00    -0.016 A 
ATOM      8  C8  IND d   1       0.960  -1.140   0.841  0.00  0.00    -0.047 A 
ATOM      9  C9  IND d   1       2.225  -0.942   1.410  0.00  0.00    -0.096 A 
ATOM     10  HN1 IND d   1       0.524  -1.509  -1.081  0.00  0.00     0.298 HD
ENDROOT
TORSDOF 0
ENDMDL
