MODEL 1
REMARK minimizedAffinity 7.47357178
REMARK minimizedRMSD -1
REMARK  0 active torsions:
REMARK  status: ('A' for Active; 'I' for Inactive)
ROOT
ATOM      1  N1  IND d   1      -1.977  -2.719   0.648  0.00  0.00    -0.196 N 
ATOM      2  C2  IND d   1      -2.968  -1.813   0.389  0.00  0.00     0.054 A 
ATOM      3  C3  IND d   1      -2.716  -0.646   1.024  0.00  0.00    -0.031 A 
ATOM      4  C4  IND d   1      -0.687   0.032   2.456  0.00  0.00     0.051 A 
ATOM      5  C5  IND d   1       0.460  -0.470   3.006  0.00  0.00    -0.031 A 
ATOM      6  C6  IND d   1       0.862  -1.772   2.791  0.00  0.00     0.015 A 
ATOM      7  C7  IND d   1       0.135  -2.622   2.005  0.00  0.00    -0.016 A 
ATOM      8  C8  IND d   1      -1.033  -2.118   1.452  0.00  0.00    -0.047 A 
ATOM      9  C9  IND d   1      -1.468  -0.810   1.701  0.00  0.00    -0.096 A 
ATOM     10  HN1 IND d   1      -1.948  -3.527   0.358  0.00  0.00     0.298 HD
ENDROOT
TORSDOF 0
ENDMDL
