MODEL 1
REMARK minimizedAffinity 12.3220243
REMARK minimizedRMSD -1
REMARK  0 active torsions:
REMARK  status: ('A' for Active; 'I' for Inactive)
ROOT
ATOM      1  C   UNL d   1      -2.584   3.397   5.853  0.00  0.00     0.077 C 
ATOM      2  C1  UNL d   1      -1.574   3.190   4.765  0.00  0.00    -0.074 A 
ATOM      3  C2  UNL d   1      -0.366   3.895   4.761  0.00  0.00    -0.005 A 
ATOM      4  C3  UNL d   1       0.568   3.684   3.747  0.00  0.00     0.006 A 
ATOM      5  C4  UNL d   1       0.305   2.768   2.728  0.00  0.00    -0.005 A 
ATOM      6  C5  UNL d   1      -0.897   2.053   2.716  0.00  0.00    -0.074 A 
ATOM      7  C6  UNL d   1      -1.191   1.057   1.634  0.00  0.00     0.077 C 
ATOM      8  C7  UNL d   1      -1.827   2.265   3.742  0.00  0.00    -0.001 A 
ENDROOT
TORSDOF 0
ENDMDL
