MODEL 1
REMARK minimizedAffinity 13.9517918
REMARK minimizedRMSD -1
REMARK  0 active torsions:
REMARK  status: ('A' for Active; 'I' for Inactive)
ROOT
ATOM      1  C   UNL d   1       1.228  -3.502  -2.675  0.00  0.00     0.077 C 
ATOM      2  C1  UNL d   1       1.601  -4.378  -3.833  0.00  0.00    -0.074 A 
ATOM      3  C2  UNL d   1       0.630  -4.842  -4.726  0.00  0.00    -0.005 A 
ATOM      4  C3  UNL d   1       0.994  -5.649  -5.804  0.00  0.00     0.006 A 
ATOM      5  C4  UNL d   1       2.331  -6.000  -5.999  0.00  0.00    -0.005 A 
ATOM      6  C5  UNL d   1       3.316  -5.546  -5.116  0.00  0.00    -0.074 A 
ATOM      7  C6  UNL d   1       4.758  -5.906  -5.317  0.00  0.00     0.077 C 
ATOM      8  C7  UNL d   1       2.943  -4.729  -4.040  0.00  0.00    -0.001 A 
ENDROOT
TORSDOF 0
ENDMDL
