MODEL 1
REMARK minimizedAffinity 4.23871946
REMARK minimizedRMSD -1
REMARK  0 active torsions:
REMARK  status: ('A' for Active; 'I' for Inactive)
ROOT
ATOM      1  C   UNL d   1      -1.342   3.262   5.008  0.00  0.00     0.077 C 
ATOM      2  C1  UNL d   1      -0.638   3.080   3.696  0.00  0.00    -0.074 A 
ATOM      3  C2  UNL d   1       0.401   3.934   3.313  0.00  0.00    -0.005 A 
ATOM      4  C3  UNL d   1       1.052   3.746   2.094  0.00  0.00     0.006 A 
ATOM      5  C4  UNL d   1       0.672   2.704   1.247  0.00  0.00    -0.005 A 
ATOM      6  C5  UNL d   1      -0.364   1.839   1.614  0.00  0.00    -0.074 A 
ATOM      7  C6  UNL d   1      -0.778   0.708   0.721  0.00  0.00     0.077 C 
ATOM      8  C7  UNL d   1      -1.009   2.030   2.844  0.00  0.00    -0.001 A 
ENDROOT
TORSDOF 0
ENDMDL
