MODEL 1
REMARK minimizedAffinity 2.25278497
REMARK minimizedRMSD -1
REMARK  0 active torsions:
REMARK  status: ('A' for Active; 'I' for Inactive)
ROOT
ATOM      1  C   UNL d   1      -2.243   0.739   1.078  0.00  0.00     0.077 C 
ATOM      2  C1  UNL d   1      -1.289   1.706   1.713  0.00  0.00    -0.074 A 
ATOM      3  C2  UNL d   1      -0.141   2.132   1.037  0.00  0.00    -0.005 A 
ATOM      4  C3  UNL d   1       0.732   3.039   1.637  0.00  0.00     0.006 A 
ATOM      5  C4  UNL d   1       0.467   3.529   2.916  0.00  0.00    -0.005 A 
ATOM      6  C5  UNL d   1      -0.676   3.115   3.608  0.00  0.00    -0.074 A 
ATOM      7  C6  UNL d   1      -0.980   3.639   4.980  0.00  0.00     0.077 C 
ATOM      8  C7  UNL d   1      -1.552   2.208   2.996  0.00  0.00    -0.001 A 
ENDROOT
TORSDOF 0
ENDMDL
