MODEL 1
REMARK minimizedAffinity 4.11984873
REMARK minimizedRMSD -1
REMARK  0 active torsions:
REMARK  status: ('A' for Active; 'I' for Inactive)
ROOT
ATOM      1  C   UNL d   1       1.792  -5.680  -5.984  0.00  0.00     0.077 C 
ATOM      2  C1  UNL d   1       2.858  -5.776  -4.934  0.00  0.00    -0.074 A 
ATOM      3  C2  UNL d   1       4.212  -5.782  -5.283  0.00  0.00    -0.005 A 
ATOM      4  C3  UNL d   1       5.193  -5.862  -4.294  0.00  0.00     0.006 A 
ATOM      5  C4  UNL d   1       4.829  -5.936  -2.948  0.00  0.00    -0.005 A 
ATOM      6  C5  UNL d   1       3.480  -5.930  -2.581  0.00  0.00    -0.074 A 
ATOM      7  C6  UNL d   1       3.073  -5.999  -1.139  0.00  0.00     0.077 C 
ATOM      8  C7  UNL d   1       2.501  -5.842  -3.580  0.00  0.00    -0.001 A 
ENDROOT
TORSDOF 0
ENDMDL
