MODEL 1
REMARK minimizedAffinity 4.41132545
REMARK minimizedRMSD -1
REMARK  0 active torsions:
REMARK  status: ('A' for Active; 'I' for Inactive)
ROOT
ATOM      1  C   UNL d   1       0.060   0.810   0.720  0.00  0.00     0.077 C 
ATOM      2  C1  UNL d   1      -0.095   2.048   1.553  0.00  0.00    -0.074 A 
ATOM      3  C2  UNL d   1      -0.825   2.024   2.746  0.00  0.00    -0.005 A 
ATOM      4  C3  UNL d   1      -0.952   3.181   3.515  0.00  0.00     0.006 A 
ATOM      5  C4  UNL d   1      -0.353   4.371   3.100  0.00  0.00    -0.005 A 
ATOM      6  C5  UNL d   1       0.381   4.413   1.910  0.00  0.00    -0.074 A 
ATOM      7  C6  UNL d   1       1.040   5.681   1.454  0.00  0.00     0.077 C 
ATOM      8  C7  UNL d   1       0.511   3.245   1.147  0.00  0.00    -0.001 A 
ENDROOT
TORSDOF 0
ENDMDL
