MODEL 1
REMARK minimizedAffinity 8.77854729
REMARK minimizedRMSD -1
REMARK  0 active torsions:
REMARK  status: ('A' for Active; 'I' for Inactive)
ROOT
ATOM      1  C   UNL d   1      -0.046   0.319   0.064  0.00  0.00     0.077 C 
ATOM      2  C1  UNL d   1      -0.708  -0.988   0.387  0.00  0.00    -0.074 A 
ATOM      3  C2  UNL d   1      -0.637  -1.530   1.674  0.00  0.00    -0.005 A 
ATOM      4  C3  UNL d   1      -1.266  -2.742   1.961  0.00  0.00     0.006 A 
ATOM      5  C4  UNL d   1      -1.969  -3.422   0.967  0.00  0.00    -0.005 A 
ATOM      6  C5  UNL d   1      -2.051  -2.895  -0.326  0.00  0.00    -0.074 A 
ATOM      7  C6  UNL d   1      -2.811  -3.608  -1.404  0.00  0.00     0.077 C 
ATOM      8  C7  UNL d   1      -1.423  -1.673  -0.605  0.00  0.00    -0.001 A 
ENDROOT
TORSDOF 0
ENDMDL
