MODEL 1
REMARK minimizedAffinity -2.38009977
REMARK minimizedRMSD -1
REMARK  0 active torsions:
REMARK  status: ('A' for Active; 'I' for Inactive)
ROOT
ATOM      1  C   UNL d   1       3.332   3.000   1.488  0.00  0.00     0.077 C 
ATOM      2  C1  UNL d   1       1.841   2.847   1.536  0.00  0.00    -0.074 A 
ATOM      3  C2  UNL d   1       1.164   2.096   0.570  0.00  0.00    -0.005 A 
ATOM      4  C3  UNL d   1      -0.223   1.955   0.633  0.00  0.00     0.006 A 
ATOM      5  C4  UNL d   1      -0.945   2.563   1.661  0.00  0.00    -0.005 A 
ATOM      6  C5  UNL d   1      -0.285   3.318   2.636  0.00  0.00    -0.074 A 
ATOM      7  C6  UNL d   1      -1.045   3.970   3.752  0.00  0.00     0.077 C 
ATOM      8  C7  UNL d   1       1.109   3.449   2.570  0.00  0.00    -0.001 A 
ENDROOT
TORSDOF 0
ENDMDL
