MODEL 1
REMARK minimizedAffinity -3.75785494
REMARK minimizedRMSD -1
REMARK  0 active torsions:
REMARK  status: ('A' for Active; 'I' for Inactive)
ROOT
ATOM      1  C   UNL d   1      -4.984  -0.564   3.928  0.00  0.00     0.077 C 
ATOM      2  C1  UNL d   1      -3.868  -0.547   2.926  0.00  0.00    -0.074 A 
ATOM      3  C2  UNL d   1      -3.737   0.505   2.014  0.00  0.00    -0.005 A 
ATOM      4  C3  UNL d   1      -2.689   0.512   1.094  0.00  0.00     0.006 A 
ATOM      5  C4  UNL d   1      -1.762  -0.531   1.077  0.00  0.00    -0.005 A 
ATOM      6  C5  UNL d   1      -1.876  -1.591   1.983  0.00  0.00    -0.074 A 
ATOM      7  C6  UNL d   1      -0.883  -2.715   1.985  0.00  0.00     0.077 C 
ATOM      8  C7  UNL d   1      -2.929  -1.587   2.908  0.00  0.00    -0.001 A 
ENDROOT
TORSDOF 0
ENDMDL
