MODEL 1
REMARK minimizedAffinity -1.08397031
REMARK minimizedRMSD -1
REMARK  0 active torsions:
REMARK  status: ('A' for Active; 'I' for Inactive)
ROOT
ATOM      1  C   UNL d   1       6.000   2.786  -6.000  0.00  0.00     0.077 C 
ATOM      2  C1  UNL d   1       4.701   2.814  -5.251  0.00  0.00    -0.074 A 
ATOM      3  C2  UNL d   1       4.658   2.567  -3.875  0.00  0.00    -0.005 A 
ATOM      4  C3  UNL d   1       3.444   2.606  -3.191  0.00  0.00     0.006 A 
ATOM      5  C4  UNL d   1       2.261   2.892  -3.874  0.00  0.00    -0.005 A 
ATOM      6  C5  UNL d   1       2.284   3.142  -5.250  0.00  0.00    -0.074 A 
ATOM      7  C6  UNL d   1       1.023   3.460  -5.997  0.00  0.00     0.077 C 
ATOM      8  C7  UNL d   1       3.509   3.107  -5.929  0.00  0.00    -0.001 A 
ENDROOT
TORSDOF 0
ENDMDL
