MODEL 1
REMARK minimizedAffinity -3.89980125
REMARK minimizedRMSD -1
REMARK  0 active torsions:
REMARK  status: ('A' for Active; 'I' for Inactive)
ROOT
ATOM      1  C   UNL d   1       5.999   4.531  -2.485  0.00  0.00     0.077 C 
ATOM      2  C1  UNL d   1       5.340   3.981  -3.715  0.00  0.00    -0.074 A 
ATOM      3  C2  UNL d   1       5.962   2.990  -4.482  0.00  0.00    -0.005 A 
ATOM      4  C3  UNL d   1       5.333   2.481  -5.618  0.00  0.00     0.006 A 
ATOM      5  C4  UNL d   1       4.078   2.957  -5.999  0.00  0.00    -0.005 A 
ATOM      6  C5  UNL d   1       3.440   3.947  -5.244  0.00  0.00    -0.074 A 
ATOM      7  C6  UNL d   1       2.087   4.463  -5.634  0.00  0.00     0.077 C 
ATOM      8  C7  UNL d   1       4.076   4.449  -4.100  0.00  0.00    -0.001 A 
ENDROOT
TORSDOF 0
ENDMDL
