MODEL 1
REMARK minimizedAffinity -2.3050437
REMARK minimizedRMSD -1
REMARK  0 active torsions:
REMARK  status: ('A' for Active; 'I' for Inactive)
ROOT
ATOM      1  C   UNL d   1       6.000   2.987  -5.855  0.00  0.00     0.077 C 
ATOM      2  C1  UNL d   1       4.736   2.932  -5.050  0.00  0.00    -0.074 A 
ATOM      3  C2  UNL d   1       4.771   2.983  -3.652  0.00  0.00    -0.005 A 
ATOM      4  C3  UNL d   1       3.587   2.941  -2.917  0.00  0.00     0.006 A 
ATOM      5  C4  UNL d   1       2.357   2.847  -3.570  0.00  0.00    -0.005 A 
ATOM      6  C5  UNL d   1       2.302   2.795  -4.967  0.00  0.00    -0.074 A 
ATOM      7  C6  UNL d   1       0.988   2.703  -5.684  0.00  0.00     0.077 C 
ATOM      8  C7  UNL d   1       3.496   2.845  -5.699  0.00  0.00    -0.001 A 
ENDROOT
TORSDOF 0
ENDMDL
