MODEL 1
REMARK minimizedAffinity 2.2223928
REMARK minimizedRMSD -1
REMARK  0 active torsions:
REMARK  status: ('A' for Active; 'I' for Inactive)
ROOT
ATOM      1  C   UNL d   1       1.098  -0.250  -0.385  0.00  0.00     0.077 C 
ATOM      2  C1  UNL d   1       0.220   0.733   0.332  0.00  0.00    -0.074 A 
ATOM      3  C2  UNL d   1      -1.148   0.812   0.053  0.00  0.00    -0.005 A 
ATOM      4  C3  UNL d   1      -1.953   1.725   0.734  0.00  0.00     0.006 A 
ATOM      5  C4  UNL d   1      -1.399   2.566   1.700  0.00  0.00    -0.005 A 
ATOM      6  C5  UNL d   1      -0.033   2.500   1.993  0.00  0.00    -0.074 A 
ATOM      7  C6  UNL d   1       0.576   3.390   3.035  0.00  0.00     0.077 C 
ATOM      8  C7  UNL d   1       0.768   1.576   1.309  0.00  0.00    -0.001 A 
ENDROOT
TORSDOF 0
ENDMDL
