MODEL 1
REMARK minimizedAffinity 5.79856348
REMARK minimizedRMSD -1
REMARK  0 active torsions:
REMARK  status: ('A' for Active; 'I' for Inactive)
ROOT
ATOM      1  C   UNL d   1       0.764  -2.161   0.084  0.00  0.00     0.077 C 
ATOM      2  C1  UNL d   1       0.123  -2.965  -1.008  0.00  0.00    -0.074 A 
ATOM      3  C2  UNL d   1       0.862  -3.392  -2.115  0.00  0.00    -0.005 A 
ATOM      4  C3  UNL d   1       0.254  -4.147  -3.118  0.00  0.00     0.006 A 
ATOM      5  C4  UNL d   1      -1.097  -4.481  -3.025  0.00  0.00    -0.005 A 
ATOM      6  C5  UNL d   1      -1.853  -4.063  -1.924  0.00  0.00    -0.074 A 
ATOM      7  C6  UNL d   1      -3.304  -4.422  -1.803  0.00  0.00     0.077 C 
ATOM      8  C7  UNL d   1      -1.233  -3.311  -0.917  0.00  0.00    -0.001 A 
ENDROOT
TORSDOF 0
ENDMDL
