MODEL 1
REMARK minimizedAffinity -2.41575313
REMARK minimizedRMSD -1
REMARK  0 active torsions:
REMARK  status: ('A' for Active; 'I' for Inactive)
ROOT
ATOM      1  N1  IND d   1       0.878  -0.231  -0.566  0.00  0.00    -0.196 N 
ATOM      2  C2  IND d   1      -0.083  -0.912  -1.261  0.00  0.00     0.054 A 
ATOM      3  C3  IND d   1      -1.283  -0.781  -0.654  0.00  0.00    -0.031 A 
ATOM      4  C4  IND d   1      -1.922   0.589   1.431  0.00  0.00     0.051 A 
ATOM      5  C5  IND d   1      -1.378   1.350   2.428  0.00  0.00    -0.031 A 
ATOM      6  C6  IND d   1      -0.028   1.631   2.477  0.00  0.00     0.015 A 
ATOM      7  C7  IND d   1       0.831   1.168   1.520  0.00  0.00    -0.016 A 
ATOM      8  C8  IND d   1       0.284   0.390   0.511  0.00  0.00    -0.047 A 
ATOM      9  C9  IND d   1      -1.079   0.066   0.479  0.00  0.00    -0.096 A 
ATOM     10  HN1 IND d   1       1.713  -0.195  -0.769  0.00  0.00     0.298 HD
ENDROOT
TORSDOF 0
ENDMDL
