MODEL 1
REMARK minimizedAffinity -5.03862953
REMARK minimizedRMSD -1
REMARK  0 active torsions:
REMARK  status: ('A' for Active; 'I' for Inactive)
ROOT
ATOM      1  N1  IND d   1       1.230  -1.064   0.188  0.00  0.00    -0.196 N 
ATOM      2  C2  IND d   1       0.332  -0.934  -0.835  0.00  0.00     0.054 A 
ATOM      3  C3  IND d   1      -0.762  -0.258  -0.418  0.00  0.00    -0.031 A 
ATOM      4  C4  IND d   1      -1.247   0.816   1.871  0.00  0.00     0.051 A 
ATOM      5  C5  IND d   1      -0.741   0.931   3.135  0.00  0.00    -0.031 A 
ATOM      6  C6  IND d   1       0.474   0.379   3.488  0.00  0.00     0.015 A 
ATOM      7  C7  IND d   1       1.236  -0.303   2.583  0.00  0.00    -0.016 A 
ATOM      8  C8  IND d   1       0.722  -0.428   1.300  0.00  0.00    -0.047 A 
ATOM      9  C9  IND d   1      -0.529   0.093   0.947  0.00  0.00    -0.096 A 
ATOM     10  HN1 IND d   1       1.985  -1.473   0.144  0.00  0.00     0.298 HD
ENDROOT
TORSDOF 0
ENDMDL
