MODEL 1
REMARK minimizedAffinity -4.33148479
REMARK minimizedRMSD -1
REMARK  0 active torsions:
REMARK  status: ('A' for Active; 'I' for Inactive)
ROOT
ATOM      1  N1  IND d   1       1.355  -0.768  -0.372  0.00  0.00    -0.196 N 
ATOM      2  C2  IND d   1       0.405  -0.956  -1.338  0.00  0.00     0.054 A 
ATOM      3  C3  IND d   1      -0.789  -0.475  -0.923  0.00  0.00    -0.031 A 
ATOM      4  C4  IND d   1      -1.390   0.750   1.260  0.00  0.00     0.051 A 
ATOM      5  C5  IND d   1      -0.865   1.124   2.465  0.00  0.00    -0.031 A 
ATOM      6  C6  IND d   1       0.455   0.884   2.792  0.00  0.00     0.015 A 
ATOM      7  C7  IND d   1       1.304   0.268   1.916  0.00  0.00    -0.016 A 
ATOM      8  C8  IND d   1       0.773  -0.119   0.695  0.00  0.00    -0.047 A 
ATOM      9  C9  IND d   1      -0.576   0.083   0.375  0.00  0.00    -0.096 A 
ATOM     10  HN1 IND d   1       2.177  -1.014  -0.423  0.00  0.00     0.298 HD
ENDROOT
TORSDOF 0
ENDMDL
