MODEL 1
REMARK minimizedAffinity -5.63596916
REMARK minimizedRMSD -1
REMARK  0 active torsions:
REMARK  status: ('A' for Active; 'I' for Inactive)
ROOT
ATOM      1  N1  IND d   1       0.516   1.370  -4.890  0.00  0.00    -0.196 N 
ATOM      2  C2  IND d   1       1.439   1.045  -3.935  0.00  0.00     0.054 A 
ATOM      3  C3  IND d   1       1.164  -0.169  -3.408  0.00  0.00    -0.031 A 
ATOM      4  C4  IND d   1      -0.690  -1.841  -4.032  0.00  0.00     0.051 A 
ATOM      5  C5  IND d   1      -1.798  -1.976  -4.821  0.00  0.00    -0.031 A 
ATOM      6  C6  IND d   1      -2.198  -0.984  -5.693  0.00  0.00     0.015 A 
ATOM      7  C7  IND d   1      -1.495   0.181  -5.817  0.00  0.00    -0.016 A 
ATOM      8  C8  IND d   1      -0.374   0.324  -5.012  0.00  0.00    -0.047 A 
ATOM      9  C9  IND d   1       0.013  -0.662  -4.095  0.00  0.00    -0.096 A 
ATOM     10  HN1 IND d   1       0.494   2.103  -5.338  0.00  0.00     0.298 HD
ENDROOT
TORSDOF 0
ENDMDL
