MODEL 1
REMARK minimizedAffinity -4.24399805
REMARK minimizedRMSD -1
REMARK  0 active torsions:
REMARK  status: ('A' for Active; 'I' for Inactive)
ROOT
ATOM      1  N1  IND d   1      -0.856   0.373  -5.997  0.00  0.00    -0.196 N 
ATOM      2  C2  IND d   1      -1.842  -0.567  -5.880  0.00  0.00     0.054 A 
ATOM      3  C3  IND d   1      -1.667  -1.295  -4.755  0.00  0.00    -0.031 A 
ATOM      4  C4  IND d   1       0.110  -1.049  -2.908  0.00  0.00     0.051 A 
ATOM      5  C5  IND d   1       1.243  -0.355  -2.589  0.00  0.00    -0.031 A 
ATOM      6  C6  IND d   1       1.743   0.639  -3.405  0.00  0.00     0.015 A 
ATOM      7  C7  IND d   1       1.119   0.985  -4.570  0.00  0.00    -0.016 A 
ATOM      8  C8  IND d   1      -0.028   0.278  -4.900  0.00  0.00    -0.047 A 
ATOM      9  C9  IND d   1      -0.516  -0.761  -4.097  0.00  0.00    -0.096 A 
ATOM     10  HN1 IND d   1      -0.768   0.930  -6.646  0.00  0.00     0.298 HD
ENDROOT
TORSDOF 0
ENDMDL
