MODEL 1
REMARK minimizedAffinity -2.15198326
REMARK minimizedRMSD -1
REMARK  0 active torsions:
REMARK  status: ('A' for Active; 'I' for Inactive)
ROOT
ATOM      1  N1  IND d   1       2.334  -0.835  -1.486  0.00  0.00    -0.196 N 
ATOM      2  C2  IND d   1       1.359  -1.502  -0.798  0.00  0.00     0.054 A 
ATOM      3  C3  IND d   1       0.145  -1.246  -1.336  0.00  0.00    -0.031 A 
ATOM      4  C4  IND d   1      -0.463   0.156  -3.408  0.00  0.00     0.051 A 
ATOM      5  C5  IND d   1       0.085   0.988  -4.345  0.00  0.00    -0.031 A 
ATOM      6  C6  IND d   1       1.438   1.257  -4.379  0.00  0.00     0.015 A 
ATOM      7  C7  IND d   1       2.299   0.694  -3.480  0.00  0.00    -0.016 A 
ATOM      8  C8  IND d   1       1.746  -0.145  -2.523  0.00  0.00    -0.047 A 
ATOM      9  C9  IND d   1       0.368  -0.389  -2.458  0.00  0.00    -0.096 A 
ATOM     10  HN1 IND d   1       3.174  -0.844  -1.302  0.00  0.00     0.298 HD
ENDROOT
TORSDOF 0
ENDMDL
