MODEL 1
REMARK minimizedAffinity 0.156717166
REMARK minimizedRMSD -1
REMARK  0 active torsions:
REMARK  status: ('A' for Active; 'I' for Inactive)
ROOT
ATOM      1  N1  IND d   1      -0.851  -0.985   0.404  0.00  0.00    -0.196 N 
ATOM      2  C2  IND d   1      -0.231  -0.179  -0.509  0.00  0.00     0.054 A 
ATOM      3  C3  IND d   1       0.107   1.001   0.058  0.00  0.00    -0.031 A 
ATOM      4  C4  IND d   1      -0.168   1.782   2.495  0.00  0.00     0.051 A 
ATOM      5  C5  IND d   1      -0.712   1.408   3.692  0.00  0.00    -0.031 A 
ATOM      6  C6  IND d   1      -1.340   0.190   3.858  0.00  0.00     0.015 A 
ATOM      7  C7  IND d   1      -1.438  -0.706   2.832  0.00  0.00    -0.016 A 
ATOM      8  C8  IND d   1      -0.894  -0.326   1.613  0.00  0.00    -0.047 A 
ATOM      9  C9  IND d   1      -0.293   0.925   1.427  0.00  0.00    -0.096 A 
ATOM     10  HN1 IND d   1      -1.162  -1.772   0.250  0.00  0.00     0.298 HD
ENDROOT
TORSDOF 0
ENDMDL
