MODEL 1
REMARK minimizedAffinity -3.53067183
REMARK minimizedRMSD -1
REMARK  0 active torsions:
REMARK  status: ('A' for Active; 'I' for Inactive)
ROOT
ATOM      1  N1  IND d   1       1.760  -0.777   0.007  0.00  0.00    -0.196 N 
ATOM      2  C2  IND d   1       1.092  -1.250  -1.088  0.00  0.00     0.054 A 
ATOM      3  C3  IND d   1      -0.217  -0.919  -1.020  0.00  0.00    -0.031 A 
ATOM      4  C4  IND d   1      -1.459   0.482   0.747  0.00  0.00     0.051 A 
ATOM      5  C5  IND d   1      -1.279   1.101   1.953  0.00  0.00    -0.031 A 
ATOM      6  C6  IND d   1      -0.052   1.128   2.582  0.00  0.00     0.015 A 
ATOM      7  C7  IND d   1       1.049   0.545   2.022  0.00  0.00    -0.016 A 
ATOM      8  C8  IND d   1       0.869  -0.090   0.802  0.00  0.00    -0.047 A 
ATOM      9  C9  IND d   1      -0.384  -0.158   0.178  0.00  0.00    -0.096 A 
ATOM     10  HN1 IND d   1       2.597  -0.889   0.171  0.00  0.00     0.298 HD
ENDROOT
TORSDOF 0
ENDMDL
