MODEL 1
REMARK minimizedAffinity -2.59450555
REMARK minimizedRMSD -1
REMARK  0 active torsions:
REMARK  status: ('A' for Active; 'I' for Inactive)
ROOT
ATOM      1  N1  IND d   1      -1.811   0.241   1.306  0.00  0.00    -0.196 N 
ATOM      2  C2  IND d   1      -1.557   0.862   2.497  0.00  0.00     0.054 A 
ATOM      3  C3  IND d   1      -0.274   0.657   2.871  0.00  0.00    -0.031 A 
ATOM      4  C4  IND d   1       1.613  -0.580   1.632  0.00  0.00     0.051 A 
ATOM      5  C5  IND d   1       1.854  -1.343   0.524  0.00  0.00    -0.031 A 
ATOM      6  C6  IND d   1       0.868  -1.620  -0.400  0.00  0.00     0.015 A 
ATOM      7  C7  IND d   1      -0.401  -1.133  -0.255  0.00  0.00    -0.016 A 
ATOM      8  C8  IND d   1      -0.652  -0.364   0.872  0.00  0.00    -0.047 A 
ATOM      9  C9  IND d   1       0.335  -0.115   1.835  0.00  0.00    -0.096 A 
ATOM     10  HN1 IND d   1      -2.567   0.230   0.897  0.00  0.00     0.298 HD
ENDROOT
TORSDOF 0
ENDMDL
