MODEL 1
REMARK minimizedAffinity -4.058002
REMARK minimizedRMSD -1
REMARK  0 active torsions:
REMARK  status: ('A' for Active; 'I' for Inactive)
ROOT
ATOM      1  N1  IND d   1       1.349  -0.648  -0.107  0.00  0.00    -0.196 N 
ATOM      2  C2  IND d   1       0.633  -1.024  -1.208  0.00  0.00     0.054 A 
ATOM      3  C3  IND d   1      -0.663  -0.663  -1.072  0.00  0.00    -0.031 A 
ATOM      4  C4  IND d   1      -1.806   0.644   0.829  0.00  0.00     0.051 A 
ATOM      5  C5  IND d   1      -1.569   1.172   2.067  0.00  0.00    -0.031 A 
ATOM      6  C6  IND d   1      -0.322   1.122   2.655  0.00  0.00     0.015 A 
ATOM      7  C7  IND d   1       0.743   0.549   2.018  0.00  0.00    -0.016 A 
ATOM      8  C8  IND d   1       0.505   0.006   0.764  0.00  0.00    -0.047 A 
ATOM      9  C9  IND d   1      -0.769   0.016   0.180  0.00  0.00    -0.096 A 
ATOM     10  HN1 IND d   1       2.187  -0.794   0.021  0.00  0.00     0.298 HD
ENDROOT
TORSDOF 0
ENDMDL
