MODEL 1
REMARK minimizedAffinity -3.64974999
REMARK minimizedRMSD -1
REMARK  0 active torsions:
REMARK  status: ('A' for Active; 'I' for Inactive)
ROOT
ATOM      1  N1  IND d   1       1.421   0.186  -2.023  0.00  0.00    -0.196 N 
ATOM      2  C2  IND d   1       0.459  -0.469  -1.305  0.00  0.00     0.054 A 
ATOM      3  C3  IND d   1      -0.654  -0.637  -2.053  0.00  0.00    -0.031 A 
ATOM      4  C4  IND d   1      -1.081  -0.007  -4.513  0.00  0.00     0.051 A 
ATOM      5  C5  IND d   1      -0.513   0.643  -5.572  0.00  0.00    -0.031 A 
ATOM      6  C6  IND d   1       0.755   1.182  -5.503  0.00  0.00     0.015 A 
ATOM      7  C7  IND d   1       1.511   1.080  -4.369  0.00  0.00    -0.016 A 
ATOM      8  C8  IND d   1       0.934   0.428  -3.288  0.00  0.00    -0.047 A 
ATOM      9  C9  IND d   1      -0.369  -0.084  -3.339  0.00  0.00    -0.096 A 
ATOM     10  HN1 IND d   1       2.199   0.409  -1.732  0.00  0.00     0.298 HD
ENDROOT
TORSDOF 0
ENDMDL
