MODEL 1
REMARK minimizedAffinity 7.03465557
REMARK minimizedRMSD -1
REMARK  0 active torsions:
REMARK  status: ('A' for Active; 'I' for Inactive)
ROOT
ATOM      1  C   UNL d   1      -3.663   1.943  -2.922  0.00  0.00     0.020 A 
ATOM      2  C1  UNL d   1      -4.534   2.131  -1.850  0.00  0.00     0.020 A 
ATOM      3  C2  UNL d   1      -5.182   1.034  -1.276  0.00  0.00     0.034 A 
ATOM      4  C3  UNL d   1      -4.959  -0.254  -1.775  0.00  0.00     0.017 A 
ATOM      5  C4  UNL d   1      -4.085  -0.442  -2.851  0.00  0.00     0.017 A 
ATOM      6  C5  UNL d   1      -3.439   0.660  -3.422  0.00  0.00     0.034 A 
ATOM      7 Cl   UNL d   1      -3.760  -2.001  -3.521  0.00  0.00    -0.070 Cl
ATOM      8 Cl1  UNL d   1      -5.793  -1.564  -1.017  0.00  0.00    -0.070 Cl
ENDROOT
TORSDOF 0
ENDMDL
