MODEL 1
REMARK minimizedAffinity 8.15481758
REMARK minimizedRMSD -1
REMARK  0 active torsions:
REMARK  status: ('A' for Active; 'I' for Inactive)
ROOT
ATOM      1  C   UNL d   1      -4.879  -5.706  -5.818  0.00  0.00     0.020 A 
ATOM      2  C1  UNL d   1      -5.424  -4.435  -6.000  0.00  0.00     0.020 A 
ATOM      3  C2  UNL d   1      -5.260  -3.458  -5.015  0.00  0.00     0.034 A 
ATOM      4  C3  UNL d   1      -4.549  -3.750  -3.846  0.00  0.00     0.017 A 
ATOM      5  C4  UNL d   1      -4.002  -5.025  -3.665  0.00  0.00     0.017 A 
ATOM      6  C5  UNL d   1      -4.169  -6.000  -4.653  0.00  0.00     0.034 A 
ATOM      7 Cl   UNL d   1      -3.112  -5.460  -2.248  0.00  0.00    -0.070 Cl
ATOM      8 Cl1  UNL d   1      -4.385  -2.493  -2.671  0.00  0.00    -0.070 Cl
ENDROOT
TORSDOF 0
ENDMDL
