MODEL 1
REMARK minimizedAffinity 15.7745028
REMARK minimizedRMSD -1
REMARK  0 active torsions:
REMARK  status: ('A' for Active; 'I' for Inactive)
ROOT
ATOM      1  C   UNL d   1      -4.875  -0.544  -1.881  0.00  0.00     0.020 A 
ATOM      2  C1  UNL d   1      -4.552  -0.800  -3.213  0.00  0.00     0.020 A 
ATOM      3  C2  UNL d   1      -4.673   0.211  -4.168  0.00  0.00     0.034 A 
ATOM      4  C3  UNL d   1      -5.119   1.484  -3.792  0.00  0.00     0.017 A 
ATOM      5  C4  UNL d   1      -5.443   1.740  -2.455  0.00  0.00     0.017 A 
ATOM      6  C5  UNL d   1      -5.319   0.724  -1.503  0.00  0.00     0.034 A 
ATOM      7 Cl   UNL d   1      -6.000   3.285  -1.916  0.00  0.00    -0.070 Cl
ATOM      8 Cl1  UNL d   1      -5.245   2.687  -5.026  0.00  0.00    -0.070 Cl
ENDROOT
TORSDOF 0
ENDMDL
