MODEL 1
REMARK minimizedAffinity 11.398715
REMARK minimizedRMSD -1
REMARK  0 active torsions:
REMARK  status: ('A' for Active; 'I' for Inactive)
ROOT
ATOM      1  C   UNL d   1       2.142  -0.137   0.451  0.00  0.00     0.020 A 
ATOM      2  C1  UNL d   1       1.562   0.403   1.598  0.00  0.00     0.020 A 
ATOM      3  C2  UNL d   1       1.118  -0.440   2.620  0.00  0.00     0.034 A 
ATOM      4  C3  UNL d   1       1.255  -1.828   2.496  0.00  0.00     0.017 A 
ATOM      5  C4  UNL d   1       1.838  -2.369   1.345  0.00  0.00     0.017 A 
ATOM      6  C5  UNL d   1       2.280  -1.520   0.325  0.00  0.00     0.034 A 
ATOM      7 Cl   UNL d   1       2.041  -4.071   1.120  0.00  0.00    -0.070 Cl
ATOM      8 Cl1  UNL d   1       0.685  -2.810   3.798  0.00  0.00    -0.070 Cl
ENDROOT
TORSDOF 0
ENDMDL
