MODEL 1
REMARK minimizedAffinity 16.9426193
REMARK minimizedRMSD -1
REMARK  0 active torsions:
REMARK  status: ('A' for Active; 'I' for Inactive)
ROOT
ATOM      1  C   UNL d   1       5.693  -2.626   2.422  0.00  0.00     0.020 A 
ATOM      2  C1  UNL d   1       6.000  -3.956   2.135  0.00  0.00     0.020 A 
ATOM      3  C2  UNL d   1       4.988  -4.918   2.121  0.00  0.00     0.034 A 
ATOM      4  C3  UNL d   1       3.665  -4.553   2.394  0.00  0.00     0.017 A 
ATOM      5  C4  UNL d   1       3.358  -3.218   2.682  0.00  0.00     0.017 A 
ATOM      6  C5  UNL d   1       4.375  -2.258   2.695  0.00  0.00     0.034 A 
ATOM      7 Cl   UNL d   1       1.749  -2.690   3.029  0.00  0.00    -0.070 Cl
ATOM      8 Cl1  UNL d   1       2.465  -5.795   2.360  0.00  0.00    -0.070 Cl
ENDROOT
TORSDOF 0
ENDMDL
