MODEL 1
REMARK minimizedAffinity 13.2351227
REMARK minimizedRMSD -1
REMARK  0 active torsions:
REMARK  status: ('A' for Active; 'I' for Inactive)
ROOT
ATOM      1  C   UNL d   1      -5.261   3.235   2.210  0.00  0.00     0.020 A 
ATOM      2  C1  UNL d   1      -5.999   3.052   1.041  0.00  0.00     0.020 A 
ATOM      3  C2  UNL d   1      -5.358   2.656  -0.134  0.00  0.00     0.034 A 
ATOM      4  C3  UNL d   1      -3.975   2.441  -0.143  0.00  0.00     0.017 A 
ATOM      5  C4  UNL d   1      -3.235   2.625   1.031  0.00  0.00     0.017 A 
ATOM      6  C5  UNL d   1      -3.882   3.021   2.205  0.00  0.00     0.034 A 
ATOM      7 Cl   UNL d   1      -1.526   2.379   1.097  0.00  0.00    -0.070 Cl
ATOM      8 Cl1  UNL d   1      -3.247   1.952  -1.632  0.00  0.00    -0.070 Cl
ENDROOT
TORSDOF 0
ENDMDL
