MODEL 1
REMARK minimizedAffinity 9.01437473
REMARK minimizedRMSD -1
REMARK  0 active torsions:
REMARK  status: ('A' for Active; 'I' for Inactive)
ROOT
ATOM      1  C   UNL d   1      -4.963   3.692   1.712  0.00  0.00     0.020 A 
ATOM      2  C1  UNL d   1      -5.266   4.085   0.409  0.00  0.00     0.020 A 
ATOM      3  C2  UNL d   1      -4.308   3.960  -0.599  0.00  0.00     0.034 A 
ATOM      4  C3  UNL d   1      -3.042   3.440  -0.306  0.00  0.00     0.017 A 
ATOM      5  C4  UNL d   1      -2.738   3.046   1.002  0.00  0.00     0.017 A 
ATOM      6  C5  UNL d   1      -3.702   3.174   2.008  0.00  0.00     0.034 A 
ATOM      7 Cl   UNL d   1      -1.198   2.397   1.441  0.00  0.00    -0.070 Cl
ATOM      8 Cl1  UNL d   1      -1.906   3.313  -1.602  0.00  0.00    -0.070 Cl
ENDROOT
TORSDOF 0
ENDMDL
