MODEL 1
REMARK minimizedAffinity 6.57224941
REMARK minimizedRMSD -1
REMARK  0 active torsions:
REMARK  status: ('A' for Active; 'I' for Inactive)
ROOT
ATOM      1  C   UNL d   1      -1.825  -2.249   0.162  0.00  0.00     0.020 A 
ATOM      2  C1  UNL d   1      -1.745  -2.478  -1.211  0.00  0.00     0.020 A 
ATOM      3  C2  UNL d   1      -0.502  -2.476  -1.848  0.00  0.00     0.034 A 
ATOM      4  C3  UNL d   1       0.665  -2.244  -1.112  0.00  0.00     0.017 A 
ATOM      5  C4  UNL d   1       0.584  -2.014   0.267  0.00  0.00     0.017 A 
ATOM      6  C5  UNL d   1      -0.663  -2.018   0.899  0.00  0.00     0.034 A 
ATOM      7 Cl   UNL d   1       1.981  -1.721   1.242  0.00  0.00    -0.070 Cl
ATOM      8 Cl1  UNL d   1       2.168  -2.256  -1.964  0.00  0.00    -0.070 Cl
ENDROOT
TORSDOF 0
ENDMDL
