MODEL 1
REMARK minimizedAffinity 32.1486244
REMARK minimizedRMSD -1
REMARK  0 active torsions:
REMARK  status: ('A' for Active; 'I' for Inactive)
ROOT
ATOM      1  C   UNL d   1      -1.820  -2.041   4.005  0.00  0.00     0.124 A 
ATOM      2  C1  UNL d   1      -1.433  -2.552   2.773  0.00  0.00     0.062 A 
ATOM      3  C2  UNL d   1      -0.296  -2.062   2.138  0.00  0.00     0.162 A 
ATOM      4  C3  UNL d   1       0.464  -1.055   2.733  0.00  0.00    -0.034 A 
ATOM      5  C4  UNL d   1       0.068  -0.545   3.971  0.00  0.00     0.162 A 
ATOM      6  C5  UNL d   1      -1.069  -1.039   4.602  0.00  0.00     0.062 A 
ATOM      7  F   UNL d   1      -1.441  -0.544   5.792  0.00  0.00    -0.097 F 
ATOM      8  F1  UNL d   1       0.776   0.423   4.571  0.00  0.00    -0.096 F 
ATOM      9  I   UNL d   1       2.164  -0.319   1.785  0.00  0.00    -0.060 I 
ATOM     10  F2  UNL d   1       0.054  -2.574   0.948  0.00  0.00    -0.096 F 
ATOM     11  F3  UNL d   1      -2.157  -3.521   2.194  0.00  0.00    -0.097 F 
ATOM     12  F4  UNL d   1      -2.915  -2.514   4.614  0.00  0.00    -0.092 F 
ENDROOT
TORSDOF 0
ENDMDL
