MODEL 1
REMARK minimizedAffinity 34.3933258
REMARK minimizedRMSD -1
REMARK  0 active torsions:
REMARK  status: ('A' for Active; 'I' for Inactive)
ROOT
ATOM      1  C   UNL d   1       0.644  -0.043   4.696  0.00  0.00     0.124 A 
ATOM      2  C1  UNL d   1       0.125  -0.509   3.496  0.00  0.00     0.062 A 
ATOM      3  C2  UNL d   1       0.915  -0.526   2.351  0.00  0.00     0.162 A 
ATOM      4  C3  UNL d   1       2.234  -0.075   2.399  0.00  0.00    -0.034 A 
ATOM      5  C4  UNL d   1       2.749   0.393   3.609  0.00  0.00     0.162 A 
ATOM      6  C5  UNL d   1       1.955   0.408   4.751  0.00  0.00     0.062 A 
ATOM      7  F   UNL d   1       2.459   0.859   5.910  0.00  0.00    -0.097 F 
ATOM      8  F1  UNL d   1       4.014   0.833   3.691  0.00  0.00    -0.096 F 
ATOM      9  I   UNL d   1       3.419  -0.099   0.689  0.00  0.00    -0.060 I 
ATOM     10  F2  UNL d   1       0.387  -0.982   1.205  0.00  0.00    -0.096 F 
ATOM     11  F3  UNL d   1      -1.143  -0.944   3.440  0.00  0.00    -0.097 F 
ATOM     12  F4  UNL d   1      -0.119  -0.027   5.797  0.00  0.00    -0.092 F 
ENDROOT
TORSDOF 0
ENDMDL
