MODEL 1
REMARK minimizedAffinity 16.5366611
REMARK minimizedRMSD -1
REMARK  0 active torsions:
REMARK  status: ('A' for Active; 'I' for Inactive)
ROOT
ATOM      1  C   UNL d   1      -1.595  -1.940   4.269  0.00  0.00     0.124 A 
ATOM      2  C1  UNL d   1      -1.217  -2.507   3.060  0.00  0.00     0.062 A 
ATOM      3  C2  UNL d   1      -0.071  -2.062   2.407  0.00  0.00     0.162 A 
ATOM      4  C3  UNL d   1       0.706  -1.045   2.962  0.00  0.00    -0.034 A 
ATOM      5  C4  UNL d   1       0.318  -0.479   4.178  0.00  0.00     0.162 A 
ATOM      6  C5  UNL d   1      -0.828  -0.927   4.826  0.00  0.00     0.062 A 
ATOM      7  F   UNL d   1      -1.193  -0.377   5.994  0.00  0.00    -0.097 F 
ATOM      8  F1  UNL d   1       1.041   0.501   4.739  0.00  0.00    -0.096 F 
ATOM      9  I   UNL d   1       2.420  -0.377   1.988  0.00  0.00    -0.060 I 
ATOM     10  F2  UNL d   1       0.271  -2.628   1.240  0.00  0.00    -0.096 F 
ATOM     11  F3  UNL d   1      -1.957  -3.485   2.519  0.00  0.00    -0.097 F 
ATOM     12  F4  UNL d   1      -2.699  -2.369   4.895  0.00  0.00    -0.092 F 
ENDROOT
TORSDOF 0
ENDMDL
