MODEL 1
REMARK minimizedAffinity 15.9538097
REMARK minimizedRMSD -1
REMARK  0 active torsions:
REMARK  status: ('A' for Active; 'I' for Inactive)
ROOT
ATOM      1  C   UNL d   1      -1.509   3.122  -2.942  0.00  0.00     0.124 A 
ATOM      2  C1  UNL d   1      -2.098   4.332  -3.283  0.00  0.00     0.062 A 
ATOM      3  C2  UNL d   1      -3.162   4.828  -2.534  0.00  0.00     0.162 A 
ATOM      4  C3  UNL d   1      -3.643   4.114  -1.436  0.00  0.00    -0.034 A 
ATOM      5  C4  UNL d   1      -3.046   2.898  -1.100  0.00  0.00     0.162 A 
ATOM      6  C5  UNL d   1      -1.983   2.406  -1.851  0.00  0.00     0.062 A 
ATOM      7  F   UNL d   1      -1.415   1.237  -1.521  0.00  0.00    -0.097 F 
ATOM      8  F1  UNL d   1      -3.484   2.186  -0.051  0.00  0.00    -0.096 F 
ATOM      9  I   UNL d   1      -5.233   4.852  -0.315  0.00  0.00    -0.060 I 
ATOM     10  F2  UNL d   1      -3.712   5.999  -2.886  0.00  0.00    -0.096 F 
ATOM     11  F3  UNL d   1      -1.642   5.024  -4.336  0.00  0.00    -0.097 F 
ATOM     12  F4  UNL d   1      -0.486   2.646  -3.664  0.00  0.00    -0.092 F 
ENDROOT
TORSDOF 0
ENDMDL
