MODEL 1
REMARK minimizedAffinity 26.5516624
REMARK minimizedRMSD -1
REMARK  0 active torsions:
REMARK  status: ('A' for Active; 'I' for Inactive)
ROOT
ATOM      1  C   UNL d   1      -1.864  -2.004   4.045  0.00  0.00     0.124 A 
ATOM      2  C1  UNL d   1      -1.476  -2.395   2.771  0.00  0.00     0.062 A 
ATOM      3  C2  UNL d   1      -0.295  -1.907   2.218  0.00  0.00     0.162 A 
ATOM      4  C3  UNL d   1       0.507  -1.024   2.940  0.00  0.00    -0.034 A 
ATOM      5  C4  UNL d   1       0.111  -0.635   4.220  0.00  0.00     0.162 A 
ATOM      6  C5  UNL d   1      -1.070  -1.125   4.768  0.00  0.00     0.062 A 
ATOM      7  F   UNL d   1      -1.443  -0.747   6.000  0.00  0.00    -0.097 F 
ATOM      8  F1  UNL d   1       0.859   0.213   4.942  0.00  0.00    -0.096 F 
ATOM      9  I   UNL d   1       2.273  -0.292   2.117  0.00  0.00    -0.060 I 
ATOM     10  F2  UNL d   1       0.054  -2.301   0.984  0.00  0.00    -0.096 F 
ATOM     11  F3  UNL d   1      -2.241  -3.243   2.069  0.00  0.00    -0.097 F 
ATOM     12  F4  UNL d   1      -3.001  -2.474   4.574  0.00  0.00    -0.092 F 
ENDROOT
TORSDOF 0
ENDMDL
