MODEL 1
REMARK minimizedAffinity 20.1581707
REMARK minimizedRMSD -1
REMARK  0 active torsions:
REMARK  status: ('A' for Active; 'I' for Inactive)
ROOT
ATOM      1  C   UNL d   1       3.144  -0.862   1.842  0.00  0.00     0.124 A 
ATOM      2  C1  UNL d   1       3.117   0.197   2.739  0.00  0.00     0.062 A 
ATOM      3  C2  UNL d   1       2.031   0.364   3.592  0.00  0.00     0.162 A 
ATOM      4  C3  UNL d   1       0.961  -0.530   3.553  0.00  0.00    -0.034 A 
ATOM      5  C4  UNL d   1       0.993  -1.591   2.647  0.00  0.00     0.162 A 
ATOM      6  C5  UNL d   1       2.082  -1.755   1.796  0.00  0.00     0.062 A 
ATOM      7  F   UNL d   1       2.105  -2.778   0.930  0.00  0.00    -0.097 F 
ATOM      8  F1  UNL d   1      -0.019  -2.469   2.583  0.00  0.00    -0.096 F 
ATOM      9  I   UNL d   1      -0.666  -0.282   4.827  0.00  0.00    -0.060 I 
ATOM     10  F2  UNL d   1       2.032   1.396   4.449  0.00  0.00    -0.096 F 
ATOM     11  F3  UNL d   1       4.142   1.061   2.784  0.00  0.00    -0.097 F 
ATOM     12  F4  UNL d   1       4.190  -1.021   1.021  0.00  0.00    -0.092 F 
ENDROOT
TORSDOF 0
ENDMDL
