MODEL 1
REMARK minimizedAffinity 28.674118
REMARK minimizedRMSD -1
REMARK  0 active torsions:
REMARK  status: ('A' for Active; 'I' for Inactive)
ROOT
ATOM      1  C   UNL d   1       0.650  -0.115   4.595  0.00  0.00     0.124 A 
ATOM      2  C1  UNL d   1       1.964   0.294   4.778  0.00  0.00     0.062 A 
ATOM      3  C2  UNL d   1       2.840   0.340   3.697  0.00  0.00     0.162 A 
ATOM      4  C3  UNL d   1       2.404  -0.022   2.422  0.00  0.00    -0.034 A 
ATOM      5  C4  UNL d   1       1.082  -0.433   2.246  0.00  0.00     0.162 A 
ATOM      6  C5  UNL d   1       0.211  -0.478   3.330  0.00  0.00     0.062 A 
ATOM      7  F   UNL d   1      -1.058  -0.873   3.151  0.00  0.00    -0.097 F 
ATOM      8  F1  UNL d   1       0.630  -0.788   1.034  0.00  0.00    -0.096 F 
ATOM      9  I   UNL d   1       3.711   0.046   0.803  0.00  0.00    -0.060 I 
ATOM     10  F2  UNL d   1       4.104   0.739   3.903  0.00  0.00    -0.096 F 
ATOM     11  F3  UNL d   1       2.392   0.644   5.999  0.00  0.00    -0.097 F 
ATOM     12  F4  UNL d   1      -0.190  -0.159   5.637  0.00  0.00    -0.092 F 
ENDROOT
TORSDOF 0
ENDMDL
