MODEL 1
REMARK minimizedAffinity 15.4810076
REMARK minimizedRMSD -1
REMARK  0 active torsions:
REMARK  status: ('A' for Active; 'I' for Inactive)
ROOT
ATOM      1  C   UNL d   1       0.949  -1.629   3.239  0.00  0.00     0.124 A 
ATOM      2  C1  UNL d   1       0.396  -0.849   4.245  0.00  0.00     0.062 A 
ATOM      3  C2  UNL d   1      -0.634  -1.352   5.035  0.00  0.00     0.162 A 
ATOM      4  C3  UNL d   1      -1.118  -2.643   4.821  0.00  0.00    -0.034 A 
ATOM      5  C4  UNL d   1      -0.558  -3.421   3.807  0.00  0.00     0.162 A 
ATOM      6  C5  UNL d   1       0.472  -2.914   3.021  0.00  0.00     0.062 A 
ATOM      7  F   UNL d   1       1.004  -3.669   2.049  0.00  0.00    -0.097 F 
ATOM      8  F1  UNL d   1      -0.999  -4.666   3.575  0.00  0.00    -0.096 F 
ATOM      9  I   UNL d   1      -2.658  -3.399   6.000  0.00  0.00    -0.060 I 
ATOM     10  F2  UNL d   1      -1.149  -0.576   6.000  0.00  0.00    -0.096 F 
ATOM     11  F3  UNL d   1       0.855   0.393   4.457  0.00  0.00    -0.097 F 
ATOM     12  F4  UNL d   1       1.939  -1.142   2.480  0.00  0.00    -0.092 F 
ENDROOT
TORSDOF 0
ENDMDL
