MODEL 1
REMARK minimizedAffinity 18.4995937
REMARK minimizedRMSD -1
REMARK  0 active torsions:
REMARK  status: ('A' for Active; 'I' for Inactive)
ROOT
ATOM      1  C   UNL d   1       1.706  -0.841   2.584  0.00  0.00     0.124 A 
ATOM      2  C1  UNL d   1       2.057  -1.758   1.603  0.00  0.00     0.062 A 
ATOM      3  C2  UNL d   1       1.084  -2.562   1.016  0.00  0.00     0.162 A 
ATOM      4  C3  UNL d   1      -0.250  -2.452   1.407  0.00  0.00    -0.034 A 
ATOM      5  C4  UNL d   1      -0.595  -1.528   2.395  0.00  0.00     0.162 A 
ATOM      6  C5  UNL d   1       0.381  -0.727   2.979  0.00  0.00     0.062 A 
ATOM      7  F   UNL d   1       0.040   0.159   3.927  0.00  0.00    -0.097 F 
ATOM      8  F1  UNL d   1      -1.868  -1.396   2.796  0.00  0.00    -0.096 F 
ATOM      9  I   UNL d   1      -1.708  -3.652   0.532  0.00  0.00    -0.060 I 
ATOM     10  F2  UNL d   1       1.452  -3.439   0.070  0.00  0.00    -0.096 F 
ATOM     11  F3  UNL d   1       3.337  -1.871   1.220  0.00  0.00    -0.097 F 
ATOM     12  F4  UNL d   1       2.645  -0.069   3.148  0.00  0.00    -0.092 F 
ENDROOT
TORSDOF 0
ENDMDL
