MODEL 1
REMARK minimizedAffinity 10.8888884
REMARK minimizedRMSD -1
REMARK  0 active torsions:
REMARK  status: ('A' for Active; 'I' for Inactive)
ROOT
ATOM      1  C   UNL d   1      -0.208  -2.253   1.617  0.00  0.00     0.124 A 
ATOM      2  C1  UNL d   1       0.502  -1.308   2.344  0.00  0.00     0.062 A 
ATOM      3  C2  UNL d   1       0.048  -0.902   3.595  0.00  0.00     0.162 A 
ATOM      4  C3  UNL d   1      -1.122  -1.441   4.129  0.00  0.00    -0.034 A 
ATOM      5  C4  UNL d   1      -1.832  -2.391   3.391  0.00  0.00     0.162 A 
ATOM      6  C5  UNL d   1      -1.374  -2.793   2.141  0.00  0.00     0.062 A 
ATOM      7  F   UNL d   1      -2.062  -3.706   1.439  0.00  0.00    -0.097 F 
ATOM      8  F1  UNL d   1      -2.961  -2.930   3.874  0.00  0.00    -0.096 F 
ATOM      9  I   UNL d   1      -1.804  -0.837   6.000  0.00  0.00    -0.060 I 
ATOM     10  F2  UNL d   1       0.755   0.013   4.276  0.00  0.00    -0.096 F 
ATOM     11  F3  UNL d   1       1.628  -0.783   1.839  0.00  0.00    -0.097 F 
ATOM     12  F4  UNL d   1       0.230  -2.641   0.412  0.00  0.00    -0.092 F 
ENDROOT
TORSDOF 0
ENDMDL
