MODEL 1
REMARK minimizedAffinity 30.9957619
REMARK minimizedRMSD -1
REMARK  0 active torsions:
REMARK  status: ('A' for Active; 'I' for Inactive)
ROOT
ATOM      1  C   UNL d   1       3.463   1.593  -2.610  0.00  0.00     0.124 A 
ATOM      2  C1  UNL d   1       4.176   0.456  -2.255  0.00  0.00     0.062 A 
ATOM      3  C2  UNL d   1       4.350   0.130  -0.913  0.00  0.00     0.162 A 
ATOM      4  C3  UNL d   1       3.809   0.942   0.084  0.00  0.00    -0.034 A 
ATOM      5  C4  UNL d   1       3.095   2.084  -0.281  0.00  0.00     0.162 A 
ATOM      6  C5  UNL d   1       2.924   2.406  -1.623  0.00  0.00     0.062 A 
ATOM      7  F   UNL d   1       2.235   3.504  -1.965  0.00  0.00    -0.097 F 
ATOM      8  F1  UNL d   1       2.562   2.886   0.653  0.00  0.00    -0.096 F 
ATOM      9  I   UNL d   1       4.067   0.457   2.092  0.00  0.00    -0.060 I 
ATOM     10  F2  UNL d   1       5.043  -0.975  -0.599  0.00  0.00    -0.096 F 
ATOM     11  F3  UNL d   1       4.699  -0.330  -3.207  0.00  0.00    -0.097 F 
ATOM     12  F4  UNL d   1       3.298   1.905  -3.902  0.00  0.00    -0.092 F 
ENDROOT
TORSDOF 0
ENDMDL
