MODEL 1
REMARK minimizedAffinity 18.1783772
REMARK minimizedRMSD -1
REMARK  0 active torsions:
REMARK  status: ('A' for Active; 'I' for Inactive)
ROOT
ATOM      1  C   UNL d   1      -1.707  -2.128   3.853  0.00  0.00     0.124 A 
ATOM      2  C1  UNL d   1      -0.994  -1.157   4.541  0.00  0.00     0.062 A 
ATOM      3  C2  UNL d   1       0.181  -0.637   4.004  0.00  0.00     0.162 A 
ATOM      4  C3  UNL d   1       0.649  -1.089   2.770  0.00  0.00    -0.034 A 
ATOM      5  C4  UNL d   1      -0.072  -2.067   2.084  0.00  0.00     0.162 A 
ATOM      6  C5  UNL d   1      -1.246  -2.582   2.625  0.00  0.00     0.062 A 
ATOM      7  F   UNL d   1      -1.933  -3.521   1.959  0.00  0.00    -0.097 F 
ATOM      8  F1  UNL d   1       0.350  -2.523   0.895  0.00  0.00    -0.096 F 
ATOM      9  I   UNL d   1       2.405  -0.315   1.963  0.00  0.00    -0.060 I 
ATOM     10  F2  UNL d   1       0.849   0.301   4.691  0.00  0.00    -0.096 F 
ATOM     11  F3  UNL d   1      -1.437  -0.717   5.728  0.00  0.00    -0.097 F 
ATOM     12  F4  UNL d   1      -2.836  -2.627   4.373  0.00  0.00    -0.092 F 
ENDROOT
TORSDOF 0
ENDMDL
