MODEL 1
REMARK minimizedAffinity 21.2942333
REMARK minimizedRMSD -1
REMARK  0 active torsions:
REMARK  status: ('A' for Active; 'I' for Inactive)
ROOT
ATOM      1  C   UNL d   1       2.492  -0.522   2.239  0.00  0.00     0.124 A 
ATOM      2  C1  UNL d   1       1.283  -1.161   2.002  0.00  0.00     0.062 A 
ATOM      3  C2  UNL d   1       0.262  -1.102   2.946  0.00  0.00     0.162 A 
ATOM      4  C3  UNL d   1       0.446  -0.400   4.138  0.00  0.00    -0.034 A 
ATOM      5  C4  UNL d   1       1.665   0.240   4.370  0.00  0.00     0.162 A 
ATOM      6  C5  UNL d   1       2.682   0.177   3.422  0.00  0.00     0.062 A 
ATOM      7  F   UNL d   1       3.849   0.795   3.654  0.00  0.00    -0.097 F 
ATOM      8  F1  UNL d   1       1.876   0.923   5.504  0.00  0.00    -0.096 F 
ATOM      9  I   UNL d   1      -1.077  -0.309   5.553  0.00  0.00    -0.060 I 
ATOM     10  F2  UNL d   1      -0.896  -1.729   2.691  0.00  0.00    -0.096 F 
ATOM     11  F3  UNL d   1       1.097  -1.838   0.859  0.00  0.00    -0.097 F 
ATOM     12  F4  UNL d   1       3.472  -0.581   1.329  0.00  0.00    -0.092 F 
ENDROOT
TORSDOF 0
ENDMDL
