MODEL 1
REMARK minimizedAffinity 14.8779325
REMARK minimizedRMSD -1
REMARK  0 active torsions:
REMARK  status: ('A' for Active; 'I' for Inactive)
ROOT
ATOM      1  C   UNL d   1      -0.927   1.619  -1.089  0.00  0.00     0.124 A 
ATOM      2  C1  UNL d   1      -1.297   2.437  -2.147  0.00  0.00     0.062 A 
ATOM      3  C2  UNL d   1      -0.706   3.687  -2.305  0.00  0.00     0.162 A 
ATOM      4  C3  UNL d   1       0.262   4.128  -1.403  0.00  0.00    -0.034 A 
ATOM      5  C4  UNL d   1       0.628   3.300  -0.340  0.00  0.00     0.162 A 
ATOM      6  C5  UNL d   1       0.035   2.051  -0.186  0.00  0.00     0.062 A 
ATOM      7  F   UNL d   1       0.393   1.262   0.837  0.00  0.00    -0.097 F 
ATOM      8  F1  UNL d   1       1.555   3.692   0.547  0.00  0.00    -0.096 F 
ATOM      9  I   UNL d   1       1.148   5.997  -1.635  0.00  0.00    -0.060 I 
ATOM     10  F2  UNL d   1      -1.082   4.457  -3.338  0.00  0.00    -0.096 F 
ATOM     11  F3  UNL d   1      -2.226   2.023  -3.020  0.00  0.00    -0.097 F 
ATOM     12  F4  UNL d   1      -1.498   0.417  -0.939  0.00  0.00    -0.092 F 
ENDROOT
TORSDOF 0
ENDMDL
