MODEL 1
REMARK minimizedAffinity 23.5498753
REMARK minimizedRMSD -1
REMARK  0 active torsions:
REMARK  status: ('A' for Active; 'I' for Inactive)
ROOT
ATOM      1  C   UNL d   1      -1.125   3.224  -4.146  0.00  0.00     0.124 A 
ATOM      2  C1  UNL d   1      -1.418   2.861  -2.839  0.00  0.00     0.062 A 
ATOM      3  C2  UNL d   1      -2.387   3.556  -2.121  0.00  0.00     0.162 A 
ATOM      4  C3  UNL d   1      -3.071   4.621  -2.708  0.00  0.00    -0.034 A 
ATOM      5  C4  UNL d   1      -2.769   4.980  -4.023  0.00  0.00     0.162 A 
ATOM      6  C5  UNL d   1      -1.800   4.283  -4.737  0.00  0.00     0.062 A 
ATOM      7  F   UNL d   1      -1.518   4.635  -6.000  0.00  0.00    -0.097 F 
ATOM      8  F1  UNL d   1      -3.407   5.999  -4.618  0.00  0.00    -0.096 F 
ATOM      9  I   UNL d   1      -4.520   5.662  -1.637  0.00  0.00    -0.060 I 
ATOM     10  F2  UNL d   1      -2.650   3.184  -0.859  0.00  0.00    -0.096 F 
ATOM     11  F3  UNL d   1      -0.767   1.839  -2.266  0.00  0.00    -0.097 F 
ATOM     12  F4  UNL d   1      -0.191   2.555  -4.835  0.00  0.00    -0.092 F 
ENDROOT
TORSDOF 0
ENDMDL
