MODEL 1
REMARK minimizedAffinity 22.8575191
REMARK minimizedRMSD -1
REMARK  0 active torsions:
REMARK  status: ('A' for Active; 'I' for Inactive)
ROOT
ATOM      1  C   UNL d   1       2.445  -0.203   3.256  0.00  0.00     0.124 A 
ATOM      2  C1  UNL d   1       1.540  -0.105   4.303  0.00  0.00     0.062 A 
ATOM      3  C2  UNL d   1       0.279  -0.684   4.196  0.00  0.00     0.162 A 
ATOM      4  C3  UNL d   1      -0.085  -1.368   3.036  0.00  0.00    -0.034 A 
ATOM      5  C4  UNL d   1       0.830  -1.462   1.986  0.00  0.00     0.162 A 
ATOM      6  C5  UNL d   1       2.089  -0.881   2.098  0.00  0.00     0.062 A 
ATOM      7  F   UNL d   1       2.962  -0.977   1.085  0.00  0.00    -0.097 F 
ATOM      8  F1  UNL d   1       0.513  -2.112   0.857  0.00  0.00    -0.096 F 
ATOM      9  I   UNL d   1      -1.970  -2.235   2.872  0.00  0.00    -0.060 I 
ATOM     10  F2  UNL d   1      -0.575  -0.573   5.224  0.00  0.00    -0.096 F 
ATOM     11  F3  UNL d   1       1.881   0.551   5.422  0.00  0.00    -0.097 F 
ATOM     12  F4  UNL d   1       3.657   0.356   3.361  0.00  0.00    -0.092 F 
ENDROOT
TORSDOF 0
ENDMDL
