MODEL 1
REMARK minimizedAffinity 16.5157528
REMARK minimizedRMSD -1
REMARK  0 active torsions:
REMARK  status: ('A' for Active; 'I' for Inactive)
ROOT
ATOM      1  C   UNL d   1       0.369   2.481  -0.514  0.00  0.00     0.124 A 
ATOM      2  C1  UNL d   1       0.887   3.764  -0.397  0.00  0.00     0.062 A 
ATOM      3  C2  UNL d   1       0.468   4.770  -1.263  0.00  0.00     0.162 A 
ATOM      4  C3  UNL d   1      -0.475   4.498  -2.254  0.00  0.00    -0.034 A 
ATOM      5  C4  UNL d   1      -0.990   3.205  -2.367  0.00  0.00     0.162 A 
ATOM      6  C5  UNL d   1      -0.569   2.203  -1.499  0.00  0.00     0.062 A 
ATOM      7  F   UNL d   1      -1.070   0.965  -1.614  0.00  0.00    -0.097 F 
ATOM      8  F1  UNL d   1      -1.898   2.909  -3.309  0.00  0.00    -0.096 F 
ATOM      9  I   UNL d   1      -1.104   5.999  -3.551  0.00  0.00    -0.060 I 
ATOM     10  F2  UNL d   1       0.985   6.000  -1.126  0.00  0.00    -0.096 F 
ATOM     11  F3  UNL d   1       1.793   4.035   0.553  0.00  0.00    -0.097 F 
ATOM     12  F4  UNL d   1       0.774   1.515   0.320  0.00  0.00    -0.092 F 
ENDROOT
TORSDOF 0
ENDMDL
