MODEL 1
REMARK minimizedAffinity 1.26124763
REMARK minimizedRMSD -1
REMARK  0 active torsions:
REMARK  status: ('A' for Active; 'I' for Inactive)
ROOT
ATOM      1  C   UNL d   1       1.602  -0.214  -4.270  0.00  0.00    -0.002 A 
ATOM      2  C1  UNL d   1       0.265   0.083  -4.494  0.00  0.00     0.010 A 
ATOM      3  C2  UNL d   1      -0.647   0.095  -3.437  0.00  0.00     0.041 A 
ATOM      4  C3  UNL d   1      -0.188  -0.196  -2.137  0.00  0.00    -0.075 A 
ATOM      5  S   UNL d   1      -1.123  -0.239  -0.689  0.00  0.00     0.015 SA
ATOM      6  C4  UNL d   1       0.230  -0.651   0.261  0.00  0.00     0.022 A 
ATOM      7  C5  UNL d   1       1.376  -0.758  -0.491  0.00  0.00     0.026 A 
ATOM      8  C6  UNL d   1       1.154  -0.497  -1.886  0.00  0.00    -0.082 A 
ATOM      9  C7  UNL d   1       2.054  -0.503  -2.979  0.00  0.00     0.045 A 
ENDROOT
TORSDOF 0
ENDMDL
