MODEL 1
REMARK minimizedAffinity -1.76241422
REMARK minimizedRMSD -1
REMARK  0 active torsions:
REMARK  status: ('A' for Active; 'I' for Inactive)
ROOT
ATOM      1  C   UNL d   1      -2.403   0.384   0.648  0.00  0.00    -0.002 A 
ATOM      2  C1  UNL d   1      -2.169   0.682   1.983  0.00  0.00     0.010 A 
ATOM      3  C2  UNL d   1      -0.916   0.450   2.553  0.00  0.00     0.041 A 
ATOM      4  C3  UNL d   1       0.108  -0.091   1.751  0.00  0.00    -0.075 A 
ATOM      5  S   UNL d   1       1.722  -0.458   2.234  0.00  0.00     0.015 SA
ATOM      6  C4  UNL d   1       2.139  -1.019   0.679  0.00  0.00     0.022 A 
ATOM      7  C5  UNL d   1       1.084  -0.936  -0.199  0.00  0.00     0.026 A 
ATOM      8  C6  UNL d   1      -0.103  -0.399   0.404  0.00  0.00    -0.082 A 
ATOM      9  C7  UNL d   1      -1.385  -0.153  -0.144  0.00  0.00     0.045 A 
ENDROOT
TORSDOF 0
ENDMDL
