MODEL 1
REMARK minimizedAffinity 0.438242495
REMARK minimizedRMSD -1
REMARK  0 active torsions:
REMARK  status: ('A' for Active; 'I' for Inactive)
ROOT
ATOM      1  C   UNL d   1       0.397  -0.291   4.174  0.00  0.00    -0.002 A 
ATOM      2  C1  UNL d   1       1.655  -0.623   3.691  0.00  0.00     0.010 A 
ATOM      3  C2  UNL d   1       1.924  -0.582   2.321  0.00  0.00     0.041 A 
ATOM      4  C3  UNL d   1       0.897  -0.196   1.437  0.00  0.00    -0.075 A 
ATOM      5  S   UNL d   1       0.996  -0.073  -0.280  0.00  0.00     0.015 SA
ATOM      6  C4  UNL d   1      -0.629   0.424  -0.413  0.00  0.00     0.022 A 
ATOM      7  C5  UNL d   1      -1.247   0.498   0.813  0.00  0.00     0.026 A 
ATOM      8  C6  UNL d   1      -0.377   0.143   1.899  0.00  0.00    -0.082 A 
ATOM      9  C7  UNL d   1      -0.618   0.090   3.293  0.00  0.00     0.045 A 
ENDROOT
TORSDOF 0
ENDMDL
