MODEL 1
REMARK minimizedAffinity -1.62560928
REMARK minimizedRMSD -1
REMARK  0 active torsions:
REMARK  status: ('A' for Active; 'I' for Inactive)
ROOT
ATOM      1  C   UNL d   1      -3.068   0.702   0.073  0.00  0.00    -0.002 A 
ATOM      2  C1  UNL d   1      -2.705   1.053   1.366  0.00  0.00     0.010 A 
ATOM      3  C2  UNL d   1      -1.434   0.746   1.855  0.00  0.00     0.041 A 
ATOM      4  C3  UNL d   1      -0.524   0.076   1.014  0.00  0.00    -0.075 A 
ATOM      5  S   UNL d   1       1.088  -0.402   1.398  0.00  0.00     0.015 SA
ATOM      6  C4  UNL d   1       1.334  -1.081  -0.146  0.00  0.00     0.022 A 
ATOM      7  C5  UNL d   1       0.223  -0.956  -0.947  0.00  0.00     0.026 A 
ATOM      8  C6  UNL d   1      -0.865  -0.287  -0.292  0.00  0.00    -0.082 A 
ATOM      9  C7  UNL d   1      -2.162   0.038  -0.758  0.00  0.00     0.045 A 
ENDROOT
TORSDOF 0
ENDMDL
