MODEL 1
REMARK minimizedAffinity 0.826955914
REMARK minimizedRMSD -1
REMARK  0 active torsions:
REMARK  status: ('A' for Active; 'I' for Inactive)
ROOT
ATOM      1  C   UNL d   1      -2.072   0.744   0.756  0.00  0.00    -0.002 A 
ATOM      2  C1  UNL d   1      -1.807   1.007   2.093  0.00  0.00     0.010 A 
ATOM      3  C2  UNL d   1      -0.576   0.662   2.654  0.00  0.00     0.041 A 
ATOM      4  C3  UNL d   1       0.395   0.044   1.841  0.00  0.00    -0.075 A 
ATOM      5  S   UNL d   1       1.973  -0.466   2.311  0.00  0.00     0.015 SA
ATOM      6  C4  UNL d   1       2.333  -1.044   0.748  0.00  0.00     0.022 A 
ATOM      7  C5  UNL d   1       1.286  -0.860  -0.123  0.00  0.00     0.026 A 
ATOM      8  C6  UNL d   1       0.151  -0.230   0.492  0.00  0.00    -0.082 A 
ATOM      9  C7  UNL d   1      -1.107   0.131  -0.047  0.00  0.00     0.045 A 
ENDROOT
TORSDOF 0
ENDMDL
