MODEL 1
REMARK minimizedAffinity 3.78803444
REMARK minimizedRMSD -1
REMARK  1 active torsions:
REMARK  status: ('A' for Active; 'I' for Inactive)
REMARK    1  A    between atoms: C1_2  and  C2_3 
ROOT
ATOM      1  C2  UNL d   1       2.004  -0.090   1.966  0.00  0.00    -0.073 A 
ATOM      2  C3  UNL d   1       3.387  -0.085   1.752  0.00  0.00    -0.002 A 
ATOM      3  C4  UNL d   1       3.976   0.908   0.968  0.00  0.00     0.004 A 
ATOM      4  C5  UNL d   1       3.191   1.909   0.397  0.00  0.00    -0.004 A 
ATOM      5  C6  UNL d   1       1.809   1.928   0.609  0.00  0.00    -0.075 A 
ATOM      6  C7  UNL d   1       0.950   2.997  -0.000  0.00  0.00     0.076 C 
ATOM      7  C8  UNL d   1       1.224   0.926   1.395  0.00  0.00     0.001 A 
ENDROOT
BRANCH   1   8
ATOM      8  C1  UNL d   1       1.365  -1.157   2.817  0.00  0.00     0.053 C 
ATOM      9  C   UNL d   1       2.399  -2.038   3.498  0.00  0.00     0.018 C 
ENDBRANCH   1   8
TORSDOF 1
ENDMDL
