MODEL 1
REMARK minimizedAffinity 11.8716784
REMARK minimizedRMSD -1
REMARK  1 active torsions:
REMARK  status: ('A' for Active; 'I' for Inactive)
REMARK    1  A    between atoms: C1_2  and  C2_3 
ROOT
ATOM      1  C2  UNL d   1      -4.700   2.677  -1.481  0.00  0.00    -0.073 A 
ATOM      2  C3  UNL d   1      -3.551   2.999  -0.750  0.00  0.00    -0.002 A 
ATOM      3  C4  UNL d   1      -2.354   2.321  -0.983  0.00  0.00     0.004 A 
ATOM      4  C5  UNL d   1      -2.292   1.320  -1.953  0.00  0.00    -0.004 A 
ATOM      5  C6  UNL d   1      -3.426   0.992  -2.702  0.00  0.00    -0.075 A 
ATOM      6  C7  UNL d   1      -3.377  -0.084  -3.746  0.00  0.00     0.076 C 
ATOM      7  C8  UNL d   1      -4.625   1.676  -2.460  0.00  0.00     0.001 A 
ENDROOT
BRANCH   1   8
ATOM      8  C1  UNL d   1      -5.993   3.412  -1.237  0.00  0.00     0.053 C 
ATOM      9  C   UNL d   1      -6.000   4.122   0.107  0.00  0.00     0.018 C 
ENDBRANCH   1   8
TORSDOF 1
ENDMDL
