MODEL 1
REMARK minimizedAffinity 8.05007648
REMARK minimizedRMSD -1
REMARK  1 active torsions:
REMARK  status: ('A' for Active; 'I' for Inactive)
REMARK    1  A    between atoms: C1_2  and  C2_3 
ROOT
ATOM      1  C2  UNL d   1      -4.549  -4.965  -3.937  0.00  0.00    -0.073 A 
ATOM      2  C3  UNL d   1      -5.248  -5.592  -4.975  0.00  0.00    -0.002 A 
ATOM      3  C4  UNL d   1      -5.820  -4.836  -5.999  0.00  0.00     0.004 A 
ATOM      4  C5  UNL d   1      -5.693  -3.447  -6.000  0.00  0.00    -0.004 A 
ATOM      5  C6  UNL d   1      -4.988  -2.802  -4.978  0.00  0.00    -0.075 A 
ATOM      6  C7  UNL d   1      -4.844  -1.308  -4.963  0.00  0.00     0.076 C 
ATOM      7  C8  UNL d   1      -4.419  -3.569  -3.952  0.00  0.00     0.001 A 
ENDROOT
BRANCH   1   8
ATOM      8  C1  UNL d   1      -3.925  -5.778  -2.833  0.00  0.00     0.053 C 
ATOM      9  C   UNL d   1      -3.547  -4.920  -1.637  0.00  0.00     0.018 C 
ENDBRANCH   1   8
TORSDOF 1
ENDMDL
