MODEL 1
REMARK minimizedAffinity 3.16573501
REMARK minimizedRMSD -1
REMARK  1 active torsions:
REMARK  status: ('A' for Active; 'I' for Inactive)
REMARK    1  A    between atoms: C1_2  and  C2_3 
ROOT
ATOM      1  C2  UNL d   1      -3.980   0.656  -4.758  0.00  0.00    -0.073 A 
ATOM      2  C3  UNL d   1      -4.619   1.582  -5.590  0.00  0.00    -0.002 A 
ATOM      3  C4  UNL d   1      -4.794   2.902  -5.172  0.00  0.00     0.004 A 
ATOM      4  C5  UNL d   1      -4.326   3.311  -3.923  0.00  0.00    -0.004 A 
ATOM      5  C6  UNL d   1      -3.674   2.403  -3.083  0.00  0.00    -0.075 A 
ATOM      6  C7  UNL d   1      -3.167   2.827  -1.735  0.00  0.00     0.076 C 
ATOM      7  C8  UNL d   1      -3.505   1.079  -3.508  0.00  0.00     0.001 A 
ENDROOT
BRANCH   1   8
ATOM      8  C1  UNL d   1      -3.783  -0.769  -5.207  0.00  0.00     0.053 C 
ATOM      9  C   UNL d   1      -4.975  -1.288  -5.995  0.00  0.00     0.018 C 
ENDBRANCH   1   8
TORSDOF 1
ENDMDL
