MODEL 1
REMARK minimizedAffinity 14.9706259
REMARK minimizedRMSD -1
REMARK  1 active torsions:
REMARK  status: ('A' for Active; 'I' for Inactive)
REMARK    1  A    between atoms: C1_2  and  C2_3 
ROOT
ATOM      1  C2  UNL d   1      -4.052   2.955  -0.030  0.00  0.00    -0.073 A 
ATOM      2  C3  UNL d   1      -3.185   2.319   0.866  0.00  0.00    -0.002 A 
ATOM      3  C4  UNL d   1      -2.367   1.274   0.434  0.00  0.00     0.004 A 
ATOM      4  C5  UNL d   1      -2.402   0.860  -0.897  0.00  0.00    -0.004 A 
ATOM      5  C6  UNL d   1      -3.253   1.490  -1.810  0.00  0.00    -0.075 A 
ATOM      6  C7  UNL d   1      -3.304   1.054  -3.245  0.00  0.00     0.076 C 
ATOM      7  C8  UNL d   1      -4.073   2.537  -1.368  0.00  0.00     0.001 A 
ENDROOT
BRANCH   1   8
ATOM      8  C1  UNL d   1      -4.933   4.088   0.430  0.00  0.00     0.053 C 
ATOM      9  C   UNL d   1      -5.794   3.693   1.619  0.00  0.00     0.018 C 
ENDBRANCH   1   8
TORSDOF 1
ENDMDL
