MODEL 1
REMARK minimizedAffinity 0.609293163
REMARK minimizedRMSD -1
REMARK  1 active torsions:
REMARK  status: ('A' for Active; 'I' for Inactive)
REMARK    1  A    between atoms: C1_2  and  C2_3 
ROOT
ATOM      1  C2  UNL d   1       3.288  -5.943  -2.292  0.00  0.00    -0.073 A 
ATOM      2  C3  UNL d   1       2.096  -5.868  -3.023  0.00  0.00    -0.002 A 
ATOM      3  C4  UNL d   1       2.127  -5.822  -4.417  0.00  0.00     0.004 A 
ATOM      4  C5  UNL d   1       3.346  -5.858  -5.094  0.00  0.00    -0.004 A 
ATOM      5  C6  UNL d   1       4.546  -5.944  -4.382  0.00  0.00    -0.075 A 
ATOM      6  C7  UNL d   1       5.866  -5.981  -5.095  0.00  0.00     0.076 C 
ATOM      7  C8  UNL d   1       4.508  -5.987  -2.982  0.00  0.00     0.001 A 
ENDROOT
BRANCH   1   8
ATOM      8  C1  UNL d   1       3.259  -5.999  -0.786  0.00  0.00     0.053 C 
ATOM      9  C   UNL d   1       1.840  -5.973  -0.241  0.00  0.00     0.018 C 
ENDBRANCH   1   8
TORSDOF 1
ENDMDL
