MODEL 1
REMARK minimizedAffinity 1.26910925
REMARK minimizedRMSD -1
REMARK  1 active torsions:
REMARK  status: ('A' for Active; 'I' for Inactive)
REMARK    1  A    between atoms: C1_2  and  C2_3 
ROOT
ATOM      1  C2  UNL d   1       3.189  -0.229   0.208  0.00  0.00    -0.073 A 
ATOM      2  C3  UNL d   1       3.647   0.848   0.976  0.00  0.00    -0.002 A 
ATOM      3  C4  UNL d   1       3.200   1.018   2.287  0.00  0.00     0.004 A 
ATOM      4  C5  UNL d   1       2.299   0.112   2.846  0.00  0.00    -0.004 A 
ATOM      5  C6  UNL d   1       1.839  -0.977   2.098  0.00  0.00    -0.075 A 
ATOM      6  C7  UNL d   1       0.868  -1.960   2.683  0.00  0.00     0.076 C 
ATOM      7  C8  UNL d   1       2.290  -1.140   0.781  0.00  0.00     0.001 A 
ENDROOT
BRANCH   1   8
ATOM      8  C1  UNL d   1       3.674  -0.421  -1.206  0.00  0.00     0.053 C 
ATOM      9  C   UNL d   1       2.985  -1.591  -1.890  0.00  0.00     0.018 C 
ENDBRANCH   1   8
TORSDOF 1
ENDMDL
