MODEL 1
REMARK minimizedAffinity 1.4826324
REMARK minimizedRMSD -1
REMARK  1 active torsions:
REMARK  status: ('A' for Active; 'I' for Inactive)
REMARK    1  A    between atoms: C1_2  and  C2_3 
ROOT
ATOM      1  C2  UNL d   1       2.526  -2.618   3.695  0.00  0.00    -0.073 A 
ATOM      2  C3  UNL d   1       1.745  -3.681   4.163  0.00  0.00    -0.002 A 
ATOM      3  C4  UNL d   1       2.341  -4.751   4.832  0.00  0.00     0.004 A 
ATOM      4  C5  UNL d   1       3.719  -4.766   5.046  0.00  0.00    -0.004 A 
ATOM      5  C6  UNL d   1       4.514  -3.707   4.596  0.00  0.00    -0.075 A 
ATOM      6  C7  UNL d   1       5.998  -3.709   4.816  0.00  0.00     0.076 C 
ATOM      7  C8  UNL d   1       3.909  -2.637   3.922  0.00  0.00     0.001 A 
ENDROOT
BRANCH   1   8
ATOM      8  C1  UNL d   1       1.887  -1.457   2.977  0.00  0.00     0.053 C 
ATOM      9  C   UNL d   1       1.032  -1.912   1.805  0.00  0.00     0.018 C 
ENDBRANCH   1   8
TORSDOF 1
ENDMDL
