MODEL 1
REMARK minimizedAffinity 1.88770616
REMARK minimizedRMSD -1
REMARK  0 active torsions:
REMARK  status: ('A' for Active; 'I' for Inactive)
ROOT
ATOM      1  O1  BZF d   1      -0.188   2.753   1.158  0.00  0.00    -0.204 OA
ATOM      2  C2  BZF d   1       0.832   1.905   0.770  0.00  0.00     0.174 A 
ATOM      3  C3  BZF d   1       0.581   0.641   1.168  0.00  0.00    -0.012 A 
ATOM      4  C3A BZF d   1      -0.718   0.686   1.767  0.00  0.00    -0.107 A 
ATOM      5  C4  BZF d   1      -1.522  -0.259   2.337  0.00  0.00     0.055 A 
ATOM      6  C5  BZF d   1      -2.701   0.126   2.893  0.00  0.00    -0.016 A 
ATOM      7  C6  BZF d   1      -3.103   1.445   2.902  0.00  0.00     0.022 A 
ATOM      8  C7  BZF d   1      -2.342   2.418   2.344  0.00  0.00     0.029 A 
ATOM      9  C7A BZF d   1      -1.166   2.028   1.752  0.00  0.00     0.058 A 
ENDROOT
TORSDOF 0
ENDMDL
