MODEL 1
REMARK minimizedAffinity 9.95637894
REMARK minimizedRMSD -1
REMARK  0 active torsions:
REMARK  status: ('A' for Active; 'I' for Inactive)
ROOT
ATOM      1  O1  BZF d   1      -0.232  -3.892   0.606  0.00  0.00    -0.204 OA
ATOM      2  C2  BZF d   1      -1.050  -4.761  -0.090  0.00  0.00     0.174 A 
ATOM      3  C3  BZF d   1      -0.684  -4.828  -1.386  0.00  0.00    -0.012 A 
ATOM      4  C3A BZF d   1       0.491  -4.017  -1.488  0.00  0.00    -0.107 A 
ATOM      5  C4  BZF d   1       1.327  -3.702  -2.520  0.00  0.00     0.055 A 
ATOM      6  C5  BZF d   1       2.342  -2.824  -2.303  0.00  0.00    -0.016 A 
ATOM      7  C6  BZF d   1       2.546  -2.240  -1.070  0.00  0.00     0.022 A 
ATOM      8  C7  BZF d   1       1.746  -2.527  -0.015  0.00  0.00     0.029 A 
ATOM      9  C7A BZF d   1       0.739  -3.438  -0.222  0.00  0.00     0.058 A 
ENDROOT
TORSDOF 0
ENDMDL
