MODEL 1
REMARK minimizedAffinity 6.42412901
REMARK minimizedRMSD -1
REMARK  0 active torsions:
REMARK  status: ('A' for Active; 'I' for Inactive)
ROOT
ATOM      1  O1  BZF d   1       3.885   2.132  -4.538  0.00  0.00    -0.204 OA
ATOM      2  C2  BZF d   1       3.317   1.183  -3.710  0.00  0.00     0.174 A 
ATOM      3  C3  BZF d   1       2.115   1.597  -3.261  0.00  0.00    -0.012 A 
ATOM      4  C3A BZF d   1       1.878   2.846  -3.919  0.00  0.00    -0.107 A 
ATOM      5  C4  BZF d   1       0.844   3.738  -3.895  0.00  0.00     0.055 A 
ATOM      6  C5  BZF d   1       0.955   4.896  -4.597  0.00  0.00    -0.016 A 
ATOM      7  C6  BZF d   1       2.086   5.197  -5.327  0.00  0.00     0.022 A 
ATOM      8  C7  BZF d   1       3.136   4.341  -5.385  0.00  0.00     0.029 A 
ATOM      9  C7A BZF d   1       3.013   3.155  -4.704  0.00  0.00     0.058 A 
ENDROOT
TORSDOF 0
ENDMDL
