MODEL 1
REMARK minimizedAffinity 1.74258268
REMARK minimizedRMSD -1
REMARK  0 active torsions:
REMARK  status: ('A' for Active; 'I' for Inactive)
ROOT
ATOM      1  O1  BZF d   1      -5.873  -4.893  -0.585  0.00  0.00    -0.204 OA
ATOM      2  C2  BZF d   1      -5.383  -5.962   0.139  0.00  0.00     0.174 A 
ATOM      3  C3  BZF d   1      -4.036  -6.000   0.085  0.00  0.00    -0.012 A 
ATOM      4  C3A BZF d   1      -3.656  -4.831  -0.647  0.00  0.00    -0.107 A 
ATOM      5  C4  BZF d   1      -2.451  -4.306  -1.018  0.00  0.00     0.055 A 
ATOM      6  C5  BZF d   1      -2.428  -3.189  -1.791  0.00  0.00    -0.016 A 
ATOM      7  C6  BZF d   1      -3.588  -2.575  -2.216  0.00  0.00     0.022 A 
ATOM      8  C7  BZF d   1      -4.806  -3.056  -1.869  0.00  0.00     0.029 A 
ATOM      9  C7A BZF d   1      -4.833  -4.166  -1.060  0.00  0.00     0.058 A 
ENDROOT
TORSDOF 0
ENDMDL
