MODEL 1
REMARK minimizedAffinity 0.100404069
REMARK minimizedRMSD -1
REMARK  0 active torsions:
REMARK  status: ('A' for Active; 'I' for Inactive)
ROOT
ATOM      1  O1  BZF d   1       0.760  -0.207   1.762  0.00  0.00    -0.204 OA
ATOM      2  C2  BZF d   1      -0.128   0.850   1.707  0.00  0.00     0.174 A 
ATOM      3  C3  BZF d   1       0.183   1.684   0.693  0.00  0.00    -0.012 A 
ATOM      4  C3A BZF d   1       1.283   1.063   0.020  0.00  0.00    -0.107 A 
ATOM      5  C4  BZF d   1       2.024   1.401  -1.076  0.00  0.00     0.055 A 
ATOM      6  C5  BZF d   1       3.075   0.616  -1.431  0.00  0.00    -0.016 A 
ATOM      7  C6  BZF d   1       3.415  -0.510  -0.710  0.00  0.00     0.022 A 
ATOM      8  C7  BZF d   1       2.706  -0.889   0.381  0.00  0.00     0.029 A 
ATOM      9  C7A BZF d   1       1.624  -0.115   0.723  0.00  0.00     0.058 A 
ENDROOT
TORSDOF 0
ENDMDL
