MODEL 1
REMARK minimizedAffinity 3.6058085
REMARK minimizedRMSD -1
REMARK  0 active torsions:
REMARK  status: ('A' for Active; 'I' for Inactive)
ROOT
ATOM      1  O1  BZF d   1       0.930  -1.573   2.387  0.00  0.00    -0.204 OA
ATOM      2  C2  BZF d   1      -0.350  -1.422   2.884  0.00  0.00     0.174 A 
ATOM      3  C3  BZF d   1      -0.911  -0.285   2.424  0.00  0.00    -0.012 A 
ATOM      4  C3A BZF d   1       0.046   0.265   1.514  0.00  0.00    -0.107 A 
ATOM      5  C4  BZF d   1       0.060   1.381   0.727  0.00  0.00     0.055 A 
ATOM      6  C5  BZF d   1       1.178   1.670   0.010  0.00  0.00    -0.016 A 
ATOM      7  C6  BZF d   1       2.300   0.870   0.061  0.00  0.00     0.022 A 
ATOM      8  C7  BZF d   1       2.332  -0.250   0.824  0.00  0.00     0.029 A 
ATOM      9  C7A BZF d   1       1.192  -0.563   1.523  0.00  0.00     0.058 A 
ENDROOT
TORSDOF 0
ENDMDL
