MODEL 1
REMARK minimizedAffinity 11.724144
REMARK minimizedRMSD -1
REMARK  0 active torsions:
REMARK  status: ('A' for Active; 'I' for Inactive)
ROOT
ATOM      1  O1  BZF d   1       2.087  -0.726   0.607  0.00  0.00    -0.204 OA
ATOM      2  C2  BZF d   1       1.524   0.397   1.181  0.00  0.00     0.174 A 
ATOM      3  C3  BZF d   1       1.606   1.453   0.347  0.00  0.00    -0.012 A 
ATOM      4  C3A BZF d   1       2.179   0.937  -0.859  0.00  0.00    -0.107 A 
ATOM      5  C4  BZF d   1       2.496   1.497  -2.063  0.00  0.00     0.055 A 
ATOM      6  C5  BZF d   1       3.111   0.735  -3.005  0.00  0.00    -0.016 A 
ATOM      7  C6  BZF d   1       3.427  -0.588  -2.775  0.00  0.00     0.022 A 
ATOM      8  C7  BZF d   1       3.128  -1.189  -1.598  0.00  0.00     0.029 A 
ATOM      9  C7A BZF d   1       2.478  -0.431  -0.656  0.00  0.00     0.058 A 
ENDROOT
TORSDOF 0
ENDMDL
