MODEL 1
REMARK minimizedAffinity 0.536386967
REMARK minimizedRMSD -1
REMARK  0 active torsions:
REMARK  status: ('A' for Active; 'I' for Inactive)
ROOT
ATOM      1  O1  BZF d   1      -1.050   0.749   2.015  0.00  0.00    -0.204 OA
ATOM      2  C2  BZF d   1      -1.492   2.038   1.786  0.00  0.00     0.174 A 
ATOM      3  C3  BZF d   1      -0.522   2.780   1.214  0.00  0.00    -0.012 A 
ATOM      4  C3A BZF d   1       0.564   1.876   0.993  0.00  0.00    -0.107 A 
ATOM      5  C4  BZF d   1       1.805   2.016   0.441  0.00  0.00     0.055 A 
ATOM      6  C5  BZF d   1       2.653   0.954   0.443  0.00  0.00    -0.016 A 
ATOM      7  C6  BZF d   1       2.295  -0.260   0.993  0.00  0.00     0.022 A 
ATOM      8  C7  BZF d   1       1.073  -0.448   1.548  0.00  0.00     0.029 A 
ATOM      9  C7A BZF d   1       0.202   0.613   1.517  0.00  0.00     0.058 A 
ENDROOT
TORSDOF 0
ENDMDL
