MODEL 1
REMARK minimizedAffinity 5.48954487
REMARK minimizedRMSD -1
REMARK  0 active torsions:
REMARK  status: ('A' for Active; 'I' for Inactive)
ROOT
ATOM      1  O1  BZF d   1      -2.664   1.212   2.506  0.00  0.00    -0.204 OA
ATOM      2  C2  BZF d   1      -2.491   2.581   2.572  0.00  0.00     0.174 A 
ATOM      3  C3  BZF d   1      -1.241   2.923   2.199  0.00  0.00    -0.012 A 
ATOM      4  C3A BZF d   1      -0.621   1.699   1.792  0.00  0.00    -0.107 A 
ATOM      5  C4  BZF d   1       0.616   1.391   1.304  0.00  0.00     0.055 A 
ATOM      6  C5  BZF d   1       0.929   0.089   1.074  0.00  0.00    -0.016 A 
ATOM      7  C6  BZF d   1       0.033  -0.929   1.326  0.00  0.00     0.022 A 
ATOM      8  C7  BZF d   1      -1.208  -0.672   1.806  0.00  0.00     0.029 A 
ATOM      9  C7A BZF d   1      -1.539   0.646   2.008  0.00  0.00     0.058 A 
ENDROOT
TORSDOF 0
ENDMDL
