MODEL 1
REMARK minimizedAffinity -0.93862009
REMARK minimizedRMSD -1
REMARK  0 active torsions:
REMARK  status: ('A' for Active; 'I' for Inactive)
ROOT
ATOM      1  O1  BZF d   1      -2.119  -0.567   2.045  0.00  0.00    -0.204 OA
ATOM      2  C2  BZF d   1      -1.635  -1.829   1.760  0.00  0.00     0.174 A 
ATOM      3  C3  BZF d   1      -0.454  -1.754   1.113  0.00  0.00    -0.012 A 
ATOM      4  C3A BZF d   1      -0.139  -0.359   1.066  0.00  0.00    -0.107 A 
ATOM      5  C4  BZF d   1       0.915   0.349   0.564  0.00  0.00     0.055 A 
ATOM      6  C5  BZF d   1       0.884   1.707   0.616  0.00  0.00    -0.016 A 
ATOM      7  C6  BZF d   1      -0.187   2.388   1.157  0.00  0.00     0.022 A 
ATOM      8  C7  BZF d   1      -1.254   1.729   1.672  0.00  0.00     0.029 A 
ATOM      9  C7A BZF d   1      -1.210   0.356   1.651  0.00  0.00     0.058 A 
ENDROOT
TORSDOF 0
ENDMDL
