MODEL 1
REMARK minimizedAffinity 3.95433784
REMARK minimizedRMSD -1
REMARK  0 active torsions:
REMARK  status: ('A' for Active; 'I' for Inactive)
ROOT
ATOM      1  O1  BZF d   1       3.418  -0.332  -0.662  0.00  0.00    -0.204 OA
ATOM      2  C2  BZF d   1       3.384   0.472  -1.784  0.00  0.00     0.174 A 
ATOM      3  C3  BZF d   1       2.338   1.321  -1.734  0.00  0.00    -0.012 A 
ATOM      4  C3A BZF d   1       1.730   1.093  -0.459  0.00  0.00    -0.107 A 
ATOM      5  C4  BZF d   1       0.657   1.644   0.181  0.00  0.00     0.055 A 
ATOM      6  C5  BZF d   1       0.281   1.146   1.389  0.00  0.00    -0.016 A 
ATOM      7  C6  BZF d   1       0.951   0.096   1.981  0.00  0.00     0.022 A 
ATOM      8  C7  BZF d   1       2.024  -0.480   1.387  0.00  0.00     0.029 A 
ATOM      9  C7A BZF d   1       2.427   0.043   0.182  0.00  0.00     0.058 A 
ENDROOT
TORSDOF 0
ENDMDL
