MODEL 1
REMARK minimizedAffinity 0.935928583
REMARK minimizedRMSD -1
REMARK  0 active torsions:
REMARK  status: ('A' for Active; 'I' for Inactive)
ROOT
ATOM      1  O1  BZF d   1      -1.834   2.981   1.076  0.00  0.00    -0.204 OA
ATOM      2  C2  BZF d   1      -2.999   2.760   1.786  0.00  0.00     0.174 A 
ATOM      3  C3  BZF d   1      -3.048   1.493   2.243  0.00  0.00    -0.012 A 
ATOM      4  C3A BZF d   1      -1.796   0.909   1.870  0.00  0.00    -0.107 A 
ATOM      5  C4  BZF d   1      -1.242  -0.325   2.056  0.00  0.00     0.055 A 
ATOM      6  C5  BZF d   1      -0.031  -0.596   1.503  0.00  0.00    -0.016 A 
ATOM      7  C6  BZF d   1       0.651   0.340   0.753  0.00  0.00     0.022 A 
ATOM      8  C7  BZF d   1       0.145   1.580   0.545  0.00  0.00     0.029 A 
ATOM      9  C7A BZF d   1      -1.064   1.868   1.131  0.00  0.00     0.058 A 
ENDROOT
TORSDOF 0
ENDMDL
