MODEL 1
REMARK minimizedAffinity 7.29473734
REMARK minimizedRMSD -1
REMARK  0 active torsions:
REMARK  status: ('A' for Active; 'I' for Inactive)
ROOT
ATOM      1  O1  BZF d   1       0.585  -1.547   2.311  0.00  0.00    -0.204 OA
ATOM      2  C2  BZF d   1      -0.634  -1.868   2.877  0.00  0.00     0.174 A 
ATOM      3  C3  BZF d   1      -1.517  -0.863   2.712  0.00  0.00    -0.012 A 
ATOM      4  C3A BZF d   1      -0.834   0.112   1.918  0.00  0.00    -0.107 A 
ATOM      5  C4  BZF d   1      -1.194   1.327   1.409  0.00  0.00     0.055 A 
ATOM      6  C5  BZF d   1      -0.269   2.061   0.737  0.00  0.00    -0.016 A 
ATOM      7  C6  BZF d   1       1.024   1.614   0.560  0.00  0.00     0.022 A 
ATOM      8  C7  BZF d   1       1.426   0.413   1.043  0.00  0.00     0.029 A 
ATOM      9  C7A BZF d   1       0.485  -0.346   1.693  0.00  0.00     0.058 A 
ENDROOT
TORSDOF 0
ENDMDL
