MODEL 1
REMARK minimizedAffinity 0.417333931
REMARK minimizedRMSD -1
REMARK  0 active torsions:
REMARK  status: ('A' for Active; 'I' for Inactive)
ROOT
ATOM      1  O1  BZF d   1      -0.514  -0.733   1.390  0.00  0.00    -0.204 OA
ATOM      2  C2  BZF d   1       0.563  -0.087   0.815  0.00  0.00     0.174 A 
ATOM      3  C3  BZF d   1       0.390   1.251   0.843  0.00  0.00    -0.012 A 
ATOM      4  C3A BZF d   1      -0.832   1.456   1.558  0.00  0.00    -0.107 A 
ATOM      5  C4  BZF d   1      -1.528   2.572   1.926  0.00  0.00     0.055 A 
ATOM      6  C5  BZF d   1      -2.725   2.427   2.553  0.00  0.00    -0.016 A 
ATOM      7  C6  BZF d   1      -3.257   1.184   2.823  0.00  0.00     0.022 A 
ATOM      8  C7  BZF d   1      -2.602   0.048   2.481  0.00  0.00     0.029 A 
ATOM      9  C7A BZF d   1      -1.377   0.191   1.877  0.00  0.00     0.058 A 
ENDROOT
TORSDOF 0
ENDMDL
