MODEL 1
REMARK minimizedAffinity 1.43188536
REMARK minimizedRMSD -1
REMARK  0 active torsions:
REMARK  status: ('A' for Active; 'I' for Inactive)
ROOT
ATOM      1  O1  BZF d   1      -1.732   1.781   1.473  0.00  0.00    -0.204 OA
ATOM      2  C2  BZF d   1      -0.908   2.839   1.138  0.00  0.00     0.174 A 
ATOM      3  C3  BZF d   1       0.350   2.411   0.910  0.00  0.00    -0.012 A 
ATOM      4  C3A BZF d   1       0.290   0.986   1.026  0.00  0.00    -0.107 A 
ATOM      5  C4  BZF d   1       1.219  -0.006   0.892  0.00  0.00     0.055 A 
ATOM      6  C5  BZF d   1       0.853  -1.291   1.142  0.00  0.00    -0.016 A 
ATOM      7  C6  BZF d   1      -0.429  -1.618   1.532  0.00  0.00     0.022 A 
ATOM      8  C7  BZF d   1      -1.386  -0.668   1.673  0.00  0.00     0.029 A 
ATOM      9  C7A BZF d   1      -1.028   0.627   1.390  0.00  0.00     0.058 A 
ENDROOT
TORSDOF 0
ENDMDL
