MODEL 1
REMARK minimizedAffinity 6.42997074
REMARK minimizedRMSD -1
REMARK  0 active torsions:
REMARK  status: ('A' for Active; 'I' for Inactive)
ROOT
ATOM      1  O1  BZF d   1      -4.931   2.001   3.754  0.00  0.00    -0.204 OA
ATOM      2  C2  BZF d   1      -4.954   1.248   4.913  0.00  0.00     0.174 A 
ATOM      3  C3  BZF d   1      -5.253   2.019   5.978  0.00  0.00    -0.012 A 
ATOM      4  C3A BZF d   1      -5.519   3.318   5.440  0.00  0.00    -0.107 A 
ATOM      5  C4  BZF d   1      -5.885   4.508   5.999  0.00  0.00     0.055 A 
ATOM      6  C5  BZF d   1      -5.992   5.606   5.205  0.00  0.00    -0.016 A 
ATOM      7  C6  BZF d   1      -5.735   5.550   3.851  0.00  0.00     0.022 A 
ATOM      8  C7  BZF d   1      -5.374   4.390   3.250  0.00  0.00     0.029 A 
ATOM      9  C7A BZF d   1      -5.297   3.272   4.044  0.00  0.00     0.058 A 
ENDROOT
TORSDOF 0
ENDMDL
