MODEL 1
REMARK minimizedAffinity 0.919718325
REMARK minimizedRMSD -1
REMARK  0 active torsions:
REMARK  status: ('A' for Active; 'I' for Inactive)
ROOT
ATOM      1  O1  BZF d   1      -2.986  -0.097   2.997  0.00  0.00    -0.204 OA
ATOM      2  C2  BZF d   1      -3.681   0.973   3.526  0.00  0.00     0.174 A 
ATOM      3  C3  BZF d   1      -2.939   2.098   3.475  0.00  0.00    -0.012 A 
ATOM      4  C3A BZF d   1      -1.738   1.726   2.792  0.00  0.00    -0.107 A 
ATOM      5  C4  BZF d   1      -0.618   2.413   2.421  0.00  0.00     0.055 A 
ATOM      6  C5  BZF d   1       0.406   1.740   1.832  0.00  0.00    -0.016 A 
ATOM      7  C6  BZF d   1       0.344   0.381   1.605  0.00  0.00     0.022 A 
ATOM      8  C7  BZF d   1      -0.748  -0.343   1.951  0.00  0.00     0.029 A 
ATOM      9  C7A BZF d   1      -1.797   0.341   2.516  0.00  0.00     0.058 A 
ENDROOT
TORSDOF 0
ENDMDL
