MODEL 1
REMARK minimizedAffinity 10.7994642
REMARK minimizedRMSD -1
REMARK  0 active torsions:
REMARK  status: ('A' for Active; 'I' for Inactive)
ROOT
ATOM      1  O1  BZF d   1       2.583  -0.313   2.105  0.00  0.00    -0.204 OA
ATOM      2  C2  BZF d   1       2.372  -0.454   3.463  0.00  0.00     0.174 A 
ATOM      3  C3  BZF d   1       1.269   0.219   3.849  0.00  0.00    -0.012 A 
ATOM      4  C3A BZF d   1       0.707   0.743   2.642  0.00  0.00    -0.107 A 
ATOM      5  C4  BZF d   1      -0.405   1.489   2.370  0.00  0.00     0.055 A 
ATOM      6  C5  BZF d   1      -0.630   1.896   1.093  0.00  0.00    -0.016 A 
ATOM      7  C6  BZF d   1       0.236   1.582   0.067  0.00  0.00     0.022 A 
ATOM      8  C7  BZF d   1       1.348   0.840   0.286  0.00  0.00     0.029 A 
ATOM      9  C7A BZF d   1       1.562   0.399   1.569  0.00  0.00     0.058 A 
ENDROOT
TORSDOF 0
ENDMDL
