MODEL 1
REMARK minimizedAffinity 1.72290981
REMARK minimizedRMSD -1
REMARK  0 active torsions:
REMARK  status: ('A' for Active; 'I' for Inactive)
ROOT
ATOM      1  C   UNL d   1       0.785   2.327   0.961  0.00  0.00     0.124 A 
ATOM      2  C1  UNL d   1       1.516   3.504   1.052  0.00  0.00     0.062 A 
ATOM      3  C2  UNL d   1       1.423   4.464   0.049  0.00  0.00     0.162 A 
ATOM      4  C3  UNL d   1       0.596   4.252  -1.055  0.00  0.00    -0.034 A 
ATOM      5  C4  UNL d   1      -0.134   3.066  -1.139  0.00  0.00     0.162 A 
ATOM      6  C5  UNL d   1      -0.039   2.109  -0.134  0.00  0.00     0.062 A 
ATOM      7  F   UNL d   1      -0.745   0.973  -0.223  0.00  0.00    -0.097 F 
ATOM      8  F1  UNL d   1      -0.939   2.830  -2.186  0.00  0.00    -0.096 F 
ATOM      9  I   UNL d   1       0.456   5.685  -2.557  0.00  0.00    -0.060 I 
ATOM     10  F2  UNL d   1       2.141   5.592   0.162  0.00  0.00    -0.096 F 
ATOM     11  F3  UNL d   1       2.313   3.717   2.109  0.00  0.00    -0.097 F 
ATOM     12  F4  UNL d   1       0.877   1.405   1.928  0.00  0.00    -0.092 F 
ENDROOT
TORSDOF 0
ENDMDL
