MODEL 1
REMARK minimizedAffinity 3.14839697
REMARK minimizedRMSD -1
REMARK  0 active torsions:
REMARK  status: ('A' for Active; 'I' for Inactive)
ROOT
ATOM      1  C   UNL d   1       0.799   2.077   1.265  0.00  0.00     0.124 A 
ATOM      2  C1  UNL d   1       1.602   3.207   1.344  0.00  0.00     0.062 A 
ATOM      3  C2  UNL d   1       1.511   4.199   0.372  0.00  0.00     0.162 A 
ATOM      4  C3  UNL d   1       0.613   4.067  -0.687  0.00  0.00    -0.034 A 
ATOM      5  C4  UNL d   1      -0.190   2.928  -0.760  0.00  0.00     0.162 A 
ATOM      6  C5  UNL d   1      -0.096   1.939   0.213  0.00  0.00     0.062 A 
ATOM      7  F   UNL d   1      -0.873   0.848   0.136  0.00  0.00    -0.097 F 
ATOM      8  F1  UNL d   1      -1.064   2.769  -1.765  0.00  0.00    -0.096 F 
ATOM      9  I   UNL d   1       0.475   5.549  -2.143  0.00  0.00    -0.060 I 
ATOM     10  F2  UNL d   1       2.300   5.280   0.473  0.00  0.00    -0.096 F 
ATOM     11  F3  UNL d   1       2.468   3.342   2.358  0.00  0.00    -0.097 F 
ATOM     12  F4  UNL d   1       0.889   1.124   2.201  0.00  0.00    -0.092 F 
ENDROOT
TORSDOF 0
ENDMDL
