MODEL 1
REMARK minimizedAffinity 4.64675713
REMARK minimizedRMSD -1
REMARK  0 active torsions:
REMARK  status: ('A' for Active; 'I' for Inactive)
ROOT
ATOM      1  C   UNL d   1       2.157   4.611   0.721  0.00  0.00     0.124 A 
ATOM      2  C1  UNL d   1       1.837   3.463   1.433  0.00  0.00     0.062 A 
ATOM      3  C2  UNL d   1       0.863   2.592   0.955  0.00  0.00     0.162 A 
ATOM      4  C3  UNL d   1       0.201   2.864  -0.243  0.00  0.00    -0.034 A 
ATOM      5  C4  UNL d   1       0.527   4.021  -0.953  0.00  0.00     0.162 A 
ATOM      6  C5  UNL d   1       1.502   4.889  -0.471  0.00  0.00     0.062 A 
ATOM      7  F   UNL d   1       1.809   5.998  -1.160  0.00  0.00    -0.097 F 
ATOM      8  F1  UNL d   1      -0.089   4.313  -2.107  0.00  0.00    -0.096 F 
ATOM      9  I   UNL d   1      -1.256   1.563  -0.961  0.00  0.00    -0.060 I 
ATOM     10  F2  UNL d   1       0.575   1.490   1.664  0.00  0.00    -0.096 F 
ATOM     11  F3  UNL d   1       2.468   3.193   2.585  0.00  0.00    -0.097 F 
ATOM     12  F4  UNL d   1       3.094   5.449   1.184  0.00  0.00    -0.092 F 
ENDROOT
TORSDOF 0
ENDMDL
