MODEL 1
REMARK minimizedAffinity 0.901832402
REMARK minimizedRMSD -1
REMARK  0 active torsions:
REMARK  status: ('A' for Active; 'I' for Inactive)
ROOT
ATOM      1  C   UNL d   1       0.887   4.243  -1.111  0.00  0.00     0.124 A 
ATOM      2  C1  UNL d   1       1.881   3.970  -0.181  0.00  0.00     0.062 A 
ATOM      3  C2  UNL d   1       1.751   2.887   0.684  0.00  0.00     0.162 A 
ATOM      4  C3  UNL d   1       0.625   2.068   0.622  0.00  0.00    -0.034 A 
ATOM      5  C4  UNL d   1      -0.371   2.349  -0.316  0.00  0.00     0.162 A 
ATOM      6  C5  UNL d   1      -0.237   3.432  -1.178  0.00  0.00     0.062 A 
ATOM      7  F   UNL d   1      -1.197   3.694  -2.076  0.00  0.00    -0.097 F 
ATOM      8  F1  UNL d   1      -1.467   1.581  -0.403  0.00  0.00    -0.096 F 
ATOM      9  I   UNL d   1       0.428   0.447   1.913  0.00  0.00    -0.060 I 
ATOM     10  F2  UNL d   1       2.727   2.647   1.573  0.00  0.00    -0.096 F 
ATOM     11  F3  UNL d   1       2.967   4.753  -0.113  0.00  0.00    -0.097 F 
ATOM     12  F4  UNL d   1       1.014   5.287  -1.941  0.00  0.00    -0.092 F 
ENDROOT
TORSDOF 0
ENDMDL
