MODEL 1
REMARK minimizedAffinity 6.8854785
REMARK minimizedRMSD -1
REMARK  0 active torsions:
REMARK  status: ('A' for Active; 'I' for Inactive)
ROOT
ATOM      1  C   UNL d   1       0.027   2.669  -0.713  0.00  0.00     0.124 A 
ATOM      2  C1  UNL d   1      -0.145   1.782   0.341  0.00  0.00     0.062 A 
ATOM      3  C2  UNL d   1       0.652   1.882   1.478  0.00  0.00     0.162 A 
ATOM      4  C3  UNL d   1       1.627   2.875   1.568  0.00  0.00    -0.034 A 
ATOM      5  C4  UNL d   1       1.795   3.763   0.504  0.00  0.00     0.162 A 
ATOM      6  C5  UNL d   1       0.997   3.659  -0.630  0.00  0.00     0.062 A 
ATOM      7  F   UNL d   1       1.164   4.517  -1.647  0.00  0.00    -0.097 F 
ATOM      8  F1  UNL d   1       2.723   4.730   0.558  0.00  0.00    -0.096 F 
ATOM      9  I   UNL d   1       2.820   3.029   3.267  0.00  0.00    -0.060 I 
ATOM     10  F2  UNL d   1       0.463   1.011   2.480  0.00  0.00    -0.096 F 
ATOM     11  F3  UNL d   1      -1.080   0.824   0.263  0.00  0.00    -0.097 F 
ATOM     12  F4  UNL d   1      -0.740   2.569  -1.806  0.00  0.00    -0.092 F 
ENDROOT
TORSDOF 0
ENDMDL
