MODEL 1
REMARK minimizedAffinity 15.052763
REMARK minimizedRMSD -1
REMARK  0 active torsions:
REMARK  status: ('A' for Active; 'I' for Inactive)
ROOT
ATOM      1  C   UNL d   1       0.887  -3.250   1.228  0.00  0.00     0.124 A 
ATOM      2  C1  UNL d   1      -0.344  -2.628   1.070  0.00  0.00     0.062 A 
ATOM      3  C2  UNL d   1      -0.424  -1.239   1.017  0.00  0.00     0.162 A 
ATOM      4  C3  UNL d   1       0.730  -0.463   1.121  0.00  0.00    -0.034 A 
ATOM      5  C4  UNL d   1       1.964  -1.096   1.281  0.00  0.00     0.162 A 
ATOM      6  C5  UNL d   1       2.039  -2.484   1.333  0.00  0.00     0.062 A 
ATOM      7  F   UNL d   1       3.229  -3.083   1.486  0.00  0.00    -0.097 F 
ATOM      8  F1  UNL d   1       3.093  -0.380   1.384  0.00  0.00    -0.096 F 
ATOM      9  I   UNL d   1       0.613   1.614   1.042  0.00  0.00    -0.060 I 
ATOM     10  F2  UNL d   1      -1.627  -0.665   0.863  0.00  0.00    -0.096 F 
ATOM     11  F3  UNL d   1      -1.459  -3.366   0.968  0.00  0.00    -0.097 F 
ATOM     12  F4  UNL d   1       0.961  -4.586   1.279  0.00  0.00    -0.092 F 
ENDROOT
TORSDOF 0
ENDMDL
