MODEL 1
REMARK minimizedAffinity 8.13698196
REMARK minimizedRMSD -1
REMARK  0 active torsions:
REMARK  status: ('A' for Active; 'I' for Inactive)
ROOT
ATOM      1  C   UNL d   1       0.465   1.662   0.840  0.00  0.00     0.124 A 
ATOM      2  C1  UNL d   1       1.477   2.612   0.892  0.00  0.00     0.062 A 
ATOM      3  C2  UNL d   1       1.476   3.685   0.006  0.00  0.00     0.162 A 
ATOM      4  C3  UNL d   1       0.459   3.816  -0.940  0.00  0.00    -0.034 A 
ATOM      5  C4  UNL d   1      -0.554   2.857  -0.988  0.00  0.00     0.162 A 
ATOM      6  C5  UNL d   1      -0.549   1.786  -0.100  0.00  0.00     0.062 A 
ATOM      7  F   UNL d   1      -1.527   0.869  -0.152  0.00  0.00    -0.097 F 
ATOM      8  F1  UNL d   1      -1.547   2.952  -1.885  0.00  0.00    -0.096 F 
ATOM      9  I   UNL d   1       0.454   5.419  -2.267  0.00  0.00    -0.060 I 
ATOM     10  F2  UNL d   1       2.465   4.587   0.079  0.00  0.00    -0.096 F 
ATOM     11  F3  UNL d   1       2.458   2.494   1.798  0.00  0.00    -0.097 F 
ATOM     12  F4  UNL d   1       0.469   0.630   1.693  0.00  0.00    -0.092 F 
ENDROOT
TORSDOF 0
ENDMDL
