MODEL 1
REMARK minimizedAffinity 11.8412056
REMARK minimizedRMSD -1
REMARK  1 active torsions:
REMARK  status: ('A' for Active; 'I' for Inactive)
REMARK    1  A    between atoms: C1_2  and  C2_3 
ROOT
ATOM      1  C2  UNL d   1      -0.172   2.797   0.406  0.00  0.00    -0.073 A 
ATOM      2  C3  UNL d   1      -1.358   2.591   1.120  0.00  0.00    -0.002 A 
ATOM      3  C4  UNL d   1      -1.318   2.115   2.431  0.00  0.00     0.004 A 
ATOM      4  C5  UNL d   1      -0.094   1.846   3.043  0.00  0.00    -0.004 A 
ATOM      5  C6  UNL d   1       1.103   2.056   2.350  0.00  0.00    -0.075 A 
ATOM      6  C7  UNL d   1       2.428   1.770   2.994  0.00  0.00     0.076 C 
ATOM      7  C8  UNL d   1       1.054   2.532   1.033  0.00  0.00     0.001 A 
ENDROOT
BRANCH   1   8
ATOM      8  C1  UNL d   1      -0.210   3.317  -1.007  0.00  0.00     0.053 C 
ATOM      9  C   UNL d   1       0.843   4.387  -1.249  0.00  0.00     0.018 C 
ENDBRANCH   1   8
TORSDOF 1
ENDMDL
