MODEL 1
REMARK minimizedAffinity 15.284791
REMARK minimizedRMSD -1
REMARK  1 active torsions:
REMARK  status: ('A' for Active; 'I' for Inactive)
REMARK    1  A    between atoms: C1_2  and  C2_3 
ROOT
ATOM      1  C2  UNL d   1       0.992   1.012   0.626  0.00  0.00    -0.073 A 
ATOM      2  C3  UNL d   1       0.894   1.537  -0.668  0.00  0.00    -0.002 A 
ATOM      3  C4  UNL d   1      -0.231   2.271  -1.047  0.00  0.00     0.004 A 
ATOM      4  C5  UNL d   1      -1.265   2.492  -0.137  0.00  0.00    -0.004 A 
ATOM      5  C6  UNL d   1      -1.180   1.985   1.164  0.00  0.00    -0.075 A 
ATOM      6  C7  UNL d   1      -2.284   2.212   2.154  0.00  0.00     0.076 C 
ATOM      7  C8  UNL d   1      -0.048   1.247   1.536  0.00  0.00     0.001 A 
ENDROOT
BRANCH   1   8
ATOM      8  C1  UNL d   1       2.208   0.225   1.042  0.00  0.00     0.053 C 
ATOM      9  C   UNL d   1       2.377  -1.041   0.218  0.00  0.00     0.018 C 
ENDBRANCH   1   8
TORSDOF 1
ENDMDL
