MODEL 1
REMARK minimizedAffinity 7.66840363
REMARK minimizedRMSD -1
REMARK  1 active torsions:
REMARK  status: ('A' for Active; 'I' for Inactive)
REMARK    1  A    between atoms: C1_2  and  C2_3 
ROOT
ATOM      1  C2  UNL d   1      -1.434   4.599   0.611  0.00  0.00    -0.073 A 
ATOM      2  C3  UNL d   1      -1.060   4.371  -0.718  0.00  0.00    -0.002 A 
ATOM      3  C4  UNL d   1      -0.390   3.199  -1.072  0.00  0.00     0.004 A 
ATOM      4  C5  UNL d   1      -0.093   2.241  -0.103  0.00  0.00    -0.004 A 
ATOM      5  C6  UNL d   1      -0.469   2.445   1.229  0.00  0.00    -0.075 A 
ATOM      6  C7  UNL d   1      -0.155   1.425   2.284  0.00  0.00     0.076 C 
ATOM      7  C8  UNL d   1      -1.139   3.625   1.576  0.00  0.00     0.001 A 
ENDROOT
BRANCH   1   8
ATOM      8  C1  UNL d   1      -2.163   5.860   0.996  0.00  0.00     0.053 C 
ATOM      9  C   UNL d   1      -2.918   5.704   2.306  0.00  0.00     0.018 C 
ENDBRANCH   1   8
TORSDOF 1
ENDMDL
