MODEL 1
REMARK minimizedAffinity 7.70501232
REMARK minimizedRMSD -1
REMARK  1 active torsions:
REMARK  status: ('A' for Active; 'I' for Inactive)
REMARK    1  A    between atoms: C1_2  and  C2_3 
ROOT
ATOM      1  C2  UNL d   1       0.414   3.374  -1.092  0.00  0.00    -0.073 A 
ATOM      2  C3  UNL d   1      -0.973   3.284  -0.934  0.00  0.00    -0.002 A 
ATOM      3  C4  UNL d   1      -1.520   2.404   0.002  0.00  0.00     0.004 A 
ATOM      4  C5  UNL d   1      -0.687   1.613   0.792  0.00  0.00    -0.004 A 
ATOM      5  C6  UNL d   1       0.703   1.698   0.657  0.00  0.00    -0.075 A 
ATOM      6  C7  UNL d   1       1.613   0.851   1.498  0.00  0.00     0.076 C 
ATOM      7  C8  UNL d   1       1.244   2.581  -0.286  0.00  0.00     0.001 A 
ENDROOT
BRANCH   1   8
ATOM      8  C1  UNL d   1       1.010   4.327  -2.096  0.00  0.00     0.053 C 
ATOM      9  C   UNL d   1       1.916   5.356  -1.438  0.00  0.00     0.018 C 
ENDBRANCH   1   8
TORSDOF 1
ENDMDL
