MODEL 1
REMARK minimizedAffinity 9.81132984
REMARK minimizedRMSD -1
REMARK  1 active torsions:
REMARK  status: ('A' for Active; 'I' for Inactive)
REMARK    1  A    between atoms: C1_2  and  C2_3 
ROOT
ATOM      1  C2  UNL d   1      -1.056   4.571  -0.104  0.00  0.00    -0.073 A 
ATOM      2  C3  UNL d   1      -0.162   4.568  -1.180  0.00  0.00    -0.002 A 
ATOM      3  C4  UNL d   1       0.820   3.582  -1.278  0.00  0.00     0.004 A 
ATOM      4  C5  UNL d   1       0.914   2.585  -0.307  0.00  0.00    -0.004 A 
ATOM      5  C6  UNL d   1       0.022   2.564   0.770  0.00  0.00    -0.075 A 
ATOM      6  C7  UNL d   1       0.110   1.500   1.824  0.00  0.00     0.076 C 
ATOM      7  C8  UNL d   1      -0.960   3.559   0.863  0.00  0.00     0.001 A 
ENDROOT
BRANCH   1   8
ATOM      8  C1  UNL d   1      -2.122   5.630   0.003  0.00  0.00     0.053 C 
ATOM      9  C   UNL d   1      -2.566   5.849   1.441  0.00  0.00     0.018 C 
ENDBRANCH   1   8
TORSDOF 1
ENDMDL
