MODEL 1
REMARK minimizedAffinity 16.9952526
REMARK minimizedRMSD -1
REMARK  1 active torsions:
REMARK  status: ('A' for Active; 'I' for Inactive)
REMARK    1  A    between atoms: C1_2  and  C2_3 
ROOT
ATOM      1  C2  UNL d   1       3.259  -5.233  -2.700  0.00  0.00    -0.073 A 
ATOM      2  C3  UNL d   1       3.982  -5.319  -3.895  0.00  0.00    -0.002 A 
ATOM      3  C4  UNL d   1       5.345  -5.614  -3.874  0.00  0.00     0.004 A 
ATOM      4  C5  UNL d   1       5.998  -5.833  -2.661  0.00  0.00    -0.004 A 
ATOM      5  C6  UNL d   1       5.290  -5.763  -1.457  0.00  0.00    -0.075 A 
ATOM      6  C7  UNL d   1       5.978  -5.993  -0.143  0.00  0.00     0.076 C 
ATOM      7  C8  UNL d   1       3.922  -5.464  -1.486  0.00  0.00     0.001 A 
ENDROOT
BRANCH   1   8
ATOM      8  C1  UNL d   1       1.785  -4.921  -2.718  0.00  0.00     0.053 C 
ATOM      9  C   UNL d   1       1.370  -4.061  -1.535  0.00  0.00     0.018 C 
ENDBRANCH   1   8
TORSDOF 1
ENDMDL
