MODEL 1
REMARK minimizedAffinity -0.0144855268
REMARK minimizedRMSD -1
REMARK  2 active torsions:
REMARK  status: ('A' for Active; 'I' for Inactive)
REMARK    1  A    between atoms: C2'_3  and  C1'_4 
REMARK    2  A    between atoms: C1'_4  and  C1_5 
ROOT
ATOM      1  C1  I4B d   1       2.955  -0.809  -0.870  0.00  0.00    -0.075 A 
ATOM      2  C2  I4B d   1       2.028  -1.752  -0.503  0.00  0.00     0.003 A 
ATOM      3  C3  I4B d   1       1.018  -1.431   0.436  0.00  0.00     0.002 A 
ATOM      4  C4  I4B d   1       1.004  -0.179   1.017  0.00  0.00    -0.004 A 
ATOM      5  C5  I4B d   1       1.931   0.783   0.626  0.00  0.00     0.002 A 
ATOM      6  C6  I4B d   1       2.905   0.470  -0.332  0.00  0.00     0.003 A 
ENDROOT
BRANCH   1   7
ATOM      7  C1' I4B d   1       4.028  -1.193  -1.840  0.00  0.00     0.060 C 
BRANCH   7   8
ATOM      8  C2' I4B d   1       4.973  -0.017  -1.979  0.00  0.00    -0.013 C 
ATOM      9  C4' I4B d   1       6.000  -0.267  -3.052  0.00  0.00     0.013 C 
ATOM     10  C3' I4B d   1       4.154   1.201  -2.287  0.00  0.00     0.013 C 
ENDBRANCH   7   8
ENDBRANCH   1   7
TORSDOF 2
ENDMDL
