MODEL 1
REMARK minimizedAffinity 5.21968412
REMARK minimizedRMSD -1
REMARK  2 active torsions:
REMARK  status: ('A' for Active; 'I' for Inactive)
REMARK    1  A    between atoms: C2'_3  and  C1'_4 
REMARK    2  A    between atoms: C1'_4  and  C1_5 
ROOT
ATOM      1  C1  I4B d   1       2.026   0.361  -0.675  0.00  0.00    -0.075 A 
ATOM      2  C2  I4B d   1       1.202  -0.735  -0.751  0.00  0.00     0.003 A 
ATOM      3  C3  I4B d   1       0.301  -1.024   0.302  0.00  0.00     0.002 A 
ATOM      4  C4  I4B d   1       0.293  -0.226   1.428  0.00  0.00    -0.004 A 
ATOM      5  C5  I4B d   1       1.112   0.897   1.494  0.00  0.00     0.002 A 
ATOM      6  C6  I4B d   1       1.976   1.200   0.431  0.00  0.00     0.003 A 
ENDROOT
BRANCH   1   7
ATOM      7  C1' I4B d   1       2.988   0.618  -1.790  0.00  0.00     0.060 C 
BRANCH   7   8
ATOM      8  C2' I4B d   1       3.572  -0.713  -2.219  0.00  0.00    -0.013 C 
ATOM      9  C4' I4B d   1       4.895  -0.529  -2.915  0.00  0.00     0.013 C 
ATOM     10  C3' I4B d   1       3.717  -1.570  -0.997  0.00  0.00     0.013 C 
ENDBRANCH   7   8
ENDBRANCH   1   7
TORSDOF 2
ENDMDL
