MODEL 1
REMARK minimizedAffinity 1.23169053
REMARK minimizedRMSD -1
REMARK  2 active torsions:
REMARK  status: ('A' for Active; 'I' for Inactive)
REMARK    1  A    between atoms: C2'_3  and  C1'_4 
REMARK    2  A    between atoms: C1'_4  and  C1_5 
ROOT
ATOM      1  C1  I4B d   1       2.516  -0.650  -1.021  0.00  0.00    -0.075 A 
ATOM      2  C2  I4B d   1       2.673  -1.554  -0.000  0.00  0.00     0.003 A 
ATOM      3  C3  I4B d   1       1.837  -1.491   1.141  0.00  0.00     0.002 A 
ATOM      4  C4  I4B d   1       0.899  -0.485   1.242  0.00  0.00    -0.004 A 
ATOM      5  C5  I4B d   1       0.726   0.417   0.196  0.00  0.00     0.002 A 
ATOM      6  C6  I4B d   1       1.532   0.327  -0.949  0.00  0.00     0.003 A 
ENDROOT
BRANCH   1   7
ATOM      7  C1' I4B d   1       3.438  -0.724  -2.197  0.00  0.00     0.060 C 
BRANCH   7   8
ATOM      8  C2' I4B d   1       4.561   0.268  -1.974  0.00  0.00    -0.013 C 
ATOM      9  C4' I4B d   1       5.762  -0.070  -2.817  0.00  0.00     0.013 C 
ATOM     10  C3' I4B d   1       4.040   1.637  -2.297  0.00  0.00     0.013 C 
ENDBRANCH   7   8
ENDBRANCH   1   7
TORSDOF 2
ENDMDL
