MODEL 1
REMARK minimizedAffinity 0.851471603
REMARK minimizedRMSD -1
REMARK  2 active torsions:
REMARK  status: ('A' for Active; 'I' for Inactive)
REMARK    1  A    between atoms: C2'_3  and  C1'_4 
REMARK    2  A    between atoms: C1'_4  and  C1_5 
ROOT
ATOM      1  C1  I4B d   1       2.124   0.169  -0.248  0.00  0.00    -0.075 A 
ATOM      2  C2  I4B d   1       2.063   1.104   0.754  0.00  0.00     0.003 A 
ATOM      3  C3  I4B d   1       1.093   0.989   1.779  0.00  0.00     0.002 A 
ATOM      4  C4  I4B d   1       0.178  -0.043   1.735  0.00  0.00    -0.004 A 
ATOM      5  C5  I4B d   1       0.256  -1.003   0.731  0.00  0.00     0.002 A 
ATOM      6  C6  I4B d   1       1.243  -0.904  -0.260  0.00  0.00     0.003 A 
ENDROOT
BRANCH   1   7
ATOM      7  C1' I4B d   1       3.140   0.339  -1.333  0.00  0.00     0.060 C 
BRANCH   7   8
ATOM      8  C2' I4B d   1       4.004  -0.905  -1.364  0.00  0.00    -0.013 C 
ATOM      9  C4' I4B d   1       3.184  -2.130  -1.676  0.00  0.00     0.013 C 
ATOM     10  C3' I4B d   1       5.079  -0.698  -2.388  0.00  0.00     0.013 C 
ENDBRANCH   7   8
ENDBRANCH   1   7
TORSDOF 2
ENDMDL
