MODEL 1
REMARK minimizedAffinity 1.5360074
REMARK minimizedRMSD -1
REMARK  2 active torsions:
REMARK  status: ('A' for Active; 'I' for Inactive)
REMARK    1  A    between atoms: C2'_3  and  C1'_4 
REMARK    2  A    between atoms: C1'_4  and  C1_5 
ROOT
ATOM      1  C1  I4B d   1       2.983   0.470  -1.015  0.00  0.00    -0.075 A 
ATOM      2  C2  I4B d   1       2.263  -0.658  -1.320  0.00  0.00     0.003 A 
ATOM      3  C3  I4B d   1       1.174  -1.051  -0.505  0.00  0.00     0.002 A 
ATOM      4  C4  I4B d   1       0.874  -0.321   0.626  0.00  0.00    -0.004 A 
ATOM      5  C5  I4B d   1       1.590   0.835   0.922  0.00  0.00     0.002 A 
ATOM      6  C6  I4B d   1       2.643   1.241   0.089  0.00  0.00     0.003 A 
ENDROOT
BRANCH   1   7
ATOM      7  C1' I4B d   1       4.147   0.839  -1.879  0.00  0.00     0.060 C 
BRANCH   7   8
ATOM      8  C2' I4B d   1       4.824  -0.443  -2.321  0.00  0.00    -0.013 C 
ATOM      9  C4' I4B d   1       5.999  -0.157  -3.219  0.00  0.00     0.013 C 
ATOM     10  C3' I4B d   1       5.251  -1.188  -1.092  0.00  0.00     0.013 C 
ENDBRANCH   7   8
ENDBRANCH   1   7
TORSDOF 2
ENDMDL
