MODEL 1
REMARK minimizedAffinity 2.62738132
REMARK minimizedRMSD -1
REMARK  2 active torsions:
REMARK  status: ('A' for Active; 'I' for Inactive)
REMARK    1  A    between atoms: C2'_3  and  C1'_4 
REMARK    2  A    between atoms: C1'_4  and  C1_5 
ROOT
ATOM      1  C1  I4B d   1       2.658  -0.195  -0.787  0.00  0.00    -0.075 A 
ATOM      2  C2  I4B d   1       3.520  -1.223  -1.077  0.00  0.00     0.003 A 
ATOM      3  C3  I4B d   1       4.708  -0.972  -1.807  0.00  0.00     0.002 A 
ATOM      4  C4  I4B d   1       4.966   0.303  -2.268  0.00  0.00    -0.004 A 
ATOM      5  C5  I4B d   1       4.101   1.347  -1.953  0.00  0.00     0.002 A 
ATOM      6  C6  I4B d   1       2.946   1.100  -1.198  0.00  0.00     0.003 A 
ENDROOT
BRANCH   1   7
ATOM      7  C1' I4B d   1       1.397  -0.501  -0.043  0.00  0.00     0.060 C 
BRANCH   7   8
ATOM      8  C2' I4B d   1       1.512   0.107   1.340  0.00  0.00    -0.013 C 
ATOM      9  C4' I4B d   1       1.727   1.596   1.265  0.00  0.00     0.013 C 
ATOM     10  C3' I4B d   1       0.259  -0.221   2.096  0.00  0.00     0.013 C 
ENDBRANCH   7   8
ENDBRANCH   1   7
TORSDOF 2
ENDMDL
