MODEL 1
REMARK minimizedAffinity 5.2479229
REMARK minimizedRMSD -1
REMARK  2 active torsions:
REMARK  status: ('A' for Active; 'I' for Inactive)
REMARK    1  A    between atoms: C2'_3  and  C1'_4 
REMARK    2  A    between atoms: C1'_4  and  C1_5 
ROOT
ATOM      1  C1  I4B d   1       2.282   0.445  -0.967  0.00  0.00    -0.075 A 
ATOM      2  C2  I4B d   1       1.312  -0.241  -0.279  0.00  0.00     0.003 A 
ATOM      3  C3  I4B d   1       1.438  -1.636  -0.072  0.00  0.00     0.002 A 
ATOM      4  C4  I4B d   1       2.517  -2.309  -0.608  0.00  0.00    -0.004 A 
ATOM      5  C5  I4B d   1       3.511  -1.607  -1.285  0.00  0.00     0.002 A 
ATOM      6  C6  I4B d   1       3.399  -0.220  -1.455  0.00  0.00     0.003 A 
ENDROOT
BRANCH   1   7
ATOM      7  C1' I4B d   1       2.101   1.912  -1.196  0.00  0.00     0.060 C 
BRANCH   7   8
ATOM      8  C2' I4B d   1       2.717   2.648  -0.023  0.00  0.00    -0.013 C 
ATOM      9  C4' I4B d   1       3.947   3.409  -0.442  0.00  0.00     0.013 C 
ATOM     10  C3' I4B d   1       1.678   3.568   0.544  0.00  0.00     0.013 C 
ENDBRANCH   7   8
ENDBRANCH   1   7
TORSDOF 2
ENDMDL
