MODEL 1
REMARK minimizedAffinity 10.0666351
REMARK minimizedRMSD -1
REMARK  2 active torsions:
REMARK  status: ('A' for Active; 'I' for Inactive)
REMARK    1  A    between atoms: C2'_3  and  C1'_4 
REMARK    2  A    between atoms: C1'_4  and  C1_5 
ROOT
ATOM      1  C1  I4B d   1      -0.244   3.839  -2.896  0.00  0.00    -0.075 A 
ATOM      2  C2  I4B d   1      -1.571   3.562  -3.111  0.00  0.00     0.003 A 
ATOM      3  C3  I4B d   1      -2.569   4.449  -2.642  0.00  0.00     0.002 A 
ATOM      4  C4  I4B d   1      -2.201   5.568  -1.923  0.00  0.00    -0.004 A 
ATOM      5  C5  I4B d   1      -0.854   5.859  -1.725  0.00  0.00     0.002 A 
ATOM      6  C6  I4B d   1       0.131   4.995  -2.225  0.00  0.00     0.003 A 
ENDROOT
BRANCH   1   7
ATOM      7  C1' I4B d   1       0.783   2.863  -3.376  0.00  0.00     0.060 C 
BRANCH   7   8
ATOM      8  C2' I4B d   1       0.094   1.875  -4.295  0.00  0.00    -0.013 C 
ATOM      9  C4' I4B d   1       0.810   1.769  -5.617  0.00  0.00     0.013 C 
ATOM     10  C3' I4B d   1       0.047   0.549  -3.597  0.00  0.00     0.013 C 
ENDBRANCH   7   8
ENDBRANCH   1   7
TORSDOF 2
ENDMDL
