MODEL 1
REMARK minimizedAffinity 0.924864948
REMARK minimizedRMSD -1
REMARK  2 active torsions:
REMARK  status: ('A' for Active; 'I' for Inactive)
REMARK    1  A    between atoms: C2'_3  and  C1'_4 
REMARK    2  A    between atoms: C1'_4  and  C1_5 
ROOT
ATOM      1  C1  I4B d   1       0.967  -1.061   1.025  0.00  0.00    -0.075 A 
ATOM      2  C2  I4B d   1       0.915   0.280   0.738  0.00  0.00     0.003 A 
ATOM      3  C3  I4B d   1       1.893   0.868  -0.100  0.00  0.00     0.002 A 
ATOM      4  C4  I4B d   1       2.928   0.093  -0.584  0.00  0.00    -0.004 A 
ATOM      5  C5  I4B d   1       2.966  -1.271  -0.310  0.00  0.00     0.002 A 
ATOM      6  C6  I4B d   1       1.973  -1.855   0.489  0.00  0.00     0.003 A 
ENDROOT
BRANCH   1   7
ATOM      7  C1' I4B d   1      -0.064  -1.643   1.940  0.00  0.00     0.060 C 
BRANCH   7   8
ATOM      8  C2' I4B d   1      -1.361  -0.890   1.721  0.00  0.00    -0.013 C 
ATOM      9  C4' I4B d   1      -2.538  -1.830   1.688  0.00  0.00     0.013 C 
ATOM     10  C3' I4B d   1      -1.503   0.118   2.822  0.00  0.00     0.013 C 
ENDBRANCH   7   8
ENDBRANCH   1   7
TORSDOF 2
ENDMDL
