MODEL 1
REMARK minimizedAffinity -0.061288923
REMARK minimizedRMSD -1
REMARK  2 active torsions:
REMARK  status: ('A' for Active; 'I' for Inactive)
REMARK    1  A    between atoms: C2'_3  and  C1'_4 
REMARK    2  A    between atoms: C1'_4  and  C1_5 
ROOT
ATOM      1  C1  I4B d   1       2.734  -0.666  -1.244  0.00  0.00    -0.075 A 
ATOM      2  C2  I4B d   1       2.185  -1.679  -0.498  0.00  0.00     0.003 A 
ATOM      3  C3  I4B d   1       1.413  -1.381   0.650  0.00  0.00     0.002 A 
ATOM      4  C4  I4B d   1       1.258  -0.067   1.042  0.00  0.00    -0.004 A 
ATOM      5  C5  I4B d   1       1.796   0.960   0.272  0.00  0.00     0.002 A 
ATOM      6  C6  I4B d   1       2.529   0.659  -0.886  0.00  0.00     0.003 A 
ENDROOT
BRANCH   1   7
ATOM      7  C1' I4B d   1       3.572  -1.019  -2.433  0.00  0.00     0.060 C 
BRANCH   7   8
ATOM      8  C2' I4B d   1       4.833  -0.180  -2.380  0.00  0.00    -0.013 C 
ATOM      9  C4' I4B d   1       5.879  -0.710  -3.325  0.00  0.00     0.013 C 
ATOM     10  C3' I4B d   1       4.463   1.233  -2.718  0.00  0.00     0.013 C 
ENDBRANCH   7   8
ENDBRANCH   1   7
TORSDOF 2
ENDMDL
