MODEL 1
REMARK minimizedAffinity 1.70800567
REMARK minimizedRMSD -1
REMARK  2 active torsions:
REMARK  status: ('A' for Active; 'I' for Inactive)
REMARK    1  A    between atoms: C2'_3  and  C1'_4 
REMARK    2  A    between atoms: C1'_4  and  C1_5 
ROOT
ATOM      1  C1  I4B d   1      -0.746  -1.078   1.923  0.00  0.00    -0.075 A 
ATOM      2  C2  I4B d   1      -1.616  -2.054   1.505  0.00  0.00     0.003 A 
ATOM      3  C3  I4B d   1      -3.008  -1.904   1.713  0.00  0.00     0.002 A 
ATOM      4  C4  I4B d   1      -3.480  -0.795   2.384  0.00  0.00    -0.004 A 
ATOM      5  C5  I4B d   1      -2.598   0.204   2.787  0.00  0.00     0.002 A 
ATOM      6  C6  I4B d   1      -1.224   0.068   2.544  0.00  0.00     0.003 A 
ENDROOT
BRANCH   1   7
ATOM      7  C1' I4B d   1       0.721  -1.284   1.716  0.00  0.00     0.060 C 
BRANCH   7   8
ATOM      8  C2' I4B d   1       1.112  -0.597   0.424  0.00  0.00    -0.013 C 
ATOM      9  C4' I4B d   1       1.773   0.730   0.690  0.00  0.00     0.013 C 
ATOM     10  C3' I4B d   1       2.025  -1.515  -0.331  0.00  0.00     0.013 C 
ENDBRANCH   7   8
ENDBRANCH   1   7
TORSDOF 2
ENDMDL
