MODEL 1
REMARK minimizedAffinity -2.42302465
REMARK minimizedRMSD -1
REMARK  2 active torsions:
REMARK  status: ('A' for Active; 'I' for Inactive)
REMARK    1  A    between atoms: C2'_3  and  C1'_4 
REMARK    2  A    between atoms: C1'_4  and  C1_5 
ROOT
ATOM      1  C1  I4B d   1      -0.765  -1.046   2.062  0.00  0.00    -0.075 A 
ATOM      2  C2  I4B d   1      -1.504  -2.125   1.644  0.00  0.00     0.003 A 
ATOM      3  C3  I4B d   1      -2.874  -1.969   1.323  0.00  0.00     0.002 A 
ATOM      4  C4  I4B d   1      -3.473  -0.735   1.481  0.00  0.00    -0.004 A 
ATOM      5  C5  I4B d   1      -2.716   0.362   1.882  0.00  0.00     0.002 A 
ATOM      6  C6  I4B d   1      -1.351   0.209   2.163  0.00  0.00     0.003 A 
ENDROOT
BRANCH   1   7
ATOM      7  C1' I4B d   1       0.671  -1.254   2.425  0.00  0.00     0.060 C 
BRANCH   7   8
ATOM      8  C2' I4B d   1       1.462  -1.391   1.140  0.00  0.00    -0.013 C 
ATOM      9  C4' I4B d   1       2.834  -0.784   1.276  0.00  0.00     0.013 C 
ATOM     10  C3' I4B d   1       1.547  -2.850   0.802  0.00  0.00     0.013 C 
ENDBRANCH   7   8
ENDBRANCH   1   7
TORSDOF 2
ENDMDL
