MODEL 1
REMARK minimizedAffinity 10.4100828
REMARK minimizedRMSD -1
REMARK  0 active torsions:
REMARK  status: ('A' for Active; 'I' for Inactive)
ROOT
ATOM      1  N1  IND d   1       2.541   5.025  -1.018  0.00  0.00    -0.196 N 
ATOM      2  C2  IND d   1       1.849   5.730  -1.963  0.00  0.00     0.054 A 
ATOM      3  C3  IND d   1       0.628   5.184  -2.157  0.00  0.00    -0.031 A 
ATOM      4  C4  IND d   1      -0.482   3.193  -0.960  0.00  0.00     0.051 A 
ATOM      5  C5  IND d   1      -0.229   2.208  -0.047  0.00  0.00    -0.031 A 
ATOM      6  C6  IND d   1       0.984   2.112   0.604  0.00  0.00     0.015 A 
ATOM      7  C7  IND d   1       1.989   3.007   0.374  0.00  0.00    -0.016 A 
ATOM      8  C8  IND d   1       1.738   4.005  -0.558  0.00  0.00    -0.047 A 
ATOM      9  C9  IND d   1       0.525   4.082  -1.253  0.00  0.00    -0.096 A 
ATOM     10  HN1 IND d   1       3.343   5.191  -0.756  0.00  0.00     0.298 HD
ENDROOT
TORSDOF 0
ENDMDL
