MODEL 1
REMARK minimizedAffinity -0.644330382
REMARK minimizedRMSD -1
REMARK  0 active torsions:
REMARK  status: ('A' for Active; 'I' for Inactive)
ROOT
ATOM      1  N1  IND d   1       4.638  -5.968  -5.393  0.00  0.00    -0.196 N 
ATOM      2  C2  IND d   1       3.378  -5.972  -5.924  0.00  0.00     0.054 A 
ATOM      3  C3  IND d   1       2.452  -6.000  -4.939  0.00  0.00    -0.031 A 
ATOM      4  C4  IND d   1       2.777  -5.942  -2.386  0.00  0.00     0.051 A 
ATOM      5  C5  IND d   1       3.746  -5.972  -1.423  0.00  0.00    -0.031 A 
ATOM      6  C6  IND d   1       5.089  -6.000  -1.740  0.00  0.00     0.015 A 
ATOM      7  C7  IND d   1       5.515  -5.988  -3.038  0.00  0.00    -0.016 A 
ATOM      8  C8  IND d   1       4.534  -5.964  -4.019  0.00  0.00    -0.047 A 
ATOM      9  C9  IND d   1       3.169  -5.979  -3.704  0.00  0.00    -0.096 A 
ATOM     10  HN1 IND d   1       5.371  -5.969  -5.841  0.00  0.00     0.298 HD
ENDROOT
TORSDOF 0
ENDMDL
