MODEL 1
REMARK minimizedAffinity -2.74030161
REMARK minimizedRMSD -1
REMARK  0 active torsions:
REMARK  status: ('A' for Active; 'I' for Inactive)
ROOT
ATOM      1  N1  IND d   1       5.199  -5.976  -2.376  0.00  0.00    -0.196 N 
ATOM      2  C2  IND d   1       4.130  -5.998  -1.525  0.00  0.00     0.054 A 
ATOM      3  C3  IND d   1       2.976  -5.864  -2.217  0.00  0.00    -0.031 A 
ATOM      4  C4  IND d   1       2.602  -5.697  -4.758  0.00  0.00     0.051 A 
ATOM      5  C5  IND d   1       3.277  -5.598  -5.942  0.00  0.00    -0.031 A 
ATOM      6  C6  IND d   1       4.656  -5.622  -6.000  0.00  0.00     0.015 A 
ATOM      7  C7  IND d   1       5.413  -5.760  -4.871  0.00  0.00    -0.016 A 
ATOM      8  C8  IND d   1       4.731  -5.854  -3.666  0.00  0.00    -0.047 A 
ATOM      9  C9  IND d   1       3.333  -5.787  -3.598  0.00  0.00    -0.096 A 
ATOM     10  HN1 IND d   1       6.026  -6.029  -2.145  0.00  0.00     0.298 HD
ENDROOT
TORSDOF 0
ENDMDL
