MODEL 1
REMARK minimizedAffinity 4.74929142
REMARK minimizedRMSD -1
REMARK  0 active torsions:
REMARK  status: ('A' for Active; 'I' for Inactive)
ROOT
ATOM      1  N1  IND d   1       4.501  -5.771   0.622  0.00  0.00    -0.196 N 
ATOM      2  C2  IND d   1       3.357  -5.925   1.354  0.00  0.00     0.054 A 
ATOM      3  C3  IND d   1       2.282  -6.000   0.538  0.00  0.00    -0.031 A 
ATOM      4  C4  IND d   1       2.178  -5.993  -2.034  0.00  0.00     0.051 A 
ATOM      5  C5  IND d   1       2.961  -5.837  -3.143  0.00  0.00    -0.031 A 
ATOM      6  C6  IND d   1       4.325  -5.649  -3.053  0.00  0.00     0.015 A 
ATOM      7  C7  IND d   1       4.962  -5.622  -1.844  0.00  0.00    -0.016 A 
ATOM      8  C8  IND d   1       4.169  -5.774  -0.715  0.00  0.00    -0.047 A 
ATOM      9  C9  IND d   1       2.779  -5.922  -0.799  0.00  0.00    -0.096 A 
ATOM     10  HN1 IND d   1       5.295  -5.686   0.942  0.00  0.00     0.298 HD
ENDROOT
TORSDOF 0
ENDMDL
