MODEL 1
REMARK minimizedAffinity 3.44905686
REMARK minimizedRMSD -1
REMARK  0 active torsions:
REMARK  status: ('A' for Active; 'I' for Inactive)
ROOT
ATOM      1  N1  IND d   1       4.888  -5.987  -5.258  0.00  0.00    -0.196 N 
ATOM      2  C2  IND d   1       3.734  -5.983  -5.992  0.00  0.00     0.054 A 
ATOM      3  C3  IND d   1       2.657  -5.998  -5.175  0.00  0.00    -0.031 A 
ATOM      4  C4  IND d   1       2.553  -5.926  -2.604  0.00  0.00     0.051 A 
ATOM      5  C5  IND d   1       3.348  -5.958  -1.493  0.00  0.00    -0.031 A 
ATOM      6  C6  IND d   1       4.724  -5.999  -1.581  0.00  0.00     0.015 A 
ATOM      7  C7  IND d   1       5.360  -5.999  -2.790  0.00  0.00    -0.016 A 
ATOM      8  C8  IND d   1       4.556  -5.974  -3.921  0.00  0.00    -0.047 A 
ATOM      9  C9  IND d   1       3.158  -5.975  -3.838  0.00  0.00    -0.096 A 
ATOM     10  HN1 IND d   1       5.686  -5.997  -5.578  0.00  0.00     0.298 HD
ENDROOT
TORSDOF 0
ENDMDL
