MODEL 1
REMARK minimizedAffinity 2.36305165
REMARK minimizedRMSD -1
REMARK  0 active torsions:
REMARK  status: ('A' for Active; 'I' for Inactive)
ROOT
ATOM      1  N1  IND d   1       2.001  -3.347   2.550  0.00  0.00    -0.196 N 
ATOM      2  C2  IND d   1       1.819  -3.896   3.788  0.00  0.00     0.054 A 
ATOM      3  C3  IND d   1       1.781  -2.928   4.732  0.00  0.00    -0.031 A 
ATOM      4  C4  IND d   1       1.893  -0.371   4.456  0.00  0.00     0.051 A 
ATOM      5  C5  IND d   1       2.094   0.604   3.520  0.00  0.00    -0.031 A 
ATOM      6  C6  IND d   1       2.274   0.306   2.184  0.00  0.00     0.015 A 
ATOM      7  C7  IND d   1       2.250  -0.983   1.733  0.00  0.00    -0.016 A 
ATOM      8  C8  IND d   1       2.054  -1.976   2.682  0.00  0.00    -0.047 A 
ATOM      9  C9  IND d   1       1.913  -1.683   4.044  0.00  0.00    -0.096 A 
ATOM     10  HN1 IND d   1       2.071  -3.783   1.813  0.00  0.00     0.298 HD
ENDROOT
TORSDOF 0
ENDMDL
