MODEL 1
REMARK minimizedAffinity 3.15374112
REMARK minimizedRMSD -1
REMARK  0 active torsions:
REMARK  status: ('A' for Active; 'I' for Inactive)
ROOT
ATOM      1  N1  IND d   1       1.889  -5.988  -2.343  0.00  0.00    -0.196 N 
ATOM      2  C2  IND d   1       2.917  -5.984  -1.442  0.00  0.00     0.054 A 
ATOM      3  C3  IND d   1       4.106  -5.996  -2.085  0.00  0.00    -0.031 A 
ATOM      4  C4  IND d   1       4.601  -5.923  -4.610  0.00  0.00     0.051 A 
ATOM      5  C5  IND d   1       3.985  -5.955  -5.830  0.00  0.00    -0.031 A 
ATOM      6  C6  IND d   1       2.611  -5.998  -5.952  0.00  0.00     0.015 A 
ATOM      7  C7  IND d   1       1.798  -5.999  -4.854  0.00  0.00    -0.016 A 
ATOM      8  C8  IND d   1       2.420  -5.974  -3.614  0.00  0.00    -0.047 A 
ATOM      9  C9  IND d   1       3.815  -5.973  -3.483  0.00  0.00    -0.096 A 
ATOM     10  HN1 IND d   1       1.052  -5.999  -2.148  0.00  0.00     0.298 HD
ENDROOT
TORSDOF 0
ENDMDL
