MODEL 1
REMARK minimizedAffinity 8.1920557
REMARK minimizedRMSD -1
REMARK  0 active torsions:
REMARK  status: ('A' for Active; 'I' for Inactive)
ROOT
ATOM      1  N1  IND d   1       2.561  -3.553   2.906  0.00  0.00    -0.196 N 
ATOM      2  C2  IND d   1       3.828  -3.338   3.370  0.00  0.00     0.054 A 
ATOM      3  C3  IND d   1       4.156  -2.032   3.254  0.00  0.00    -0.031 A 
ATOM      4  C4  IND d   1       2.730  -0.055   2.426  0.00  0.00     0.051 A 
ATOM      5  C5  IND d   1       1.519   0.239   1.865  0.00  0.00    -0.031 A 
ATOM      6  C6  IND d   1       0.573  -0.735   1.620  0.00  0.00     0.015 A 
ATOM      7  C7  IND d   1       0.800  -2.044   1.938  0.00  0.00    -0.016 A 
ATOM      8  C8  IND d   1       2.031  -2.348   2.502  0.00  0.00    -0.047 A 
ATOM      9  C9  IND d   1       3.012  -1.370   2.714  0.00  0.00    -0.096 A 
ATOM     10  HN1 IND d   1       2.161  -4.314   2.872  0.00  0.00     0.298 HD
ENDROOT
TORSDOF 0
ENDMDL
