MODEL 1
REMARK minimizedAffinity -3.11993313
REMARK minimizedRMSD -1
REMARK  0 active torsions:
REMARK  status: ('A' for Active; 'I' for Inactive)
ROOT
ATOM      1  C   UNL d   1       0.354  -1.822   2.982  0.00  0.00     0.078 C 
ATOM      2  C1  UNL d   1       0.350  -1.104   1.666  0.00  0.00    -0.077 A 
ATOM      3  C2  UNL d   1       1.300  -1.399   0.680  0.00  0.00    -0.001 A 
ATOM      4  C3  UNL d   1       1.291  -0.715  -0.537  0.00  0.00     0.003 A 
ATOM      5  C4  UNL d   1       0.335   0.269  -0.779  0.00  0.00    -0.005 A 
ATOM      6  C5  UNL d   1      -0.613   0.571   0.197  0.00  0.00     0.003 A 
ATOM      7  C6  UNL d   1      -0.605  -0.111   1.414  0.00  0.00    -0.001 A 
ENDROOT
TORSDOF 0
ENDMDL
