MODEL 1
REMARK minimizedAffinity 0.776330352
REMARK minimizedRMSD -1
REMARK  0 active torsions:
REMARK  status: ('A' for Active; 'I' for Inactive)
ROOT
ATOM      1  C   UNL d   1       1.490  -4.810  -0.731  0.00  0.00     0.078 C 
ATOM      2  C1  UNL d   1       2.374  -3.827  -1.439  0.00  0.00    -0.077 A 
ATOM      3  C2  UNL d   1       2.776  -2.639  -0.816  0.00  0.00    -0.001 A 
ATOM      4  C3  UNL d   1       3.591  -1.729  -1.491  0.00  0.00     0.003 A 
ATOM      5  C4  UNL d   1       4.011  -1.997  -2.793  0.00  0.00    -0.005 A 
ATOM      6  C5  UNL d   1       3.615  -3.176  -3.421  0.00  0.00     0.003 A 
ATOM      7  C6  UNL d   1       2.800  -4.087  -2.748  0.00  0.00    -0.001 A 
ENDROOT
TORSDOF 0
ENDMDL
