MODEL 1
REMARK minimizedAffinity 9.63577938
REMARK minimizedRMSD -1
REMARK  0 active torsions:
REMARK  status: ('A' for Active; 'I' for Inactive)
ROOT
ATOM      1  C   UNL d   1       3.494  -1.680  -2.927  0.00  0.00     0.078 C 
ATOM      2  C1  UNL d   1       3.778  -3.151  -2.858  0.00  0.00    -0.077 A 
ATOM      3  C2  UNL d   1       3.248  -3.940  -1.830  0.00  0.00    -0.001 A 
ATOM      4  C3  UNL d   1       3.529  -5.306  -1.773  0.00  0.00     0.003 A 
ATOM      5  C4  UNL d   1       4.341  -5.895  -2.740  0.00  0.00    -0.005 A 
ATOM      6  C5  UNL d   1       4.874  -5.117  -3.766  0.00  0.00     0.003 A 
ATOM      7  C6  UNL d   1       4.595  -3.750  -3.824  0.00  0.00    -0.001 A 
ENDROOT
TORSDOF 0
ENDMDL
