MODEL 1
REMARK minimizedAffinity 4.20708799
REMARK minimizedRMSD -1
REMARK  0 active torsions:
REMARK  status: ('A' for Active; 'I' for Inactive)
ROOT
ATOM      1  C   UNL d   1       1.997  -5.996  -2.274  0.00  0.00     0.078 C 
ATOM      2  C1  UNL d   1       2.805  -4.809  -1.842  0.00  0.00    -0.077 A 
ATOM      3  C2  UNL d   1       2.697  -4.297  -0.543  0.00  0.00    -0.001 A 
ATOM      4  C3  UNL d   1       3.448  -3.186  -0.158  0.00  0.00     0.003 A 
ATOM      5  C4  UNL d   1       4.312  -2.576  -1.065  0.00  0.00    -0.005 A 
ATOM      6  C5  UNL d   1       4.425  -3.077  -2.361  0.00  0.00     0.003 A 
ATOM      7  C6  UNL d   1       3.674  -4.188  -2.748  0.00  0.00    -0.001 A 
ENDROOT
TORSDOF 0
ENDMDL
