MODEL 1
REMARK minimizedAffinity -2.13348651
REMARK minimizedRMSD -1
REMARK  0 active torsions:
REMARK  status: ('A' for Active; 'I' for Inactive)
ROOT
ATOM      1  C   UNL d   1       3.326  -0.529   1.294  0.00  0.00     0.078 C 
ATOM      2  C1  UNL d   1       3.880  -1.703   0.544  0.00  0.00    -0.077 A 
ATOM      3  C2  UNL d   1       3.476  -3.009   0.849  0.00  0.00    -0.001 A 
ATOM      4  C3  UNL d   1       4.008  -4.093   0.149  0.00  0.00     0.003 A 
ATOM      5  C4  UNL d   1       4.947  -3.883  -0.858  0.00  0.00    -0.005 A 
ATOM      6  C5  UNL d   1       5.357  -2.588  -1.167  0.00  0.00     0.003 A 
ATOM      7  C6  UNL d   1       4.826  -1.502  -0.469  0.00  0.00    -0.001 A 
ENDROOT
TORSDOF 0
ENDMDL
