MODEL 1
REMARK minimizedAffinity -4.39883804
REMARK minimizedRMSD -1
REMARK  0 active torsions:
REMARK  status: ('A' for Active; 'I' for Inactive)
ROOT
ATOM      1  C   UNL d   1       5.522  -5.200  -0.000  0.00  0.00     0.078 C 
ATOM      2  C1  UNL d   1       4.929  -4.245  -0.993  0.00  0.00    -0.077 A 
ATOM      3  C2  UNL d   1       4.746  -2.894  -0.674  0.00  0.00    -0.001 A 
ATOM      4  C3  UNL d   1       4.183  -2.019  -1.604  0.00  0.00     0.003 A 
ATOM      5  C4  UNL d   1       3.798  -2.485  -2.859  0.00  0.00    -0.005 A 
ATOM      6  C5  UNL d   1       3.975  -3.828  -3.185  0.00  0.00     0.003 A 
ATOM      7  C6  UNL d   1       4.537  -4.705  -2.256  0.00  0.00    -0.001 A 
ENDROOT
TORSDOF 0
ENDMDL
