MODEL 1
REMARK minimizedAffinity 1.13294375
REMARK minimizedRMSD -1
REMARK  0 active torsions:
REMARK  status: ('A' for Active; 'I' for Inactive)
ROOT
ATOM      1  C   UNL d   1       3.637  -2.165  -1.532  0.00  0.00     0.078 C 
ATOM      2  C1  UNL d   1       4.031  -3.500  -2.091  0.00  0.00    -0.077 A 
ATOM      3  C2  UNL d   1       5.042  -4.262  -1.492  0.00  0.00    -0.001 A 
ATOM      4  C3  UNL d   1       5.406  -5.498  -2.029  0.00  0.00     0.003 A 
ATOM      5  C4  UNL d   1       4.764  -5.983  -3.167  0.00  0.00    -0.005 A 
ATOM      6  C5  UNL d   1       3.759  -5.231  -3.770  0.00  0.00     0.003 A 
ATOM      7  C6  UNL d   1       3.394  -3.994  -3.235  0.00  0.00    -0.001 A 
ENDROOT
TORSDOF 0
ENDMDL
