MODEL 1
REMARK minimizedAffinity 12.7285252
REMARK minimizedRMSD -1
REMARK  3 active torsions:
REMARK  status: ('A' for Active; 'I' for Inactive)
REMARK    1  A    between atoms: C3'_2  and  C2'_3 
REMARK    2  A    between atoms: C2'_3  and  C1'_4 
REMARK    3  A    between atoms: C1'_4  and  C1_5 
ROOT
ATOM      1  C1  N4B d   1      -2.547   4.113  -3.045  0.00  0.00    -0.075 A 
ATOM      2  C2  N4B d   1      -2.192   5.474  -3.176  0.00  0.00     0.002 A 
ATOM      3  C3  N4B d   1      -1.933   6.000  -4.418  0.00  0.00     0.002 A 
ATOM      4  C4  N4B d   1      -2.004   5.183  -5.536  0.00  0.00    -0.004 A 
ATOM      5  C5  N4B d   1      -2.372   3.876  -5.404  0.00  0.00     0.002 A 
ATOM      6  C6  N4B d   1      -2.639   3.335  -4.162  0.00  0.00     0.002 A 
ENDROOT
BRANCH   1   7
ATOM      7  C1' N4B d   1      -2.755   3.473  -1.700  0.00  0.00     0.057 C 
BRANCH   7   8
ATOM      8  C2' N4B d   1      -4.238   3.527  -1.344  0.00  0.00     0.009 C 
BRANCH   8   9
ATOM      9  C3' N4B d   1      -4.640   4.884  -0.792  0.00  0.00     0.004 C 
ATOM     10  C4' N4B d   1      -5.984   4.865  -0.125  0.00  0.00     0.003 C 
ENDBRANCH   8   9
ENDBRANCH   7   8
ENDBRANCH   1   7
TORSDOF 3
ENDMDL
