MODEL 1
REMARK minimizedAffinity 8.71712017
REMARK minimizedRMSD -1
REMARK  3 active torsions:
REMARK  status: ('A' for Active; 'I' for Inactive)
REMARK    1  A    between atoms: C3'_2  and  C2'_3 
REMARK    2  A    between atoms: C2'_3  and  C1'_4 
REMARK    3  A    between atoms: C1'_4  and  C1_5 
ROOT
ATOM      1  C1  N4B d   1      -3.896  -3.503   2.421  0.00  0.00    -0.075 A 
ATOM      2  C2  N4B d   1      -4.263  -4.282   1.302  0.00  0.00     0.002 A 
ATOM      3  C3  N4B d   1      -4.997  -5.430   1.475  0.00  0.00     0.002 A 
ATOM      4  C4  N4B d   1      -5.356  -5.827   2.754  0.00  0.00    -0.004 A 
ATOM      5  C5  N4B d   1      -5.019  -5.056   3.828  0.00  0.00     0.002 A 
ATOM      6  C6  N4B d   1      -4.286  -3.898   3.668  0.00  0.00     0.002 A 
ENDROOT
BRANCH   1   7
ATOM      7  C1' N4B d   1      -3.021  -2.286   2.289  0.00  0.00     0.057 C 
BRANCH   7   8
ATOM      8  C2' N4B d   1      -1.558  -2.719   2.284  0.00  0.00     0.009 C 
BRANCH   8   9
ATOM      9  C3' N4B d   1      -0.613  -1.530   2.291  0.00  0.00     0.004 C 
ATOM     10  C4' N4B d   1       0.669  -1.802   1.563  0.00  0.00     0.003 C 
ENDBRANCH   8   9
ENDBRANCH   7   8
ENDBRANCH   1   7
TORSDOF 3
ENDMDL
