MODEL 1
REMARK minimizedAffinity 1.29941547
REMARK minimizedRMSD -1
REMARK  3 active torsions:
REMARK  status: ('A' for Active; 'I' for Inactive)
REMARK    1  A    between atoms: C3'_2  and  C2'_3 
REMARK    2  A    between atoms: C2'_3  and  C1'_4 
REMARK    3  A    between atoms: C1'_4  and  C1_5 
ROOT
ATOM      1  C1  N4B d   1      -5.078  -5.018   2.252  0.00  0.00    -0.075 A 
ATOM      2  C2  N4B d   1      -3.992  -4.116   2.254  0.00  0.00     0.002 A 
ATOM      3  C3  N4B d   1      -3.876  -3.182   3.255  0.00  0.00     0.002 A 
ATOM      4  C4  N4B d   1      -4.841  -3.120   4.249  0.00  0.00    -0.004 A 
ATOM      5  C5  N4B d   1      -5.873  -4.012   4.254  0.00  0.00     0.002 A 
ATOM      6  C6  N4B d   1      -6.000  -4.958   3.257  0.00  0.00     0.002 A 
ENDROOT
BRANCH   1   7
ATOM      7  C1' N4B d   1      -5.293  -6.000   1.133  0.00  0.00     0.057 C 
BRANCH   7   8
ATOM      8  C2' N4B d   1      -5.413  -5.239  -0.184  0.00  0.00     0.009 C 
BRANCH   8   9
ATOM      9  C3' N4B d   1      -4.702  -5.954  -1.320  0.00  0.00     0.004 C 
ATOM     10  C4' N4B d   1      -5.454  -5.879  -2.615  0.00  0.00     0.003 C 
ENDBRANCH   8   9
ENDBRANCH   7   8
ENDBRANCH   1   7
TORSDOF 3
ENDMDL
