MODEL 1
REMARK minimizedAffinity 11.9392834
REMARK minimizedRMSD -1
REMARK  3 active torsions:
REMARK  status: ('A' for Active; 'I' for Inactive)
REMARK    1  A    between atoms: C3'_2  and  C2'_3 
REMARK    2  A    between atoms: C2'_3  and  C1'_4 
REMARK    3  A    between atoms: C1'_4  and  C1_5 
ROOT
ATOM      1  C1  N4B d   1      -2.754   3.278  -4.241  0.00  0.00    -0.075 A 
ATOM      2  C2  N4B d   1      -2.571   3.906  -5.493  0.00  0.00     0.002 A 
ATOM      3  C3  N4B d   1      -2.040   5.171  -5.555  0.00  0.00     0.002 A 
ATOM      4  C4  N4B d   1      -1.704   5.832  -4.383  0.00  0.00    -0.004 A 
ATOM      5  C5  N4B d   1      -1.860   5.209  -3.180  0.00  0.00     0.002 A 
ATOM      6  C6  N4B d   1      -2.389   3.936  -3.102  0.00  0.00     0.002 A 
ENDROOT
BRANCH   1   7
ATOM      7  C1' N4B d   1      -3.410   1.930  -4.117  0.00  0.00     0.057 C 
BRANCH   7   8
ATOM      8  C2' N4B d   1      -4.777   2.097  -3.459  0.00  0.00     0.009 C 
BRANCH   8   9
ATOM      9  C3' N4B d   1      -5.840   1.247  -4.134  0.00  0.00     0.004 C 
ATOM     10  C4' N4B d   1      -5.999   1.565  -5.590  0.00  0.00     0.003 C 
ENDBRANCH   8   9
ENDBRANCH   7   8
ENDBRANCH   1   7
TORSDOF 3
ENDMDL
