MODEL 1
REMARK minimizedAffinity 12.708868
REMARK minimizedRMSD -1
REMARK  3 active torsions:
REMARK  status: ('A' for Active; 'I' for Inactive)
REMARK    1  A    between atoms: C3'_2  and  C2'_3 
REMARK    2  A    between atoms: C2'_3  and  C1'_4 
REMARK    3  A    between atoms: C1'_4  and  C1_5 
ROOT
ATOM      1  C1  N4B d   1       1.837   2.206  -0.095  0.00  0.00    -0.075 A 
ATOM      2  C2  N4B d   1       1.482   3.369   0.623  0.00  0.00     0.002 A 
ATOM      3  C3  N4B d   1       0.967   4.456  -0.041  0.00  0.00     0.002 A 
ATOM      4  C4  N4B d   1       0.817   4.410  -1.419  0.00  0.00    -0.004 A 
ATOM      5  C5  N4B d   1       1.139   3.273  -2.102  0.00  0.00     0.002 A 
ATOM      6  C6  N4B d   1       1.654   2.173  -1.447  0.00  0.00     0.002 A 
ENDROOT
BRANCH   1   7
ATOM      7  C1' N4B d   1       2.484   1.025   0.575  0.00  0.00     0.057 C 
BRANCH   7   8
ATOM      8  C2' N4B d   1       1.437  -0.064   0.789  0.00  0.00     0.009 C 
BRANCH   8   9
ATOM      9  C3' N4B d   1       2.063  -1.374   1.238  0.00  0.00     0.004 C 
ATOM     10  C4' N4B d   1       1.472  -2.567   0.548  0.00  0.00     0.003 C 
ENDBRANCH   8   9
ENDBRANCH   7   8
ENDBRANCH   1   7
TORSDOF 3
ENDMDL
