MODEL 1
REMARK minimizedAffinity 1.00186276
REMARK minimizedRMSD -1
REMARK  3 active torsions:
REMARK  status: ('A' for Active; 'I' for Inactive)
REMARK    1  A    between atoms: C3'_2  and  C2'_3 
REMARK    2  A    between atoms: C2'_3  and  C1'_4 
REMARK    3  A    between atoms: C1'_4  and  C1_5 
ROOT
ATOM      1  C1  N4B d   1      -4.740  -5.159   2.890  0.00  0.00    -0.075 A 
ATOM      2  C2  N4B d   1      -3.994  -4.009   3.228  0.00  0.00     0.002 A 
ATOM      3  C3  N4B d   1      -4.272  -3.326   4.386  0.00  0.00     0.002 A 
ATOM      4  C4  N4B d   1      -5.299  -3.762   5.210  0.00  0.00    -0.004 A 
ATOM      5  C5  N4B d   1      -5.998  -4.889   4.889  0.00  0.00     0.002 A 
ATOM      6  C6  N4B d   1      -5.726  -5.588   3.730  0.00  0.00     0.002 A 
ENDROOT
BRANCH   1   7
ATOM      7  C1' N4B d   1      -4.529  -5.889   1.591  0.00  0.00     0.057 C 
BRANCH   7   8
ATOM      8  C2' N4B d   1      -5.862  -5.999   0.857  0.00  0.00     0.009 C 
BRANCH   8   9
ATOM      9  C3' N4B d   1      -5.682  -5.999  -0.651  0.00  0.00     0.004 C 
ATOM     10  C4' N4B d   1      -4.247  -5.866  -1.064  0.00  0.00     0.003 C 
ENDBRANCH   8   9
ENDBRANCH   7   8
ENDBRANCH   1   7
TORSDOF 3
ENDMDL
