MODEL 1
REMARK minimizedAffinity 14.4951067
REMARK minimizedRMSD -1
REMARK  3 active torsions:
REMARK  status: ('A' for Active; 'I' for Inactive)
REMARK    1  A    between atoms: C3'_2  and  C2'_3 
REMARK    2  A    between atoms: C2'_3  and  C1'_4 
REMARK    3  A    between atoms: C1'_4  and  C1_5 
ROOT
ATOM      1  C1  N4B d   1      -3.214  -4.846   0.366  0.00  0.00    -0.075 A 
ATOM      2  C2  N4B d   1      -3.922  -3.740   0.886  0.00  0.00     0.002 A 
ATOM      3  C3  N4B d   1      -5.290  -3.790   0.997  0.00  0.00     0.002 A 
ATOM      4  C4  N4B d   1      -5.970  -4.924   0.579  0.00  0.00    -0.004 A 
ATOM      5  C5  N4B d   1      -5.277  -5.998   0.101  0.00  0.00     0.002 A 
ATOM      6  C6  N4B d   1      -3.902  -5.962  -0.012  0.00  0.00     0.002 A 
ENDROOT
BRANCH   1   7
ATOM      7  C1' N4B d   1      -1.727  -4.805   0.146  0.00  0.00     0.057 C 
BRANCH   7   8
ATOM      8  C2' N4B d   1      -1.271  -3.351   0.074  0.00  0.00     0.009 C 
BRANCH   8   9
ATOM      9  C3' N4B d   1       0.162  -3.180   0.547  0.00  0.00     0.004 C 
ATOM     10  C4' N4B d   1       0.422  -1.824   1.134  0.00  0.00     0.003 C 
ENDBRANCH   8   9
ENDBRANCH   7   8
ENDBRANCH   1   7
TORSDOF 3
ENDMDL
