MODEL 1
REMARK minimizedAffinity 7.7127409
REMARK minimizedRMSD -1
REMARK  3 active torsions:
REMARK  status: ('A' for Active; 'I' for Inactive)
REMARK    1  A    between atoms: C3'_2  and  C2'_3 
REMARK    2  A    between atoms: C2'_3  and  C1'_4 
REMARK    3  A    between atoms: C1'_4  and  C1_5 
ROOT
ATOM      1  C1  N4B d   1      -4.143  -5.843   1.187  0.00  0.00    -0.075 A 
ATOM      2  C2  N4B d   1      -5.436  -5.945   0.628  0.00  0.00     0.002 A 
ATOM      3  C3  N4B d   1      -5.591  -5.999  -0.736  0.00  0.00     0.002 A 
ATOM      4  C4  N4B d   1      -4.475  -5.933  -1.556  0.00  0.00    -0.004 A 
ATOM      5  C5  N4B d   1      -3.228  -5.861  -1.007  0.00  0.00     0.002 A 
ATOM      6  C6  N4B d   1      -3.057  -5.810   0.362  0.00  0.00     0.002 A 
ENDROOT
BRANCH   1   7
ATOM      7  C1' N4B d   1      -3.929  -5.695   2.669  0.00  0.00     0.057 C 
BRANCH   7   8
ATOM      8  C2' N4B d   1      -4.344  -4.290   3.097  0.00  0.00     0.009 C 
BRANCH   8   9
ATOM      9  C3' N4B d   1      -4.027  -3.255   2.032  0.00  0.00     0.004 C 
ATOM     10  C4' N4B d   1      -2.672  -2.636   2.209  0.00  0.00     0.003 C 
ENDBRANCH   8   9
ENDBRANCH   7   8
ENDBRANCH   1   7
TORSDOF 3
ENDMDL
