MODEL 1
REMARK minimizedAffinity -1.37046742
REMARK minimizedRMSD -1
REMARK  0 active torsions:
REMARK  status: ('A' for Active; 'I' for Inactive)
ROOT
ATOM      1  C   UNL d   1      -2.389   1.011   4.098  0.00  0.00     0.023 A 
ATOM      2  C1  UNL d   1      -1.183   1.620   3.749  0.00  0.00     0.003 A 
ATOM      3  C2  UNL d   1      -0.631   1.406   2.485  0.00  0.00     0.048 A 
ATOM      4  C3  UNL d   1      -1.291   0.583   1.573  0.00  0.00     0.023 A 
ATOM      5  C4  UNL d   1      -2.498  -0.028   1.916  0.00  0.00     0.048 A 
ATOM      6  C5  UNL d   1      -3.045   0.189   3.182  0.00  0.00     0.003 A 
ATOM      7  I   UNL d   1      -0.471   0.263  -0.311  0.00  0.00    -0.146 I 
ENDROOT
TORSDOF 0
ENDMDL
