MODEL 1
REMARK minimizedAffinity -2.81826043
REMARK minimizedRMSD -1
REMARK  0 active torsions:
REMARK  status: ('A' for Active; 'I' for Inactive)
ROOT
ATOM      1  C   UNL d   1       1.126  -0.869   0.319  0.00  0.00     0.023 A 
ATOM      2  C1  UNL d   1       1.021  -2.253   0.187  0.00  0.00     0.003 A 
ATOM      3  C2  UNL d   1      -0.196  -2.831  -0.183  0.00  0.00     0.048 A 
ATOM      4  C3  UNL d   1      -1.303  -2.017  -0.420  0.00  0.00     0.023 A 
ATOM      5  C4  UNL d   1      -1.202  -0.631  -0.290  0.00  0.00     0.048 A 
ATOM      6  C5  UNL d   1       0.016  -0.058   0.081  0.00  0.00     0.003 A 
ATOM      7  I   UNL d   1      -3.115  -2.873  -0.970  0.00  0.00    -0.146 I 
ENDROOT
TORSDOF 0
ENDMDL
