MODEL 1
REMARK minimizedAffinity -3.19482183
REMARK minimizedRMSD -1
REMARK  0 active torsions:
REMARK  status: ('A' for Active; 'I' for Inactive)
ROOT
ATOM      1  C   UNL d   1       3.020  -0.921  -1.699  0.00  0.00     0.023 A 
ATOM      2  C1  UNL d   1       2.880   0.433  -1.394  0.00  0.00     0.003 A 
ATOM      3  C2  UNL d   1       1.772   0.876  -0.669  0.00  0.00     0.048 A 
ATOM      4  C3  UNL d   1       0.809  -0.041  -0.250  0.00  0.00     0.023 A 
ATOM      5  C4  UNL d   1       0.945  -1.397  -0.552  0.00  0.00     0.048 A 
ATOM      6  C5  UNL d   1       2.053  -1.835  -1.278  0.00  0.00     0.003 A 
ATOM      7  I   UNL d   1      -0.841   0.616   0.831  0.00  0.00    -0.146 I 
ENDROOT
TORSDOF 0
ENDMDL
