MODEL 1
REMARK minimizedAffinity -1.22513592
REMARK minimizedRMSD -1
REMARK  0 active torsions:
REMARK  status: ('A' for Active; 'I' for Inactive)
ROOT
ATOM      1  C   UNL d   1       0.135   0.147   0.416  0.00  0.00     0.023 A 
ATOM      2  C1  UNL d   1      -1.243   0.317   0.279  0.00  0.00     0.003 A 
ATOM      3  C2  UNL d   1      -2.055  -0.776  -0.033  0.00  0.00     0.048 A 
ATOM      4  C3  UNL d   1      -1.482  -2.036  -0.206  0.00  0.00     0.023 A 
ATOM      5  C4  UNL d   1      -0.104  -2.210  -0.069  0.00  0.00     0.048 A 
ATOM      6  C5  UNL d   1       0.704  -1.115   0.242  0.00  0.00     0.003 A 
ATOM      7  I   UNL d   1      -2.688  -3.663  -0.670  0.00  0.00    -0.146 I 
ENDROOT
TORSDOF 0
ENDMDL
