MODEL 1
REMARK minimizedAffinity -3.67190862
REMARK minimizedRMSD -1
REMARK  0 active torsions:
REMARK  status: ('A' for Active; 'I' for Inactive)
ROOT
ATOM      1  C   UNL d   1      -0.757  -0.242   0.281  0.00  0.00     0.023 A 
ATOM      2  C1  UNL d   1      -2.139  -0.420   0.213  0.00  0.00     0.003 A 
ATOM      3  C2  UNL d   1      -2.671  -1.693  -0.002  0.00  0.00     0.048 A 
ATOM      4  C3  UNL d   1      -1.815  -2.784  -0.147  0.00  0.00     0.023 A 
ATOM      5  C4  UNL d   1      -0.432  -2.612  -0.078  0.00  0.00     0.048 A 
ATOM      6  C5  UNL d   1       0.095  -1.337   0.135  0.00  0.00     0.003 A 
ATOM      7  I   UNL d   1      -2.605  -4.680  -0.466  0.00  0.00    -0.146 I 
ENDROOT
TORSDOF 0
ENDMDL
