MODEL 1
REMARK minimizedAffinity -3.78089952
REMARK minimizedRMSD -1
REMARK  0 active torsions:
REMARK  status: ('A' for Active; 'I' for Inactive)
ROOT
ATOM      1  C   UNL d   1      -2.169   1.049   3.489  0.00  0.00     0.023 A 
ATOM      2  C1  UNL d   1      -1.216   1.047   2.470  0.00  0.00     0.003 A 
ATOM      3  C2  UNL d   1      -1.381   0.216   1.360  0.00  0.00     0.048 A 
ATOM      4  C3  UNL d   1      -2.501  -0.610   1.275  0.00  0.00     0.023 A 
ATOM      5  C4  UNL d   1      -3.457  -0.611   2.292  0.00  0.00     0.048 A 
ATOM      6  C5  UNL d   1      -3.288   0.221   3.400  0.00  0.00     0.003 A 
ATOM      7  I   UNL d   1      -2.748  -1.848  -0.376  0.00  0.00    -0.146 I 
ENDROOT
TORSDOF 0
ENDMDL
