MODEL 1
REMARK minimizedAffinity -1.73119783
REMARK minimizedRMSD -1
REMARK  0 active torsions:
REMARK  status: ('A' for Active; 'I' for Inactive)
ROOT
ATOM      1  C   UNL d   1       0.377   0.085  -0.016  0.00  0.00     0.023 A 
ATOM      2  C1  UNL d   1      -0.992   0.323  -0.145  0.00  0.00     0.003 A 
ATOM      3  C2  UNL d   1      -1.860  -0.730  -0.442  0.00  0.00     0.048 A 
ATOM      4  C3  UNL d   1      -1.353  -2.018  -0.609  0.00  0.00     0.023 A 
ATOM      5  C4  UNL d   1       0.016  -2.261  -0.480  0.00  0.00     0.048 A 
ATOM      6  C5  UNL d   1       0.880  -1.205  -0.183  0.00  0.00     0.003 A 
ATOM      7  I   UNL d   1      -2.642  -3.586  -1.051  0.00  0.00    -0.146 I 
ENDROOT
TORSDOF 0
ENDMDL
