MODEL 1
REMARK minimizedAffinity 0.860148966
REMARK minimizedRMSD -1
REMARK  0 active torsions:
REMARK  status: ('A' for Active; 'I' for Inactive)
ROOT
ATOM      1  C   UNL d   1       4.576   5.988  -1.628  0.00  0.00     0.023 A 
ATOM      2  C1  UNL d   1       3.185   5.979  -1.523  0.00  0.00     0.003 A 
ATOM      3  C2  UNL d   1       2.396   5.981  -2.675  0.00  0.00     0.048 A 
ATOM      4  C3  UNL d   1       3.005   5.992  -3.929  0.00  0.00     0.023 A 
ATOM      5  C4  UNL d   1       4.396   6.000  -4.040  0.00  0.00     0.048 A 
ATOM      6  C5  UNL d   1       5.181   5.999  -2.885  0.00  0.00     0.003 A 
ATOM      7  I   UNL d   1       1.832   5.995  -5.646  0.00  0.00    -0.146 I 
ENDROOT
TORSDOF 0
ENDMDL
