MODEL 1
REMARK minimizedAffinity 1.45489192
REMARK minimizedRMSD -1
REMARK  0 active torsions:
REMARK  status: ('A' for Active; 'I' for Inactive)
ROOT
ATOM      1  C   UNL d   1      -2.127  -0.725   4.573  0.00  0.00     0.023 A 
ATOM      2  C1  UNL d   1      -3.002  -1.762   4.247  0.00  0.00     0.003 A 
ATOM      3  C2  UNL d   1      -3.292  -2.037   2.909  0.00  0.00     0.048 A 
ATOM      4  C3  UNL d   1      -2.704  -1.272   1.902  0.00  0.00     0.023 A 
ATOM      5  C4  UNL d   1      -1.828  -0.234   2.224  0.00  0.00     0.048 A 
ATOM      6  C5  UNL d   1      -1.541   0.038   3.563  0.00  0.00     0.003 A 
ATOM      7  I   UNL d   1      -3.135  -1.680  -0.090  0.00  0.00    -0.146 I 
ENDROOT
TORSDOF 0
ENDMDL
