MODEL 1
REMARK minimizedAffinity 0.743171155
REMARK minimizedRMSD -1
REMARK  0 active torsions:
REMARK  status: ('A' for Active; 'I' for Inactive)
ROOT
ATOM      1  C   UNL d   1       5.372   6.000   3.259  0.00  0.00     0.023 A 
ATOM      2  C1  UNL d   1       4.496   5.191   2.536  0.00  0.00     0.003 A 
ATOM      3  C2  UNL d   1       4.247   3.881   2.952  0.00  0.00     0.048 A 
ATOM      4  C3  UNL d   1       4.877   3.388   4.095  0.00  0.00     0.023 A 
ATOM      5  C4  UNL d   1       5.754   4.194   4.822  0.00  0.00     0.048 A 
ATOM      6  C5  UNL d   1       6.000   5.502   4.401  0.00  0.00     0.003 A 
ATOM      7  I   UNL d   1       4.509   1.439   4.717  0.00  0.00    -0.146 I 
ENDROOT
TORSDOF 0
ENDMDL
