MODEL 1
REMARK minimizedAffinity -4.24035645
REMARK minimizedRMSD -1
REMARK  0 active torsions:
REMARK  status: ('A' for Active; 'I' for Inactive)
ROOT
ATOM      1  C   UNL d   1       5.418   4.427   2.914  0.00  0.00     0.023 A 
ATOM      2  C1  UNL d   1       5.650   4.528   4.286  0.00  0.00     0.003 A 
ATOM      3  C2  UNL d   1       5.666   3.379   5.080  0.00  0.00     0.048 A 
ATOM      4  C3  UNL d   1       5.451   2.132   4.494  0.00  0.00     0.023 A 
ATOM      5  C4  UNL d   1       5.220   2.025   3.122  0.00  0.00     0.048 A 
ATOM      6  C5  UNL d   1       5.203   3.177   2.333  0.00  0.00     0.003 A 
ATOM      7  I   UNL d   1       5.475   0.420   5.673  0.00  0.00    -0.146 I 
ENDROOT
TORSDOF 0
ENDMDL
