MODEL 1
REMARK minimizedAffinity -3.79004765
REMARK minimizedRMSD -1
REMARK  0 active torsions:
REMARK  status: ('A' for Active; 'I' for Inactive)
ROOT
ATOM      1  C   UNL d   1       5.252  -1.492   3.948  0.00  0.00     0.023 A 
ATOM      2  C1  UNL d   1       4.932  -1.181   2.626  0.00  0.00     0.003 A 
ATOM      3  C2  UNL d   1       5.143   0.111   2.141  0.00  0.00     0.048 A 
ATOM      4  C3  UNL d   1       5.676   1.087   2.982  0.00  0.00     0.023 A 
ATOM      5  C4  UNL d   1       5.999   0.780   4.305  0.00  0.00     0.048 A 
ATOM      6  C5  UNL d   1       5.785  -0.513   4.786  0.00  0.00     0.003 A 
ATOM      7  I   UNL d   1       5.992   3.011   2.261  0.00  0.00    -0.146 I 
ENDROOT
TORSDOF 0
ENDMDL
