MODEL 1
REMARK minimizedAffinity -2.33548498
REMARK minimizedRMSD -1
REMARK  0 active torsions:
REMARK  status: ('A' for Active; 'I' for Inactive)
ROOT
ATOM      1  C   UNL d   1       5.450  -0.955   5.006  0.00  0.00     0.023 A 
ATOM      2  C1  UNL d   1       4.871  -0.165   6.000  0.00  0.00     0.003 A 
ATOM      3  C2  UNL d   1       4.842   1.224   5.862  0.00  0.00     0.048 A 
ATOM      4  C3  UNL d   1       5.393   1.817   4.726  0.00  0.00     0.023 A 
ATOM      5  C4  UNL d   1       5.972   1.031   3.729  0.00  0.00     0.048 A 
ATOM      6  C5  UNL d   1       6.000  -0.357   3.872  0.00  0.00     0.003 A 
ATOM      7  I   UNL d   1       5.351   3.885   4.518  0.00  0.00    -0.146 I 
ENDROOT
TORSDOF 0
ENDMDL
