MODEL 1
REMARK minimizedAffinity 2.71059036
REMARK minimizedRMSD -1
REMARK  1 active torsions:
REMARK  status: ('A' for Active; 'I' for Inactive)
REMARK    1  A    between atoms: N_2  and  C1_3 
ROOT
ATOM      1  C1  UNL d   1       2.911   3.677  -4.646  0.00  0.00     0.143 A 
ATOM      2  C2  UNL d   1       1.555   3.885  -4.918  0.00  0.00    -0.057 A 
ATOM      3  C3  UNL d   1       1.118   5.027  -5.600  0.00  0.00     0.033 A 
ATOM      4  C4  UNL d   1       2.031   5.999  -5.998  0.00  0.00    -0.042 A 
ATOM      5  C5  UNL d   1       3.381   5.825  -5.716  0.00  0.00     0.033 A 
ATOM      6  C6  UNL d   1       3.811   4.679  -5.040  0.00  0.00    -0.057 A 
ENDROOT
BRANCH   1   7
ATOM      7  N   UNL d   1       3.397   2.611  -3.885  0.00  0.00    -0.732 N 
ATOM      8  C   UNL d   1       4.082   1.505  -4.519  0.00  0.00     0.284 C 
ATOM      9  H3  UNL d   1       3.821   2.917  -3.013  0.00  0.00     0.395 HD
ENDBRANCH   1   7
TORSDOF 1
ENDMDL
