MODEL 1
REMARK minimizedAffinity 3.76310611
REMARK minimizedRMSD -1
REMARK  1 active torsions:
REMARK  status: ('A' for Active; 'I' for Inactive)
REMARK    1  A    between atoms: N_2  and  C1_3 
ROOT
ATOM      1  C1  UNL d   1      -5.118   3.020   5.319  0.00  0.00     0.143 A 
ATOM      2  C2  UNL d   1      -4.613   2.725   4.049  0.00  0.00    -0.057 A 
ATOM      3  C3  UNL d   1      -4.817   1.472   3.459  0.00  0.00     0.033 A 
ATOM      4  C4  UNL d   1      -5.508   0.478   4.145  0.00  0.00    -0.042 A 
ATOM      5  C5  UNL d   1      -5.998   0.741   5.419  0.00  0.00     0.033 A 
ATOM      6  C6  UNL d   1      -5.797   1.997   6.000  0.00  0.00    -0.057 A 
ENDROOT
BRANCH   1   7
ATOM      7  N   UNL d   1      -4.865   4.214   6.000  0.00  0.00    -0.732 N 
ATOM      8  C   UNL d   1      -5.797   5.318   5.924  0.00  0.00     0.284 C 
ATOM      9  H3  UNL d   1      -4.480   4.057   6.929  0.00  0.00     0.395 HD
ENDBRANCH   1   7
TORSDOF 1
ENDMDL
