MODEL 1
REMARK minimizedAffinity 9.82947636
REMARK minimizedRMSD -1
REMARK  1 active torsions:
REMARK  status: ('A' for Active; 'I' for Inactive)
REMARK    1  A    between atoms: N_2  and  C1_3 
ROOT
ATOM      1  C1  UNL d   1       2.714   4.056  -3.980  0.00  0.00     0.143 A 
ATOM      2  C2  UNL d   1       3.685   5.024  -4.260  0.00  0.00    -0.057 A 
ATOM      3  C3  UNL d   1       3.479   5.995  -5.248  0.00  0.00     0.033 A 
ATOM      4  C4  UNL d   1       2.307   5.995  -5.997  0.00  0.00    -0.042 A 
ATOM      5  C5  UNL d   1       1.339   5.027  -5.754  0.00  0.00     0.033 A 
ATOM      6  C6  UNL d   1       1.548   4.065  -4.761  0.00  0.00    -0.057 A 
ENDROOT
BRANCH   1   7
ATOM      7  N   UNL d   1       2.901   3.006  -3.079  0.00  0.00    -0.732 N 
ATOM      8  C   UNL d   1       3.646   1.826  -3.464  0.00  0.00     0.284 C 
ATOM      9  H3  UNL d   1       3.100   3.333  -2.136  0.00  0.00     0.395 HD
ENDBRANCH   1   7
TORSDOF 1
ENDMDL
