MODEL 1
REMARK minimizedAffinity 17.2973709
REMARK minimizedRMSD -1
REMARK  1 active torsions:
REMARK  status: ('A' for Active; 'I' for Inactive)
REMARK    1  A    between atoms: N_2  and  C1_3 
ROOT
ATOM      1  C1  UNL d   1      -2.976  -4.926   1.316  0.00  0.00     0.143 A 
ATOM      2  C2  UNL d   1      -1.640  -5.031   1.719  0.00  0.00    -0.057 A 
ATOM      3  C3  UNL d   1      -0.762  -3.946   1.612  0.00  0.00     0.033 A 
ATOM      4  C4  UNL d   1      -1.198  -2.741   1.071  0.00  0.00    -0.042 A 
ATOM      5  C5  UNL d   1      -2.515  -2.622   0.640  0.00  0.00     0.033 A 
ATOM      6  C6  UNL d   1      -3.389  -3.707   0.756  0.00  0.00    -0.057 A 
ENDROOT
BRANCH   1   7
ATOM      7  N   UNL d   1      -3.872  -5.998   1.305  0.00  0.00    -0.732 N 
ATOM      8  C   UNL d   1      -5.210  -5.846   1.836  0.00  0.00     0.284 C 
ATOM      9  H3  UNL d   1      -3.825  -6.535   0.442  0.00  0.00     0.395 HD
ENDBRANCH   1   7
TORSDOF 1
ENDMDL
