MODEL 1
REMARK minimizedAffinity 13.9536657
REMARK minimizedRMSD -1
REMARK  1 active torsions:
REMARK  status: ('A' for Active; 'I' for Inactive)
REMARK    1  A    between atoms: N_2  and  C1_3 
ROOT
ATOM      1  C1  UNL d   1      -4.117   3.014   2.273  0.00  0.00     0.143 A 
ATOM      2  C2  UNL d   1      -4.738   1.760   2.246  0.00  0.00    -0.057 A 
ATOM      3  C3  UNL d   1      -4.351   0.740   3.124  0.00  0.00     0.033 A 
ATOM      4  C4  UNL d   1      -3.314   0.947   4.027  0.00  0.00    -0.042 A 
ATOM      5  C5  UNL d   1      -2.666   2.177   4.054  0.00  0.00     0.033 A 
ATOM      6  C6  UNL d   1      -3.061   3.194   3.180  0.00  0.00    -0.057 A 
ENDROOT
BRANCH   1   7
ATOM      7  N   UNL d   1      -4.390   4.036   1.360  0.00  0.00    -0.732 N 
ATOM      8  C   UNL d   1      -3.349   4.549   0.496  0.00  0.00     0.284 C 
ATOM      9  H3  UNL d   1      -5.290   3.917   0.901  0.00  0.00     0.395 HD
ENDBRANCH   1   7
TORSDOF 1
ENDMDL
