MODEL 1
REMARK minimizedAffinity 14.9421673
REMARK minimizedRMSD -1
REMARK  1 active torsions:
REMARK  status: ('A' for Active; 'I' for Inactive)
REMARK    1  A    between atoms: N_2  and  C1_3 
ROOT
ATOM      1  C1  UNL d   1      -3.587  -5.315   1.429  0.00  0.00     0.143 A 
ATOM      2  C2  UNL d   1      -3.317  -3.980   1.110  0.00  0.00    -0.057 A 
ATOM      3  C3  UNL d   1      -2.125  -3.365   1.509  0.00  0.00     0.033 A 
ATOM      4  C4  UNL d   1      -1.191  -4.068   2.263  0.00  0.00    -0.042 A 
ATOM      5  C5  UNL d   1      -1.449  -5.389   2.613  0.00  0.00     0.033 A 
ATOM      6  C6  UNL d   1      -2.639  -6.000   2.205  0.00  0.00    -0.057 A 
ENDROOT
BRANCH   1   7
ATOM      7  N   UNL d   1      -4.797  -5.954   1.145  0.00  0.00    -0.732 N 
ATOM      8  C   UNL d   1      -5.999  -5.615   1.877  0.00  0.00     0.284 C 
ATOM      9  H3  UNL d   1      -4.942  -6.086   0.146  0.00  0.00     0.395 HD
ENDBRANCH   1   7
TORSDOF 1
ENDMDL
