MODEL 1
REMARK minimizedAffinity 20.1265278
REMARK minimizedRMSD -1
REMARK  1 active torsions:
REMARK  status: ('A' for Active; 'I' for Inactive)
REMARK    1  A    between atoms: N_2  and  C1_3 
ROOT
ATOM      1  C1  UNL d   1      -0.342  -1.425   3.131  0.00  0.00     0.143 A 
ATOM      2  C2  UNL d   1      -0.642  -1.345   4.495  0.00  0.00    -0.057 A 
ATOM      3  C3  UNL d   1      -0.169  -0.288   5.282  0.00  0.00     0.033 A 
ATOM      4  C4  UNL d   1       0.639   0.696   4.722  0.00  0.00    -0.042 A 
ATOM      5  C5  UNL d   1       0.970   0.623   3.373  0.00  0.00     0.033 A 
ATOM      6  C6  UNL d   1       0.489  -0.432   2.592  0.00  0.00    -0.057 A 
ENDROOT
BRANCH   1   7
ATOM      7  N   UNL d   1      -0.701  -2.503   2.318  0.00  0.00    -0.732 N 
ATOM      8  C   UNL d   1      -1.346  -2.282   1.042  0.00  0.00     0.284 C 
ATOM      9  H3  UNL d   1       0.009  -3.232   2.304  0.00  0.00     0.395 HD
ENDBRANCH   1   7
TORSDOF 1
ENDMDL
