MODEL 1
REMARK minimizedAffinity 15.3269596
REMARK minimizedRMSD -1
REMARK  1 active torsions:
REMARK  status: ('A' for Active; 'I' for Inactive)
REMARK    1  A    between atoms: N_2  and  C1_3 
ROOT
ATOM      1  C1  UNL d   1      -3.498  -5.344   1.715  0.00  0.00     0.143 A 
ATOM      2  C2  UNL d   1      -2.343  -6.000   2.154  0.00  0.00    -0.057 A 
ATOM      3  C3  UNL d   1      -1.148  -5.302   2.366  0.00  0.00     0.033 A 
ATOM      4  C4  UNL d   1      -1.079  -3.936   2.114  0.00  0.00    -0.042 A 
ATOM      5  C5  UNL d   1      -2.208  -3.267   1.654  0.00  0.00     0.033 A 
ATOM      6  C6  UNL d   1      -3.401  -3.969   1.450  0.00  0.00    -0.057 A 
ENDROOT
BRANCH   1   7
ATOM      7  N   UNL d   1      -4.689  -5.999   1.391  0.00  0.00    -0.732 N 
ATOM      8  C   UNL d   1      -5.936  -5.611   2.015  0.00  0.00     0.284 C 
ATOM      9  H3  UNL d   1      -4.766  -6.196   0.396  0.00  0.00     0.395 HD
ENDBRANCH   1   7
TORSDOF 1
ENDMDL
