MODEL 1
REMARK minimizedAffinity 19.5305958
REMARK minimizedRMSD -1
REMARK  1 active torsions:
REMARK  status: ('A' for Active; 'I' for Inactive)
REMARK    1  A    between atoms: N_2  and  C1_3 
ROOT
ATOM      1  C1  UNL d   1      -5.123  -3.217  -3.595  0.00  0.00     0.143 A 
ATOM      2  C2  UNL d   1      -5.490  -4.459  -3.067  0.00  0.00    -0.057 A 
ATOM      3  C3  UNL d   1      -4.569  -5.256  -2.376  0.00  0.00     0.033 A 
ATOM      4  C4  UNL d   1      -3.252  -4.836  -2.226  0.00  0.00    -0.042 A 
ATOM      5  C5  UNL d   1      -2.858  -3.616  -2.764  0.00  0.00     0.033 A 
ATOM      6  C6  UNL d   1      -3.784  -2.822  -3.447  0.00  0.00    -0.057 A 
ENDROOT
BRANCH   1   7
ATOM      7  N   UNL d   1      -5.966  -2.424  -4.376  0.00  0.00    -0.732 N 
ATOM      8  C   UNL d   1      -6.000  -2.579  -5.815  0.00  0.00     0.284 C 
ATOM      9  H3  UNL d   1      -6.881  -2.293  -3.950  0.00  0.00     0.395 HD
ENDBRANCH   1   7
TORSDOF 1
ENDMDL
