MODEL 1
REMARK minimizedAffinity 10.9579744
REMARK minimizedRMSD -1
REMARK  1 active torsions:
REMARK  status: ('A' for Active; 'I' for Inactive)
REMARK    1  A    between atoms: N_2  and  C1_3 
ROOT
ATOM      1  C1  UNL d   1      -3.137  -4.614  -2.838  0.00  0.00     0.143 A 
ATOM      2  C2  UNL d   1      -4.000  -3.554  -3.135  0.00  0.00    -0.057 A 
ATOM      3  C3  UNL d   1      -5.389  -3.702  -3.045  0.00  0.00     0.033 A 
ATOM      4  C4  UNL d   1      -5.942  -4.925  -2.682  0.00  0.00    -0.042 A 
ATOM      5  C5  UNL d   1      -5.105  -6.000  -2.406  0.00  0.00     0.033 A 
ATOM      6  C6  UNL d   1      -3.718  -5.844  -2.492  0.00  0.00    -0.057 A 
ENDROOT
BRANCH   1   7
ATOM      7  N   UNL d   1      -1.751  -4.559  -3.004  0.00  0.00    -0.732 N 
ATOM      8  C   UNL d   1      -1.108  -5.281  -4.080  0.00  0.00     0.284 C 
ATOM      9  H3  UNL d   1      -1.378  -3.625  -2.849  0.00  0.00     0.395 HD
ENDBRANCH   1   7
TORSDOF 1
ENDMDL
