MODEL 1
REMARK minimizedAffinity 21.4537926
REMARK minimizedRMSD -1
REMARK  1 active torsions:
REMARK  status: ('A' for Active; 'I' for Inactive)
REMARK    1  A    between atoms: N_2  and  C1_3 
ROOT
ATOM      1  C1  UNL d   1      -2.422  -2.518  -0.038  0.00  0.00     0.143 A 
ATOM      2  C2  UNL d   1      -2.472  -3.848   0.394  0.00  0.00    -0.057 A 
ATOM      3  C3  UNL d   1      -1.738  -4.278   1.506  0.00  0.00     0.033 A 
ATOM      4  C4  UNL d   1      -0.915  -3.389   2.190  0.00  0.00    -0.042 A 
ATOM      5  C5  UNL d   1      -0.830  -2.069   1.763  0.00  0.00     0.033 A 
ATOM      6  C6  UNL d   1      -1.571  -1.644   0.656  0.00  0.00    -0.057 A 
ENDROOT
BRANCH   1   7
ATOM      7  N   UNL d   1      -3.052  -2.052  -1.195  0.00  0.00    -0.732 N 
ATOM      8  C   UNL d   1      -2.979  -2.805  -2.428  0.00  0.00     0.284 C 
ATOM      9  H3  UNL d   1      -3.969  -1.654  -1.004  0.00  0.00     0.395 HD
ENDBRANCH   1   7
TORSDOF 1
ENDMDL
