MODEL 1
REMARK minimizedAffinity 7.09314299
REMARK minimizedRMSD -1
REMARK  1 active torsions:
REMARK  status: ('A' for Active; 'I' for Inactive)
REMARK    1  A    between atoms: N_2  and  C1_3 
ROOT
ATOM      1  C1  UNL d   1      -5.110  -3.614  -3.685  0.00  0.00     0.143 A 
ATOM      2  C2  UNL d   1      -5.569  -4.850  -3.217  0.00  0.00    -0.057 A 
ATOM      3  C3  UNL d   1      -4.771  -5.657  -2.396  0.00  0.00     0.033 A 
ATOM      4  C4  UNL d   1      -3.485  -5.253  -2.052  0.00  0.00    -0.042 A 
ATOM      5  C5  UNL d   1      -3.000  -4.039  -2.526  0.00  0.00     0.033 A 
ATOM      6  C6  UNL d   1      -3.804  -3.235  -3.340  0.00  0.00    -0.057 A 
ENDROOT
BRANCH   1   7
ATOM      7  N   UNL d   1      -5.818  -2.812  -4.584  0.00  0.00    -0.732 N 
ATOM      8  C   UNL d   1      -5.354  -2.643  -5.944  0.00  0.00     0.284 C 
ATOM      9  H3  UNL d   1      -6.825  -2.928  -4.499  0.00  0.00     0.395 HD
ENDBRANCH   1   7
TORSDOF 1
ENDMDL
