MODEL 1
REMARK minimizedAffinity 3.37755728
REMARK minimizedRMSD -1
REMARK  0 active torsions:
REMARK  status: ('A' for Active; 'I' for Inactive)
ROOT
ATOM      1  C   UNL d   1      -1.789  -0.902  -1.422  0.00  0.00     0.020 A 
ATOM      2  C1  UNL d   1      -2.924  -0.486  -0.727  0.00  0.00     0.020 A 
ATOM      3  C2  UNL d   1      -2.827  -0.139   0.622  0.00  0.00     0.034 A 
ATOM      4  C3  UNL d   1      -1.594  -0.207   1.280  0.00  0.00     0.017 A 
ATOM      5  C4  UNL d   1      -0.456  -0.625   0.581  0.00  0.00     0.017 A 
ATOM      6  C5  UNL d   1      -0.558  -0.971  -0.769  0.00  0.00     0.034 A 
ATOM      7 Cl   UNL d   1       1.101  -0.734   1.326  0.00  0.00    -0.070 Cl
ATOM      8 Cl1  UNL d   1      -1.548   0.238   2.949  0.00  0.00    -0.070 Cl
ENDROOT
TORSDOF 0
ENDMDL
