MODEL 1
REMARK minimizedAffinity 9.2989893
REMARK minimizedRMSD -1
REMARK  0 active torsions:
REMARK  status: ('A' for Active; 'I' for Inactive)
ROOT
ATOM      1  C   UNL d   1       3.485  -0.824   4.196  0.00  0.00     0.020 A 
ATOM      2  C1  UNL d   1       2.249  -1.404   4.479  0.00  0.00     0.020 A 
ATOM      3  C2  UNL d   1       1.212  -1.327   3.547  0.00  0.00     0.034 A 
ATOM      4  C3  UNL d   1       1.409  -0.669   2.327  0.00  0.00     0.017 A 
ATOM      5  C4  UNL d   1       2.651  -0.088   2.044  0.00  0.00     0.017 A 
ATOM      6  C5  UNL d   1       3.685  -0.168   2.981  0.00  0.00     0.034 A 
ATOM      7 Cl   UNL d   1       2.969   0.740   0.560  0.00  0.00    -0.070 Cl
ATOM      8 Cl1  UNL d   1       0.083  -0.613   1.221  0.00  0.00    -0.070 Cl
ENDROOT
TORSDOF 0
ENDMDL
