MODEL 1
REMARK minimizedAffinity 2.57157016
REMARK minimizedRMSD -1
REMARK  0 active torsions:
REMARK  status: ('A' for Active; 'I' for Inactive)
ROOT
ATOM      1  C   UNL d   1       1.729  -1.890   5.014  0.00  0.00     0.020 A 
ATOM      2  C1  UNL d   1       2.886  -1.647   4.276  0.00  0.00     0.020 A 
ATOM      3  C2  UNL d   1       2.796  -1.078   3.003  0.00  0.00     0.034 A 
ATOM      4  C3  UNL d   1       1.547  -0.751   2.465  0.00  0.00     0.017 A 
ATOM      5  C4  UNL d   1       0.385  -0.995   3.207  0.00  0.00     0.017 A 
ATOM      6  C5  UNL d   1       0.481  -1.565   4.481  0.00  0.00     0.034 A 
ATOM      7 Cl   UNL d   1      -1.192  -0.618   2.610  0.00  0.00    -0.070 Cl
ATOM      8 Cl1  UNL d   1       1.510  -0.050   0.887  0.00  0.00    -0.070 Cl
ENDROOT
TORSDOF 0
ENDMDL
