MODEL 1
REMARK minimizedAffinity -3.24676204
REMARK minimizedRMSD -1
REMARK  0 active torsions:
REMARK  status: ('A' for Active; 'I' for Inactive)
ROOT
ATOM      1  C   UNL d   1       3.030  -0.966   3.996  0.00  0.00     0.020 A 
ATOM      2  C1  UNL d   1       1.701  -1.150   4.375  0.00  0.00     0.020 A 
ATOM      3  C2  UNL d   1       0.671  -0.655   3.572  0.00  0.00     0.034 A 
ATOM      4  C3  UNL d   1       0.968   0.027   2.387  0.00  0.00     0.017 A 
ATOM      5  C4  UNL d   1       2.303   0.212   2.008  0.00  0.00     0.017 A 
ATOM      6  C5  UNL d   1       3.330  -0.286   2.815  0.00  0.00     0.034 A 
ATOM      7 Cl   UNL d   1       2.748   1.043   0.559  0.00  0.00    -0.070 Cl
ATOM      8 Cl1  UNL d   1      -0.355   0.612   1.443  0.00  0.00    -0.070 Cl
ENDROOT
TORSDOF 0
ENDMDL
