MODEL 1
REMARK minimizedAffinity 4.55928755
REMARK minimizedRMSD -1
REMARK  0 active torsions:
REMARK  status: ('A' for Active; 'I' for Inactive)
ROOT
ATOM      1  C   UNL d   1      -0.013   0.273   0.218  0.00  0.00     0.020 A 
ATOM      2  C1  UNL d   1      -1.310   0.207  -0.290  0.00  0.00     0.020 A 
ATOM      3  C2  UNL d   1      -2.365  -0.182   0.538  0.00  0.00     0.034 A 
ATOM      4  C3  UNL d   1      -2.125  -0.506   1.879  0.00  0.00     0.017 A 
ATOM      5  C4  UNL d   1      -0.823  -0.440   2.387  0.00  0.00     0.017 A 
ATOM      6  C5  UNL d   1       0.230  -0.050   1.554  0.00  0.00     0.034 A 
ATOM      7 Cl   UNL d   1      -0.449  -0.825   4.030  0.00  0.00    -0.070 Cl
ATOM      8 Cl1  UNL d   1      -3.477  -0.979   2.845  0.00  0.00    -0.070 Cl
ENDROOT
TORSDOF 0
ENDMDL
