MODEL 1
REMARK minimizedAffinity 6.67142296
REMARK minimizedRMSD -1
REMARK  0 active torsions:
REMARK  status: ('A' for Active; 'I' for Inactive)
ROOT
ATOM      1  C   UNL d   1       1.225  -1.282   5.269  0.00  0.00     0.020 A 
ATOM      2  C1  UNL d   1       2.395  -1.404   4.521  0.00  0.00     0.020 A 
ATOM      3  C2  UNL d   1       2.378  -1.140   3.150  0.00  0.00     0.034 A 
ATOM      4  C3  UNL d   1       1.188  -0.752   2.523  0.00  0.00     0.017 A 
ATOM      5  C4  UNL d   1       0.014  -0.630   3.275  0.00  0.00     0.017 A 
ATOM      6  C5  UNL d   1       0.037  -0.895   4.648  0.00  0.00     0.034 A 
ATOM      7 Cl   UNL d   1      -1.492  -0.156   2.572  0.00  0.00    -0.070 Cl
ATOM      8 Cl1  UNL d   1       1.239  -0.440   0.824  0.00  0.00    -0.070 Cl
ENDROOT
TORSDOF 0
ENDMDL
