MODEL 1
REMARK minimizedAffinity -2.86292958
REMARK minimizedRMSD -1
REMARK  0 active torsions:
REMARK  status: ('A' for Active; 'I' for Inactive)
ROOT
ATOM      1  C   UNL d   1       2.648  -1.665   4.494  0.00  0.00     0.020 A 
ATOM      2  C1  UNL d   1       1.384  -1.854   5.050  0.00  0.00     0.020 A 
ATOM      3  C2  UNL d   1       0.259  -1.309   4.428  0.00  0.00     0.034 A 
ATOM      4  C3  UNL d   1       0.395  -0.572   3.247  0.00  0.00     0.017 A 
ATOM      5  C4  UNL d   1       1.665  -0.382   2.689  0.00  0.00     0.017 A 
ATOM      6  C5  UNL d   1       2.788  -0.930   3.316  0.00  0.00     0.034 A 
ATOM      7 Cl   UNL d   1       1.913   0.516   1.233  0.00  0.00    -0.070 Cl
ATOM      8 Cl1  UNL d   1      -1.039   0.073   2.531  0.00  0.00    -0.070 Cl
ENDROOT
TORSDOF 0
ENDMDL
