MODEL 1
REMARK minimizedAffinity -1.12741065
REMARK minimizedRMSD -1
REMARK  0 active torsions:
REMARK  status: ('A' for Active; 'I' for Inactive)
ROOT
ATOM      1  C   UNL d   1      -0.518  -2.366   5.238  0.00  0.00     0.020 A 
ATOM      2  C1  UNL d   1       0.347  -1.601   4.457  0.00  0.00     0.020 A 
ATOM      3  C2  UNL d   1      -0.167  -0.732   3.492  0.00  0.00     0.034 A 
ATOM      4  C3  UNL d   1      -1.550  -0.627   3.305  0.00  0.00     0.017 A 
ATOM      5  C4  UNL d   1      -2.418  -1.395   4.090  0.00  0.00     0.017 A 
ATOM      6  C5  UNL d   1      -1.898  -2.263   5.055  0.00  0.00     0.034 A 
ATOM      7 Cl   UNL d   1      -4.136  -1.319   3.917  0.00  0.00    -0.070 Cl
ATOM      8 Cl1  UNL d   1      -2.116   0.467   2.093  0.00  0.00    -0.070 Cl
ENDROOT
TORSDOF 0
ENDMDL
