MODEL 1
REMARK minimizedAffinity 1.23199785
REMARK minimizedRMSD -1
REMARK  0 active torsions:
REMARK  status: ('A' for Active; 'I' for Inactive)
ROOT
ATOM      1  C   UNL d   1      -2.356  -0.213  -0.892  0.00  0.00     0.020 A 
ATOM      2  C1  UNL d   1      -1.104  -0.431  -1.465  0.00  0.00     0.020 A 
ATOM      3  C2  UNL d   1       0.028  -0.528  -0.652  0.00  0.00     0.034 A 
ATOM      4  C3  UNL d   1      -0.090  -0.408   0.737  0.00  0.00     0.017 A 
ATOM      5  C4  UNL d   1      -1.348  -0.189   1.311  0.00  0.00     0.017 A 
ATOM      6  C5  UNL d   1      -2.478  -0.092   0.493  0.00  0.00     0.034 A 
ATOM      7 Cl   UNL d   1      -1.574  -0.030   3.017  0.00  0.00    -0.070 Cl
ATOM      8 Cl1  UNL d   1       1.351  -0.539   1.681  0.00  0.00    -0.070 Cl
ENDROOT
TORSDOF 0
ENDMDL
