MODEL 1
REMARK minimizedAffinity 2.31950903
REMARK minimizedRMSD -1
REMARK  0 active torsions:
REMARK  status: ('A' for Active; 'I' for Inactive)
ROOT
ATOM      1  C   UNL d   1      -1.946  -0.231  -1.239  0.00  0.00     0.020 A 
ATOM      2  C1  UNL d   1      -3.038   0.049  -0.418  0.00  0.00     0.020 A 
ATOM      3  C2  UNL d   1      -2.873   0.104   0.968  0.00  0.00     0.034 A 
ATOM      4  C3  UNL d   1      -1.615  -0.122   1.537  0.00  0.00     0.017 A 
ATOM      5  C4  UNL d   1      -0.520  -0.403   0.712  0.00  0.00     0.017 A 
ATOM      6  C5  UNL d   1      -0.690  -0.457  -0.675  0.00  0.00     0.034 A 
ATOM      7 Cl   UNL d   1       1.064  -0.693   1.340  0.00  0.00    -0.070 Cl
ATOM      8 Cl1  UNL d   1      -1.484  -0.038   3.257  0.00  0.00    -0.070 Cl
ENDROOT
TORSDOF 0
ENDMDL
