MODEL 1
REMARK minimizedAffinity -3.63772416
REMARK minimizedRMSD -1
REMARK  1 active torsions:
REMARK  status: ('A' for Active; 'I' for Inactive)
REMARK    1  A    between atoms: C3_4  and  O_7 
ROOT
ATOM      1  C   UNL d   1       0.228  -0.174  -0.123  0.00  0.00    -0.033 A 
ATOM      2  C1  UNL d   1       0.578  -0.078   1.225  0.00  0.00     0.039 A 
ATOM      3  C2  UNL d   1      -0.101   0.808   2.063  0.00  0.00    -0.080 A 
ATOM      4  C3  UNL d   1      -1.127   1.590   1.542  0.00  0.00     0.150 A 
ATOM      5  C4  UNL d   1      -1.485   1.497   0.201  0.00  0.00    -0.007 A 
ATOM      6  C5  UNL d   1      -0.805   0.612  -0.635  0.00  0.00     0.039 A 
ENDROOT
BRANCH   4   7
ATOM      7  O   UNL d   1      -1.816   2.473   2.320  0.00  0.00    -0.526 OA
ATOM      8  H5  UNL d   1      -1.441   2.451   3.217  0.00  0.00     0.418 HD
ENDBRANCH   4   7
TORSDOF 1
ENDMDL
