MODEL 1
REMARK minimizedAffinity -3.66842961
REMARK minimizedRMSD -1
REMARK  1 active torsions:
REMARK  status: ('A' for Active; 'I' for Inactive)
REMARK    1  A    between atoms: C3_4  and  O_7 
ROOT
ATOM      1  C   UNL d   1       0.097  -0.310  -0.712  0.00  0.00    -0.033 A 
ATOM      2  C1  UNL d   1       0.333  -0.461   0.656  0.00  0.00     0.039 A 
ATOM      3  C2  UNL d   1      -0.172   0.474   1.561  0.00  0.00    -0.080 A 
ATOM      4  C3  UNL d   1      -0.911   1.554   1.087  0.00  0.00     0.150 A 
ATOM      5  C4  UNL d   1      -1.153   1.709  -0.274  0.00  0.00    -0.007 A 
ATOM      6  C5  UNL d   1      -0.648   0.775  -1.177  0.00  0.00     0.039 A 
ENDROOT
BRANCH   4   7
ATOM      7  O   UNL d   1      -1.420   2.496   1.932  0.00  0.00    -0.526 OA
ATOM      8  H5  UNL d   1      -1.149   2.274   2.838  0.00  0.00     0.418 HD
ENDBRANCH   4   7
TORSDOF 1
ENDMDL
