MODEL 1
REMARK minimizedAffinity -5.38046741
REMARK minimizedRMSD -1
REMARK  1 active torsions:
REMARK  status: ('A' for Active; 'I' for Inactive)
REMARK    1  A    between atoms: C3_4  and  O_7 
ROOT
ATOM      1  C   UNL d   1      -1.173   3.507   0.669  0.00  0.00    -0.033 A 
ATOM      2  C1  UNL d   1      -0.823   3.257  -0.659  0.00  0.00     0.039 A 
ATOM      3  C2  UNL d   1      -0.443   1.973  -1.053  0.00  0.00    -0.080 A 
ATOM      4  C3  UNL d   1      -0.419   0.948  -0.111  0.00  0.00     0.150 A 
ATOM      5  C4  UNL d   1      -0.771   1.189   1.213  0.00  0.00    -0.007 A 
ATOM      6  C5  UNL d   1      -1.149   2.472   1.605  0.00  0.00     0.039 A 
ENDROOT
BRANCH   4   7
ATOM      7  O   UNL d   1      -0.051  -0.321  -0.447  0.00  0.00    -0.526 OA
ATOM      8  H5  UNL d   1       0.193  -0.331  -1.388  0.00  0.00     0.418 HD
ENDBRANCH   4   7
TORSDOF 1
ENDMDL
