MODEL 1
REMARK minimizedAffinity -4.85668612
REMARK minimizedRMSD -1
REMARK  1 active torsions:
REMARK  status: ('A' for Active; 'I' for Inactive)
REMARK    1  A    between atoms: C3_4  and  O_7 
ROOT
ATOM      1  C   UNL d   1       0.326   0.062  -0.119  0.00  0.00    -0.033 A 
ATOM      2  C1  UNL d   1      -0.524   0.829  -0.918  0.00  0.00     0.039 A 
ATOM      3  C2  UNL d   1      -1.316   1.825  -0.343  0.00  0.00    -0.080 A 
ATOM      4  C3  UNL d   1      -1.248   2.044   1.030  0.00  0.00     0.150 A 
ATOM      5  C4  UNL d   1      -0.400   1.286   1.832  0.00  0.00    -0.007 A 
ATOM      6  C5  UNL d   1       0.389   0.292   1.256  0.00  0.00     0.039 A 
ENDROOT
BRANCH   4   7
ATOM      7  O   UNL d   1      -2.005   3.001   1.638  0.00  0.00    -0.526 OA
ATOM      8  H5  UNL d   1      -2.563   3.425   0.964  0.00  0.00     0.418 HD
ENDBRANCH   4   7
TORSDOF 1
ENDMDL
