MODEL 1
REMARK minimizedAffinity -3.91665626
REMARK minimizedRMSD -1
REMARK  1 active torsions:
REMARK  status: ('A' for Active; 'I' for Inactive)
REMARK    1  A    between atoms: C3_4  and  O_7 
ROOT
ATOM      1  C   UNL d   1       0.987  -1.180  -1.258  0.00  0.00    -0.033 A 
ATOM      2  C1  UNL d   1       1.012  -2.355  -2.012  0.00  0.00     0.039 A 
ATOM      3  C2  UNL d   1      -0.089  -3.213  -2.006  0.00  0.00    -0.080 A 
ATOM      4  C3  UNL d   1      -1.208  -2.885  -1.245  0.00  0.00     0.150 A 
ATOM      5  C4  UNL d   1      -1.241  -1.714  -0.495  0.00  0.00    -0.007 A 
ATOM      6  C5  UNL d   1      -0.139  -0.859  -0.501  0.00  0.00     0.039 A 
ENDROOT
BRANCH   4   7
ATOM      7  O   UNL d   1      -2.304  -3.693  -1.204  0.00  0.00    -0.526 OA
ATOM      8  H5  UNL d   1      -2.128  -4.480  -1.748  0.00  0.00     0.418 HD
ENDBRANCH   4   7
TORSDOF 1
ENDMDL
