MODEL 1
REMARK minimizedAffinity -3.91760421
REMARK minimizedRMSD -1
REMARK  1 active torsions:
REMARK  status: ('A' for Active; 'I' for Inactive)
REMARK    1  A    between atoms: C3_4  and  O_7 
ROOT
ATOM      1  C   UNL d   1       0.100  -0.344   0.197  0.00  0.00    -0.033 A 
ATOM      2  C1  UNL d   1       0.663   0.112   1.391  0.00  0.00     0.039 A 
ATOM      3  C2  UNL d   1       0.089   1.189   2.069  0.00  0.00    -0.080 A 
ATOM      4  C3  UNL d   1      -1.045   1.801   1.543  0.00  0.00     0.150 A 
ATOM      5  C4  UNL d   1      -1.613   1.350   0.356  0.00  0.00    -0.007 A 
ATOM      6  C5  UNL d   1      -1.038   0.274  -0.319  0.00  0.00     0.039 A 
ENDROOT
BRANCH   4   7
ATOM      7  O   UNL d   1      -1.637   2.860   2.166  0.00  0.00    -0.526 OA
ATOM      8  H5  UNL d   1      -1.120   3.080   2.958  0.00  0.00     0.418 HD
ENDBRANCH   4   7
TORSDOF 1
ENDMDL
