MODEL 1
REMARK minimizedAffinity -4.62612343
REMARK minimizedRMSD -1
REMARK  2 active torsions:
REMARK  status: ('A' for Active; 'I' for Inactive)
REMARK    1  A    between atoms: C2'_3  and  C1'_4 
REMARK    2  A    between atoms: C1'_4  and  C1_5 
ROOT
ATOM      1  C1  I4B d   1      -0.205   0.393  -0.011  0.00  0.00    -0.075 A 
ATOM      2  C2  I4B d   1       1.049   0.598  -0.529  0.00  0.00     0.003 A 
ATOM      3  C3  I4B d   1       2.068  -0.366  -0.333  0.00  0.00     0.002 A 
ATOM      4  C4  I4B d   1       1.804  -1.489   0.425  0.00  0.00    -0.004 A 
ATOM      5  C5  I4B d   1       0.526  -1.706   0.930  0.00  0.00     0.002 A 
ATOM      6  C6  I4B d   1      -0.489  -0.766   0.700  0.00  0.00     0.003 A 
ENDROOT
BRANCH   1   7
ATOM      7  C1' I4B d   1      -1.248   1.447  -0.210  0.00  0.00     0.060 C 
BRANCH   7   8
ATOM      8  C2' I4B d   1      -1.650   1.437  -1.671  0.00  0.00    -0.013 C 
ATOM      9  C4' I4B d   1      -3.132   1.220  -1.827  0.00  0.00     0.013 C 
ATOM     10  C3' I4B d   1      -1.226   2.742  -2.276  0.00  0.00     0.013 C 
ENDBRANCH   7   8
ENDBRANCH   1   7
TORSDOF 2
ENDMDL
