MODEL 1
REMARK minimizedAffinity -4.12087965
REMARK minimizedRMSD -1
REMARK  2 active torsions:
REMARK  status: ('A' for Active; 'I' for Inactive)
REMARK    1  A    between atoms: C2'_3  and  C1'_4 
REMARK    2  A    between atoms: C1'_4  and  C1_5 
ROOT
ATOM      1  C1  I4B d   1      -0.304  -0.341   0.676  0.00  0.00    -0.075 A 
ATOM      2  C2  I4B d   1       0.888  -0.596   0.045  0.00  0.00     0.003 A 
ATOM      3  C3  I4B d   1       1.695  -1.684   0.457  0.00  0.00     0.002 A 
ATOM      4  C4  I4B d   1       1.298  -2.456   1.530  0.00  0.00    -0.004 A 
ATOM      5  C5  I4B d   1       0.079  -2.210   2.154  0.00  0.00     0.002 A 
ATOM      6  C6  I4B d   1      -0.734  -1.154   1.717  0.00  0.00     0.003 A 
ENDROOT
BRANCH   1   7
ATOM      7  C1' I4B d   1      -1.115   0.836   0.237  0.00  0.00     0.060 C 
BRANCH   7   8
ATOM      8  C2' I4B d   1      -1.155   0.837  -1.278  0.00  0.00    -0.013 C 
ATOM      9  C4' I4B d   1      -2.525   0.474  -1.787  0.00  0.00     0.013 C 
ATOM     10  C3' I4B d   1      -0.744   2.199  -1.752  0.00  0.00     0.013 C 
ENDBRANCH   7   8
ENDBRANCH   1   7
TORSDOF 2
ENDMDL
