MODEL 1
REMARK minimizedAffinity -5.42066574
REMARK minimizedRMSD -1
REMARK  2 active torsions:
REMARK  status: ('A' for Active; 'I' for Inactive)
REMARK    1  A    between atoms: C2'_3  and  C1'_4 
REMARK    2  A    between atoms: C1'_4  and  C1_5 
ROOT
ATOM      1  C1  I4B d   1       0.541  -0.719   0.491  0.00  0.00    -0.075 A 
ATOM      2  C2  I4B d   1       1.789  -1.288   0.520  0.00  0.00     0.003 A 
ATOM      3  C3  I4B d   1       2.050  -2.393   1.367  0.00  0.00     0.002 A 
ATOM      4  C4  I4B d   1       1.054  -2.861   2.199  0.00  0.00    -0.004 A 
ATOM      5  C5  I4B d   1      -0.218  -2.298   2.152  0.00  0.00     0.002 A 
ATOM      6  C6  I4B d   1      -0.480  -1.228   1.284  0.00  0.00     0.003 A 
ENDROOT
BRANCH   1   7
ATOM      7  C1' I4B d   1       0.309   0.467  -0.391  0.00  0.00     0.060 C 
BRANCH   7   8
ATOM      8  C2' I4B d   1      -1.180   0.745  -0.417  0.00  0.00    -0.013 C 
ATOM      9  C4' I4B d   1      -1.586   1.648   0.718  0.00  0.00     0.013 C 
ATOM     10  C3' I4B d   1      -1.512   1.361  -1.744  0.00  0.00     0.013 C 
ENDBRANCH   7   8
ENDBRANCH   1   7
TORSDOF 2
ENDMDL
