MODEL 1
REMARK minimizedAffinity -5.18460226
REMARK minimizedRMSD -1
REMARK  2 active torsions:
REMARK  status: ('A' for Active; 'I' for Inactive)
REMARK    1  A    between atoms: C2'_3  and  C1'_4 
REMARK    2  A    between atoms: C1'_4  and  C1_5 
ROOT
ATOM      1  C1  I4B d   1       0.469  -0.789   0.473  0.00  0.00    -0.075 A 
ATOM      2  C2  I4B d   1       1.689  -1.419   0.465  0.00  0.00     0.003 A 
ATOM      3  C3  I4B d   1       1.922  -2.530   1.311  0.00  0.00     0.002 A 
ATOM      4  C4  I4B d   1       0.932  -2.944   2.179  0.00  0.00    -0.004 A 
ATOM      5  C5  I4B d   1      -0.311  -2.318   2.169  0.00  0.00     0.002 A 
ATOM      6  C6  I4B d   1      -0.549  -1.242   1.302  0.00  0.00     0.003 A 
ENDROOT
BRANCH   1   7
ATOM      7  C1' I4B d   1       0.268   0.402  -0.409  0.00  0.00     0.060 C 
BRANCH   7   8
ATOM      8  C2' I4B d   1      -1.179   0.835  -0.286  0.00  0.00    -0.013 C 
ATOM      9  C4' I4B d   1      -1.367   1.783   0.870  0.00  0.00     0.013 C 
ATOM     10  C3' I4B d   1      -1.583   1.474  -1.581  0.00  0.00     0.013 C 
ENDBRANCH   7   8
ENDBRANCH   1   7
TORSDOF 2
ENDMDL
