MODEL 1
REMARK minimizedAffinity -4.69445801
REMARK minimizedRMSD -1
REMARK  2 active torsions:
REMARK  status: ('A' for Active; 'I' for Inactive)
REMARK    1  A    between atoms: C2'_3  and  C1'_4 
REMARK    2  A    between atoms: C1'_4  and  C1_5 
ROOT
ATOM      1  C1  I4B d   1      -0.500  -0.988   0.463  0.00  0.00    -0.075 A 
ATOM      2  C2  I4B d   1       0.609  -1.764   0.232  0.00  0.00     0.003 A 
ATOM      3  C3  I4B d   1       1.199  -2.497   1.291  0.00  0.00     0.002 A 
ATOM      4  C4  I4B d   1       0.681  -2.386   2.565  0.00  0.00    -0.004 A 
ATOM      5  C5  I4B d   1      -0.457  -1.618   2.792  0.00  0.00     0.002 A 
ATOM      6  C6  I4B d   1      -1.059  -0.924   1.733  0.00  0.00     0.003 A 
ENDROOT
BRANCH   1   7
ATOM      7  C1' I4B d   1      -1.077  -0.202  -0.671  0.00  0.00     0.060 C 
BRANCH   7   8
ATOM      8  C2' I4B d   1      -0.504   1.199  -0.607  0.00  0.00    -0.013 C 
ATOM      9  C4' I4B d   1       1.002   1.173  -0.618  0.00  0.00     0.013 C 
ATOM     10  C3' I4B d   1      -1.041   1.973  -1.773  0.00  0.00     0.013 C 
ENDBRANCH   7   8
ENDBRANCH   1   7
TORSDOF 2
ENDMDL
