MODEL 1
REMARK minimizedAffinity -3.51191115
REMARK minimizedRMSD -1
REMARK  2 active torsions:
REMARK  status: ('A' for Active; 'I' for Inactive)
REMARK    1  A    between atoms: C2'_3  and  C1'_4 
REMARK    2  A    between atoms: C1'_4  and  C1_5 
ROOT
ATOM      1  C1  I4B d   1      -0.150  -1.209   0.718  0.00  0.00    -0.075 A 
ATOM      2  C2  I4B d   1       0.908  -2.049   0.959  0.00  0.00     0.003 A 
ATOM      3  C3  I4B d   1       0.978  -2.779   2.170  0.00  0.00     0.002 A 
ATOM      4  C4  I4B d   1      -0.000  -2.602   3.127  0.00  0.00    -0.004 A 
ATOM      5  C5  I4B d   1      -1.085  -1.768   2.872  0.00  0.00     0.002 A 
ATOM      6  C6  I4B d   1      -1.167  -1.076   1.655  0.00  0.00     0.003 A 
ENDROOT
BRANCH   1   7
ATOM      7  C1' I4B d   1      -0.175  -0.428  -0.557  0.00  0.00     0.060 C 
BRANCH   7   8
ATOM      8  C2' I4B d   1       0.358   0.960  -0.265  0.00  0.00    -0.013 C 
ATOM      9  C4' I4B d   1       1.828   1.056  -0.581  0.00  0.00     0.013 C 
ATOM     10  C3' I4B d   1      -0.435   1.941  -1.075  0.00  0.00     0.013 C 
ENDBRANCH   7   8
ENDBRANCH   1   7
TORSDOF 2
ENDMDL
