MODEL 1
REMARK minimizedAffinity -6.80918837
REMARK minimizedRMSD -1
REMARK  2 active torsions:
REMARK  status: ('A' for Active; 'I' for Inactive)
REMARK    1  A    between atoms: C2'_3  and  C1'_4 
REMARK    2  A    between atoms: C1'_4  and  C1_5 
ROOT
ATOM      1  C1  I4B d   1       0.144  -0.099  -0.060  0.00  0.00    -0.075 A 
ATOM      2  C2  I4B d   1      -0.337  -1.024   0.832  0.00  0.00     0.003 A 
ATOM      3  C3  I4B d   1       0.461  -2.131   1.211  0.00  0.00     0.002 A 
ATOM      4  C4  I4B d   1       1.705  -2.299   0.638  0.00  0.00    -0.004 A 
ATOM      5  C5  I4B d   1       2.200  -1.347  -0.249  0.00  0.00     0.002 A 
ATOM      6  C6  I4B d   1       1.420  -0.233  -0.591  0.00  0.00     0.003 A 
ENDROOT
BRANCH   1   7
ATOM      7  C1' I4B d   1      -0.739   1.040  -0.463  0.00  0.00     0.060 C 
BRANCH   7   8
ATOM      8  C2' I4B d   1      -1.172   0.811  -1.896  0.00  0.00    -0.013 C 
ATOM      9  C4' I4B d   1      -2.636   0.468  -1.975  0.00  0.00     0.013 C 
ATOM     10  C3' I4B d   1      -0.864   2.053  -2.678  0.00  0.00     0.013 C 
ENDBRANCH   7   8
ENDBRANCH   1   7
TORSDOF 2
ENDMDL
