MODEL 1
REMARK minimizedAffinity -5.51935482
REMARK minimizedRMSD -1
REMARK  2 active torsions:
REMARK  status: ('A' for Active; 'I' for Inactive)
REMARK    1  A    between atoms: C2'_3  and  C1'_4 
REMARK    2  A    between atoms: C1'_4  and  C1_5 
ROOT
ATOM      1  C1  I4B d   1       0.433  -0.849   0.599  0.00  0.00    -0.075 A 
ATOM      2  C2  I4B d   1       1.347  -1.819   0.272  0.00  0.00     0.003 A 
ATOM      3  C3  I4B d   1       1.492  -2.966   1.090  0.00  0.00     0.002 A 
ATOM      4  C4  I4B d   1       0.744  -3.076   2.244  0.00  0.00    -0.004 A 
ATOM      5  C5  I4B d   1      -0.198  -2.103   2.562  0.00  0.00     0.002 A 
ATOM      6  C6  I4B d   1      -0.364  -0.987   1.728  0.00  0.00     0.003 A 
ENDROOT
BRANCH   1   7
ATOM      7  C1' I4B d   1       0.328   0.365  -0.269  0.00  0.00     0.060 C 
BRANCH   7   8
ATOM      8  C2' I4B d   1      -1.109   0.843  -0.233  0.00  0.00    -0.013 C 
ATOM      9  C4' I4B d   1      -1.338   1.798   0.909  0.00  0.00     0.013 C 
ATOM     10  C3' I4B d   1      -1.415   1.491  -1.550  0.00  0.00     0.013 C 
ENDBRANCH   7   8
ENDBRANCH   1   7
TORSDOF 2
ENDMDL
