MODEL 1
REMARK minimizedAffinity -5.17892456
REMARK minimizedRMSD -1
REMARK  2 active torsions:
REMARK  status: ('A' for Active; 'I' for Inactive)
REMARK    1  A    between atoms: C2'_3  and  C1'_4 
REMARK    2  A    between atoms: C1'_4  and  C1_5 
ROOT
ATOM      1  C1  I4B d   1       0.613  -0.460   0.062  0.00  0.00    -0.075 A 
ATOM      2  C2  I4B d   1       1.798  -0.679   0.718  0.00  0.00     0.003 A 
ATOM      3  C3  I4B d   1       2.010  -1.890   1.421  0.00  0.00     0.002 A 
ATOM      4  C4  I4B d   1       0.999  -2.827   1.483  0.00  0.00    -0.004 A 
ATOM      5  C5  I4B d   1      -0.194  -2.613   0.797  0.00  0.00     0.002 A 
ATOM      6  C6  I4B d   1      -0.384  -1.427   0.072  0.00  0.00     0.003 A 
ENDROOT
BRANCH   1   7
ATOM      7  C1' I4B d   1       0.409   0.844  -0.642  0.00  0.00     0.060 C 
BRANCH   7   8
ATOM      8  C2' I4B d   1      -1.060   1.203  -0.545  0.00  0.00    -0.013 C 
ATOM      9  C4' I4B d   1      -1.388   1.797   0.799  0.00  0.00     0.013 C 
ATOM     10  C3' I4B d   1      -1.376   2.163  -1.653  0.00  0.00     0.013 C 
ENDBRANCH   7   8
ENDBRANCH   1   7
TORSDOF 2
ENDMDL
