MODEL 1
REMARK minimizedAffinity -4.24954414
REMARK minimizedRMSD -1
REMARK  2 active torsions:
REMARK  status: ('A' for Active; 'I' for Inactive)
REMARK    1  A    between atoms: C2'_3  and  C1'_4 
REMARK    2  A    between atoms: C1'_4  and  C1_5 
ROOT
ATOM      1  C1  I4B d   1       0.053  -1.363   0.728  0.00  0.00    -0.075 A 
ATOM      2  C2  I4B d   1       1.320  -1.891   0.690  0.00  0.00     0.003 A 
ATOM      3  C3  I4B d   1       1.903  -2.430   1.862  0.00  0.00     0.002 A 
ATOM      4  C4  I4B d   1       1.209  -2.375   3.053  0.00  0.00    -0.004 A 
ATOM      5  C5  I4B d   1      -0.083  -1.860   3.086  0.00  0.00     0.002 A 
ATOM      6  C6  I4B d   1      -0.670  -1.362   1.913  0.00  0.00     0.003 A 
ENDROOT
BRANCH   1   7
ATOM      7  C1' I4B d   1      -0.519  -0.773  -0.521  0.00  0.00     0.060 C 
BRANCH   7   8
ATOM      8  C2' I4B d   1      -0.549   0.733  -0.355  0.00  0.00    -0.013 C 
ATOM      9  C4' I4B d   1       0.840   1.314  -0.400  0.00  0.00     0.013 C 
ATOM     10  C3' I4B d   1      -1.410   1.302  -1.443  0.00  0.00     0.013 C 
ENDBRANCH   7   8
ENDBRANCH   1   7
TORSDOF 2
ENDMDL
