MODEL 1
REMARK minimizedAffinity -3.86269164
REMARK minimizedRMSD -1
REMARK  2 active torsions:
REMARK  status: ('A' for Active; 'I' for Inactive)
REMARK    1  A    between atoms: C2'_3  and  C1'_4 
REMARK    2  A    between atoms: C1'_4  and  C1_5 
ROOT
ATOM      1  C1  I4B d   1       0.754  -1.321   0.234  0.00  0.00    -0.075 A 
ATOM      2  C2  I4B d   1       1.762  -0.794  -0.535  0.00  0.00     0.003 A 
ATOM      3  C3  I4B d   1       1.630   0.500  -1.093  0.00  0.00     0.002 A 
ATOM      4  C4  I4B d   1       0.461   1.208  -0.900  0.00  0.00    -0.004 A 
ATOM      5  C5  I4B d   1      -0.550   0.682  -0.101  0.00  0.00     0.002 A 
ATOM      6  C6  I4B d   1      -0.398  -0.585   0.480  0.00  0.00     0.003 A 
ENDROOT
BRANCH   1   7
ATOM      7  C1' I4B d   1       0.913  -2.704   0.781  0.00  0.00     0.060 C 
BRANCH   7   8
ATOM      8  C2' I4B d   1       0.902  -2.613   2.293  0.00  0.00    -0.013 C 
ATOM      9  C4' I4B d   1       1.827  -1.529   2.780  0.00  0.00     0.013 C 
ATOM     10  C3' I4B d   1      -0.510  -2.358   2.731  0.00  0.00     0.013 C 
ENDBRANCH   7   8
ENDBRANCH   1   7
TORSDOF 2
ENDMDL
