MODEL 1
REMARK minimizedAffinity -5.21158218
REMARK minimizedRMSD -1
REMARK  2 active torsions:
REMARK  status: ('A' for Active; 'I' for Inactive)
REMARK    1  A    between atoms: C2'_3  and  C1'_4 
REMARK    2  A    between atoms: C1'_4  and  C1_5 
ROOT
ATOM      1  C1  I4B d   1      -0.318  -1.343   0.724  0.00  0.00    -0.075 A 
ATOM      2  C2  I4B d   1       0.750  -2.054   0.236  0.00  0.00     0.003 A 
ATOM      3  C3  I4B d   1       1.540  -2.842   1.107  0.00  0.00     0.002 A 
ATOM      4  C4  I4B d   1       1.260  -2.849   2.459  0.00  0.00    -0.004 A 
ATOM      5  C5  I4B d   1       0.163  -2.146   2.948  0.00  0.00     0.002 A 
ATOM      6  C6  I4B d   1      -0.638  -1.398   2.074  0.00  0.00     0.003 A 
ENDROOT
BRANCH   1   7
ATOM      7  C1' I4B d   1      -1.112  -0.496  -0.219  0.00  0.00     0.060 C 
BRANCH   7   8
ATOM      8  C2' I4B d   1      -0.490   0.885  -0.242  0.00  0.00    -0.013 C 
ATOM      9  C4' I4B d   1       1.011   0.806  -0.331  0.00  0.00     0.013 C 
ATOM     10  C3' I4B d   1      -1.063   1.632  -1.409  0.00  0.00     0.013 C 
ENDBRANCH   7   8
ENDBRANCH   1   7
TORSDOF 2
ENDMDL
