MODEL 1
REMARK minimizedAffinity -5.32476664
REMARK minimizedRMSD -1
REMARK  2 active torsions:
REMARK  status: ('A' for Active; 'I' for Inactive)
REMARK    1  A    between atoms: C2'_3  and  C1'_4 
REMARK    2  A    between atoms: C1'_4  and  C1_5 
ROOT
ATOM      1  C1  I4B d   1       0.571  -0.803   0.571  0.00  0.00    -0.075 A 
ATOM      2  C2  I4B d   1       1.479  -1.769   0.217  0.00  0.00     0.003 A 
ATOM      3  C3  I4B d   1       1.560  -2.976   0.953  0.00  0.00     0.002 A 
ATOM      4  C4  I4B d   1       0.754  -3.152   2.060  0.00  0.00    -0.004 A 
ATOM      5  C5  I4B d   1      -0.182  -2.181   2.404  0.00  0.00     0.002 A 
ATOM      6  C6  I4B d   1      -0.283  -1.004   1.648  0.00  0.00     0.003 A 
ENDROOT
BRANCH   1   7
ATOM      7  C1' I4B d   1       0.536   0.474  -0.208  0.00  0.00     0.060 C 
BRANCH   7   8
ATOM      8  C2' I4B d   1      -0.891   0.984  -0.203  0.00  0.00    -0.013 C 
ATOM      9  C4' I4B d   1      -1.118   1.956   0.925  0.00  0.00     0.013 C 
ATOM     10  C3' I4B d   1      -1.158   1.625  -1.532  0.00  0.00     0.013 C 
ENDBRANCH   7   8
ENDBRANCH   1   7
TORSDOF 2
ENDMDL
