MODEL 1
REMARK minimizedAffinity -3.3146143
REMARK minimizedRMSD -1
REMARK  2 active torsions:
REMARK  status: ('A' for Active; 'I' for Inactive)
REMARK    1  A    between atoms: C2'_3  and  C1'_4 
REMARK    2  A    between atoms: C1'_4  and  C1_5 
ROOT
ATOM      1  C1  I4B d   1      -1.219   0.865  -0.880  0.00  0.00    -0.075 A 
ATOM      2  C2  I4B d   1      -0.674   1.905  -1.590  0.00  0.00     0.003 A 
ATOM      3  C3  I4B d   1      -1.357   2.441  -2.708  0.00  0.00     0.002 A 
ATOM      4  C4  I4B d   1      -2.551   1.878  -3.109  0.00  0.00    -0.004 A 
ATOM      5  C5  I4B d   1      -3.114   0.838  -2.375  0.00  0.00     0.002 A 
ATOM      6  C6  I4B d   1      -2.450   0.336  -1.246  0.00  0.00     0.003 A 
ENDROOT
BRANCH   1   7
ATOM      7  C1' I4B d   1      -0.455   0.301   0.275  0.00  0.00     0.060 C 
BRANCH   7   8
ATOM      8  C2' I4B d   1       0.791  -0.366  -0.270  0.00  0.00    -0.013 C 
ATOM      9  C4' I4B d   1       2.034   0.381   0.138  0.00  0.00     0.013 C 
ATOM     10  C3' I4B d   1       0.819  -1.778   0.234  0.00  0.00     0.013 C 
ENDBRANCH   7   8
ENDBRANCH   1   7
TORSDOF 2
ENDMDL
