MODEL 1
REMARK minimizedAffinity -5.36934853
REMARK minimizedRMSD -1
REMARK  2 active torsions:
REMARK  status: ('A' for Active; 'I' for Inactive)
REMARK    1  A    between atoms: C2'_3  and  C1'_4 
REMARK    2  A    between atoms: C1'_4  and  C1_5 
ROOT
ATOM      1  C1  I4B d   1       0.640  -0.730   0.458  0.00  0.00    -0.075 A 
ATOM      2  C2  I4B d   1       1.781  -1.491   0.423  0.00  0.00     0.003 A 
ATOM      3  C3  I4B d   1       1.940  -2.578   1.316  0.00  0.00     0.002 A 
ATOM      4  C4  I4B d   1       0.962  -2.835   2.255  0.00  0.00    -0.004 A 
ATOM      5  C5  I4B d   1      -0.204  -2.076   2.274  0.00  0.00     0.002 A 
ATOM      6  C6  I4B d   1      -0.373  -1.024   1.362  0.00  0.00     0.003 A 
ENDROOT
BRANCH   1   7
ATOM      7  C1' I4B d   1       0.519   0.431  -0.478  0.00  0.00     0.060 C 
BRANCH   7   8
ATOM      8  C2' I4B d   1      -0.940   0.834  -0.537  0.00  0.00    -0.013 C 
ATOM      9  C4' I4B d   1      -1.275   1.830   0.542  0.00  0.00     0.013 C 
ATOM     10  C3' I4B d   1      -1.210   1.399  -1.899  0.00  0.00     0.013 C 
ENDBRANCH   7   8
ENDBRANCH   1   7
TORSDOF 2
ENDMDL
