MODEL 1
REMARK minimizedAffinity 2.63662982
REMARK minimizedRMSD -1
REMARK  1 active torsions:
REMARK  status: ('A' for Active; 'I' for Inactive)
REMARK    1  A    between atoms: C1_2  and  C2_3 
ROOT
ATOM      1  C2  UNL d   1       5.954  -3.235  -4.369  0.00  0.00    -0.077 A 
ATOM      2  C3  UNL d   1       5.932  -4.189  -3.341  0.00  0.00     0.002 A 
ATOM      3  C4  UNL d   1       5.942  -5.552  -3.642  0.00  0.00     0.002 A 
ATOM      4  C5  UNL d   1       5.979  -5.974  -4.969  0.00  0.00    -0.004 A 
ATOM      5  C6  UNL d   1       5.999  -5.034  -5.998  0.00  0.00     0.002 A 
ATOM      6  C7  UNL d   1       5.988  -3.671  -5.700  0.00  0.00     0.002 A 
ENDROOT
BRANCH   1   7
ATOM      7  C1  UNL d   1       5.993  -1.765  -4.045  0.00  0.00     0.055 C 
ATOM      8  C   UNL d   1       5.964  -0.919  -5.310  0.00  0.00     0.019 C 
ENDBRANCH   1   7
TORSDOF 1
ENDMDL
