MODEL 1
REMARK minimizedAffinity 9.89542198
REMARK minimizedRMSD -1
REMARK  1 active torsions:
REMARK  status: ('A' for Active; 'I' for Inactive)
REMARK    1  A    between atoms: C1_2  and  C2_3 
ROOT
ATOM      1  C2  UNL d   1       2.164  -2.633   3.134  0.00  0.00    -0.077 A 
ATOM      2  C3  UNL d   1       3.381  -3.330   3.126  0.00  0.00     0.002 A 
ATOM      3  C4  UNL d   1       3.409  -4.705   3.367  0.00  0.00     0.002 A 
ATOM      4  C5  UNL d   1       2.224  -5.395   3.613  0.00  0.00    -0.004 A 
ATOM      5  C6  UNL d   1       1.009  -4.711   3.626  0.00  0.00     0.002 A 
ATOM      6  C7  UNL d   1       0.979  -3.337   3.386  0.00  0.00     0.002 A 
ENDROOT
BRANCH   1   7
ATOM      7  C1  UNL d   1       2.126  -1.159   2.826  0.00  0.00     0.055 C 
ATOM      8  C   UNL d   1       1.732  -0.907   1.377  0.00  0.00     0.019 C 
ENDBRANCH   1   7
TORSDOF 1
ENDMDL
