MODEL 1
REMARK minimizedAffinity 6.98921204
REMARK minimizedRMSD -1
REMARK  1 active torsions:
REMARK  status: ('A' for Active; 'I' for Inactive)
REMARK    1  A    between atoms: C1_2  and  C2_3 
ROOT
ATOM      1  C2  UNL d   1       2.557   0.893   2.001  0.00  0.00    -0.077 A 
ATOM      2  C3  UNL d   1       2.625   1.299   3.341  0.00  0.00     0.002 A 
ATOM      3  C4  UNL d   1       2.476   0.367   4.370  0.00  0.00     0.002 A 
ATOM      4  C5  UNL d   1       2.264  -0.976   4.070  0.00  0.00    -0.004 A 
ATOM      5  C6  UNL d   1       2.193  -1.390   2.740  0.00  0.00     0.002 A 
ATOM      6  C7  UNL d   1       2.340  -0.460   1.710  0.00  0.00     0.002 A 
ENDROOT
BRANCH   1   7
ATOM      7  C1  UNL d   1       2.767   1.889   0.890  0.00  0.00     0.055 C 
ATOM      8  C   UNL d   1       2.186   3.249   1.249  0.00  0.00     0.019 C 
ENDBRANCH   1   7
TORSDOF 1
ENDMDL
