MODEL 1
REMARK minimizedAffinity 7.77565575
REMARK minimizedRMSD -1
REMARK  1 active torsions:
REMARK  status: ('A' for Active; 'I' for Inactive)
REMARK    1  A    between atoms: C1_2  and  C2_3 
ROOT
ATOM      1  C2  UNL d   1      -3.322   2.583   1.267  0.00  0.00    -0.077 A 
ATOM      2  C3  UNL d   1      -3.993   2.642   2.497  0.00  0.00     0.002 A 
ATOM      3  C4  UNL d   1      -5.326   3.054   2.554  0.00  0.00     0.002 A 
ATOM      4  C5  UNL d   1      -6.000   3.407   1.387  0.00  0.00    -0.004 A 
ATOM      5  C6  UNL d   1      -5.340   3.353   0.159  0.00  0.00     0.002 A 
ATOM      6  C7  UNL d   1      -4.008   2.942   0.100  0.00  0.00     0.002 A 
ENDROOT
BRANCH   1   7
ATOM      7  C1  UNL d   1      -1.900   2.091   1.197  0.00  0.00     0.055 C 
ATOM      8  C   UNL d   1      -1.844   0.601   0.894  0.00  0.00     0.019 C 
ENDBRANCH   1   7
TORSDOF 1
ENDMDL
