MODEL 1
REMARK minimizedAffinity 10.3644037
REMARK minimizedRMSD -1
REMARK  0 active torsions:
REMARK  status: ('A' for Active; 'I' for Inactive)
ROOT
ATOM      1  N1  IND d   1       0.875   3.336  -2.191  0.00  0.00    -0.196 N 
ATOM      2  C2  IND d   1       0.510   4.598  -1.813  0.00  0.00     0.054 A 
ATOM      3  C3  IND d   1      -0.199   4.559  -0.663  0.00  0.00    -0.031 A 
ATOM      4  C4  IND d   1      -0.791   2.543   0.825  0.00  0.00     0.051 A 
ATOM      5  C5  IND d   1      -0.707   1.180   0.875  0.00  0.00    -0.031 A 
ATOM      6  C6  IND d   1      -0.076   0.451  -0.112  0.00  0.00     0.015 A 
ATOM      7  C7  IND d   1       0.506   1.062  -1.186  0.00  0.00    -0.016 A 
ATOM      8  C8  IND d   1       0.417   2.446  -1.244  0.00  0.00    -0.047 A 
ATOM      9  C9  IND d   1      -0.259   3.187  -0.267  0.00  0.00    -0.096 A 
ATOM     10  HN1 IND d   1       1.316   3.132  -2.900  0.00  0.00     0.298 HD
ENDROOT
TORSDOF 0
ENDMDL
