MODEL 1
REMARK minimizedAffinity 0.697324991
REMARK minimizedRMSD -1
REMARK  0 active torsions:
REMARK  status: ('A' for Active; 'I' for Inactive)
ROOT
ATOM      1  N1  IND d   1       0.438   3.236  -0.427  0.00  0.00    -0.196 N 
ATOM      2  C2  IND d   1      -0.080   4.214  -1.229  0.00  0.00     0.054 A 
ATOM      3  C3  IND d   1      -1.420   4.293  -1.069  0.00  0.00    -0.031 A 
ATOM      4  C4  IND d   1      -2.956   2.984   0.530  0.00  0.00     0.051 A 
ATOM      5  C5  IND d   1      -2.947   1.958   1.433  0.00  0.00    -0.031 A 
ATOM      6  C6  IND d   1      -1.786   1.295   1.772  0.00  0.00     0.015 A 
ATOM      7  C7  IND d   1      -0.582   1.641   1.225  0.00  0.00    -0.016 A 
ATOM      8  C8  IND d   1      -0.589   2.677   0.302  0.00  0.00    -0.047 A 
ATOM      9  C9  IND d   1      -1.771   3.326  -0.077  0.00  0.00    -0.096 A 
ATOM     10  HN1 IND d   1       1.266   3.008  -0.385  0.00  0.00     0.298 HD
ENDROOT
TORSDOF 0
ENDMDL
