MODEL 1
REMARK minimizedAffinity -2.58081603
REMARK minimizedRMSD -1
REMARK  0 active torsions:
REMARK  status: ('A' for Active; 'I' for Inactive)
ROOT
ATOM      1  N1  IND d   1       0.355   3.406  -0.245  0.00  0.00    -0.196 N 
ATOM      2  C2  IND d   1      -0.251   4.194  -1.183  0.00  0.00     0.054 A 
ATOM      3  C3  IND d   1      -1.595   4.138  -1.048  0.00  0.00    -0.031 A 
ATOM      4  C4  IND d   1      -3.011   2.898   0.708  0.00  0.00     0.051 A 
ATOM      5  C5  IND d   1      -2.909   2.018   1.749  0.00  0.00    -0.031 A 
ATOM      6  C6  IND d   1      -1.688   1.549   2.189  0.00  0.00     0.015 A 
ATOM      7  C7  IND d   1      -0.519   1.952   1.609  0.00  0.00    -0.016 A 
ATOM      8  C8  IND d   1      -0.619   2.840   0.547  0.00  0.00    -0.047 A 
ATOM      9  C9  IND d   1      -1.858   3.287   0.069  0.00  0.00    -0.096 A 
ATOM     10  HN1 IND d   1       1.202   3.284  -0.163  0.00  0.00     0.298 HD
ENDROOT
TORSDOF 0
ENDMDL
