MODEL 1
REMARK minimizedAffinity 8.06126595
REMARK minimizedRMSD -1
REMARK  0 active torsions:
REMARK  status: ('A' for Active; 'I' for Inactive)
ROOT
ATOM      1  N1  IND d   1       0.880   3.716   1.071  0.00  0.00    -0.196 N 
ATOM      2  C2  IND d   1       0.081   4.376   0.180  0.00  0.00     0.054 A 
ATOM      3  C3  IND d   1      -1.094   3.723   0.029  0.00  0.00    -0.031 A 
ATOM      4  C4  IND d   1      -1.955   1.610   1.219  0.00  0.00     0.051 A 
ATOM      5  C5  IND d   1      -1.568   0.631   2.091  0.00  0.00    -0.031 A 
ATOM      6  C6  IND d   1      -0.321   0.631   2.681  0.00  0.00     0.015 A 
ATOM      7  C7  IND d   1       0.586   1.622   2.429  0.00  0.00    -0.016 A 
ATOM      8  C8  IND d   1       0.199   2.614   1.539  0.00  0.00    -0.047 A 
ATOM      9  C9  IND d   1      -1.050   2.595   0.904  0.00  0.00    -0.096 A 
ATOM     10  HN1 IND d   1       1.676   3.949   1.300  0.00  0.00     0.298 HD
ENDROOT
TORSDOF 0
ENDMDL
