MODEL 1
REMARK minimizedAffinity -2.93972468
REMARK minimizedRMSD -1
REMARK  0 active torsions:
REMARK  status: ('A' for Active; 'I' for Inactive)
ROOT
ATOM      1  N1  IND d   1       1.552   2.521  -2.040  0.00  0.00    -0.196 N 
ATOM      2  C2  IND d   1       1.560   1.154  -2.074  0.00  0.00     0.054 A 
ATOM      3  C3  IND d   1       0.849   0.654  -1.039  0.00  0.00    -0.031 A 
ATOM      4  C4  IND d   1      -0.497   1.894   0.772  0.00  0.00     0.051 A 
ATOM      5  C5  IND d   1      -0.775   3.148   1.238  0.00  0.00    -0.031 A 
ATOM      6  C6  IND d   1      -0.283   4.280   0.622  0.00  0.00     0.015 A 
ATOM      7  C7  IND d   1       0.498   4.201  -0.496  0.00  0.00    -0.016 A 
ATOM      8  C8  IND d   1       0.788   2.928  -0.968  0.00  0.00    -0.047 A 
ATOM      9  C9  IND d   1       0.327   1.774  -0.322  0.00  0.00    -0.096 A 
ATOM     10  HN1 IND d   1       1.956   3.039  -2.594  0.00  0.00     0.298 HD
ENDROOT
TORSDOF 0
ENDMDL
