MODEL 1
REMARK minimizedAffinity -0.865329862
REMARK minimizedRMSD -1
REMARK  0 active torsions:
REMARK  status: ('A' for Active; 'I' for Inactive)
ROOT
ATOM      1  N1  IND d   1       0.211   3.797  -1.650  0.00  0.00    -0.196 N 
ATOM      2  C2  IND d   1       0.494   2.680  -2.386  0.00  0.00     0.054 A 
ATOM      3  C3  IND d   1       0.076   1.570  -1.737  0.00  0.00    -0.031 A 
ATOM      4  C4  IND d   1      -1.188   1.360   0.495  0.00  0.00     0.051 A 
ATOM      5  C5  IND d   1      -1.639   2.101   1.552  0.00  0.00    -0.031 A 
ATOM      6  C6  IND d   1      -1.497   3.472   1.594  0.00  0.00     0.015 A 
ATOM      7  C7  IND d   1      -0.905   4.159   0.572  0.00  0.00    -0.016 A 
ATOM      8  C8  IND d   1      -0.439   3.409  -0.499  0.00  0.00    -0.047 A 
ATOM      9  C9  IND d   1      -0.543   2.013  -0.528  0.00  0.00    -0.096 A 
ATOM     10  HN1 IND d   1       0.406   4.605  -1.870  0.00  0.00     0.298 HD
ENDROOT
TORSDOF 0
ENDMDL
