MODEL 1
REMARK minimizedAffinity 2.67327285
REMARK minimizedRMSD -1
REMARK  0 active torsions:
REMARK  status: ('A' for Active; 'I' for Inactive)
ROOT
ATOM      1  N1  IND d   1      -1.496   1.017   1.235  0.00  0.00    -0.196 N 
ATOM      2  C2  IND d   1      -1.902   1.612   2.397  0.00  0.00     0.054 A 
ATOM      3  C3  IND d   1      -1.467   2.892   2.446  0.00  0.00    -0.031 A 
ATOM      4  C4  IND d   1      -0.164   4.246   0.687  0.00  0.00     0.051 A 
ATOM      5  C5  IND d   1       0.462   4.121  -0.521  0.00  0.00    -0.031 A 
ATOM      6  C6  IND d   1       0.465   2.932  -1.222  0.00  0.00     0.015 A 
ATOM      7  C7  IND d   1      -0.170   1.822  -0.743  0.00  0.00    -0.016 A 
ATOM      8  C8  IND d   1      -0.801   1.943   0.488  0.00  0.00    -0.047 A 
ATOM      9  C9  IND d   1      -0.771   3.135   1.223  0.00  0.00    -0.096 A 
ATOM     10  HN1 IND d   1      -1.649   0.202   1.008  0.00  0.00     0.298 HD
ENDROOT
TORSDOF 0
ENDMDL
