MODEL 1
REMARK minimizedAffinity 4.31473637
REMARK minimizedRMSD -1
REMARK  0 active torsions:
REMARK  status: ('A' for Active; 'I' for Inactive)
ROOT
ATOM      1  N1  IND d   1       0.560   4.109  -1.929  0.00  0.00    -0.196 N 
ATOM      2  C2  IND d   1       0.740   5.314  -1.310  0.00  0.00     0.054 A 
ATOM      3  C3  IND d   1       0.379   5.234  -0.010  0.00  0.00    -0.031 A 
ATOM      4  C4  IND d   1      -0.437   3.198   1.338  0.00  0.00     0.051 A 
ATOM      5  C5  IND d   1      -0.795   1.886   1.198  0.00  0.00    -0.031 A 
ATOM      6  C6  IND d   1      -0.715   1.235  -0.016  0.00  0.00     0.015 A 
ATOM      7  C7  IND d   1      -0.262   1.870  -1.137  0.00  0.00    -0.016 A 
ATOM      8  C8  IND d   1       0.096   3.204  -1.000  0.00  0.00    -0.047 A 
ATOM      9  C9  IND d   1      -0.023   3.882   0.220  0.00  0.00    -0.096 A 
ATOM     10  HN1 IND d   1       0.711   3.943  -2.760  0.00  0.00     0.298 HD
ENDROOT
TORSDOF 0
ENDMDL
