MODEL 1
REMARK minimizedAffinity 1.28254235
REMARK minimizedRMSD -1
REMARK  0 active torsions:
REMARK  status: ('A' for Active; 'I' for Inactive)
ROOT
ATOM      1  N1  IND d   1       1.198   2.687  -1.761  0.00  0.00    -0.196 N 
ATOM      2  C2  IND d   1       1.329   1.349  -2.008  0.00  0.00     0.054 A 
ATOM      3  C3  IND d   1       0.713   0.630  -1.043  0.00  0.00    -0.031 A 
ATOM      4  C4  IND d   1      -0.657   1.444   0.979  0.00  0.00     0.051 A 
ATOM      5  C5  IND d   1      -1.025   2.579   1.644  0.00  0.00    -0.031 A 
ATOM      6  C6  IND d   1      -0.667   3.835   1.197  0.00  0.00     0.015 A 
ATOM      7  C7  IND d   1       0.068   4.002   0.057  0.00  0.00    -0.016 A 
ATOM      8  C8  IND d   1       0.450   2.851  -0.616  0.00  0.00    -0.047 A 
ATOM      9  C9  IND d   1       0.125   1.572  -0.144  0.00  0.00    -0.096 A 
ATOM     10  HN1 IND d   1       1.528   3.321  -2.240  0.00  0.00     0.298 HD
ENDROOT
TORSDOF 0
ENDMDL
