MODEL 1
REMARK minimizedAffinity 6.06744576
REMARK minimizedRMSD -1
REMARK  0 active torsions:
REMARK  status: ('A' for Active; 'I' for Inactive)
ROOT
ATOM      1  N1  IND d   1       1.067  -0.559  -0.110  0.00  0.00    -0.196 N 
ATOM      2  C2  IND d   1       1.015  -0.780  -1.458  0.00  0.00     0.054 A 
ATOM      3  C3  IND d   1       0.289   0.186  -2.065  0.00  0.00    -0.031 A 
ATOM      4  C4  IND d   1      -0.821   2.277  -1.054  0.00  0.00     0.051 A 
ATOM      5  C5  IND d   1      -1.077   2.889   0.141  0.00  0.00    -0.031 A 
ATOM      6  C6  IND d   1      -0.620   2.375   1.337  0.00  0.00     0.015 A 
ATOM      7  C7  IND d   1       0.123   1.229   1.382  0.00  0.00    -0.016 A 
ATOM      8  C8  IND d   1       0.379   0.601   0.171  0.00  0.00    -0.047 A 
ATOM      9  C9  IND d   1      -0.118   1.095  -1.042  0.00  0.00    -0.096 A 
ATOM     10  HN1 IND d   1       1.463  -1.061   0.465  0.00  0.00     0.298 HD
ENDROOT
TORSDOF 0
ENDMDL
