MODEL 1
REMARK minimizedAffinity 1.16655219
REMARK minimizedRMSD -1
REMARK  0 active torsions:
REMARK  status: ('A' for Active; 'I' for Inactive)
ROOT
ATOM      1  N1  IND d   1       0.485   2.812  -1.551  0.00  0.00    -0.196 N 
ATOM      2  C2  IND d   1       1.003   1.574  -1.814  0.00  0.00     0.054 A 
ATOM      3  C3  IND d   1       0.636   0.696  -0.854  0.00  0.00    -0.031 A 
ATOM      4  C4  IND d   1      -0.896   1.049   1.185  0.00  0.00     0.051 A 
ATOM      5  C5  IND d   1      -1.579   2.018   1.864  0.00  0.00    -0.031 A 
ATOM      6  C6  IND d   1      -1.611   3.328   1.430  0.00  0.00     0.015 A 
ATOM      7  C7  IND d   1      -0.969   3.716   0.288  0.00  0.00    -0.016 A 
ATOM      8  C8  IND d   1      -0.269   2.735  -0.401  0.00  0.00    -0.047 A 
ATOM      9  C9  IND d   1      -0.197   1.414   0.058  0.00  0.00    -0.096 A 
ATOM     10  HN1 IND d   1       0.608   3.518  -2.025  0.00  0.00     0.298 HD
ENDROOT
TORSDOF 0
ENDMDL
