MODEL 1
REMARK minimizedAffinity 7.57548809
REMARK minimizedRMSD -1
REMARK  0 active torsions:
REMARK  status: ('A' for Active; 'I' for Inactive)
ROOT
ATOM      1  N1  IND d   1       0.936   2.820  -2.715  0.00  0.00    -0.196 N 
ATOM      2  C2  IND d   1       0.343   4.052  -2.705  0.00  0.00     0.054 A 
ATOM      3  C3  IND d   1      -0.398   4.208  -1.585  0.00  0.00    -0.031 A 
ATOM      4  C4  IND d   1      -0.695   2.613   0.414  0.00  0.00     0.051 A 
ATOM      5  C5  IND d   1      -0.379   1.355   0.845  0.00  0.00    -0.031 A 
ATOM      6  C6  IND d   1       0.410   0.505   0.097  0.00  0.00     0.015 A 
ATOM      7  C7  IND d   1       0.924   0.887  -1.110  0.00  0.00    -0.016 A 
ATOM      8  C8  IND d   1       0.599   2.161  -1.554  0.00  0.00    -0.047 A 
ATOM      9  C9  IND d   1      -0.236   3.013  -0.819  0.00  0.00    -0.096 A 
ATOM     10  HN1 IND d   1       1.436   2.510  -3.342  0.00  0.00     0.298 HD
ENDROOT
TORSDOF 0
ENDMDL
