MODEL 1
REMARK minimizedAffinity -1.85383952
REMARK minimizedRMSD -1
REMARK  0 active torsions:
REMARK  status: ('A' for Active; 'I' for Inactive)
ROOT
ATOM      1  N1  IND d   1       0.622   2.175  -2.336  0.00  0.00    -0.196 N 
ATOM      2  C2  IND d   1       1.019   0.946  -1.888  0.00  0.00     0.054 A 
ATOM      3  C3  IND d   1       0.487   0.694  -0.671  0.00  0.00    -0.031 A 
ATOM      4  C4  IND d   1      -1.143   2.114   0.726  0.00  0.00     0.051 A 
ATOM      5  C5  IND d   1      -1.764   3.331   0.750  0.00  0.00    -0.031 A 
ATOM      6  C6  IND d   1      -1.620   4.243  -0.276  0.00  0.00     0.015 A 
ATOM      7  C7  IND d   1      -0.856   3.965  -1.374  0.00  0.00    -0.016 A 
ATOM      8  C8  IND d   1      -0.219   2.732  -1.398  0.00  0.00    -0.047 A 
ATOM      9  C9  IND d   1      -0.327   1.820  -0.340  0.00  0.00    -0.096 A 
ATOM     10  HN1 IND d   1       0.858   2.538  -3.079  0.00  0.00     0.298 HD
ENDROOT
TORSDOF 0
ENDMDL
