MODEL 1
REMARK minimizedAffinity 4.99986792
REMARK minimizedRMSD -1
REMARK  0 active torsions:
REMARK  status: ('A' for Active; 'I' for Inactive)
ROOT
ATOM      1  N1  IND d   1       3.194  -0.011   0.048  0.00  0.00    -0.196 N 
ATOM      2  C2  IND d   1       1.876  -0.365   0.135  0.00  0.00     0.054 A 
ATOM      3  C3  IND d   1       1.745  -1.709   0.073  0.00  0.00    -0.031 A 
ATOM      4  C4  IND d   1       3.564  -3.525  -0.071  0.00  0.00     0.051 A 
ATOM      5  C5  IND d   1       4.913  -3.689  -0.211  0.00  0.00    -0.031 A 
ATOM      6  C6  IND d   1       5.776  -2.614  -0.272  0.00  0.00     0.015 A 
ATOM      7  C7  IND d   1       5.321  -1.329  -0.181  0.00  0.00    -0.016 A 
ATOM      8  C8  IND d   1       3.950  -1.159  -0.045  0.00  0.00    -0.047 A 
ATOM      9  C9  IND d   1       3.065  -2.244  -0.027  0.00  0.00    -0.096 A 
ATOM     10  HN1 IND d   1       3.499   0.793   0.050  0.00  0.00     0.298 HD
ENDROOT
TORSDOF 0
ENDMDL
