MODEL 1
REMARK minimizedAffinity 10.2355547
REMARK minimizedRMSD -1
REMARK  0 active torsions:
REMARK  status: ('A' for Active; 'I' for Inactive)
ROOT
ATOM      1  N1  IND d   1       1.152   1.756  -2.235  0.00  0.00    -0.196 N 
ATOM      2  C2  IND d   1       0.501   2.692  -1.481  0.00  0.00     0.054 A 
ATOM      3  C3  IND d   1      -0.779   2.314  -1.263  0.00  0.00    -0.031 A 
ATOM      4  C4  IND d   1      -1.986   0.151  -1.964  0.00  0.00     0.051 A 
ATOM      5  C5  IND d   1      -1.814  -0.989  -2.698  0.00  0.00    -0.031 A 
ATOM      6  C6  IND d   1      -0.620  -1.280  -3.326  0.00  0.00     0.015 A 
ATOM      7  C7  IND d   1       0.455  -0.442  -3.233  0.00  0.00    -0.016 A 
ATOM      8  C8  IND d   1       0.283   0.720  -2.494  0.00  0.00    -0.047 A 
ATOM      9  C9  IND d   1      -0.940   1.040  -1.890  0.00  0.00    -0.096 A 
ATOM     10  HN1 IND d   1       1.968   1.807  -2.502  0.00  0.00     0.298 HD
ENDROOT
TORSDOF 0
ENDMDL
