MODEL 1
REMARK minimizedAffinity 9.72574234
REMARK minimizedRMSD -1
REMARK  0 active torsions:
REMARK  status: ('A' for Active; 'I' for Inactive)
ROOT
ATOM      1  N1  IND d   1      -2.597  -1.248   3.496  0.00  0.00    -0.196 N 
ATOM      2  C2  IND d   1      -1.827  -2.303   3.901  0.00  0.00     0.054 A 
ATOM      3  C3  IND d   1      -0.548  -2.134   3.497  0.00  0.00    -0.031 A 
ATOM      4  C4  IND d   1       0.525  -0.156   2.246  0.00  0.00     0.051 A 
ATOM      5  C5  IND d   1       0.216   1.025   1.632  0.00  0.00    -0.031 A 
ATOM      6  C6  IND d   1      -1.072   1.520   1.610  0.00  0.00     0.015 A 
ATOM      7  C7  IND d   1      -2.102   0.855   2.213  0.00  0.00    -0.016 A 
ATOM      8  C8  IND d   1      -1.793  -0.348   2.832  0.00  0.00    -0.047 A 
ATOM      9  C9  IND d   1      -0.496  -0.877   2.821  0.00  0.00    -0.096 A 
ATOM     10  HN1 IND d   1      -3.441  -1.162   3.633  0.00  0.00     0.298 HD
ENDROOT
TORSDOF 0
ENDMDL
