MODEL 1
REMARK minimizedAffinity 10.2436514
REMARK minimizedRMSD -1
REMARK  0 active torsions:
REMARK  status: ('A' for Active; 'I' for Inactive)
ROOT
ATOM      1  N1  IND d   1      -1.276   2.424   2.181  0.00  0.00    -0.196 N 
ATOM      2  C2  IND d   1      -1.644   1.120   2.001  0.00  0.00     0.054 A 
ATOM      3  C3  IND d   1      -1.457   0.752   0.714  0.00  0.00    -0.031 A 
ATOM      4  C4  IND d   1      -0.463   2.096  -1.244  0.00  0.00     0.051 A 
ATOM      5  C5  IND d   1      -0.016   3.344  -1.576  0.00  0.00    -0.031 A 
ATOM      6  C6  IND d   1       0.037   4.369  -0.654  0.00  0.00     0.015 A 
ATOM      7  C7  IND d   1      -0.345   4.180   0.644  0.00  0.00    -0.016 A 
ATOM      8  C8  IND d   1      -0.806   2.916   0.983  0.00  0.00    -0.047 A 
ATOM      9  C9  IND d   1      -0.903   1.884   0.042  0.00  0.00    -0.096 A 
ATOM     10  HN1 IND d   1      -1.329   2.863   2.919  0.00  0.00     0.298 HD
ENDROOT
TORSDOF 0
ENDMDL
