MODEL 1
REMARK minimizedAffinity 1.10489154
REMARK minimizedRMSD -1
REMARK  0 active torsions:
REMARK  status: ('A' for Active; 'I' for Inactive)
ROOT
ATOM      1  N1  IND d   1       1.019   2.359  -1.790  0.00  0.00    -0.196 N 
ATOM      2  C2  IND d   1       1.488   1.078  -1.709  0.00  0.00     0.054 A 
ATOM      3  C3  IND d   1       0.945   0.445  -0.645  0.00  0.00    -0.031 A 
ATOM      4  C4  IND d   1      -0.814   1.286   1.036  0.00  0.00     0.051 A 
ATOM      5  C5  IND d   1      -1.517   2.404   1.391  0.00  0.00    -0.031 A 
ATOM      6  C6  IND d   1      -1.410   3.586   0.688  0.00  0.00     0.015 A 
ATOM      7  C7  IND d   1      -0.602   3.693  -0.408  0.00  0.00    -0.016 A 
ATOM      8  C8  IND d   1       0.119   2.562  -0.767  0.00  0.00    -0.047 A 
ATOM      9  C9  IND d   1       0.047   1.372  -0.032  0.00  0.00    -0.096 A 
ATOM     10  HN1 IND d   1       1.248   2.940  -2.381  0.00  0.00     0.298 HD
ENDROOT
TORSDOF 0
ENDMDL
