MODEL 1
REMARK minimizedAffinity 4.52572298
REMARK minimizedRMSD -1
REMARK  0 active torsions:
REMARK  status: ('A' for Active; 'I' for Inactive)
ROOT
ATOM      1  N1  IND d   1       1.021   2.061  -2.139  0.00  0.00    -0.196 N 
ATOM      2  C2  IND d   1       1.305   0.735  -1.966  0.00  0.00     0.054 A 
ATOM      3  C3  IND d   1       0.756   0.283  -0.816  0.00  0.00    -0.031 A 
ATOM      4  C4  IND d   1      -0.734   1.518   0.881  0.00  0.00     0.051 A 
ATOM      5  C5  IND d   1      -1.240   2.754   1.171  0.00  0.00    -0.031 A 
ATOM      6  C6  IND d   1      -1.016   3.844   0.354  0.00  0.00     0.015 A 
ATOM      7  C7  IND d   1      -0.283   3.735  -0.794  0.00  0.00    -0.016 A 
ATOM      8  C8  IND d   1       0.238   2.483  -1.088  0.00  0.00    -0.047 A 
ATOM      9  C9  IND d   1       0.050   1.383  -0.241  0.00  0.00    -0.096 A 
ATOM     10  HN1 IND d   1       1.287   2.549  -2.795  0.00  0.00     0.298 HD
ENDROOT
TORSDOF 0
ENDMDL
