MODEL 1
REMARK minimizedAffinity 5.22838211
REMARK minimizedRMSD -1
REMARK  1 active torsions:
REMARK  status: ('A' for Active; 'I' for Inactive)
REMARK    1  A    between atoms: C1_2  and  C2_3 
ROOT
ATOM      1  C2  UNL d   1      -0.069   4.978  -5.220  0.00  0.00    -0.081 A 
ATOM      2  C3  UNL d   1       0.688   4.043  -4.503  0.00  0.00     0.006 A 
ATOM      3  C4  UNL d   1       2.084   4.090  -4.531  0.00  0.00     0.002 A 
ATOM      4  C5  UNL d   1       2.746   5.076  -5.269  0.00  0.00    -0.080 A 
ATOM      5  C6  UNL d   1       4.244   5.157  -5.283  0.00  0.00     0.076 C 
ATOM      6  C7  UNL d   1       1.991   6.000  -6.000  0.00  0.00     0.002 A 
ATOM      7  C8  UNL d   1       0.595   5.953  -5.973  0.00  0.00     0.006 A 
ENDROOT
BRANCH   1   8
ATOM      8  C1  UNL d   1      -1.574   4.969  -5.140  0.00  0.00     0.054 C 
ATOM      9  C   UNL d   1      -2.084   3.712  -4.450  0.00  0.00     0.018 C 
ENDBRANCH   1   8
TORSDOF 1
ENDMDL
