MODEL 1
REMARK minimizedAffinity 8.59575462
REMARK minimizedRMSD -1
REMARK  1 active torsions:
REMARK  status: ('A' for Active; 'I' for Inactive)
REMARK    1  A    between atoms: C1_2  and  C2_3 
ROOT
ATOM      1  C2  UNL d   1       1.623  -3.939   0.612  0.00  0.00    -0.081 A 
ATOM      2  C3  UNL d   1       2.804  -3.377   1.113  0.00  0.00     0.006 A 
ATOM      3  C4  UNL d   1       2.858  -2.021   1.444  0.00  0.00     0.002 A 
ATOM      4  C5  UNL d   1       1.732  -1.206   1.287  0.00  0.00    -0.080 A 
ATOM      5  C6  UNL d   1       1.768   0.244   1.667  0.00  0.00     0.076 C 
ATOM      6  C7  UNL d   1       0.557  -1.764   0.770  0.00  0.00     0.002 A 
ATOM      7  C8  UNL d   1       0.503  -3.119   0.439  0.00  0.00     0.006 A 
ENDROOT
BRANCH   1   8
ATOM      8  C1  UNL d   1       1.543  -5.414   0.315  0.00  0.00     0.054 C 
ATOM      9  C   UNL d   1       2.921  -6.000   0.041  0.00  0.00     0.018 C 
ENDBRANCH   1   8
TORSDOF 1
ENDMDL
