MODEL 1
REMARK minimizedAffinity 10.919034
REMARK minimizedRMSD -1
REMARK  1 active torsions:
REMARK  status: ('A' for Active; 'I' for Inactive)
REMARK    1  A    between atoms: C1_2  and  C2_3 
ROOT
ATOM      1  C2  UNL d   1      -3.166   2.812  -3.672  0.00  0.00    -0.081 A 
ATOM      2  C3  UNL d   1      -1.785   2.593  -3.742  0.00  0.00     0.006 A 
ATOM      3  C4  UNL d   1      -1.184   1.604  -2.958  0.00  0.00     0.002 A 
ATOM      4  C5  UNL d   1      -1.955   0.815  -2.098  0.00  0.00    -0.080 A 
ATOM      5  C6  UNL d   1      -1.327  -0.270  -1.274  0.00  0.00     0.076 C 
ATOM      6  C7  UNL d   1      -3.332   1.046  -2.015  0.00  0.00     0.002 A 
ATOM      7  C8  UNL d   1      -3.933   2.034  -2.798  0.00  0.00     0.006 A 
ENDROOT
BRANCH   1   8
ATOM      8  C1  UNL d   1      -3.825   3.833  -4.563  0.00  0.00     0.054 C 
ATOM      9  C   UNL d   1      -4.875   3.190  -5.458  0.00  0.00     0.018 C 
ENDBRANCH   1   8
TORSDOF 1
ENDMDL
