MODEL 1
REMARK minimizedAffinity 6.19532776
REMARK minimizedRMSD -1
REMARK  1 active torsions:
REMARK  status: ('A' for Active; 'I' for Inactive)
REMARK    1  A    between atoms: C1_2  and  C2_3 
ROOT
ATOM      1  C2  UNL d   1      -4.425   1.513   4.056  0.00  0.00    -0.081 A 
ATOM      2  C3  UNL d   1      -3.217   0.976   3.592  0.00  0.00     0.006 A 
ATOM      3  C4  UNL d   1      -3.035   0.714   2.232  0.00  0.00     0.002 A 
ATOM      4  C5  UNL d   1      -4.052   0.992   1.313  0.00  0.00    -0.080 A 
ATOM      5  C6  UNL d   1      -3.857   0.745  -0.153  0.00  0.00     0.076 C 
ATOM      6  C7  UNL d   1      -5.264   1.512   1.779  0.00  0.00     0.002 A 
ATOM      7  C8  UNL d   1      -5.448   1.773   3.138  0.00  0.00     0.006 A 
ENDROOT
BRANCH   1   8
ATOM      8  C1  UNL d   1      -4.601   1.856   5.513  0.00  0.00     0.054 C 
ATOM      9  C   UNL d   1      -5.999   1.500   6.000  0.00  0.00     0.018 C 
ENDBRANCH   1   8
TORSDOF 1
ENDMDL
