MODEL 1
REMARK minimizedAffinity 18.9218616
REMARK minimizedRMSD -1
REMARK  1 active torsions:
REMARK  status: ('A' for Active; 'I' for Inactive)
REMARK    1  A    between atoms: C1_2  and  C2_3 
ROOT
ATOM      1  C2  UNL d   1      -0.076  -2.255   0.378  0.00  0.00    -0.081 A 
ATOM      2  C3  UNL d   1       1.208  -1.759   0.120  0.00  0.00     0.006 A 
ATOM      3  C4  UNL d   1       2.237  -2.621  -0.264  0.00  0.00     0.002 A 
ATOM      4  C5  UNL d   1       1.998  -3.993  -0.404  0.00  0.00    -0.080 A 
ATOM      5  C6  UNL d   1       3.087  -4.926  -0.845  0.00  0.00     0.076 C 
ATOM      6  C7  UNL d   1       0.720  -4.491  -0.130  0.00  0.00     0.002 A 
ATOM      7  C8  UNL d   1      -0.309  -3.629   0.254  0.00  0.00     0.006 A 
ENDROOT
BRANCH   1   8
ATOM      8  C1  UNL d   1      -1.204  -1.318   0.729  0.00  0.00     0.054 C 
ATOM      9  C   UNL d   1      -2.467  -2.086   1.093  0.00  0.00     0.018 C 
ENDBRANCH   1   8
TORSDOF 1
ENDMDL
