MODEL 1
REMARK minimizedAffinity 14.2263861
REMARK minimizedRMSD -1
REMARK  1 active torsions:
REMARK  status: ('A' for Active; 'I' for Inactive)
REMARK    1  A    between atoms: C1_2  and  C2_3 
ROOT
ATOM      1  C2  UNL d   1       2.055  -3.749   0.446  0.00  0.00    -0.081 A 
ATOM      2  C3  UNL d   1       3.154  -2.883   0.399  0.00  0.00     0.006 A 
ATOM      3  C4  UNL d   1       2.979  -1.508   0.570  0.00  0.00     0.002 A 
ATOM      4  C5  UNL d   1       1.705  -0.977   0.798  0.00  0.00    -0.080 A 
ATOM      5  C6  UNL d   1       1.508   0.494   1.013  0.00  0.00     0.076 C 
ATOM      6  C7  UNL d   1       0.605  -1.840   0.827  0.00  0.00     0.002 A 
ATOM      7  C8  UNL d   1       0.779  -3.215   0.656  0.00  0.00     0.006 A 
ENDROOT
BRANCH   1   8
ATOM      8  C1  UNL d   1       2.248  -5.240   0.327  0.00  0.00     0.054 C 
ATOM      9  C   UNL d   1       1.134  -6.000   1.032  0.00  0.00     0.018 C 
ENDBRANCH   1   8
TORSDOF 1
ENDMDL
