MODEL 1
REMARK minimizedAffinity 11.0088873
REMARK minimizedRMSD -1
REMARK  1 active torsions:
REMARK  status: ('A' for Active; 'I' for Inactive)
REMARK    1  A    between atoms: C1_2  and  C2_3 
ROOT
ATOM      1  C2  UNL d   1       4.874   2.751  -5.238  0.00  0.00    -0.081 A 
ATOM      2  C3  UNL d   1       5.277   4.051  -5.568  0.00  0.00     0.006 A 
ATOM      3  C4  UNL d   1       4.328   5.042  -5.827  0.00  0.00     0.002 A 
ATOM      4  C5  UNL d   1       2.961   4.753  -5.754  0.00  0.00    -0.080 A 
ATOM      5  C6  UNL d   1       1.932   5.816  -6.000  0.00  0.00     0.076 C 
ATOM      6  C7  UNL d   1       2.558   3.450  -5.442  0.00  0.00     0.002 A 
ATOM      7  C8  UNL d   1       3.507   2.458  -5.183  0.00  0.00     0.006 A 
ENDROOT
BRANCH   1   8
ATOM      8  C1  UNL d   1       5.894   1.696  -4.895  0.00  0.00     0.054 C 
ATOM      9  C   UNL d   1       5.374   0.752  -3.820  0.00  0.00     0.018 C 
ENDBRANCH   1   8
TORSDOF 1
ENDMDL
