MODEL 1
REMARK minimizedAffinity 10.6570749
REMARK minimizedRMSD -1
REMARK  1 active torsions:
REMARK  status: ('A' for Active; 'I' for Inactive)
REMARK    1  A    between atoms: C1_2  and  C2_3 
ROOT
ATOM      1  C2  UNL d   1      -3.817   0.537  -2.760  0.00  0.00    -0.081 A 
ATOM      2  C3  UNL d   1      -3.461  -0.780  -2.445  0.00  0.00     0.006 A 
ATOM      3  C4  UNL d   1      -4.173  -1.854  -2.985  0.00  0.00     0.002 A 
ATOM      4  C5  UNL d   1      -5.246  -1.630  -3.855  0.00  0.00    -0.080 A 
ATOM      5  C6  UNL d   1      -5.998  -2.774  -4.465  0.00  0.00     0.076 C 
ATOM      6  C7  UNL d   1      -5.612  -0.314  -4.156  0.00  0.00     0.002 A 
ATOM      7  C8  UNL d   1      -4.902   0.761  -3.615  0.00  0.00     0.006 A 
ENDROOT
BRANCH   1   8
ATOM      8  C1  UNL d   1      -3.011   1.696  -2.231  0.00  0.00     0.054 C 
ATOM      9  C   UNL d   1      -2.532   2.598  -3.359  0.00  0.00     0.018 C 
ENDBRANCH   1   8
TORSDOF 1
ENDMDL
