MODEL 1
REMARK minimizedAffinity 15.8566427
REMARK minimizedRMSD -1
REMARK  1 active torsions:
REMARK  status: ('A' for Active; 'I' for Inactive)
REMARK    1  A    between atoms: C1_2  and  C2_3 
ROOT
ATOM      1  C2  UNL d   1      -5.336  -0.148  -3.646  0.00  0.00    -0.081 A 
ATOM      2  C3  UNL d   1      -5.469  -1.492  -3.278  0.00  0.00     0.006 A 
ATOM      3  C4  UNL d   1      -4.903  -1.961  -2.090  0.00  0.00     0.002 A 
ATOM      4  C5  UNL d   1      -4.201  -1.093  -1.247  0.00  0.00    -0.080 A 
ATOM      5  C6  UNL d   1      -3.615  -1.577   0.046  0.00  0.00     0.076 C 
ATOM      6  C7  UNL d   1      -4.053   0.246  -1.623  0.00  0.00     0.002 A 
ATOM      7  C8  UNL d   1      -4.618   0.716  -2.811  0.00  0.00     0.006 A 
ENDROOT
BRANCH   1   8
ATOM      8  C1  UNL d   1      -6.000   0.375  -4.894  0.00  0.00     0.054 C 
ATOM      9  C   UNL d   1      -6.000  -0.670  -6.000  0.00  0.00     0.018 C 
ENDBRANCH   1   8
TORSDOF 1
ENDMDL
