MODEL 1
REMARK minimizedAffinity -1.56433678
REMARK minimizedRMSD -1
REMARK  1 active torsions:
REMARK  status: ('A' for Active; 'I' for Inactive)
REMARK    1  A    between atoms: C1_2  and  C2_3 
ROOT
ATOM      1  C2  UNL d   1       1.506  -3.701   1.272  0.00  0.00    -0.076 A 
ATOM      2  C3  UNL d   1       1.102  -4.875   1.931  0.00  0.00     0.004 A 
ATOM      3  C4  UNL d   1       0.003  -4.875   2.788  0.00  0.00    -0.003 A 
ATOM      4  C5  UNL d   1      -0.711  -3.700   3.000  0.00  0.00     0.000 A 
ATOM      5  C6  UNL d   1      -0.335  -2.531   2.340  0.00  0.00     0.000 A 
ATOM      6  C7  UNL d   1       0.760  -2.517   1.460  0.00  0.00    -0.073 A 
ATOM      7  C8  UNL d   1       1.125  -1.226   0.780  0.00  0.00     0.078 C 
ENDROOT
BRANCH   1   8
ATOM      8  C1  UNL d   1       2.722  -3.756   0.375  0.00  0.00     0.053 C 
ATOM      9  C   UNL d   1       3.678  -4.875   0.757  0.00  0.00     0.018 C 
ENDBRANCH   1   8
TORSDOF 1
ENDMDL
