MODEL 1
REMARK minimizedAffinity -1.01778841
REMARK minimizedRMSD -1
REMARK  1 active torsions:
REMARK  status: ('A' for Active; 'I' for Inactive)
REMARK    1  A    between atoms: C1_2  and  C2_3 
ROOT
ATOM      1  C2  UNL d   1       1.118  -2.363   0.740  0.00  0.00    -0.076 A 
ATOM      2  C3  UNL d   1      -0.064  -1.919   1.357  0.00  0.00     0.004 A 
ATOM      3  C4  UNL d   1      -0.630  -2.625   2.417  0.00  0.00    -0.003 A 
ATOM      4  C5  UNL d   1      -0.022  -3.788   2.877  0.00  0.00     0.000 A 
ATOM      5  C6  UNL d   1       1.160  -4.235   2.288  0.00  0.00     0.000 A 
ATOM      6  C7  UNL d   1       1.752  -3.525   1.230  0.00  0.00    -0.073 A 
ATOM      7  C8  UNL d   1       3.025  -4.055   0.627  0.00  0.00     0.078 C 
ENDROOT
BRANCH   1   8
ATOM      8  C1  UNL d   1       1.670  -1.570  -0.423  0.00  0.00     0.053 C 
ATOM      9  C   UNL d   1       1.996  -0.134  -0.046  0.00  0.00     0.018 C 
ENDBRANCH   1   8
TORSDOF 1
ENDMDL
