MODEL 1
REMARK minimizedAffinity 3.04204512
REMARK minimizedRMSD -1
REMARK  1 active torsions:
REMARK  status: ('A' for Active; 'I' for Inactive)
REMARK    1  A    between atoms: C1_2  and  C2_3 
ROOT
ATOM      1  C2  UNL d   1       1.722  -2.714   0.682  0.00  0.00    -0.076 A 
ATOM      2  C3  UNL d   1       0.570  -2.997   1.437  0.00  0.00     0.004 A 
ATOM      3  C4  UNL d   1      -0.313  -1.984   1.806  0.00  0.00    -0.003 A 
ATOM      4  C5  UNL d   1      -0.059  -0.671   1.425  0.00  0.00     0.000 A 
ATOM      5  C6  UNL d   1       1.069  -0.375   0.661  0.00  0.00     0.000 A 
ATOM      6  C7  UNL d   1       1.961  -1.387   0.266  0.00  0.00    -0.073 A 
ATOM      7  C8  UNL d   1       3.165  -1.010  -0.552  0.00  0.00     0.078 C 
ENDROOT
BRANCH   1   8
ATOM      8  C1  UNL d   1       2.657  -3.850   0.334  0.00  0.00     0.053 C 
ATOM      9  C   UNL d   1       3.039  -4.683   1.548  0.00  0.00     0.018 C 
ENDBRANCH   1   8
TORSDOF 1
ENDMDL
