MODEL 1
REMARK minimizedAffinity 5.69721889
REMARK minimizedRMSD -1
REMARK  1 active torsions:
REMARK  status: ('A' for Active; 'I' for Inactive)
REMARK    1  A    between atoms: C1_2  and  C2_3 
ROOT
ATOM      1  C2  UNL d   1       0.914  -3.400   1.267  0.00  0.00    -0.076 A 
ATOM      2  C3  UNL d   1       0.012  -4.395   1.683  0.00  0.00     0.004 A 
ATOM      3  C4  UNL d   1      -1.177  -4.061   2.328  0.00  0.00    -0.003 A 
ATOM      4  C5  UNL d   1      -1.485  -2.726   2.567  0.00  0.00     0.000 A 
ATOM      5  C6  UNL d   1      -0.610  -1.725   2.146  0.00  0.00     0.000 A 
ATOM      6  C7  UNL d   1       0.586  -2.044   1.480  0.00  0.00    -0.073 A 
ATOM      7  C8  UNL d   1       1.496  -0.925   1.053  0.00  0.00     0.078 C 
ENDROOT
BRANCH   1   8
ATOM      8  C1  UNL d   1       2.201  -3.824   0.597  0.00  0.00     0.053 C 
ATOM      9  C   UNL d   1       2.928  -4.916   1.368  0.00  0.00     0.018 C 
ENDBRANCH   1   8
TORSDOF 1
ENDMDL
