MODEL 1
REMARK minimizedAffinity 6.72386074
REMARK minimizedRMSD -1
REMARK  1 active torsions:
REMARK  status: ('A' for Active; 'I' for Inactive)
REMARK    1  A    between atoms: C1_2  and  C2_3 
ROOT
ATOM      1  C2  UNL d   1       3.359  -4.921   1.265  0.00  0.00    -0.076 A 
ATOM      2  C3  UNL d   1       3.681  -4.874  -0.102  0.00  0.00     0.004 A 
ATOM      3  C4  UNL d   1       4.991  -5.068  -0.538  0.00  0.00    -0.003 A 
ATOM      4  C5  UNL d   1       6.000  -5.312   0.387  0.00  0.00     0.000 A 
ATOM      5  C6  UNL d   1       5.695  -5.380   1.746  0.00  0.00     0.000 A 
ATOM      6  C7  UNL d   1       4.377  -5.203   2.201  0.00  0.00    -0.073 A 
ATOM      7  C8  UNL d   1       4.107  -5.280   3.678  0.00  0.00     0.078 C 
ENDROOT
BRANCH   1   8
ATOM      8  C1  UNL d   1       1.926  -4.676   1.680  0.00  0.00     0.053 C 
ATOM      9  C   UNL d   1       1.507  -3.225   1.502  0.00  0.00     0.018 C 
ENDBRANCH   1   8
TORSDOF 1
ENDMDL
