MODEL 1
REMARK minimizedAffinity 6.98197365
REMARK minimizedRMSD -1
REMARK  1 active torsions:
REMARK  status: ('A' for Active; 'I' for Inactive)
REMARK    1  A    between atoms: C1_2  and  C2_3 
ROOT
ATOM      1  C2  UNL d   1      -3.598  -2.085  -5.774  0.00  0.00    -0.076 A 
ATOM      2  C3  UNL d   1      -3.447  -3.482  -5.789  0.00  0.00     0.004 A 
ATOM      3  C4  UNL d   1      -4.554  -4.323  -5.889  0.00  0.00    -0.003 A 
ATOM      4  C5  UNL d   1      -5.831  -3.779  -5.976  0.00  0.00     0.000 A 
ATOM      5  C6  UNL d   1      -5.998  -2.395  -5.981  0.00  0.00     0.000 A 
ATOM      6  C7  UNL d   1      -4.891  -1.533  -5.897  0.00  0.00    -0.073 A 
ATOM      7  C8  UNL d   1      -5.130  -0.048  -5.901  0.00  0.00     0.078 C 
ENDROOT
BRANCH   1   8
ATOM      8  C1  UNL d   1      -2.362  -1.224  -5.636  0.00  0.00     0.053 C 
ATOM      9  C   UNL d   1      -1.338  -1.823  -4.684  0.00  0.00     0.018 C 
ENDBRANCH   1   8
TORSDOF 1
ENDMDL
