MODEL 1
REMARK minimizedAffinity 4.64405966
REMARK minimizedRMSD -1
REMARK  1 active torsions:
REMARK  status: ('A' for Active; 'I' for Inactive)
REMARK    1  A    between atoms: C1_2  and  C2_3 
ROOT
ATOM      1  C2  UNL d   1       1.456  -2.545   1.496  0.00  0.00    -0.076 A 
ATOM      2  C3  UNL d   1       2.431  -1.662   1.000  0.00  0.00     0.004 A 
ATOM      3  C4  UNL d   1       2.136  -0.318   0.781  0.00  0.00    -0.003 A 
ATOM      4  C5  UNL d   1       0.862   0.166   1.056  0.00  0.00     0.000 A 
ATOM      5  C6  UNL d   1      -0.113  -0.692   1.565  0.00  0.00     0.000 A 
ATOM      6  C7  UNL d   1       0.172  -2.046   1.807  0.00  0.00    -0.073 A 
ATOM      7  C8  UNL d   1      -0.918  -2.928   2.351  0.00  0.00     0.078 C 
ENDROOT
BRANCH   1   8
ATOM      8  C1  UNL d   1       1.825  -3.999   1.688  0.00  0.00     0.053 C 
ATOM      9  C   UNL d   1       3.230  -4.312   1.197  0.00  0.00     0.018 C 
ENDBRANCH   1   8
TORSDOF 1
ENDMDL
