MODEL 1
REMARK minimizedAffinity 3.69909191
REMARK minimizedRMSD -1
REMARK  0 active torsions:
REMARK  status: ('A' for Active; 'I' for Inactive)
ROOT
ATOM      1  C   UNL d   1      -0.108   1.216   0.985  0.00  0.00     0.078 C 
ATOM      2  C1  UNL d   1       0.695   0.039   1.453  0.00  0.00    -0.077 A 
ATOM      3  C2  UNL d   1       1.282  -0.843   0.537  0.00  0.00    -0.001 A 
ATOM      4  C3  UNL d   1       2.018  -1.940   0.987  0.00  0.00     0.003 A 
ATOM      5  C4  UNL d   1       2.173  -2.167   2.353  0.00  0.00    -0.005 A 
ATOM      6  C5  UNL d   1       1.590  -1.296   3.272  0.00  0.00     0.003 A 
ATOM      7  C6  UNL d   1       0.854  -0.198   2.824  0.00  0.00    -0.001 A 
ENDROOT
TORSDOF 0
ENDMDL
