MODEL 1
REMARK minimizedAffinity 15.4192553
REMARK minimizedRMSD -1
REMARK  0 active torsions:
REMARK  status: ('A' for Active; 'I' for Inactive)
ROOT
ATOM      1  C   UNL d   1      -5.433   5.986   0.027  0.00  0.00     0.078 C 
ATOM      2  C1  UNL d   1      -5.415   5.339  -1.326  0.00  0.00    -0.077 A 
ATOM      3  C2  UNL d   1      -4.839   5.985  -2.426  0.00  0.00    -0.001 A 
ATOM      4  C3  UNL d   1      -4.838   5.375  -3.682  0.00  0.00     0.003 A 
ATOM      5  C4  UNL d   1      -5.413   4.117  -3.849  0.00  0.00    -0.005 A 
ATOM      6  C5  UNL d   1      -5.991   3.467  -2.760  0.00  0.00     0.003 A 
ATOM      7  C6  UNL d   1      -5.992   4.076  -1.504  0.00  0.00    -0.001 A 
ENDROOT
TORSDOF 0
ENDMDL
