MODEL 1
REMARK minimizedAffinity -3.50450969
REMARK minimizedRMSD -1
REMARK  0 active torsions:
REMARK  status: ('A' for Active; 'I' for Inactive)
ROOT
ATOM      1  C   UNL d   1      -3.083  -0.138  -2.080  0.00  0.00     0.078 C 
ATOM      2  C1  UNL d   1      -2.914  -1.586  -1.732  0.00  0.00    -0.077 A 
ATOM      3  C2  UNL d   1      -3.127  -2.043  -0.425  0.00  0.00    -0.001 A 
ATOM      4  C3  UNL d   1      -2.956  -3.393  -0.113  0.00  0.00     0.003 A 
ATOM      5  C4  UNL d   1      -2.572  -4.297  -1.102  0.00  0.00    -0.005 A 
ATOM      6  C5  UNL d   1      -2.356  -3.851  -2.404  0.00  0.00     0.003 A 
ATOM      7  C6  UNL d   1      -2.526  -2.501  -2.718  0.00  0.00    -0.001 A 
ENDROOT
TORSDOF 0
ENDMDL
