MODEL 1
REMARK minimizedAffinity 5.96412992
REMARK minimizedRMSD -1
REMARK  0 active torsions:
REMARK  status: ('A' for Active; 'I' for Inactive)
ROOT
ATOM      1  C   UNL d   1       1.122  -2.241   6.000  0.00  0.00     0.078 C 
ATOM      2  C1  UNL d   1       1.188  -1.753   4.584  0.00  0.00    -0.077 A 
ATOM      3  C2  UNL d   1       0.672  -0.500   4.228  0.00  0.00    -0.001 A 
ATOM      4  C3  UNL d   1       0.731  -0.063   2.904  0.00  0.00     0.003 A 
ATOM      5  C4  UNL d   1       1.305  -0.872   1.925  0.00  0.00    -0.005 A 
ATOM      6  C5  UNL d   1       1.818  -2.120   2.269  0.00  0.00     0.003 A 
ATOM      7  C6  UNL d   1       1.760  -2.560   3.592  0.00  0.00    -0.001 A 
ENDROOT
TORSDOF 0
ENDMDL
