MODEL 1
REMARK minimizedAffinity 3.9140923
REMARK minimizedRMSD -1
REMARK  0 active torsions:
REMARK  status: ('A' for Active; 'I' for Inactive)
ROOT
ATOM      1  C   UNL d   1      -0.431   2.488   0.726  0.00  0.00     0.078 C 
ATOM      2  C1  UNL d   1      -0.295   1.028   1.042  0.00  0.00    -0.077 A 
ATOM      3  C2  UNL d   1      -1.387   0.160   0.923  0.00  0.00    -0.001 A 
ATOM      4  C3  UNL d   1      -1.249  -1.194   1.229  0.00  0.00     0.003 A 
ATOM      5  C4  UNL d   1      -0.020  -1.693   1.658  0.00  0.00    -0.005 A 
ATOM      6  C5  UNL d   1       1.072  -0.836   1.782  0.00  0.00     0.003 A 
ATOM      7  C6  UNL d   1       0.935   0.519   1.475  0.00  0.00    -0.001 A 
ENDROOT
TORSDOF 0
ENDMDL
