MODEL 1
REMARK minimizedAffinity 2.24174809
REMARK minimizedRMSD -1
REMARK  0 active torsions:
REMARK  status: ('A' for Active; 'I' for Inactive)
ROOT
ATOM      1  C   UNL d   1       1.823  -3.008   1.252  0.00  0.00     0.078 C 
ATOM      2  C1  UNL d   1       0.642  -2.085   1.228  0.00  0.00    -0.077 A 
ATOM      3  C2  UNL d   1       0.792  -0.714   1.474  0.00  0.00    -0.001 A 
ATOM      4  C3  UNL d   1      -0.318   0.131   1.459  0.00  0.00     0.003 A 
ATOM      5  C4  UNL d   1      -1.587  -0.383   1.199  0.00  0.00    -0.005 A 
ATOM      6  C5  UNL d   1      -1.746  -1.746   0.956  0.00  0.00     0.003 A 
ATOM      7  C6  UNL d   1      -0.637  -2.593   0.970  0.00  0.00    -0.001 A 
ENDROOT
TORSDOF 0
ENDMDL
