MODEL 1
REMARK minimizedAffinity 4.85471487
REMARK minimizedRMSD -1
REMARK  0 active torsions:
REMARK  status: ('A' for Active; 'I' for Inactive)
ROOT
ATOM      1  C   UNL d   1       1.027   0.035   4.187  0.00  0.00     0.078 C 
ATOM      2  C1  UNL d   1       1.088  -0.274   2.720  0.00  0.00    -0.077 A 
ATOM      3  C2  UNL d   1       0.332   0.459   1.797  0.00  0.00    -0.001 A 
ATOM      4  C3  UNL d   1       0.391   0.154   0.436  0.00  0.00     0.003 A 
ATOM      5  C4  UNL d   1       1.204  -0.885  -0.013  0.00  0.00    -0.005 A 
ATOM      6  C5  UNL d   1       1.958  -1.621   0.898  0.00  0.00     0.003 A 
ATOM      7  C6  UNL d   1       1.900  -1.317   2.259  0.00  0.00    -0.001 A 
ENDROOT
TORSDOF 0
ENDMDL
