MODEL 1
REMARK minimizedAffinity -1.34042406
REMARK minimizedRMSD -1
REMARK  0 active torsions:
REMARK  status: ('A' for Active; 'I' for Inactive)
ROOT
ATOM      1  C   UNL d   1      -5.999  -2.635  -1.851  0.00  0.00     0.078 C 
ATOM      2  C1  UNL d   1      -4.563  -2.606  -1.423  0.00  0.00    -0.077 A 
ATOM      3  C2  UNL d   1      -3.940  -1.403  -1.069  0.00  0.00    -0.001 A 
ATOM      4  C3  UNL d   1      -2.599  -1.390  -0.681  0.00  0.00     0.003 A 
ATOM      5  C4  UNL d   1      -1.869  -2.576  -0.645  0.00  0.00    -0.005 A 
ATOM      6  C5  UNL d   1      -2.480  -3.778  -0.997  0.00  0.00     0.003 A 
ATOM      7  C6  UNL d   1      -3.821  -3.793  -1.385  0.00  0.00    -0.001 A 
ENDROOT
TORSDOF 0
ENDMDL
