MODEL 1
REMARK minimizedAffinity 2.57209539
REMARK minimizedRMSD -1
REMARK  0 active torsions:
REMARK  status: ('A' for Active; 'I' for Inactive)
ROOT
ATOM      1  C   UNL d   1       0.862   0.074   2.164  0.00  0.00     0.078 C 
ATOM      2  C1  UNL d   1       1.167  -0.707   3.407  0.00  0.00    -0.077 A 
ATOM      3  C2  UNL d   1       1.800  -1.954   3.338  0.00  0.00    -0.001 A 
ATOM      4  C3  UNL d   1       2.068  -2.675   4.502  0.00  0.00     0.003 A 
ATOM      5  C4  UNL d   1       1.706  -2.158   5.744  0.00  0.00    -0.005 A 
ATOM      6  C5  UNL d   1       1.073  -0.919   5.823  0.00  0.00     0.003 A 
ATOM      7  C6  UNL d   1       0.804  -0.197   4.659  0.00  0.00    -0.001 A 
ENDROOT
TORSDOF 0
ENDMDL
