MODEL 1
REMARK minimizedAffinity -0.356236964
REMARK minimizedRMSD -1
REMARK  0 active torsions:
REMARK  status: ('A' for Active; 'I' for Inactive)
ROOT
ATOM      1  C   UNL d   1       3.023  -2.300   1.409  0.00  0.00     0.078 C 
ATOM      2  C1  UNL d   1       2.569  -2.181   2.833  0.00  0.00    -0.077 A 
ATOM      3  C2  UNL d   1       1.715  -1.145   3.233  0.00  0.00    -0.001 A 
ATOM      4  C3  UNL d   1       1.308  -1.041   4.564  0.00  0.00     0.003 A 
ATOM      5  C4  UNL d   1       1.751  -1.968   5.506  0.00  0.00    -0.005 A 
ATOM      6  C5  UNL d   1       2.602  -3.000   5.118  0.00  0.00     0.003 A 
ATOM      7  C6  UNL d   1       3.010  -3.106   3.787  0.00  0.00    -0.001 A 
ENDROOT
TORSDOF 0
ENDMDL
