MODEL 1
REMARK minimizedAffinity 2.68068695
REMARK minimizedRMSD -1
REMARK  1 active torsions:
REMARK  status: ('A' for Active; 'I' for Inactive)
REMARK    1  A    between atoms: C1_2  and  C2_3 
ROOT
ATOM      1  C2  UNL d   1       0.678  -2.192   2.485  0.00  0.00    -0.076 A 
ATOM      2  C3  UNL d   1       1.869  -2.018   1.758  0.00  0.00     0.004 A 
ATOM      3  C4  UNL d   1       2.529  -3.108   1.192  0.00  0.00    -0.003 A 
ATOM      4  C5  UNL d   1       2.008  -4.388   1.342  0.00  0.00     0.000 A 
ATOM      5  C6  UNL d   1       0.818  -4.576   2.045  0.00  0.00     0.000 A 
ATOM      6  C7  UNL d   1       0.132  -3.487   2.608  0.00  0.00    -0.073 A 
ATOM      7  C8  UNL d   1      -1.144  -3.749   3.361  0.00  0.00     0.078 C 
ENDROOT
BRANCH   1   8
ATOM      8  C1  UNL d   1       0.021  -0.976   3.100  0.00  0.00     0.053 C 
ATOM      9  C   UNL d   1      -1.464  -0.895   2.785  0.00  0.00     0.018 C 
ENDBRANCH   1   8
TORSDOF 1
ENDMDL
