MODEL 1
REMARK minimizedAffinity 0.473896086
REMARK minimizedRMSD -1
REMARK  1 active torsions:
REMARK  status: ('A' for Active; 'I' for Inactive)
REMARK    1  A    between atoms: C1_2  and  C2_3 
ROOT
ATOM      1  C2  UNL d   1       0.677  -1.992   2.626  0.00  0.00    -0.076 A 
ATOM      2  C3  UNL d   1       1.783  -1.943   1.760  0.00  0.00     0.004 A 
ATOM      3  C4  UNL d   1       2.493  -3.098   1.436  0.00  0.00    -0.003 A 
ATOM      4  C5  UNL d   1       2.107  -4.322   1.973  0.00  0.00     0.000 A 
ATOM      5  C6  UNL d   1       1.002  -4.392   2.820  0.00  0.00     0.000 A 
ATOM      6  C7  UNL d   1       0.266  -3.239   3.144  0.00  0.00    -0.073 A 
ATOM      7  C8  UNL d   1      -0.914  -3.372   4.067  0.00  0.00     0.078 C 
ENDROOT
BRANCH   1   8
ATOM      8  C1  UNL d   1      -0.037  -0.703   2.963  0.00  0.00     0.053 C 
ATOM      9  C   UNL d   1      -1.312  -0.515   2.154  0.00  0.00     0.018 C 
ENDBRANCH   1   8
TORSDOF 1
ENDMDL
