MODEL 1
REMARK minimizedAffinity 8.03845406
REMARK minimizedRMSD -1
REMARK  1 active torsions:
REMARK  status: ('A' for Active; 'I' for Inactive)
REMARK    1  A    between atoms: C1_2  and  C2_3 
ROOT
ATOM      1  C2  UNL d   1       4.145  -3.746   3.505  0.00  0.00    -0.076 A 
ATOM      2  C3  UNL d   1       3.984  -2.658   4.380  0.00  0.00     0.004 A 
ATOM      3  C4  UNL d   1       4.626  -2.631   5.617  0.00  0.00    -0.003 A 
ATOM      4  C5  UNL d   1       5.439  -3.692   5.999  0.00  0.00     0.000 A 
ATOM      5  C6  UNL d   1       5.623  -4.772   5.137  0.00  0.00     0.000 A 
ATOM      6  C7  UNL d   1       4.997  -4.807   3.879  0.00  0.00    -0.073 A 
ATOM      7  C8  UNL d   1       5.227  -6.000   2.992  0.00  0.00     0.078 C 
ENDROOT
BRANCH   1   8
ATOM      8  C1  UNL d   1       3.403  -3.733   2.188  0.00  0.00     0.053 C 
ATOM      9  C   UNL d   1       2.078  -2.991   2.273  0.00  0.00     0.018 C 
ENDBRANCH   1   8
TORSDOF 1
ENDMDL
