MODEL 1
REMARK minimizedAffinity 1.01407111
REMARK minimizedRMSD -1
REMARK  1 active torsions:
REMARK  status: ('A' for Active; 'I' for Inactive)
REMARK    1  A    between atoms: C1_2  and  C2_3 
ROOT
ATOM      1  C2  UNL d   1       4.582   3.883  -5.552  0.00  0.00    -0.076 A 
ATOM      2  C3  UNL d   1       3.320   3.267  -5.478  0.00  0.00     0.004 A 
ATOM      3  C4  UNL d   1       2.150   4.007  -5.639  0.00  0.00    -0.003 A 
ATOM      4  C5  UNL d   1       2.223   5.375  -5.879  0.00  0.00     0.000 A 
ATOM      5  C6  UNL d   1       3.466   5.999  -5.973  0.00  0.00     0.000 A 
ATOM      6  C7  UNL d   1       4.656   5.265  -5.828  0.00  0.00    -0.073 A 
ATOM      7  C8  UNL d   1       5.969   5.990  -5.933  0.00  0.00     0.078 C 
ENDROOT
BRANCH   1   8
ATOM      8  C1  UNL d   1       5.815   3.034  -5.341  0.00  0.00     0.053 C 
ATOM      9  C   UNL d   1       5.956   2.557  -3.904  0.00  0.00     0.018 C 
ENDBRANCH   1   8
TORSDOF 1
ENDMDL
