MODEL 1
REMARK minimizedAffinity 6.28367424
REMARK minimizedRMSD -1
REMARK  1 active torsions:
REMARK  status: ('A' for Active; 'I' for Inactive)
REMARK    1  A    between atoms: C1_2  and  C2_3 
ROOT
ATOM      1  C2  UNL d   1      -3.019   3.881  -4.283  0.00  0.00    -0.076 A 
ATOM      2  C3  UNL d   1      -2.013   4.306  -5.168  0.00  0.00     0.004 A 
ATOM      3  C4  UNL d   1      -0.722   3.786  -5.091  0.00  0.00    -0.003 A 
ATOM      4  C5  UNL d   1      -0.416   2.831  -4.127  0.00  0.00     0.000 A 
ATOM      5  C6  UNL d   1      -1.406   2.385  -3.252  0.00  0.00     0.000 A 
ATOM      6  C7  UNL d   1      -2.716   2.887  -3.327  0.00  0.00    -0.073 A 
ATOM      7  C8  UNL d   1      -3.742   2.374  -2.354  0.00  0.00     0.078 C 
ENDROOT
BRANCH   1   8
ATOM      8  C1  UNL d   1      -4.393   4.500  -4.396  0.00  0.00     0.053 C 
ATOM      9  C   UNL d   1      -4.441   5.916  -3.844  0.00  0.00     0.018 C 
ENDBRANCH   1   8
TORSDOF 1
ENDMDL
