MODEL 1
REMARK minimizedAffinity 9.59969044
REMARK minimizedRMSD -1
REMARK  1 active torsions:
REMARK  status: ('A' for Active; 'I' for Inactive)
REMARK    1  A    between atoms: C1_2  and  C2_3 
ROOT
ATOM      1  C2  UNL d   1       2.071  -2.417   0.979  0.00  0.00    -0.076 A 
ATOM      2  C3  UNL d   1       3.241  -2.374   1.757  0.00  0.00     0.004 A 
ATOM      3  C4  UNL d   1       3.366  -1.478   2.817  0.00  0.00    -0.003 A 
ATOM      4  C5  UNL d   1       2.321  -0.611   3.118  0.00  0.00     0.000 A 
ATOM      5  C6  UNL d   1       1.146  -0.652   2.369  0.00  0.00     0.000 A 
ATOM      6  C7  UNL d   1       0.998  -1.560   1.306  0.00  0.00    -0.073 A 
ATOM      7  C8  UNL d   1      -0.289  -1.557   0.528  0.00  0.00     0.078 C 
ENDROOT
BRANCH   1   8
ATOM      8  C1  UNL d   1       2.004  -3.391  -0.175  0.00  0.00     0.053 C 
ATOM      9  C   UNL d   1       1.592  -4.787   0.264  0.00  0.00     0.018 C 
ENDBRANCH   1   8
TORSDOF 1
ENDMDL
