MODEL 1
REMARK minimizedAffinity 13.9619036
REMARK minimizedRMSD -1
REMARK  1 active torsions:
REMARK  status: ('A' for Active; 'I' for Inactive)
REMARK    1  A    between atoms: C1_2  and  C2_3 
ROOT
ATOM      1  C2  UNL d   1       2.886  -2.164   0.213  0.00  0.00    -0.076 A 
ATOM      2  C3  UNL d   1       2.460  -2.822  -0.953  0.00  0.00     0.004 A 
ATOM      3  C4  UNL d   1       1.112  -2.855  -1.306  0.00  0.00    -0.003 A 
ATOM      4  C5  UNL d   1       0.168  -2.231  -0.498  0.00  0.00     0.000 A 
ATOM      5  C6  UNL d   1       0.576  -1.558   0.654  0.00  0.00     0.000 A 
ATOM      6  C7  UNL d   1       1.933  -1.501   1.015  0.00  0.00    -0.073 A 
ATOM      7  C8  UNL d   1       2.315  -0.768   2.272  0.00  0.00     0.078 C 
ENDROOT
BRANCH   1   8
ATOM      8  C1  UNL d   1       4.358  -2.184   0.559  0.00  0.00     0.053 C 
ATOM      9  C   UNL d   1       5.241  -1.835  -0.629  0.00  0.00     0.018 C 
ENDBRANCH   1   8
TORSDOF 1
ENDMDL
