MODEL 1
REMARK minimizedAffinity 0.781089425
REMARK minimizedRMSD -1
REMARK  1 active torsions:
REMARK  status: ('A' for Active; 'I' for Inactive)
REMARK    1  A    between atoms: C1_2  and  C2_3 
ROOT
ATOM      1  C2  UNL d   1       0.553   0.177  -1.700  0.00  0.00    -0.077 A 
ATOM      2  C3  UNL d   1      -0.209  -0.083  -2.847  0.00  0.00     0.002 A 
ATOM      3  C4  UNL d   1       0.064   0.584  -4.043  0.00  0.00     0.002 A 
ATOM      4  C5  UNL d   1       1.102   1.511  -4.104  0.00  0.00    -0.004 A 
ATOM      5  C6  UNL d   1       1.865   1.778  -2.968  0.00  0.00     0.002 A 
ATOM      6  C7  UNL d   1       1.592   1.114  -1.772  0.00  0.00     0.002 A 
ENDROOT
BRANCH   1   7
ATOM      7  C1  UNL d   1       0.292  -0.577  -0.422  0.00  0.00     0.055 C 
ATOM      8  C   UNL d   1       1.586  -0.868   0.324  0.00  0.00     0.019 C 
ENDBRANCH   1   7
TORSDOF 1
ENDMDL
