MODEL 1
REMARK minimizedAffinity -3.11175752
REMARK minimizedRMSD -1
REMARK  1 active torsions:
REMARK  status: ('A' for Active; 'I' for Inactive)
REMARK    1  A    between atoms: C1_2  and  C2_3 
ROOT
ATOM      1  C2  UNL d   1      -1.771   0.201   0.766  0.00  0.00    -0.077 A 
ATOM      2  C3  UNL d   1      -0.714  -0.104  -0.103  0.00  0.00     0.002 A 
ATOM      3  C4  UNL d   1       0.580  -0.275   0.392  0.00  0.00     0.002 A 
ATOM      4  C5  UNL d   1       0.828  -0.147   1.757  0.00  0.00    -0.004 A 
ATOM      5  C6  UNL d   1      -0.216   0.157   2.629  0.00  0.00     0.002 A 
ATOM      6  C7  UNL d   1      -1.510   0.330   2.136  0.00  0.00     0.002 A 
ENDROOT
BRANCH   1   7
ATOM      7  C1  UNL d   1      -3.177   0.337   0.240  0.00  0.00     0.055 C 
ATOM      8  C   UNL d   1      -3.638  -0.942  -0.443  0.00  0.00     0.019 C 
ENDBRANCH   1   7
TORSDOF 1
ENDMDL
