MODEL 1
REMARK minimizedAffinity -4.26729727
REMARK minimizedRMSD -1
REMARK  1 active torsions:
REMARK  status: ('A' for Active; 'I' for Inactive)
REMARK    1  A    between atoms: C1_2  and  C2_3 
ROOT
ATOM      1  C2  UNL d   1       0.441   0.350   1.340  0.00  0.00    -0.077 A 
ATOM      2  C3  UNL d   1      -0.222   0.077   0.135  0.00  0.00     0.002 A 
ATOM      3  C4  UNL d   1       0.278  -0.885  -0.744  0.00  0.00     0.002 A 
ATOM      4  C5  UNL d   1       1.440  -1.585  -0.426  0.00  0.00    -0.004 A 
ATOM      5  C6  UNL d   1       2.108  -1.320   0.769  0.00  0.00     0.002 A 
ATOM      6  C7  UNL d   1       1.610  -0.358   1.648  0.00  0.00     0.002 A 
ENDROOT
BRANCH   1   7
ATOM      7  C1  UNL d   1      -0.125   1.352   2.312  0.00  0.00     0.055 C 
ATOM      8  C   UNL d   1      -1.136   0.706   3.247  0.00  0.00     0.019 C 
ENDBRANCH   1   7
TORSDOF 1
ENDMDL
