MODEL 1
REMARK minimizedAffinity -2.84860039
REMARK minimizedRMSD -1
REMARK  1 active torsions:
REMARK  status: ('A' for Active; 'I' for Inactive)
REMARK    1  A    between atoms: C1_2  and  C2_3 
ROOT
ATOM      1  C2  UNL d   1       0.027  -0.425   0.792  0.00  0.00    -0.077 A 
ATOM      2  C3  UNL d   1      -1.016   0.177   1.510  0.00  0.00     0.002 A 
ATOM      3  C4  UNL d   1      -0.903   0.375   2.887  0.00  0.00     0.002 A 
ATOM      4  C5  UNL d   1       0.253  -0.022   3.557  0.00  0.00    -0.004 A 
ATOM      5  C6  UNL d   1       1.295  -0.623   2.852  0.00  0.00     0.002 A 
ATOM      6  C7  UNL d   1       1.183  -0.823   1.476  0.00  0.00     0.002 A 
ENDROOT
BRANCH   1   7
ATOM      7  C1  UNL d   1      -0.072  -0.594  -0.702  0.00  0.00     0.055 C 
ATOM      8  C   UNL d   1       0.460   0.629  -1.435  0.00  0.00     0.019 C 
ENDBRANCH   1   7
TORSDOF 1
ENDMDL
