MODEL 1
REMARK minimizedAffinity 18.5913525
REMARK minimizedRMSD -1
REMARK  0 active torsions:
REMARK  status: ('A' for Active; 'I' for Inactive)
ROOT
ATOM      1  N1  IND d   1       0.573   2.930  -4.190  0.00  0.00    -0.196 N 
ATOM      2  C2  IND d   1       0.473   2.917  -5.553  0.00  0.00     0.054 A 
ATOM      3  C3  IND d   1       0.258   1.658  -5.997  0.00  0.00    -0.031 A 
ATOM      4  C4  IND d   1      -0.066  -0.516  -4.657  0.00  0.00     0.051 A 
ATOM      5  C5  IND d   1      -0.024  -1.013  -3.384  0.00  0.00    -0.031 A 
ATOM      6  C6  IND d   1       0.221  -0.205  -2.293  0.00  0.00     0.015 A 
ATOM      7  C7  IND d   1       0.423   1.139  -2.433  0.00  0.00    -0.016 A 
ATOM      8  C8  IND d   1       0.389   1.646  -3.725  0.00  0.00    -0.047 A 
ATOM      9  C9  IND d   1       0.183   0.824  -4.840  0.00  0.00    -0.096 A 
ATOM     10  HN1 IND d   1       0.725   3.623  -3.705  0.00  0.00     0.298 HD
ENDROOT
TORSDOF 0
ENDMDL
