MODEL 1
REMARK minimizedAffinity 5.58079672
REMARK minimizedRMSD -1
REMARK  0 active torsions:
REMARK  status: ('A' for Active; 'I' for Inactive)
ROOT
ATOM      1  N1  IND d   1       3.007   3.575  -1.562  0.00  0.00    -0.196 N 
ATOM      2  C2  IND d   1       3.213   4.475  -2.570  0.00  0.00     0.054 A 
ATOM      3  C3  IND d   1       2.702   4.007  -3.730  0.00  0.00    -0.031 A 
ATOM      4  C4  IND d   1       1.399   1.834  -4.185  0.00  0.00     0.051 A 
ATOM      5  C5  IND d   1       0.993   0.675  -3.584  0.00  0.00    -0.031 A 
ATOM      6  C6  IND d   1       1.241   0.420  -2.251  0.00  0.00     0.015 A 
ATOM      7  C7  IND d   1       1.897   1.323  -1.462  0.00  0.00    -0.016 A 
ATOM      8  C8  IND d   1       2.316   2.497  -2.071  0.00  0.00    -0.047 A 
ATOM      9  C9  IND d   1       2.105   2.743  -3.434  0.00  0.00    -0.096 A 
ATOM     10  HN1 IND d   1       3.267   3.666  -0.747  0.00  0.00     0.298 HD
ENDROOT
TORSDOF 0
ENDMDL
