MODEL 1
REMARK minimizedAffinity 11.2725639
REMARK minimizedRMSD -1
REMARK  0 active torsions:
REMARK  status: ('A' for Active; 'I' for Inactive)
ROOT
ATOM      1  N1  IND d   1      -1.566  -4.256   2.296  0.00  0.00    -0.196 N 
ATOM      2  C2  IND d   1      -0.534  -5.075   1.932  0.00  0.00     0.054 A 
ATOM      3  C3  IND d   1      -0.430  -5.131   0.585  0.00  0.00    -0.031 A 
ATOM      4  C4  IND d   1      -1.784  -3.881  -1.213  0.00  0.00     0.051 A 
ATOM      5  C5  IND d   1      -2.856  -3.048  -1.369  0.00  0.00    -0.031 A 
ATOM      6  C6  IND d   1      -3.566  -2.563  -0.289  0.00  0.00     0.015 A 
ATOM      7  C7  IND d   1      -3.221  -2.886   0.993  0.00  0.00    -0.016 A 
ATOM      8  C8  IND d   1      -2.137  -3.737   1.155  0.00  0.00    -0.047 A 
ATOM      9  C9  IND d   1      -1.440  -4.266   0.061  0.00  0.00    -0.096 A 
ATOM     10  HN1 IND d   1      -1.817  -4.093   3.102  0.00  0.00     0.298 HD
ENDROOT
TORSDOF 0
ENDMDL
