MODEL 1
REMARK minimizedAffinity 5.54820347
REMARK minimizedRMSD -1
REMARK  0 active torsions:
REMARK  status: ('A' for Active; 'I' for Inactive)
ROOT
ATOM      1  N1  IND d   1       0.312  -1.419  -2.715  0.00  0.00    -0.196 N 
ATOM      2  C2  IND d   1       1.056  -1.550  -1.575  0.00  0.00     0.054 A 
ATOM      3  C3  IND d   1       1.973  -0.560  -1.496  0.00  0.00    -0.031 A 
ATOM      4  C4  IND d   1       2.362   1.439  -3.071  0.00  0.00     0.051 A 
ATOM      5  C5  IND d   1       1.954   1.966  -4.264  0.00  0.00    -0.031 A 
ATOM      6  C6  IND d   1       0.956   1.381  -5.016  0.00  0.00     0.015 A 
ATOM      7  C7  IND d   1       0.318   0.249  -4.595  0.00  0.00    -0.016 A 
ATOM      8  C8  IND d   1       0.734  -0.293  -3.387  0.00  0.00    -0.047 A 
ATOM      9  C9  IND d   1       1.776   0.272  -2.640  0.00  0.00    -0.096 A 
ATOM     10  HN1 IND d   1      -0.314  -1.951  -2.969  0.00  0.00     0.298 HD
ENDROOT
TORSDOF 0
ENDMDL
