MODEL 1
REMARK minimizedAffinity 14.0925703
REMARK minimizedRMSD -1
REMARK  0 active torsions:
REMARK  status: ('A' for Active; 'I' for Inactive)
ROOT
ATOM      1  N1  IND d   1      -2.293   4.458   4.871  0.00  0.00    -0.196 N 
ATOM      2  C2  IND d   1      -2.516   5.289   5.933  0.00  0.00     0.054 A 
ATOM      3  C3  IND d   1      -3.796   5.722   5.931  0.00  0.00    -0.031 A 
ATOM      4  C4  IND d   1      -5.726   5.116   4.339  0.00  0.00     0.051 A 
ATOM      5  C5  IND d   1      -6.000   4.423   3.193  0.00  0.00    -0.031 A 
ATOM      6  C6  IND d   1      -5.033   3.690   2.536  0.00  0.00     0.015 A 
ATOM      7  C7  IND d   1      -3.754   3.612   3.009  0.00  0.00    -0.016 A 
ATOM      8  C8  IND d   1      -3.471   4.320   4.168  0.00  0.00    -0.047 A 
ATOM      9  C9  IND d   1      -4.437   5.101   4.816  0.00  0.00    -0.096 A 
ATOM     10  HN1 IND d   1      -1.544   4.085   4.674  0.00  0.00     0.298 HD
ENDROOT
TORSDOF 0
ENDMDL
