MODEL 1
REMARK minimizedAffinity 15.0124645
REMARK minimizedRMSD -1
REMARK  0 active torsions:
REMARK  status: ('A' for Active; 'I' for Inactive)
ROOT
ATOM      1  N1  IND d   1      -1.353   0.366  -1.821  0.00  0.00    -0.196 N 
ATOM      2  C2  IND d   1      -1.453   0.585  -0.476  0.00  0.00     0.054 A 
ATOM      3  C3  IND d   1      -0.240   0.879   0.045  0.00  0.00    -0.031 A 
ATOM      4  C4  IND d   1       2.027   1.153  -1.144  0.00  0.00     0.051 A 
ATOM      5  C5  IND d   1       2.627   1.016  -2.365  0.00  0.00    -0.031 A 
ATOM      6  C6  IND d   1       1.916   0.650  -3.490  0.00  0.00     0.015 A 
ATOM      7  C7  IND d   1       0.570   0.418  -3.438  0.00  0.00    -0.016 A 
ATOM      8  C8  IND d   1      -0.041   0.550  -2.199  0.00  0.00    -0.047 A 
ATOM      9  C9  IND d   1       0.683   0.879  -1.046  0.00  0.00    -0.096 A 
ATOM     10  HN1 IND d   1      -2.000   0.149  -2.344  0.00  0.00     0.298 HD
ENDROOT
TORSDOF 0
ENDMDL
