MODEL 1
REMARK minimizedAffinity 15.1230345
REMARK minimizedRMSD -1
REMARK  0 active torsions:
REMARK  status: ('A' for Active; 'I' for Inactive)
ROOT
ATOM      1  N1  IND d   1       0.041   0.588  -4.487  0.00  0.00    -0.196 N 
ATOM      2  C2  IND d   1       0.642   1.782  -4.198  0.00  0.00     0.054 A 
ATOM      3  C3  IND d   1       1.351   1.686  -3.051  0.00  0.00    -0.031 A 
ATOM      4  C4  IND d   1       1.747  -0.360  -1.539  0.00  0.00     0.051 A 
ATOM      5  C5  IND d   1       1.375  -1.665  -1.373  0.00  0.00    -0.031 A 
ATOM      6  C6  IND d   1       0.524  -2.299  -2.256  0.00  0.00     0.015 A 
ATOM      7  C7  IND d   1       0.021  -1.652  -3.349  0.00  0.00    -0.016 A 
ATOM      8  C8  IND d   1       0.391  -0.325  -3.517  0.00  0.00    -0.047 A 
ATOM      9  C9  IND d   1       1.220   0.336  -2.601  0.00  0.00    -0.096 A 
ATOM     10  HN1 IND d   1      -0.469   0.434  -5.162  0.00  0.00     0.298 HD
ENDROOT
TORSDOF 0
ENDMDL
