MODEL 1
REMARK minimizedAffinity 14.4428883
REMARK minimizedRMSD -1
REMARK  0 active torsions:
REMARK  status: ('A' for Active; 'I' for Inactive)
ROOT
ATOM      1  N1  IND d   1       2.262  -5.156   0.759  0.00  0.00    -0.196 N 
ATOM      2  C2  IND d   1       1.135  -5.710   1.299  0.00  0.00     0.054 A 
ATOM      3  C3  IND d   1       0.033  -5.249   0.666  0.00  0.00    -0.031 A 
ATOM      4  C4  IND d   1      -0.148  -3.658  -1.350  0.00  0.00     0.051 A 
ATOM      5  C5  IND d   1       0.606  -2.864  -2.167  0.00  0.00    -0.031 A 
ATOM      6  C6  IND d   1       1.980  -2.794  -2.050  0.00  0.00     0.015 A 
ATOM      7  C7  IND d   1       2.653  -3.528  -1.115  0.00  0.00    -0.016 A 
ATOM      8  C8  IND d   1       1.889  -4.330  -0.279  0.00  0.00    -0.047 A 
ATOM      9  C9  IND d   1       0.492  -4.372  -0.365  0.00  0.00    -0.096 A 
ATOM     10  HN1 IND d   1       3.067  -5.299   1.022  0.00  0.00     0.298 HD
ENDROOT
TORSDOF 0
ENDMDL
