MODEL 1
REMARK minimizedAffinity 7.23411274
REMARK minimizedRMSD -1
REMARK  0 active torsions:
REMARK  status: ('A' for Active; 'I' for Inactive)
ROOT
ATOM      1  N1  IND d   1       0.487   1.176  -4.931  0.00  0.00    -0.196 N 
ATOM      2  C2  IND d   1       1.425   1.218  -5.925  0.00  0.00     0.054 A 
ATOM      3  C3  IND d   1       2.659   1.001  -5.416  0.00  0.00    -0.031 A 
ATOM      4  C4  IND d   1       3.359   0.456  -3.000  0.00  0.00     0.051 A 
ATOM      5  C5  IND d   1       2.860   0.346  -1.732  0.00  0.00    -0.031 A 
ATOM      6  C6  IND d   1       1.516   0.507  -1.461  0.00  0.00     0.015 A 
ATOM      7  C7  IND d   1       0.617   0.775  -2.454  0.00  0.00    -0.016 A 
ATOM      8  C8  IND d   1       1.121   0.895  -3.741  0.00  0.00    -0.047 A 
ATOM      9  C9  IND d   1       2.489   0.774  -4.016  0.00  0.00    -0.096 A 
ATOM     10  HN1 IND d   1      -0.357   1.304  -5.033  0.00  0.00     0.298 HD
ENDROOT
TORSDOF 0
ENDMDL
