MODEL 1
REMARK minimizedAffinity 12.9183578
REMARK minimizedRMSD -1
REMARK  0 active torsions:
REMARK  status: ('A' for Active; 'I' for Inactive)
ROOT
ATOM      1  N1  IND d   1      -2.230   4.464   5.264  0.00  0.00    -0.196 N 
ATOM      2  C2  IND d   1      -2.851   5.435   6.000  0.00  0.00     0.054 A 
ATOM      3  C3  IND d   1      -4.117   5.618   5.563  0.00  0.00    -0.031 A 
ATOM      4  C4  IND d   1      -5.410   4.364   3.723  0.00  0.00     0.051 A 
ATOM      5  C5  IND d   1      -5.252   3.419   2.750  0.00  0.00    -0.031 A 
ATOM      6  C6  IND d   1      -4.055   2.758   2.562  0.00  0.00     0.015 A 
ATOM      7  C7  IND d   1      -2.970   3.011   3.353  0.00  0.00    -0.016 A 
ATOM      8  C8  IND d   1      -3.125   3.976   4.338  0.00  0.00    -0.047 A 
ATOM      9  C9  IND d   1      -4.324   4.680   4.505  0.00  0.00    -0.096 A 
ATOM     10  HN1 IND d   1      -1.417   4.202   5.364  0.00  0.00     0.298 HD
ENDROOT
TORSDOF 0
ENDMDL
