MODEL 1
REMARK minimizedAffinity 1.90409994
REMARK minimizedRMSD -1
REMARK  0 active torsions:
REMARK  status: ('A' for Active; 'I' for Inactive)
ROOT
ATOM      1  N1  IND d   1       1.998   2.117  -1.361  0.00  0.00    -0.196 N 
ATOM      2  C2  IND d   1       1.253   1.069  -0.894  0.00  0.00     0.054 A 
ATOM      3  C3  IND d   1       0.783   0.331  -1.925  0.00  0.00    -0.031 A 
ATOM      4  C4  IND d   1       1.195   0.601  -4.452  0.00  0.00     0.051 A 
ATOM      5  C5  IND d   1       1.780   1.432  -5.365  0.00  0.00    -0.031 A 
ATOM      6  C6  IND d   1       2.484   2.555  -4.983  0.00  0.00     0.015 A 
ATOM      7  C7  IND d   1       2.640   2.884  -3.666  0.00  0.00    -0.016 A 
ATOM      8  C8  IND d   1       2.041   2.046  -2.736  0.00  0.00    -0.047 A 
ATOM      9  C9  IND d   1       1.289   0.928  -3.120  0.00  0.00    -0.096 A 
ATOM     10  HN1 IND d   1       2.375   2.719  -0.876  0.00  0.00     0.298 HD
ENDROOT
TORSDOF 0
ENDMDL
