MODEL 1
REMARK minimizedAffinity 17.584444
REMARK minimizedRMSD -1
REMARK  0 active torsions:
REMARK  status: ('A' for Active; 'I' for Inactive)
ROOT
ATOM      1  N1  IND d   1       1.135  -1.221  -2.780  0.00  0.00    -0.196 N 
ATOM      2  C2  IND d   1       1.662  -1.431  -1.536  0.00  0.00     0.054 A 
ATOM      3  C3  IND d   1       2.451  -0.393  -1.178  0.00  0.00    -0.031 A 
ATOM      4  C4  IND d   1       2.938   1.800  -2.435  0.00  0.00     0.051 A 
ATOM      5  C5  IND d   1       2.713   2.432  -3.625  0.00  0.00    -0.031 A 
ATOM      6  C6  IND d   1       1.931   1.869  -4.613  0.00  0.00     0.015 A 
ATOM      7  C7  IND d   1       1.334   0.652  -4.442  0.00  0.00    -0.016 A 
ATOM      8  C8  IND d   1       1.567   0.004  -3.238  0.00  0.00    -0.047 A 
ATOM      9  C9  IND d   1       2.394   0.551  -2.248  0.00  0.00    -0.096 A 
ATOM     10  HN1 IND d   1       0.619  -1.763  -3.204  0.00  0.00     0.298 HD
ENDROOT
TORSDOF 0
ENDMDL
