MODEL 1
REMARK minimizedAffinity 8.62126255
REMARK minimizedRMSD -1
REMARK  0 active torsions:
REMARK  status: ('A' for Active; 'I' for Inactive)
ROOT
ATOM      1  N1  IND d   1      -0.239   3.146  -4.747  0.00  0.00    -0.196 N 
ATOM      2  C2  IND d   1      -0.211   2.594  -5.997  0.00  0.00     0.054 A 
ATOM      3  C3  IND d   1       0.185   1.303  -5.933  0.00  0.00    -0.031 A 
ATOM      4  C4  IND d   1       0.739  -0.136  -3.872  0.00  0.00     0.051 A 
ATOM      5  C5  IND d   1       0.890  -0.063  -2.515  0.00  0.00    -0.031 A 
ATOM      6  C6  IND d   1       0.665   1.107  -1.819  0.00  0.00     0.015 A 
ATOM      7  C7  IND d   1       0.268   2.249  -2.455  0.00  0.00    -0.016 A 
ATOM      8  C8  IND d   1       0.120   2.180  -3.833  0.00  0.00    -0.047 A 
ATOM      9  C9  IND d   1       0.389   1.007  -4.550  0.00  0.00    -0.096 A 
ATOM     10  HN1 IND d   1      -0.447   3.960  -4.562  0.00  0.00     0.298 HD
ENDROOT
TORSDOF 0
ENDMDL
