MODEL 1
REMARK minimizedAffinity 9.61076832
REMARK minimizedRMSD -1
REMARK  0 active torsions:
REMARK  status: ('A' for Active; 'I' for Inactive)
ROOT
ATOM      1  N1  IND d   1       1.863  -3.214  -1.147  0.00  0.00    -0.196 N 
ATOM      2  C2  IND d   1       1.094  -3.498  -2.240  0.00  0.00     0.054 A 
ATOM      3  C3  IND d   1       1.165  -2.491  -3.140  0.00  0.00    -0.031 A 
ATOM      4  C4  IND d   1       2.560  -0.329  -3.067  0.00  0.00     0.051 A 
ATOM      5  C5  IND d   1       3.391   0.390  -2.255  0.00  0.00    -0.031 A 
ATOM      6  C6  IND d   1       3.765  -0.066  -1.007  0.00  0.00     0.015 A 
ATOM      7  C7  IND d   1       3.329  -1.269  -0.528  0.00  0.00    -0.016 A 
ATOM      8  C8  IND d   1       2.479  -1.999  -1.348  0.00  0.00    -0.047 A 
ATOM      9  C9  IND d   1       2.063  -1.521  -2.597  0.00  0.00    -0.096 A 
ATOM     10  HN1 IND d   1       1.948  -3.711  -0.450  0.00  0.00     0.298 HD
ENDROOT
TORSDOF 0
ENDMDL
