MODEL 1
REMARK minimizedAffinity 10.4425917
REMARK minimizedRMSD -1
REMARK  0 active torsions:
REMARK  status: ('A' for Active; 'I' for Inactive)
ROOT
ATOM      1  N1  IND d   1      -4.541   5.606   6.000  0.00  0.00    -0.196 N 
ATOM      2  C2  IND d   1      -3.232   5.998   5.978  0.00  0.00     0.054 A 
ATOM      3  C3  IND d   1      -2.645   5.615   4.823  0.00  0.00    -0.031 A 
ATOM      4  C4  IND d   1      -3.670   4.422   2.785  0.00  0.00     0.051 A 
ATOM      5  C5  IND d   1      -4.822   3.829   2.350  0.00  0.00    -0.031 A 
ATOM      6  C6  IND d   1      -5.964   3.800   3.125  0.00  0.00     0.015 A 
ATOM      7  C7  IND d   1      -5.999   4.375   4.364  0.00  0.00    -0.016 A 
ATOM      8  C8  IND d   1      -4.828   4.972   4.811  0.00  0.00    -0.047 A 
ATOM      9  C9  IND d   1      -3.654   4.967   4.047  0.00  0.00    -0.096 A 
ATOM     10  HN1 IND d   1      -5.093   5.733   6.647  0.00  0.00     0.298 HD
ENDROOT
TORSDOF 0
ENDMDL
