MODEL 1
REMARK minimizedAffinity 12.5857115
REMARK minimizedRMSD -1
REMARK  0 active torsions:
REMARK  status: ('A' for Active; 'I' for Inactive)
ROOT
ATOM      1  N1  IND d   1      -0.689   0.460  -5.099  0.00  0.00    -0.196 N 
ATOM      2  C2  IND d   1      -0.037   1.256  -5.999  0.00  0.00     0.054 A 
ATOM      3  C3  IND d   1       0.959   1.938  -5.389  0.00  0.00    -0.031 A 
ATOM      4  C4  IND d   1       1.760   1.825  -2.945  0.00  0.00     0.051 A 
ATOM      5  C5  IND d   1       1.453   1.269  -1.735  0.00  0.00    -0.031 A 
ATOM      6  C6  IND d   1       0.396   0.395  -1.582  0.00  0.00     0.015 A 
ATOM      7  C7  IND d   1      -0.389   0.034  -2.641  0.00  0.00    -0.016 A 
ATOM      8  C8  IND d   1      -0.084   0.602  -3.869  0.00  0.00    -0.047 A 
ATOM      9  C9  IND d   1       0.960   1.523  -4.022  0.00  0.00    -0.096 A 
ATOM     10  HN1 IND d   1      -1.363  -0.045  -5.272  0.00  0.00     0.298 HD
ENDROOT
TORSDOF 0
ENDMDL
