MODEL 1
REMARK minimizedAffinity 11.2611494
REMARK minimizedRMSD -1
REMARK  0 active torsions:
REMARK  status: ('A' for Active; 'I' for Inactive)
ROOT
ATOM      1  N1  IND d   1      -1.116   1.345  -2.432  0.00  0.00    -0.196 N 
ATOM      2  C2  IND d   1       0.216   1.201  -2.705  0.00  0.00     0.054 A 
ATOM      3  C3  IND d   1       0.717   0.130  -2.050  0.00  0.00    -0.031 A 
ATOM      4  C4  IND d   1      -0.490  -1.586  -0.558  0.00  0.00     0.051 A 
ATOM      5  C5  IND d   1      -1.702  -1.852   0.015  0.00  0.00    -0.031 A 
ATOM      6  C6  IND d   1      -2.803  -1.051  -0.206  0.00  0.00     0.015 A 
ATOM      7  C7  IND d   1      -2.737   0.044  -1.020  0.00  0.00    -0.016 A 
ATOM      8  C8  IND d   1      -1.506   0.321  -1.597  0.00  0.00    -0.047 A 
ATOM      9  C9  IND d   1      -0.373  -0.464  -1.343  0.00  0.00    -0.096 A 
ATOM     10  HN1 IND d   1      -1.625   1.971  -2.731  0.00  0.00     0.298 HD
ENDROOT
TORSDOF 0
ENDMDL
