MODEL 1
REMARK minimizedAffinity -6.61231136
REMARK minimizedRMSD -1
REMARK  0 active torsions:
REMARK  status: ('A' for Active; 'I' for Inactive)
ROOT
ATOM      1  N1  IND d   1      -3.357   2.149   3.526  0.00  0.00    -0.196 N 
ATOM      2  C2  IND d   1      -3.554   1.203   4.493  0.00  0.00     0.054 A 
ATOM      3  C3  IND d   1      -3.628  -0.028   3.938  0.00  0.00    -0.031 A 
ATOM      4  C4  IND d   1      -3.352  -0.733   1.478  0.00  0.00     0.051 A 
ATOM      5  C5  IND d   1      -3.193  -0.219   0.221  0.00  0.00    -0.031 A 
ATOM      6  C6  IND d   1      -3.077   1.137  -0.002  0.00  0.00     0.015 A 
ATOM      7  C7  IND d   1      -3.103   2.034   1.028  0.00  0.00    -0.016 A 
ATOM      8  C8  IND d   1      -3.270   1.516   2.305  0.00  0.00    -0.047 A 
ATOM      9  C9  IND d   1      -3.432   0.144   2.534  0.00  0.00    -0.096 A 
ATOM     10  HN1 IND d   1      -3.298   2.996   3.658  0.00  0.00     0.298 HD
ENDROOT
TORSDOF 0
ENDMDL
