MODEL 1
REMARK minimizedAffinity -3.06172323
REMARK minimizedRMSD -1
REMARK  0 active torsions:
REMARK  status: ('A' for Active; 'I' for Inactive)
ROOT
ATOM      1  N1  IND d   1       0.300   1.199  -0.151  0.00  0.00    -0.196 N 
ATOM      2  C2  IND d   1      -1.057   1.152  -0.309  0.00  0.00     0.054 A 
ATOM      3  C3  IND d   1      -1.504  -0.116  -0.162  0.00  0.00    -0.031 A 
ATOM      4  C4  IND d   1      -0.197  -2.251   0.440  0.00  0.00     0.051 A 
ATOM      5  C5  IND d   1       1.072  -2.715   0.645  0.00  0.00    -0.031 A 
ATOM      6  C6  IND d   1       2.170  -1.882   0.597  0.00  0.00     0.015 A 
ATOM      7  C7  IND d   1       2.039  -0.544   0.352  0.00  0.00    -0.016 A 
ATOM      8  C8  IND d   1       0.752  -0.070   0.136  0.00  0.00    -0.047 A 
ATOM      9  C9  IND d   1      -0.362  -0.919   0.142  0.00  0.00    -0.096 A 
ATOM     10  HN1 IND d   1       0.788   1.903  -0.220  0.00  0.00     0.298 HD
ENDROOT
TORSDOF 0
ENDMDL
