MODEL 1
REMARK minimizedAffinity -4.50432968
REMARK minimizedRMSD -1
REMARK  0 active torsions:
REMARK  status: ('A' for Active; 'I' for Inactive)
ROOT
ATOM      1  N1  IND d   1      -0.372  -1.786   1.452  0.00  0.00    -0.196 N 
ATOM      2  C2  IND d   1       0.756  -2.523   1.223  0.00  0.00     0.054 A 
ATOM      3  C3  IND d   1       1.669  -1.787   0.550  0.00  0.00    -0.031 A 
ATOM      4  C4  IND d   1       1.562   0.676  -0.189  0.00  0.00     0.051 A 
ATOM      5  C5  IND d   1       0.719   1.751  -0.236  0.00  0.00    -0.031 A 
ATOM      6  C6  IND d   1      -0.555   1.701   0.290  0.00  0.00     0.015 A 
ATOM      7  C7  IND d   1      -1.033   0.574   0.896  0.00  0.00    -0.016 A 
ATOM      8  C8  IND d   1      -0.182  -0.522   0.939  0.00  0.00    -0.047 A 
ATOM      9  C9  IND d   1       1.097  -0.491   0.369  0.00  0.00    -0.096 A 
ATOM     10  HN1 IND d   1      -1.082  -2.066   1.849  0.00  0.00     0.298 HD
ENDROOT
TORSDOF 0
ENDMDL
