MODEL 1
REMARK minimizedAffinity -4.66193628
REMARK minimizedRMSD -1
REMARK  0 active torsions:
REMARK  status: ('A' for Active; 'I' for Inactive)
ROOT
ATOM      1  N1  IND d   1       0.966  -1.136  -0.491  0.00  0.00    -0.196 N 
ATOM      2  C2  IND d   1       1.187  -2.342   0.113  0.00  0.00     0.054 A 
ATOM      3  C3  IND d   1       0.446  -2.447   1.239  0.00  0.00    -0.031 A 
ATOM      4  C4  IND d   1      -1.273  -0.804   2.225  0.00  0.00     0.051 A 
ATOM      5  C5  IND d   1      -1.791   0.449   2.048  0.00  0.00    -0.031 A 
ATOM      6  C6  IND d   1      -1.411   1.252   0.992  0.00  0.00     0.015 A 
ATOM      7  C7  IND d   1      -0.503   0.826   0.064  0.00  0.00    -0.016 A 
ATOM      8  C8  IND d   1       0.030  -0.442   0.245  0.00  0.00    -0.047 A 
ATOM      9  C9  IND d   1      -0.320  -1.245   1.338  0.00  0.00    -0.096 A 
ATOM     10  HN1 IND d   1       1.347  -0.857  -1.209  0.00  0.00     0.298 HD
ENDROOT
TORSDOF 0
ENDMDL
