MODEL 1
REMARK minimizedAffinity -2.9186461
REMARK minimizedRMSD -1
REMARK  0 active torsions:
REMARK  status: ('A' for Active; 'I' for Inactive)
ROOT
ATOM      1  N1  IND d   1      -1.536   0.221   0.221  0.00  0.00    -0.196 N 
ATOM      2  C2  IND d   1      -1.401   1.475  -0.306  0.00  0.00     0.054 A 
ATOM      3  C3  IND d   1      -0.099   1.744  -0.554  0.00  0.00    -0.031 A 
ATOM      4  C4  IND d   1       1.966   0.234  -0.266  0.00  0.00     0.051 A 
ATOM      5  C5  IND d   1       2.350  -0.986   0.216  0.00  0.00    -0.031 A 
ATOM      6  C6  IND d   1       1.439  -1.885   0.733  0.00  0.00     0.015 A 
ATOM      7  C7  IND d   1       0.104  -1.601   0.776  0.00  0.00    -0.016 A 
ATOM      8  C8  IND d   1      -0.289  -0.360   0.293  0.00  0.00    -0.047 A 
ATOM      9  C9  IND d   1       0.636   0.573  -0.193  0.00  0.00    -0.096 A 
ATOM     10  HN1 IND d   1      -2.275  -0.143   0.466  0.00  0.00     0.298 HD
ENDROOT
TORSDOF 0
ENDMDL
