MODEL 1
REMARK minimizedAffinity -4.62630033
REMARK minimizedRMSD -1
REMARK  0 active torsions:
REMARK  status: ('A' for Active; 'I' for Inactive)
ROOT
ATOM      1  N1  IND d   1      -1.513   0.367   0.341  0.00  0.00    -0.196 N 
ATOM      2  C2  IND d   1      -1.410   1.498  -0.420  0.00  0.00     0.054 A 
ATOM      3  C3  IND d   1      -0.138   1.662  -0.848  0.00  0.00    -0.031 A 
ATOM      4  C4  IND d   1       1.912   0.144  -0.504  0.00  0.00     0.051 A 
ATOM      5  C5  IND d   1       2.320  -0.983   0.152  0.00  0.00    -0.031 A 
ATOM      6  C6  IND d   1       1.453  -1.735   0.918  0.00  0.00     0.015 A 
ATOM      7  C7  IND d   1       0.136  -1.392   1.047  0.00  0.00    -0.016 A 
ATOM      8  C8  IND d   1      -0.279  -0.244   0.388  0.00  0.00    -0.047 A 
ATOM      9  C9  IND d   1       0.606   0.547  -0.356  0.00  0.00    -0.096 A 
ATOM     10  HN1 IND d   1      -2.229   0.084   0.725  0.00  0.00     0.298 HD
ENDROOT
TORSDOF 0
ENDMDL
