MODEL 1
REMARK minimizedAffinity -3.9734807
REMARK minimizedRMSD -1
REMARK  0 active torsions:
REMARK  status: ('A' for Active; 'I' for Inactive)
ROOT
ATOM      1  N1  IND d   1       0.353  -2.413   1.062  0.00  0.00    -0.196 N 
ATOM      2  C2  IND d   1       1.638  -2.769   0.760  0.00  0.00     0.054 A 
ATOM      3  C3  IND d   1       2.253  -1.776   0.079  0.00  0.00    -0.031 A 
ATOM      4  C4  IND d   1       1.375   0.558  -0.559  0.00  0.00     0.051 A 
ATOM      5  C5  IND d   1       0.247   1.329  -0.531  0.00  0.00    -0.031 A 
ATOM      6  C6  IND d   1      -0.926   0.885   0.044  0.00  0.00     0.015 A 
ATOM      7  C7  IND d   1      -1.012  -0.349   0.624  0.00  0.00    -0.016 A 
ATOM      8  C8  IND d   1       0.129  -1.138   0.591  0.00  0.00    -0.047 A 
ATOM      9  C9  IND d   1       1.310  -0.708  -0.028  0.00  0.00    -0.096 A 
ATOM     10  HN1 IND d   1      -0.219  -2.903   1.476  0.00  0.00     0.298 HD
ENDROOT
TORSDOF 0
ENDMDL
