MODEL 1
REMARK minimizedAffinity -4.81633949
REMARK minimizedRMSD -1
REMARK  0 active torsions:
REMARK  status: ('A' for Active; 'I' for Inactive)
ROOT
ATOM      1  N1  IND d   1      -1.176  -0.196   1.198  0.00  0.00    -0.196 N 
ATOM      2  C2  IND d   1      -1.263   1.068   0.685  0.00  0.00     0.054 A 
ATOM      3  C3  IND d   1      -0.227   1.309  -0.149  0.00  0.00    -0.031 A 
ATOM      4  C4  IND d   1       1.671  -0.262  -0.897  0.00  0.00     0.051 A 
ATOM      5  C5  IND d   1       2.193  -1.504  -0.669  0.00  0.00    -0.031 A 
ATOM      6  C6  IND d   1       1.606  -2.393   0.209  0.00  0.00     0.015 A 
ATOM      7  C7  IND d   1       0.462  -2.075   0.885  0.00  0.00    -0.016 A 
ATOM      8  C8  IND d   1      -0.067  -0.812   0.662  0.00  0.00    -0.047 A 
ATOM      9  C9  IND d   1       0.548   0.110  -0.195  0.00  0.00    -0.096 A 
ATOM     10  HN1 IND d   1      -1.723  -0.547   1.762  0.00  0.00     0.298 HD
ENDROOT
TORSDOF 0
ENDMDL
