MODEL 1
REMARK minimizedAffinity -4.36903715
REMARK minimizedRMSD -1
REMARK  0 active torsions:
REMARK  status: ('A' for Active; 'I' for Inactive)
ROOT
ATOM      1  N1  IND d   1       0.475  -2.847   0.972  0.00  0.00    -0.196 N 
ATOM      2  C2  IND d   1       1.826  -2.895   1.178  0.00  0.00     0.054 A 
ATOM      3  C3  IND d   1       2.386  -1.696   0.905  0.00  0.00    -0.031 A 
ATOM      4  C4  IND d   1       1.263   0.513   0.208  0.00  0.00     0.051 A 
ATOM      5  C5  IND d   1       0.052   1.043  -0.142  0.00  0.00    -0.031 A 
ATOM      6  C6  IND d   1      -1.103   0.289  -0.135  0.00  0.00     0.015 A 
ATOM      7  C7  IND d   1      -1.092  -1.027   0.234  0.00  0.00    -0.016 A 
ATOM      8  C8  IND d   1       0.136  -1.570   0.583  0.00  0.00    -0.047 A 
ATOM      9  C9  IND d   1       1.319  -0.820   0.537  0.00  0.00    -0.096 A 
ATOM     10  HN1 IND d   1      -0.071  -3.504   1.070  0.00  0.00     0.298 HD
ENDROOT
TORSDOF 0
ENDMDL
