MODEL 1
REMARK minimizedAffinity 1.35816479
REMARK minimizedRMSD -1
REMARK  0 active torsions:
REMARK  status: ('A' for Active; 'I' for Inactive)
ROOT
ATOM      1  N1  IND d   1      -0.697  -0.710  -0.279  0.00  0.00    -0.196 N 
ATOM      2  C2  IND d   1       0.283  -0.032   0.391  0.00  0.00     0.054 A 
ATOM      3  C3  IND d   1       0.403   1.224  -0.095  0.00  0.00    -0.031 A 
ATOM      4  C4  IND d   1      -0.972   2.410  -1.919  0.00  0.00     0.051 A 
ATOM      5  C5  IND d   1      -1.953   2.188  -2.844  0.00  0.00    -0.031 A 
ATOM      6  C6  IND d   1      -2.580   0.964  -2.963  0.00  0.00     0.015 A 
ATOM      7  C7  IND d   1      -2.255  -0.084  -2.149  0.00  0.00    -0.016 A 
ATOM      8  C8  IND d   1      -1.255   0.136  -1.212  0.00  0.00    -0.047 A 
ATOM      9  C9  IND d   1      -0.586   1.363  -1.116  0.00  0.00    -0.096 A 
ATOM     10  HN1 IND d   1      -0.925  -1.527  -0.142  0.00  0.00     0.298 HD
ENDROOT
TORSDOF 0
ENDMDL
