MODEL 1
REMARK minimizedAffinity -1.15731394
REMARK minimizedRMSD -1
REMARK  0 active torsions:
REMARK  status: ('A' for Active; 'I' for Inactive)
ROOT
ATOM      1  N1  IND d   1       0.643  -2.216   1.797  0.00  0.00    -0.196 N 
ATOM      2  C2  IND d   1       1.824  -2.703   1.311  0.00  0.00     0.054 A 
ATOM      3  C3  IND d   1       2.224  -1.985   0.238  0.00  0.00    -0.031 A 
ATOM      4  C4  IND d   1       1.146   0.095  -0.832  0.00  0.00     0.051 A 
ATOM      5  C5  IND d   1       0.037   0.890  -0.761  0.00  0.00    -0.031 A 
ATOM      6  C6  IND d   1      -0.945   0.689   0.187  0.00  0.00     0.015 A 
ATOM      7  C7  IND d   1      -0.849  -0.313   1.111  0.00  0.00    -0.016 A 
ATOM      8  C8  IND d   1       0.272  -1.127   1.037  0.00  0.00    -0.047 A 
ATOM      9  C9  IND d   1       1.252  -0.954   0.051  0.00  0.00    -0.096 A 
ATOM     10  HN1 IND d   1       0.204  -2.535   2.464  0.00  0.00     0.298 HD
ENDROOT
TORSDOF 0
ENDMDL
