MODEL 1
REMARK minimizedAffinity 0.210988879
REMARK minimizedRMSD -1
REMARK  2 active torsions:
REMARK  status: ('A' for Active; 'I' for Inactive)
REMARK    1  A    between atoms: C1_2  and  C2_3 
REMARK    2  A    between atoms: C2_3  and  C3_4 
ROOT
ATOM      1  C3  UNL d   1       0.343   2.682  -2.038  0.00  0.00    -0.075 A 
ATOM      2  C4  UNL d   1       0.628   2.167  -3.310  0.00  0.00     0.002 A 
ATOM      3  C5  UNL d   1       0.831   3.024  -4.393  0.00  0.00     0.002 A 
ATOM      4  C6  UNL d   1       0.740   4.403  -4.219  0.00  0.00    -0.004 A 
ATOM      5  C7  UNL d   1       0.441   4.925  -2.963  0.00  0.00     0.002 A 
ATOM      6  C8  UNL d   1       0.243   4.070  -1.877  0.00  0.00     0.002 A 
ENDROOT
BRANCH   1   7
ATOM      7  C2  UNL d   1       0.152   1.761  -0.856  0.00  0.00     0.056 C 
BRANCH   7   8
ATOM      8  C1  UNL d   1      -1.230   1.862  -0.203  0.00  0.00     0.007 C 
ATOM      9  C   UNL d   1      -1.923   0.514  -0.052  0.00  0.00     0.009 C 
ENDBRANCH   7   8
ENDBRANCH   1   7
TORSDOF 2
ENDMDL
