MODEL 1
REMARK minimizedAffinity -0.499858409
REMARK minimizedRMSD -1
REMARK  2 active torsions:
REMARK  status: ('A' for Active; 'I' for Inactive)
REMARK    1  A    between atoms: C1_2  and  C2_3 
REMARK    2  A    between atoms: C2_3  and  C3_4 
ROOT
ATOM      1  C3  UNL d   1      -4.498   1.484  -5.244  0.00  0.00    -0.075 A 
ATOM      2  C4  UNL d   1      -3.221   1.845  -4.790  0.00  0.00     0.002 A 
ATOM      3  C5  UNL d   1      -2.982   3.128  -4.296  0.00  0.00     0.002 A 
ATOM      4  C6  UNL d   1      -4.010   4.067  -4.260  0.00  0.00    -0.004 A 
ATOM      5  C7  UNL d   1      -5.278   3.725  -4.724  0.00  0.00     0.002 A 
ATOM      6  C8  UNL d   1      -5.522   2.440  -5.214  0.00  0.00     0.002 A 
ENDROOT
BRANCH   1   7
ATOM      7  C2  UNL d   1      -4.771   0.089  -5.752  0.00  0.00     0.056 C 
BRANCH   7   8
ATOM      8  C1  UNL d   1      -5.386  -0.847  -4.705  0.00  0.00     0.007 C 
ATOM      9  C   UNL d   1      -4.350  -1.680  -3.962  0.00  0.00     0.009 C 
ENDBRANCH   7   8
ENDBRANCH   1   7
TORSDOF 2
ENDMDL
