MODEL 1
REMARK minimizedAffinity 7.78238678
REMARK minimizedRMSD -1
REMARK  2 active torsions:
REMARK  status: ('A' for Active; 'I' for Inactive)
REMARK    1  A    between atoms: C1_2  and  C2_3 
REMARK    2  A    between atoms: C2_3  and  C3_4 
ROOT
ATOM      1  C3  UNL d   1       1.575   2.071  -2.533  0.00  0.00    -0.075 A 
ATOM      2  C4  UNL d   1       1.312   0.693  -2.545  0.00  0.00     0.002 A 
ATOM      3  C5  UNL d   1       1.719  -0.115  -1.482  0.00  0.00     0.002 A 
ATOM      4  C6  UNL d   1       2.400   0.441  -0.402  0.00  0.00    -0.004 A 
ATOM      5  C7  UNL d   1       2.681   1.806  -0.387  0.00  0.00     0.002 A 
ATOM      6  C8  UNL d   1       2.271   2.617  -1.447  0.00  0.00     0.002 A 
ENDROOT
BRANCH   1   7
ATOM      7  C2  UNL d   1       1.112   2.955  -3.666  0.00  0.00     0.056 C 
BRANCH   7   8
ATOM      8  C1  UNL d   1      -0.151   3.764  -3.349  0.00  0.00     0.007 C 
ATOM      9  C   UNL d   1      -1.336   2.896  -2.949  0.00  0.00     0.009 C 
ENDBRANCH   7   8
ENDBRANCH   1   7
TORSDOF 2
ENDMDL
