MODEL 1
REMARK minimizedAffinity 0.396312565
REMARK minimizedRMSD -1
REMARK  2 active torsions:
REMARK  status: ('A' for Active; 'I' for Inactive)
REMARK    1  A    between atoms: C1_2  and  C2_3 
REMARK    2  A    between atoms: C2_3  and  C3_4 
ROOT
ATOM      1  C3  UNL d   1      -0.807  -1.001   2.171  0.00  0.00    -0.075 A 
ATOM      2  C4  UNL d   1      -1.477  -0.049   2.953  0.00  0.00     0.002 A 
ATOM      3  C5  UNL d   1      -2.534   0.688   2.419  0.00  0.00     0.002 A 
ATOM      4  C6  UNL d   1      -2.926   0.492   1.097  0.00  0.00    -0.004 A 
ATOM      5  C7  UNL d   1      -2.257  -0.439   0.306  0.00  0.00     0.002 A 
ATOM      6  C8  UNL d   1      -1.202  -1.182   0.839  0.00  0.00     0.002 A 
ENDROOT
BRANCH   1   7
ATOM      7  C2  UNL d   1       0.319  -1.824   2.752  0.00  0.00     0.056 C 
BRANCH   7   8
ATOM      8  C1  UNL d   1       1.686  -1.134   2.701  0.00  0.00     0.007 C 
ATOM      9  C   UNL d   1       2.364  -1.244   1.342  0.00  0.00     0.009 C 
ENDBRANCH   7   8
ENDBRANCH   1   7
TORSDOF 2
ENDMDL
