MODEL 1
REMARK minimizedAffinity 6.94261885
REMARK minimizedRMSD -1
REMARK  2 active torsions:
REMARK  status: ('A' for Active; 'I' for Inactive)
REMARK    1  A    between atoms: C1_2  and  C2_3 
REMARK    2  A    between atoms: C2_3  and  C3_4 
ROOT
ATOM      1  C3  UNL d   1       1.853  -0.039  -1.833  0.00  0.00    -0.075 A 
ATOM      2  C4  UNL d   1       1.832   1.083  -0.991  0.00  0.00     0.002 A 
ATOM      3  C5  UNL d   1       1.907   2.370  -1.523  0.00  0.00     0.002 A 
ATOM      4  C6  UNL d   1       2.014   2.552  -2.900  0.00  0.00    -0.004 A 
ATOM      5  C7  UNL d   1       2.052   1.445  -3.745  0.00  0.00     0.002 A 
ATOM      6  C8  UNL d   1       1.973   0.156  -3.215  0.00  0.00     0.002 A 
ENDROOT
BRANCH   1   7
ATOM      7  C2  UNL d   1       1.743  -1.434  -1.265  0.00  0.00     0.056 C 
BRANCH   7   8
ATOM      8  C1  UNL d   1       2.327  -1.582   0.144  0.00  0.00     0.007 C 
ATOM      9  C   UNL d   1       1.288  -1.972   1.186  0.00  0.00     0.009 C 
ENDBRANCH   7   8
ENDBRANCH   1   7
TORSDOF 2
ENDMDL
