MODEL 1
REMARK minimizedAffinity 0.304079622
REMARK minimizedRMSD -1
REMARK  2 active torsions:
REMARK  status: ('A' for Active; 'I' for Inactive)
REMARK    1  A    between atoms: C1_2  and  C2_3 
REMARK    2  A    between atoms: C2_3  and  C3_4 
ROOT
ATOM      1  C3  UNL d   1       1.513   1.362  -1.601  0.00  0.00    -0.075 A 
ATOM      2  C4  UNL d   1       1.479   0.457  -0.529  0.00  0.00     0.002 A 
ATOM      3  C5  UNL d   1       2.178  -0.749  -0.598  0.00  0.00     0.002 A 
ATOM      4  C6  UNL d   1       2.909  -1.070  -1.740  0.00  0.00    -0.004 A 
ATOM      5  C7  UNL d   1       2.935  -0.186  -2.817  0.00  0.00     0.002 A 
ATOM      6  C8  UNL d   1       2.241   1.023  -2.749  0.00  0.00     0.002 A 
ENDROOT
BRANCH   1   7
ATOM      7  C2  UNL d   1       0.783   2.681  -1.521  0.00  0.00     0.056 C 
BRANCH   7   8
ATOM      8  C1  UNL d   1       0.003   3.041  -2.790  0.00  0.00     0.007 C 
ATOM      9  C   UNL d   1      -1.507   3.030  -2.589  0.00  0.00     0.009 C 
ENDBRANCH   7   8
ENDBRANCH   1   7
TORSDOF 2
ENDMDL
