MODEL 1
REMARK minimizedAffinity 4.86719894
REMARK minimizedRMSD -1
REMARK  2 active torsions:
REMARK  status: ('A' for Active; 'I' for Inactive)
REMARK    1  A    between atoms: C1_2  and  C2_3 
REMARK    2  A    between atoms: C2_3  and  C3_4 
ROOT
ATOM      1  C3  UNL d   1       0.026  -0.437   2.929  0.00  0.00    -0.075 A 
ATOM      2  C4  UNL d   1       1.278  -0.300   3.546  0.00  0.00     0.002 A 
ATOM      3  C5  UNL d   1       2.428  -0.801   2.933  0.00  0.00     0.002 A 
ATOM      4  C6  UNL d   1       2.339  -1.452   1.705  0.00  0.00    -0.004 A 
ATOM      5  C7  UNL d   1       1.098  -1.608   1.091  0.00  0.00     0.002 A 
ATOM      6  C8  UNL d   1      -0.053  -1.104   1.700  0.00  0.00     0.002 A 
ENDROOT
BRANCH   1   7
ATOM      7  C2  UNL d   1      -1.217   0.129   3.572  0.00  0.00     0.056 C 
BRANCH   7   8
ATOM      8  C1  UNL d   1      -2.260   0.639   2.572  0.00  0.00     0.007 C 
ATOM      9  C   UNL d   1      -3.450   1.317   3.238  0.00  0.00     0.009 C 
ENDBRANCH   7   8
ENDBRANCH   1   7
TORSDOF 2
ENDMDL
