MODEL 1
REMARK minimizedAffinity 0.712787092
REMARK minimizedRMSD -1
REMARK  2 active torsions:
REMARK  status: ('A' for Active; 'I' for Inactive)
REMARK    1  A    between atoms: C1_2  and  C2_3 
REMARK    2  A    between atoms: C2_3  and  C3_4 
ROOT
ATOM      1  C3  UNL d   1       2.611  -1.113   0.699  0.00  0.00    -0.075 A 
ATOM      2  C4  UNL d   1       3.765  -0.319   0.640  0.00  0.00     0.002 A 
ATOM      3  C5  UNL d   1       4.215   0.187  -0.580  0.00  0.00     0.002 A 
ATOM      4  C6  UNL d   1       3.525  -0.103  -1.755  0.00  0.00    -0.004 A 
ATOM      5  C7  UNL d   1       2.386  -0.904  -1.710  0.00  0.00     0.002 A 
ATOM      6  C8  UNL d   1       1.931  -1.408  -0.490  0.00  0.00     0.002 A 
ENDROOT
BRANCH   1   7
ATOM      7  C2  UNL d   1       2.102  -1.639   2.020  0.00  0.00     0.056 C 
BRANCH   7   8
ATOM      8  C1  UNL d   1       1.213  -0.652   2.784  0.00  0.00     0.007 C 
ATOM      9  C   UNL d   1      -0.275  -0.906   2.586  0.00  0.00     0.009 C 
ENDBRANCH   7   8
ENDBRANCH   1   7
TORSDOF 2
ENDMDL
