MODEL 1
REMARK minimizedAffinity 8.35601807
REMARK minimizedRMSD -1
REMARK  0 active torsions:
REMARK  status: ('A' for Active; 'I' for Inactive)
ROOT
ATOM      1  C1  DEN d   1       1.190  -3.801   3.561  0.00  0.00     0.130 A 
ATOM      2  C2  DEN d   1       2.328  -3.565   4.446  0.00  0.00    -0.031 A 
ATOM      3  C3  DEN d   1       2.951  -2.284   4.056  0.00  0.00     0.027 A 
ATOM      4  C4  DEN d   1       2.264  -0.649   2.183  0.00  0.00     0.027 A 
ATOM      5  C5  DEN d   1       1.368  -0.426   1.160  0.00  0.00    -0.003 A 
ATOM      6  C6  DEN d   1       0.380  -1.321   0.847  0.00  0.00     0.001 A 
ATOM      7  C7  DEN d   1       0.235  -2.461   1.593  0.00  0.00     0.017 A 
ATOM      8  C8  DEN d   1       1.138  -2.696   2.621  0.00  0.00    -0.094 A 
ATOM      9  C9  DEN d   1       2.123  -1.773   2.930  0.00  0.00    -0.072 A 
ENDROOT
TORSDOF 0
ENDMDL
