MODEL 1
REMARK minimizedAffinity 0.801290572
REMARK minimizedRMSD -1
REMARK  0 active torsions:
REMARK  status: ('A' for Active; 'I' for Inactive)
ROOT
ATOM      1  C1  DEN d   1       0.308  -3.280  -1.232  0.00  0.00     0.130 A 
ATOM      2  C2  DEN d   1      -0.612  -2.189  -0.924  0.00  0.00    -0.031 A 
ATOM      3  C3  DEN d   1      -0.571  -1.955   0.534  0.00  0.00     0.027 A 
ATOM      4  C4  DEN d   1       0.826  -3.167   2.332  0.00  0.00     0.027 A 
ATOM      5  C5  DEN d   1       1.743  -4.170   2.554  0.00  0.00    -0.003 A 
ATOM      6  C6  DEN d   1       2.217  -4.963   1.542  0.00  0.00     0.001 A 
ATOM      7  C7  DEN d   1       1.809  -4.736   0.254  0.00  0.00     0.017 A 
ATOM      8  C8  DEN d   1       0.878  -3.731   0.024  0.00  0.00    -0.094 A 
ATOM      9  C9  DEN d   1       0.420  -2.933   1.058  0.00  0.00    -0.072 A 
ENDROOT
TORSDOF 0
ENDMDL
