MODEL 1
REMARK minimizedAffinity 8.15266037
REMARK minimizedRMSD -1
REMARK  0 active torsions:
REMARK  status: ('A' for Active; 'I' for Inactive)
ROOT
ATOM      1  C1  DEN d   1       1.848  -1.389   2.329  0.00  0.00     0.130 A 
ATOM      2  C2  DEN d   1       1.887  -1.634   3.768  0.00  0.00    -0.031 A 
ATOM      3  C3  DEN d   1       2.317  -0.386   4.431  0.00  0.00     0.027 A 
ATOM      4  C4  DEN d   1       2.918   1.889   3.375  0.00  0.00     0.027 A 
ATOM      5  C5  DEN d   1       3.044   2.578   2.189  0.00  0.00    -0.003 A 
ATOM      6  C6  DEN d   1       2.816   1.987   0.974  0.00  0.00     0.001 A 
ATOM      7  C7  DEN d   1       2.405   0.682   0.920  0.00  0.00     0.017 A 
ATOM      8  C8  DEN d   1       2.282  -0.021   2.112  0.00  0.00    -0.094 A 
ATOM      9  C9  DEN d   1       2.506   0.597   3.330  0.00  0.00    -0.072 A 
ENDROOT
TORSDOF 0
ENDMDL
