MODEL 1
REMARK minimizedAffinity 3.37628794
REMARK minimizedRMSD -1
REMARK  0 active torsions:
REMARK  status: ('A' for Active; 'I' for Inactive)
ROOT
ATOM      1  C1  DEN d   1       2.890  -1.258   1.916  0.00  0.00     0.130 A 
ATOM      2  C2  DEN d   1       1.588  -1.486   2.537  0.00  0.00    -0.031 A 
ATOM      3  C3  DEN d   1       1.802  -2.264   3.774  0.00  0.00     0.027 A 
ATOM      4  C4  DEN d   1       4.012  -3.128   4.785  0.00  0.00     0.027 A 
ATOM      5  C5  DEN d   1       5.377  -3.192   4.611  0.00  0.00    -0.003 A 
ATOM      6  C6  DEN d   1       6.000  -2.650   3.518  0.00  0.00     0.001 A 
ATOM      7  C7  DEN d   1       5.261  -1.980   2.579  0.00  0.00     0.017 A 
ATOM      8  C8  DEN d   1       3.884  -1.918   2.744  0.00  0.00    -0.094 A 
ATOM      9  C9  DEN d   1       3.274  -2.462   3.861  0.00  0.00    -0.072 A 
ENDROOT
TORSDOF 0
ENDMDL
