MODEL 1
REMARK minimizedAffinity 12.8953066
REMARK minimizedRMSD -1
REMARK  0 active torsions:
REMARK  status: ('A' for Active; 'I' for Inactive)
ROOT
ATOM      1  C1  DEN d   1       1.131  -2.449   2.719  0.00  0.00     0.130 A 
ATOM      2  C2  DEN d   1       1.542  -1.202   2.080  0.00  0.00    -0.031 A 
ATOM      3  C3  DEN d   1       2.983  -1.009   2.339  0.00  0.00     0.027 A 
ATOM      4  C4  DEN d   1       4.610  -2.515   3.658  0.00  0.00     0.027 A 
ATOM      5  C5  DEN d   1       4.721  -3.674   4.393  0.00  0.00    -0.003 A 
ATOM      6  C6  DEN d   1       3.645  -4.482   4.649  0.00  0.00     0.001 A 
ATOM      7  C7  DEN d   1       2.419  -4.166   4.126  0.00  0.00     0.017 A 
ATOM      8  C8  DEN d   1       2.298  -2.994   3.390  0.00  0.00    -0.094 A 
ATOM      9  C9  DEN d   1       3.400  -2.197   3.133  0.00  0.00    -0.072 A 
ENDROOT
TORSDOF 0
ENDMDL
