MODEL 1
REMARK minimizedAffinity 2.64647889
REMARK minimizedRMSD -1
REMARK  0 active torsions:
REMARK  status: ('A' for Active; 'I' for Inactive)
ROOT
ATOM      1  C1  DEN d   1       0.373  -0.833   0.101  0.00  0.00     0.130 A 
ATOM      2  C2  DEN d   1       0.025  -2.064   0.806  0.00  0.00    -0.031 A 
ATOM      3  C3  DEN d   1       0.768  -2.085   2.082  0.00  0.00     0.027 A 
ATOM      4  C4  DEN d   1       2.411  -0.338   3.032  0.00  0.00     0.027 A 
ATOM      5  C5  DEN d   1       3.032   0.867   2.790  0.00  0.00    -0.003 A 
ATOM      6  C6  DEN d   1       2.837   1.569   1.630  0.00  0.00     0.001 A 
ATOM      7  C7  DEN d   1       1.966   1.092   0.686  0.00  0.00     0.017 A 
ATOM      8  C8  DEN d   1       1.343  -0.127   0.920  0.00  0.00    -0.094 A 
ATOM      9  C9  DEN d   1       1.543  -0.815   2.104  0.00  0.00    -0.072 A 
ENDROOT
TORSDOF 0
ENDMDL
