MODEL 1
REMARK minimizedAffinity 0.257649243
REMARK minimizedRMSD -1
REMARK  0 active torsions:
REMARK  status: ('A' for Active; 'I' for Inactive)
ROOT
ATOM      1  C1  DEN d   1       0.002  -1.699   0.993  0.00  0.00     0.130 A 
ATOM      2  C2  DEN d   1      -0.347  -0.865  -0.153  0.00  0.00    -0.031 A 
ATOM      3  C3  DEN d   1       0.427   0.389  -0.057  0.00  0.00     0.027 A 
ATOM      4  C4  DEN d   1       2.126   1.115   1.743  0.00  0.00     0.027 A 
ATOM      5  C5  DEN d   1       2.742   0.746   2.918  0.00  0.00    -0.003 A 
ATOM      6  C6  DEN d   1       2.466  -0.439   3.547  0.00  0.00     0.001 A 
ATOM      7  C7  DEN d   1       1.582  -1.319   2.979  0.00  0.00     0.017 A 
ATOM      8  C8  DEN d   1       0.951  -0.951   1.798  0.00  0.00    -0.094 A 
ATOM      9  C9  DEN d   1       1.253   0.246   1.172  0.00  0.00    -0.072 A 
ENDROOT
TORSDOF 0
ENDMDL
