MODEL 1
REMARK minimizedAffinity 9.85303974
REMARK minimizedRMSD -1
REMARK  0 active torsions:
REMARK  status: ('A' for Active; 'I' for Inactive)
ROOT
ATOM      1  C   UNL d   1       1.410  -1.474   2.220  0.00  0.00     0.078 C 
ATOM      2  C1  UNL d   1       0.480  -1.794   1.089  0.00  0.00    -0.077 A 
ATOM      3  C2  UNL d   1       0.907  -2.562  -0.001  0.00  0.00    -0.001 A 
ATOM      4  C3  UNL d   1       0.033  -2.844  -1.052  0.00  0.00     0.003 A 
ATOM      5  C4  UNL d   1      -1.274  -2.361  -1.024  0.00  0.00    -0.005 A 
ATOM      6  C5  UNL d   1      -1.708  -1.594   0.055  0.00  0.00     0.003 A 
ATOM      7  C6  UNL d   1      -0.835  -1.311   1.107  0.00  0.00    -0.001 A 
ENDROOT
TORSDOF 0
ENDMDL
