MODEL 1
REMARK minimizedAffinity 0.123773649
REMARK minimizedRMSD -1
REMARK  0 active torsions:
REMARK  status: ('A' for Active; 'I' for Inactive)
ROOT
ATOM      1  C   UNL d   1       5.756  -2.569   4.495  0.00  0.00     0.078 C 
ATOM      2  C1  UNL d   1       4.279  -2.743   4.305  0.00  0.00    -0.077 A 
ATOM      3  C2  UNL d   1       3.627  -3.903   4.742  0.00  0.00    -0.001 A 
ATOM      4  C3  UNL d   1       2.253  -4.055   4.551  0.00  0.00     0.003 A 
ATOM      5  C4  UNL d   1       1.519  -3.052   3.921  0.00  0.00    -0.005 A 
ATOM      6  C5  UNL d   1       2.159  -1.895   3.481  0.00  0.00     0.003 A 
ATOM      7  C6  UNL d   1       3.533  -1.741   3.672  0.00  0.00    -0.001 A 
ENDROOT
TORSDOF 0
ENDMDL
