MODEL 1
REMARK minimizedAffinity 2.43334341
REMARK minimizedRMSD -1
REMARK  0 active torsions:
REMARK  status: ('A' for Active; 'I' for Inactive)
ROOT
ATOM      1  C   UNL d   1       2.950  -0.040   2.186  0.00  0.00     0.078 C 
ATOM      2  C1  UNL d   1       2.650  -1.375   2.798  0.00  0.00    -0.077 A 
ATOM      3  C2  UNL d   1       1.400  -1.983   2.625  0.00  0.00    -0.001 A 
ATOM      4  C3  UNL d   1       1.131  -3.222   3.209  0.00  0.00     0.003 A 
ATOM      5  C4  UNL d   1       2.107  -3.863   3.971  0.00  0.00    -0.005 A 
ATOM      6  C5  UNL d   1       3.352  -3.265   4.150  0.00  0.00     0.003 A 
ATOM      7  C6  UNL d   1       3.623  -2.026   3.567  0.00  0.00    -0.001 A 
ENDROOT
TORSDOF 0
ENDMDL
