MODEL 1
REMARK minimizedAffinity 0.375398904
REMARK minimizedRMSD -1
REMARK  0 active torsions:
REMARK  status: ('A' for Active; 'I' for Inactive)
ROOT
ATOM      1  C   UNL d   1       0.459   2.022  -0.838  0.00  0.00     0.078 C 
ATOM      2  C1  UNL d   1       0.967   1.142   0.266  0.00  0.00    -0.077 A 
ATOM      3  C2  UNL d   1       2.120   1.481   0.985  0.00  0.00    -0.001 A 
ATOM      4  C3  UNL d   1       2.587   0.648   2.003  0.00  0.00     0.003 A 
ATOM      5  C4  UNL d   1       1.908  -0.530   2.310  0.00  0.00    -0.005 A 
ATOM      6  C5  UNL d   1       0.761  -0.876   1.599  0.00  0.00     0.003 A 
ATOM      7  C6  UNL d   1       0.293  -0.044   0.580  0.00  0.00    -0.001 A 
ENDROOT
TORSDOF 0
ENDMDL
