MODEL 1
REMARK minimizedAffinity -1.80605936
REMARK minimizedRMSD -1
REMARK  0 active torsions:
REMARK  status: ('A' for Active; 'I' for Inactive)
ROOT
ATOM      1  C   UNL d   1       1.509  -1.827   3.816  0.00  0.00     0.078 C 
ATOM      2  C1  UNL d   1       1.564  -0.817   2.708  0.00  0.00    -0.077 A 
ATOM      3  C2  UNL d   1       0.750  -0.943   1.576  0.00  0.00    -0.001 A 
ATOM      4  C3  UNL d   1       0.819  -0.002   0.548  0.00  0.00     0.003 A 
ATOM      5  C4  UNL d   1       1.702   1.072   0.642  0.00  0.00    -0.005 A 
ATOM      6  C5  UNL d   1       2.518   1.205   1.763  0.00  0.00     0.003 A 
ATOM      7  C6  UNL d   1       2.450   0.264   2.792  0.00  0.00    -0.001 A 
ENDROOT
TORSDOF 0
ENDMDL
