MODEL 1
REMARK minimizedAffinity -2.52296138
REMARK minimizedRMSD -1
REMARK  0 active torsions:
REMARK  status: ('A' for Active; 'I' for Inactive)
ROOT
ATOM      1  C   UNL d   1       0.836   1.549  -0.249  0.00  0.00     0.078 C 
ATOM      2  C1  UNL d   1       1.266   0.715   0.920  0.00  0.00    -0.077 A 
ATOM      3  C2  UNL d   1       0.611  -0.483   1.232  0.00  0.00    -0.001 A 
ATOM      4  C3  UNL d   1       1.015  -1.244   2.329  0.00  0.00     0.003 A 
ATOM      5  C4  UNL d   1       2.076  -0.815   3.125  0.00  0.00    -0.005 A 
ATOM      6  C5  UNL d   1       2.732   0.376   2.825  0.00  0.00     0.003 A 
ATOM      7  C6  UNL d   1       2.329   1.139   1.727  0.00  0.00    -0.001 A 
ENDROOT
TORSDOF 0
ENDMDL
