MODEL 1
REMARK minimizedAffinity 2.61368179
REMARK minimizedRMSD -1
REMARK  0 active torsions:
REMARK  status: ('A' for Active; 'I' for Inactive)
ROOT
ATOM      1  C   UNL d   1       0.429  -0.860   1.751  0.00  0.00     0.078 C 
ATOM      2  C1  UNL d   1       0.532   0.524   1.184  0.00  0.00    -0.077 A 
ATOM      3  C2  UNL d   1      -0.611   1.303   0.969  0.00  0.00    -0.001 A 
ATOM      4  C3  UNL d   1      -0.501   2.586   0.432  0.00  0.00     0.003 A 
ATOM      5  C4  UNL d   1       0.752   3.102   0.104  0.00  0.00    -0.005 A 
ATOM      6  C5  UNL d   1       1.895   2.334   0.312  0.00  0.00     0.003 A 
ATOM      7  C6  UNL d   1       1.787   1.050   0.849  0.00  0.00    -0.001 A 
ENDROOT
TORSDOF 0
ENDMDL
