MODEL 1
REMARK minimizedAffinity -0.242460474
REMARK minimizedRMSD -1
REMARK  0 active torsions:
REMARK  status: ('A' for Active; 'I' for Inactive)
ROOT
ATOM      1  C   UNL d   1       2.310   0.946   1.318  0.00  0.00     0.078 C 
ATOM      2  C1  UNL d   1       1.972  -0.154   2.281  0.00  0.00    -0.077 A 
ATOM      3  C2  UNL d   1       2.542  -0.193   3.559  0.00  0.00    -0.001 A 
ATOM      4  C3  UNL d   1       2.227  -1.228   4.441  0.00  0.00     0.003 A 
ATOM      5  C4  UNL d   1       1.341  -2.232   4.054  0.00  0.00    -0.005 A 
ATOM      6  C5  UNL d   1       0.771  -2.202   2.783  0.00  0.00     0.003 A 
ATOM      7  C6  UNL d   1       1.085  -1.168   1.899  0.00  0.00    -0.001 A 
ENDROOT
TORSDOF 0
ENDMDL
