MODEL 1
REMARK minimizedAffinity 0.367811501
REMARK minimizedRMSD -1
REMARK  0 active torsions:
REMARK  status: ('A' for Active; 'I' for Inactive)
ROOT
ATOM      1  C   UNL d   1       2.366   0.564   3.461  0.00  0.00     0.078 C 
ATOM      2  C1  UNL d   1       1.905  -0.850   3.648  0.00  0.00    -0.077 A 
ATOM      3  C2  UNL d   1       2.205  -1.558   4.818  0.00  0.00    -0.001 A 
ATOM      4  C3  UNL d   1       1.778  -2.877   4.975  0.00  0.00     0.003 A 
ATOM      5  C4  UNL d   1       1.048  -3.501   3.965  0.00  0.00    -0.005 A 
ATOM      6  C5  UNL d   1       0.745  -2.805   2.796  0.00  0.00     0.003 A 
ATOM      7  C6  UNL d   1       1.172  -1.486   2.638  0.00  0.00    -0.001 A 
ENDROOT
TORSDOF 0
ENDMDL
