MODEL 1
REMARK minimizedAffinity -2.35526609
REMARK minimizedRMSD -1
REMARK  0 active torsions:
REMARK  status: ('A' for Active; 'I' for Inactive)
ROOT
ATOM      1  C   UNL d   1      -4.874  -2.579  -1.504  0.00  0.00     0.023 A 
ATOM      2  C1  UNL d   1      -4.377  -2.249  -2.765  0.00  0.00     0.003 A 
ATOM      3  C2  UNL d   1      -4.270  -3.230  -3.753  0.00  0.00     0.048 A 
ATOM      4  C3  UNL d   1      -4.664  -4.538  -3.474  0.00  0.00     0.023 A 
ATOM      5  C4  UNL d   1      -5.163  -4.873  -2.214  0.00  0.00     0.048 A 
ATOM      6  C5  UNL d   1      -5.267  -3.889  -1.229  0.00  0.00     0.003 A 
ATOM      7  I   UNL d   1      -4.506  -6.000  -4.943  0.00  0.00    -0.146 I 
ENDROOT
TORSDOF 0
ENDMDL
