MODEL 1
REMARK minimizedAffinity 4.52246904
REMARK minimizedRMSD -1
REMARK  0 active torsions:
REMARK  status: ('A' for Active; 'I' for Inactive)
ROOT
ATOM      1  C   UNL d   1      -5.457  -4.219  -6.000  0.00  0.00     0.023 A 
ATOM      2  C1  UNL d   1      -5.977  -5.484  -5.725  0.00  0.00     0.003 A 
ATOM      3  C2  UNL d   1      -5.919  -5.997  -4.427  0.00  0.00     0.048 A 
ATOM      4  C3  UNL d   1      -5.341  -5.239  -3.409  0.00  0.00     0.023 A 
ATOM      5  C4  UNL d   1      -4.820  -3.972  -3.680  0.00  0.00     0.048 A 
ATOM      6  C5  UNL d   1      -4.880  -3.464  -4.979  0.00  0.00     0.003 A 
ATOM      7  I   UNL d   1      -5.253  -6.000  -1.477  0.00  0.00    -0.146 I 
ENDROOT
TORSDOF 0
ENDMDL
