MODEL 1
REMARK minimizedAffinity -1.7335062
REMARK minimizedRMSD -1
REMARK  0 active torsions:
REMARK  status: ('A' for Active; 'I' for Inactive)
ROOT
ATOM      1  C   UNL d   1      -5.965  -4.113  -1.903  0.00  0.00     0.023 A 
ATOM      2  C1  UNL d   1      -5.863  -3.324  -3.049  0.00  0.00     0.003 A 
ATOM      3  C2  UNL d   1      -5.340  -3.864  -4.225  0.00  0.00     0.048 A 
ATOM      4  C3  UNL d   1      -4.921  -5.194  -4.249  0.00  0.00     0.023 A 
ATOM      5  C4  UNL d   1      -5.022  -5.987  -3.105  0.00  0.00     0.048 A 
ATOM      6  C5  UNL d   1      -5.545  -5.443  -1.931  0.00  0.00     0.003 A 
ATOM      7  I   UNL d   1      -4.142  -6.000  -6.000  0.00  0.00    -0.146 I 
ENDROOT
TORSDOF 0
ENDMDL
