MODEL 1
REMARK minimizedAffinity -1.21493006
REMARK minimizedRMSD -1
REMARK  0 active torsions:
REMARK  status: ('A' for Active; 'I' for Inactive)
ROOT
ATOM      1  C   UNL d   1      -4.169  -5.998  -5.966  0.00  0.00     0.023 A 
ATOM      2  C1  UNL d   1      -3.400  -5.879  -4.809  0.00  0.00     0.003 A 
ATOM      3  C2  UNL d   1      -3.923  -5.240  -3.683  0.00  0.00     0.048 A 
ATOM      4  C3  UNL d   1      -5.218  -4.723  -3.721  0.00  0.00     0.023 A 
ATOM      5  C4  UNL d   1      -5.992  -4.841  -4.876  0.00  0.00     0.048 A 
ATOM      6  C5  UNL d   1      -5.464  -5.480  -6.000  0.00  0.00     0.003 A 
ATOM      7  I   UNL d   1      -6.000  -3.772  -2.047  0.00  0.00    -0.146 I 
ENDROOT
TORSDOF 0
ENDMDL
