MODEL 1
REMARK minimizedAffinity 5.21794319
REMARK minimizedRMSD -1
REMARK  0 active torsions:
REMARK  status: ('A' for Active; 'I' for Inactive)
ROOT
ATOM      1  C   UNL d   1      -5.471  -5.226  -5.989  0.00  0.00     0.023 A 
ATOM      2  C1  UNL d   1      -5.236  -5.998  -4.852  0.00  0.00     0.003 A 
ATOM      3  C2  UNL d   1      -5.380  -5.436  -3.582  0.00  0.00     0.048 A 
ATOM      4  C3  UNL d   1      -5.762  -4.100  -3.457  0.00  0.00     0.023 A 
ATOM      5  C4  UNL d   1      -6.000  -3.324  -4.592  0.00  0.00     0.048 A 
ATOM      6  C5  UNL d   1      -5.853  -3.891  -5.860  0.00  0.00     0.003 A 
ATOM      7  I   UNL d   1      -5.978  -3.260  -1.568  0.00  0.00    -0.146 I 
ENDROOT
TORSDOF 0
ENDMDL
