MODEL 1
REMARK minimizedAffinity -2.9762454
REMARK minimizedRMSD -1
REMARK  0 active torsions:
REMARK  status: ('A' for Active; 'I' for Inactive)
ROOT
ATOM      1  C   UNL d   1      -5.062  -5.264  -1.135  0.00  0.00     0.023 A 
ATOM      2  C1  UNL d   1      -4.103  -5.999  -1.833  0.00  0.00     0.003 A 
ATOM      3  C2  UNL d   1      -4.083  -5.975  -3.229  0.00  0.00     0.048 A 
ATOM      4  C3  UNL d   1      -5.022  -5.212  -3.921  0.00  0.00     0.023 A 
ATOM      5  C4  UNL d   1      -5.982  -4.474  -3.227  0.00  0.00     0.048 A 
ATOM      6  C5  UNL d   1      -6.000  -4.502  -1.831  0.00  0.00     0.003 A 
ATOM      7  I   UNL d   1      -4.993  -5.174  -5.999  0.00  0.00    -0.146 I 
ENDROOT
TORSDOF 0
ENDMDL
