MODEL 1
REMARK minimizedAffinity 10.1613197
REMARK minimizedRMSD -1
REMARK  0 active torsions:
REMARK  status: ('A' for Active; 'I' for Inactive)
ROOT
ATOM      1  C   UNL d   1      -4.492   2.121  -4.493  0.00  0.00     0.023 A 
ATOM      2  C1  UNL d   1      -5.606   2.932  -4.274  0.00  0.00     0.003 A 
ATOM      3  C2  UNL d   1      -5.999   3.243  -2.970  0.00  0.00     0.048 A 
ATOM      4  C3  UNL d   1      -5.274   2.741  -1.891  0.00  0.00     0.023 A 
ATOM      5  C4  UNL d   1      -4.158   1.930  -2.105  0.00  0.00     0.048 A 
ATOM      6  C5  UNL d   1      -3.769   1.621  -3.410  0.00  0.00     0.003 A 
ATOM      7  I   UNL d   1      -5.857   3.203   0.050  0.00  0.00    -0.146 I 
ENDROOT
TORSDOF 0
ENDMDL
