MODEL 1
REMARK minimizedAffinity 1.72154593
REMARK minimizedRMSD -1
REMARK  0 active torsions:
REMARK  status: ('A' for Active; 'I' for Inactive)
ROOT
ATOM      1  C1  BNZ d   1       2.153  -1.096  -1.034  0.00  0.00     0.000 A 
ATOM      2  C2  BNZ d   1       2.823  -0.709   0.096  0.00  0.00     0.000 A 
ATOM      3  C3  BNZ d   1       2.803  -1.482   1.222  0.00  0.00     0.000 A 
ATOM      4  C4  BNZ d   1       2.080  -2.621   1.231  0.00  0.00     0.000 A 
ATOM      5  C5  BNZ d   1       1.391  -3.021   0.103  0.00  0.00     0.000 A 
ATOM      6  C6  BNZ d   1       1.446  -2.259  -1.042  0.00  0.00     0.000 A 
ENDROOT
TORSDOF 0
ENDMDL
