MODEL 1
REMARK minimizedAffinity -2.21870542
REMARK minimizedRMSD -1
REMARK  0 active torsions:
REMARK  status: ('A' for Active; 'I' for Inactive)
ROOT
ATOM      1  C1  BNZ d   1       2.597  -0.018   0.701  0.00  0.00     0.000 A 
ATOM      2  C2  BNZ d   1       2.666  -1.384   0.753  0.00  0.00     0.000 A 
ATOM      3  C3  BNZ d   1       1.857  -2.157  -0.032  0.00  0.00     0.000 A 
ATOM      4  C4  BNZ d   1       0.953  -1.564  -0.839  0.00  0.00     0.000 A 
ATOM      5  C5  BNZ d   1       0.865  -0.187  -0.896  0.00  0.00     0.000 A 
ATOM      6  C6  BNZ d   1       1.708   0.588  -0.133  0.00  0.00     0.000 A 
ENDROOT
TORSDOF 0
ENDMDL
