MODEL 1
REMARK minimizedAffinity 4.82523203
REMARK minimizedRMSD -1
REMARK  0 active torsions:
REMARK  status: ('A' for Active; 'I' for Inactive)
ROOT
ATOM      1  C1  BNZ d   1      -4.425  -1.097  -0.441  0.00  0.00     0.000 A 
ATOM      2  C2  BNZ d   1      -3.557  -1.153  -1.499  0.00  0.00     0.000 A 
ATOM      3  C3  BNZ d   1      -3.382  -0.073  -2.319  0.00  0.00     0.000 A 
ATOM      4  C4  BNZ d   1      -4.102   1.046  -2.104  0.00  0.00     0.000 A 
ATOM      5  C5  BNZ d   1      -4.988   1.115  -1.047  0.00  0.00     0.000 A 
ATOM      6  C6  BNZ d   1      -5.133   0.040  -0.201  0.00  0.00     0.000 A 
ENDROOT
TORSDOF 0
ENDMDL
