MODEL 1
REMARK minimizedAffinity 8.40042686
REMARK minimizedRMSD -1
REMARK  0 active torsions:
REMARK  status: ('A' for Active; 'I' for Inactive)
ROOT
ATOM      1  C1  BNZ d   1       4.101   2.812   4.019  0.00  0.00     0.000 A 
ATOM      2  C2  BNZ d   1       4.108   3.366   2.766  0.00  0.00     0.000 A 
ATOM      3  C3  BNZ d   1       5.070   4.268   2.405  0.00  0.00     0.000 A 
ATOM      4  C4  BNZ d   1       5.998   4.644   3.307  0.00  0.00     0.000 A 
ATOM      5  C5  BNZ d   1       5.999   4.102   4.577  0.00  0.00     0.000 A 
ATOM      6  C6  BNZ d   1       5.053   3.166   4.925  0.00  0.00     0.000 A 
ENDROOT
TORSDOF 0
ENDMDL
