MODEL 1
REMARK minimizedAffinity 3.54407978
REMARK minimizedRMSD -1
REMARK  0 active torsions:
REMARK  status: ('A' for Active; 'I' for Inactive)
ROOT
ATOM      1  C1  BNZ d   1       0.710  -0.036   0.071  0.00  0.00     0.000 A 
ATOM      2  C2  BNZ d   1       0.807  -1.400   0.003  0.00  0.00     0.000 A 
ATOM      3  C3  BNZ d   1       2.025  -2.011  -0.106  0.00  0.00     0.000 A 
ATOM      4  C4  BNZ d   1       3.140  -1.256  -0.187  0.00  0.00     0.000 A 
ATOM      5  C5  BNZ d   1       3.058   0.121  -0.128  0.00  0.00     0.000 A 
ATOM      6  C6  BNZ d   1       1.833   0.730   0.021  0.00  0.00     0.000 A 
ENDROOT
TORSDOF 0
ENDMDL
