MODEL 1
REMARK minimizedAffinity 2.04901981
REMARK minimizedRMSD -1
REMARK  0 active torsions:
REMARK  status: ('A' for Active; 'I' for Inactive)
ROOT
ATOM      1  C1  BNZ d   1       4.659  -0.637   1.202  0.00  0.00     0.000 A 
ATOM      2  C2  BNZ d   1       4.209  -1.901   1.479  0.00  0.00     0.000 A 
ATOM      3  C3  BNZ d   1       2.959  -2.298   1.095  0.00  0.00     0.000 A 
ATOM      4  C4  BNZ d   1       2.147  -1.421   0.471  0.00  0.00     0.000 A 
ATOM      5  C5  BNZ d   1       2.582  -0.141   0.193  0.00  0.00     0.000 A 
ATOM      6  C6  BNZ d   1       3.855   0.244   0.547  0.00  0.00     0.000 A 
ENDROOT
TORSDOF 0
ENDMDL
