MODEL 1
REMARK minimizedAffinity -2.38304067
REMARK minimizedRMSD -1
REMARK  1 active torsions:
REMARK  status: ('A' for Active; 'I' for Inactive)
REMARK    1  A    between atoms: N_2  and  C1_3 
ROOT
ATOM      1  C1  UNL d   1      -0.057   1.043  -1.556  0.00  0.00     0.143 A 
ATOM      2  C2  UNL d   1      -1.354   1.520  -1.774  0.00  0.00    -0.057 A 
ATOM      3  C3  UNL d   1      -1.579   2.733  -2.437  0.00  0.00     0.033 A 
ATOM      4  C4  UNL d   1      -0.507   3.507  -2.867  0.00  0.00    -0.042 A 
ATOM      5  C5  UNL d   1       0.791   3.064  -2.638  0.00  0.00     0.033 A 
ATOM      6  C6  UNL d   1       1.010   1.849  -1.982  0.00  0.00    -0.057 A 
ENDROOT
BRANCH   1   7
ATOM      7  N   UNL d   1       0.235  -0.107  -0.817  0.00  0.00    -0.732 N 
ATOM      8  C   UNL d   1      -0.355  -0.313   0.488  0.00  0.00     0.284 C 
ATOM      9  H3  UNL d   1       0.266  -0.943  -1.396  0.00  0.00     0.395 HD
ENDBRANCH   1   7
TORSDOF 1
ENDMDL
