MODEL 1
REMARK minimizedAffinity -0.439487368
REMARK minimizedRMSD -1
REMARK  1 active torsions:
REMARK  status: ('A' for Active; 'I' for Inactive)
REMARK    1  A    between atoms: N_2  and  C1_3 
ROOT
ATOM      1  C1  UNL d   1      -0.782   1.032  -1.354  0.00  0.00     0.143 A 
ATOM      2  C2  UNL d   1       0.333   0.199  -1.496  0.00  0.00    -0.057 A 
ATOM      3  C3  UNL d   1       0.781  -0.601  -0.438  0.00  0.00     0.033 A 
ATOM      4  C4  UNL d   1       0.137  -0.561   0.794  0.00  0.00    -0.042 A 
ATOM      5  C5  UNL d   1      -0.958   0.279   0.966  0.00  0.00     0.033 A 
ATOM      6  C6  UNL d   1      -1.405   1.070  -0.097  0.00  0.00    -0.057 A 
ENDROOT
BRANCH   1   7
ATOM      7  N   UNL d   1      -1.216   1.924  -2.337  0.00  0.00    -0.732 N 
ATOM      8  C   UNL d   1      -2.019   3.075  -1.985  0.00  0.00     0.284 C 
ATOM      9  H3  UNL d   1      -0.498   2.115  -3.033  0.00  0.00     0.395 HD
ENDBRANCH   1   7
TORSDOF 1
ENDMDL
