MODEL 1
REMARK minimizedAffinity 6.71818495
REMARK minimizedRMSD -1
REMARK  1 active torsions:
REMARK  status: ('A' for Active; 'I' for Inactive)
REMARK    1  A    between atoms: N_2  and  C1_3 
ROOT
ATOM      1  C1  UNL d   1      -4.260   2.043  -3.520  0.00  0.00     0.143 A 
ATOM      2  C2  UNL d   1      -5.604   1.909  -3.884  0.00  0.00    -0.057 A 
ATOM      3  C3  UNL d   1      -6.000   1.019  -4.890  0.00  0.00     0.033 A 
ATOM      4  C4  UNL d   1      -5.050   0.265  -5.572  0.00  0.00    -0.042 A 
ATOM      5  C5  UNL d   1      -3.706   0.401  -5.245  0.00  0.00     0.033 A 
ATOM      6  C6  UNL d   1      -3.318   1.286  -4.235  0.00  0.00    -0.057 A 
ENDROOT
BRANCH   1   7
ATOM      7  N   UNL d   1      -3.794   2.982  -2.597  0.00  0.00    -0.732 N 
ATOM      8  C   UNL d   1      -2.399   3.367  -2.578  0.00  0.00     0.284 C 
ATOM      9  H3  UNL d   1      -4.441   3.757  -2.471  0.00  0.00     0.395 HD
ENDBRANCH   1   7
TORSDOF 1
ENDMDL
