MODEL 1
REMARK minimizedAffinity 2.23063231
REMARK minimizedRMSD -1
REMARK  1 active torsions:
REMARK  status: ('A' for Active; 'I' for Inactive)
REMARK    1  A    between atoms: N_2  and  C1_3 
ROOT
ATOM      1  C1  UNL d   1      -1.678   0.802  -0.591  0.00  0.00     0.143 A 
ATOM      2  C2  UNL d   1      -1.611   1.618   0.544  0.00  0.00    -0.057 A 
ATOM      3  C3  UNL d   1      -1.261   1.095   1.795  0.00  0.00     0.033 A 
ATOM      4  C4  UNL d   1      -1.000  -0.264   1.939  0.00  0.00    -0.042 A 
ATOM      5  C5  UNL d   1      -1.085  -1.098   0.830  0.00  0.00     0.033 A 
ATOM      6  C6  UNL d   1      -1.428  -0.569  -0.418  0.00  0.00    -0.057 A 
ENDROOT
BRANCH   1   7
ATOM      7  N   UNL d   1      -2.115   1.244  -1.842  0.00  0.00    -0.732 N 
ATOM      8  C   UNL d   1      -1.953   2.628  -2.233  0.00  0.00     0.284 C 
ATOM      9  H3  UNL d   1      -1.913   0.576  -2.582  0.00  0.00     0.395 HD
ENDBRANCH   1   7
TORSDOF 1
ENDMDL
