MODEL 1
REMARK minimizedAffinity -5.6390729
REMARK minimizedRMSD -1
REMARK  1 active torsions:
REMARK  status: ('A' for Active; 'I' for Inactive)
REMARK    1  A    between atoms: N_2  and  C1_3 
ROOT
ATOM      1  C1  UNL d   1       0.619  -0.365   1.025  0.00  0.00     0.143 A 
ATOM      2  C2  UNL d   1       0.651  -0.582   2.406  0.00  0.00    -0.057 A 
ATOM      3  C3  UNL d   1       1.698  -1.293   3.006  0.00  0.00     0.033 A 
ATOM      4  C4  UNL d   1       2.720  -1.825   2.227  0.00  0.00    -0.042 A 
ATOM      5  C5  UNL d   1       2.696  -1.643   0.849  0.00  0.00     0.033 A 
ATOM      6  C6  UNL d   1       1.651  -0.927   0.257  0.00  0.00    -0.057 A 
ENDROOT
BRANCH   1   7
ATOM      7  N   UNL d   1      -0.445   0.247   0.358  0.00  0.00    -0.732 N 
ATOM      8  C   UNL d   1      -0.573   0.143  -1.080  0.00  0.00     0.284 C 
ATOM      9  H3  UNL d   1      -1.325   0.154   0.861  0.00  0.00     0.395 HD
ENDBRANCH   1   7
TORSDOF 1
ENDMDL
