MODEL 1
REMARK minimizedAffinity -4.17507648
REMARK minimizedRMSD -1
REMARK  1 active torsions:
REMARK  status: ('A' for Active; 'I' for Inactive)
REMARK    1  A    between atoms: N_2  and  C1_3 
ROOT
ATOM      1  C1  UNL d   1      -0.330   0.789  -0.639  0.00  0.00     0.143 A 
ATOM      2  C2  UNL d   1      -0.136   2.173  -0.598  0.00  0.00    -0.057 A 
ATOM      3  C3  UNL d   1      -0.285   2.962  -1.745  0.00  0.00     0.033 A 
ATOM      4  C4  UNL d   1      -0.604   2.374  -2.964  0.00  0.00    -0.042 A 
ATOM      5  C5  UNL d   1      -0.777   0.996  -3.034  0.00  0.00     0.033 A 
ATOM      6  C6  UNL d   1      -0.633   0.215  -1.884  0.00  0.00    -0.057 A 
ENDROOT
BRANCH   1   7
ATOM      7  N   UNL d   1      -0.100  -0.062   0.445  0.00  0.00    -0.732 N 
ATOM      8  C   UNL d   1       1.243  -0.280   0.939  0.00  0.00     0.284 C 
ATOM      9  H3  UNL d   1      -0.800   0.042   1.176  0.00  0.00     0.395 HD
ENDBRANCH   1   7
TORSDOF 1
ENDMDL
