MODEL 1
REMARK minimizedAffinity -2.60474753
REMARK minimizedRMSD -1
REMARK  0 active torsions:
REMARK  status: ('A' for Active; 'I' for Inactive)
ROOT
ATOM      1  C   UNL d   1      -0.173  -0.085  -0.130  0.00  0.00     0.172 C 
ATOM      2  N   UNL d   1       0.276  -0.345  -1.477  0.00  0.00    -0.070 N 
ATOM      3  C1  UNL d   1       0.168  -1.539  -2.139  0.00  0.00    -0.004 A 
ATOM      4  C2  UNL d   1       0.711  -1.376  -3.395  0.00  0.00    -0.047 A 
ATOM      5  C3  UNL d   1       1.162  -0.038  -3.491  0.00  0.00    -0.047 A 
ATOM      6  C4  UNL d   1       0.881   0.578  -2.290  0.00  0.00    -0.004 A 
ENDROOT
TORSDOF 0
ENDMDL
