MODEL 1
REMARK minimizedAffinity -3.34458828
REMARK minimizedRMSD -1
REMARK  0 active torsions:
REMARK  status: ('A' for Active; 'I' for Inactive)
ROOT
ATOM      1  C   UNL d   1       0.082   0.261  -0.893  0.00  0.00     0.172 C 
ATOM      2  N   UNL d   1       0.108   0.080   0.539  0.00  0.00    -0.070 N 
ATOM      3  C1  UNL d   1      -0.930  -0.379   1.305  0.00  0.00    -0.004 A 
ATOM      4  C2  UNL d   1      -0.506  -0.408   2.616  0.00  0.00    -0.047 A 
ATOM      5  C3  UNL d   1       0.832   0.051   2.639  0.00  0.00    -0.047 A 
ATOM      6  C4  UNL d   1       1.187   0.346   1.340  0.00  0.00    -0.004 A 
ENDROOT
TORSDOF 0
ENDMDL
