MODEL 1
REMARK minimizedAffinity -2.86070013
REMARK minimizedRMSD -1
REMARK  0 active torsions:
REMARK  status: ('A' for Active; 'I' for Inactive)
ROOT
ATOM      1  C   UNL d   1      -1.040  -0.793   2.621  0.00  0.00     0.172 C 
ATOM      2  N   UNL d   1      -0.992  -0.322   1.257  0.00  0.00    -0.070 N 
ATOM      3  C1  UNL d   1       0.138  -0.196   0.495  0.00  0.00    -0.004 A 
ATOM      4  C2  UNL d   1      -0.237   0.283  -0.742  0.00  0.00    -0.047 A 
ATOM      5  C3  UNL d   1      -1.642   0.451  -0.722  0.00  0.00    -0.047 A 
ATOM      6  C4  UNL d   1      -2.084   0.069   0.527  0.00  0.00    -0.004 A 
ENDROOT
TORSDOF 0
ENDMDL
