MODEL 1
REMARK minimizedAffinity -2.515414
REMARK minimizedRMSD -1
REMARK  0 active torsions:
REMARK  status: ('A' for Active; 'I' for Inactive)
ROOT
ATOM      1  C   UNL d   1       0.357  -0.329  -0.933  0.00  0.00     0.172 C 
ATOM      2  N   UNL d   1       0.204  -0.404   0.501  0.00  0.00    -0.070 N 
ATOM      3  C1  UNL d   1      -0.979  -0.315   1.184  0.00  0.00    -0.004 A 
ATOM      4  C2  UNL d   1      -0.700  -0.434   2.529  0.00  0.00    -0.047 A 
ATOM      5  C3  UNL d   1       0.699  -0.600   2.658  0.00  0.00    -0.047 A 
ATOM      6  C4  UNL d   1       1.235  -0.578   1.388  0.00  0.00    -0.004 A 
ENDROOT
TORSDOF 0
ENDMDL
