MODEL 1
REMARK minimizedAffinity -3.50390434
REMARK minimizedRMSD -1
REMARK  0 active torsions:
REMARK  status: ('A' for Active; 'I' for Inactive)
ROOT
ATOM      1  C   UNL d   1      -0.096  -0.155   2.499  0.00  0.00     0.172 C 
ATOM      2  N   UNL d   1      -0.080   0.060   1.071  0.00  0.00    -0.070 N 
ATOM      3  C1  UNL d   1       1.020   0.393   0.326  0.00  0.00    -0.004 A 
ATOM      4  C2  UNL d   1       0.621   0.506  -0.988  0.00  0.00    -0.047 A 
ATOM      5  C3  UNL d   1      -0.767   0.231  -1.035  0.00  0.00    -0.047 A 
ATOM      6  C4  UNL d   1      -1.175  -0.042   0.253  0.00  0.00    -0.004 A 
ENDROOT
TORSDOF 0
ENDMDL
