MODEL 1
REMARK minimizedAffinity -3.13166261
REMARK minimizedRMSD -1
REMARK  0 active torsions:
REMARK  status: ('A' for Active; 'I' for Inactive)
ROOT
ATOM      1  C   UNL d   1       0.391   0.246  -1.073  0.00  0.00     0.172 C 
ATOM      2  N   UNL d   1       0.283   0.144   0.363  0.00  0.00    -0.070 N 
ATOM      3  C1  UNL d   1      -0.728  -0.480   1.045  0.00  0.00    -0.004 A 
ATOM      4  C2  UNL d   1      -0.465  -0.359   2.392  0.00  0.00    -0.047 A 
ATOM      5  C3  UNL d   1       0.744   0.364   2.525  0.00  0.00    -0.047 A 
ATOM      6  C4  UNL d   1       1.186   0.662   1.253  0.00  0.00    -0.004 A 
ENDROOT
TORSDOF 0
ENDMDL
