MODEL 1
REMARK minimizedAffinity -2.8670125
REMARK minimizedRMSD -1
REMARK  0 active torsions:
REMARK  status: ('A' for Active; 'I' for Inactive)
ROOT
ATOM      1  C   UNL d   1       0.146  -0.069  -1.214  0.00  0.00     0.172 C 
ATOM      2  N   UNL d   1       0.071  -0.183   0.224  0.00  0.00    -0.070 N 
ATOM      3  C1  UNL d   1       1.074   0.130   1.102  0.00  0.00    -0.004 A 
ATOM      4  C2  UNL d   1       0.611  -0.116   2.377  0.00  0.00    -0.047 A 
ATOM      5  C3  UNL d   1      -0.716  -0.594   2.260  0.00  0.00    -0.047 A 
ATOM      6  C4  UNL d   1      -1.025  -0.625   0.916  0.00  0.00    -0.004 A 
ENDROOT
TORSDOF 0
ENDMDL
