MODEL 1
REMARK minimizedAffinity -2.14405346
REMARK minimizedRMSD -1
REMARK  0 active torsions:
REMARK  status: ('A' for Active; 'I' for Inactive)
ROOT
ATOM      1  C   UNL d   1       0.093   0.021  -1.407  0.00  0.00     0.172 C 
ATOM      2  N   UNL d   1       0.145   0.072   0.036  0.00  0.00    -0.070 N 
ATOM      3  C1  UNL d   1      -0.524  -0.765   0.888  0.00  0.00    -0.004 A 
ATOM      4  C2  UNL d   1      -0.212  -0.392   2.178  0.00  0.00    -0.047 A 
ATOM      5  C3  UNL d   1       0.675   0.709   2.097  0.00  0.00    -0.047 A 
ATOM      6  C4  UNL d   1       0.878   0.975   0.759  0.00  0.00    -0.004 A 
ENDROOT
TORSDOF 0
ENDMDL
