MODEL 1
REMARK minimizedAffinity -3.08316207
REMARK minimizedRMSD -1
REMARK  0 active torsions:
REMARK  status: ('A' for Active; 'I' for Inactive)
ROOT
ATOM      1  C   UNL d   1      -0.109   0.313  -1.224  0.00  0.00     0.172 C 
ATOM      2  N   UNL d   1      -0.236   0.041   0.189  0.00  0.00    -0.070 N 
ATOM      3  C1  UNL d   1      -1.216  -0.719   0.770  0.00  0.00    -0.004 A 
ATOM      4  C2  UNL d   1      -0.987  -0.735   2.129  0.00  0.00    -0.047 A 
ATOM      5  C3  UNL d   1       0.170   0.043   2.373  0.00  0.00    -0.047 A 
ATOM      6  C4  UNL d   1       0.614   0.511   1.154  0.00  0.00    -0.004 A 
ENDROOT
TORSDOF 0
ENDMDL
