MODEL 1
REMARK minimizedAffinity -3.1156497
REMARK minimizedRMSD -1
REMARK  0 active torsions:
REMARK  status: ('A' for Active; 'I' for Inactive)
ROOT
ATOM      1  C   UNL d   1       0.230  -0.083  -0.488  0.00  0.00     0.172 C 
ATOM      2  N   UNL d   1      -0.034  -0.244   0.922  0.00  0.00    -0.070 N 
ATOM      3  C1  UNL d   1      -0.715  -1.286   1.493  0.00  0.00    -0.004 A 
ATOM      4  C2  UNL d   1      -0.752  -1.071   2.853  0.00  0.00    -0.047 A 
ATOM      5  C3  UNL d   1      -0.070   0.142   3.110  0.00  0.00    -0.047 A 
ATOM      6  C4  UNL d   1       0.364   0.633   1.896  0.00  0.00    -0.004 A 
ENDROOT
TORSDOF 0
ENDMDL
