MODEL 1
REMARK minimizedAffinity -2.31170988
REMARK minimizedRMSD -1
REMARK  0 active torsions:
REMARK  status: ('A' for Active; 'I' for Inactive)
ROOT
ATOM      1  C   UNL d   1      -0.747   0.627  -2.093  0.00  0.00     0.172 C 
ATOM      2  N   UNL d   1      -0.360   0.357  -0.728  0.00  0.00    -0.070 N 
ATOM      3  C1  UNL d   1       0.860   0.639  -0.174  0.00  0.00    -0.004 A 
ATOM      4  C2  UNL d   1       0.830   0.230   1.142  0.00  0.00    -0.047 A 
ATOM      5  C3  UNL d   1      -0.452  -0.317   1.387  0.00  0.00    -0.047 A 
ATOM      6  C4  UNL d   1      -1.168  -0.226   0.212  0.00  0.00    -0.004 A 
ENDROOT
TORSDOF 0
ENDMDL
