MODEL 1
REMARK minimizedAffinity -4.25823212
REMARK minimizedRMSD -1
REMARK  0 active torsions:
REMARK  status: ('A' for Active; 'I' for Inactive)
ROOT
ATOM      1  C   UNL d   1       0.020   0.304  -1.035  0.00  0.00     0.172 C 
ATOM      2  N   UNL d   1      -0.017  -0.086   0.355  0.00  0.00    -0.070 N 
ATOM      3  C1  UNL d   1       1.074  -0.294   1.155  0.00  0.00    -0.004 A 
ATOM      4  C2  UNL d   1       0.619  -0.650   2.406  0.00  0.00    -0.047 A 
ATOM      5  C3  UNL d   1      -0.795  -0.657   2.356  0.00  0.00    -0.047 A 
ATOM      6  C4  UNL d   1      -1.163  -0.304   1.074  0.00  0.00    -0.004 A 
ENDROOT
TORSDOF 0
ENDMDL
