MODEL 1
REMARK minimizedAffinity -3.08376765
REMARK minimizedRMSD -1
REMARK  0 active torsions:
REMARK  status: ('A' for Active; 'I' for Inactive)
ROOT
ATOM      1  C   UNL d   1      -0.326   0.631  -1.186  0.00  0.00     0.172 C 
ATOM      2  N   UNL d   1      -0.159   0.116   0.153  0.00  0.00    -0.070 N 
ATOM      3  C1  UNL d   1      -0.886  -0.899   0.715  0.00  0.00    -0.004 A 
ATOM      4  C2  UNL d   1      -0.423  -1.090   1.999  0.00  0.00    -0.047 A 
ATOM      5  C3  UNL d   1       0.618  -0.156   2.217  0.00  0.00    -0.047 A 
ATOM      6  C4  UNL d   1       0.761   0.577   1.058  0.00  0.00    -0.004 A 
ENDROOT
TORSDOF 0
ENDMDL
