MODEL 1
REMARK minimizedAffinity -2.89878225
REMARK minimizedRMSD -1
REMARK  0 active torsions:
REMARK  status: ('A' for Active; 'I' for Inactive)
ROOT
ATOM      1  C   UNL d   1      -0.794  -0.238   2.964  0.00  0.00     0.172 C 
ATOM      2  N   UNL d   1      -0.797  -0.038   1.534  0.00  0.00    -0.070 N 
ATOM      3  C1  UNL d   1      -1.909   0.143   0.756  0.00  0.00    -0.004 A 
ATOM      4  C2  UNL d   1      -1.491   0.298  -0.549  0.00  0.00    -0.047 A 
ATOM      5  C3  UNL d   1      -0.079   0.204  -0.554  0.00  0.00    -0.047 A 
ATOM      6  C4  UNL d   1       0.324  -0.004   0.748  0.00  0.00    -0.004 A 
ENDROOT
TORSDOF 0
ENDMDL
