MODEL 1
REMARK minimizedAffinity -3.51589155
REMARK minimizedRMSD -1
REMARK  0 active torsions:
REMARK  status: ('A' for Active; 'I' for Inactive)
ROOT
ATOM      1  C   UNL d   1       0.358  -0.065  -1.516  0.00  0.00     0.172 C 
ATOM      2  N   UNL d   1       0.031  -0.315  -0.132  0.00  0.00    -0.070 N 
ATOM      3  C1  UNL d   1       0.895  -0.207   0.925  0.00  0.00    -0.004 A 
ATOM      4  C2  UNL d   1       0.201  -0.527   2.072  0.00  0.00    -0.047 A 
ATOM      5  C3  UNL d   1      -1.126  -0.840   1.691  0.00  0.00    -0.047 A 
ATOM      6  C4  UNL d   1      -1.203  -0.701   0.322  0.00  0.00    -0.004 A 
ENDROOT
TORSDOF 0
ENDMDL
