MODEL 1
REMARK minimizedAffinity -2.28328633
REMARK minimizedRMSD -1
REMARK  0 active torsions:
REMARK  status: ('A' for Active; 'I' for Inactive)
ROOT
ATOM      1  C   UNL d   1      -0.181  -0.109   2.929  0.00  0.00     0.172 C 
ATOM      2  N   UNL d   1      -0.007  -0.010   1.499  0.00  0.00    -0.070 N 
ATOM      3  C1  UNL d   1      -1.003  -0.107   0.565  0.00  0.00    -0.004 A 
ATOM      4  C2  UNL d   1      -0.430   0.041  -0.680  0.00  0.00    -0.047 A 
ATOM      5  C3  UNL d   1       0.958   0.233  -0.487  0.00  0.00    -0.047 A 
ATOM      6  C4  UNL d   1       1.193   0.197   0.871  0.00  0.00    -0.004 A 
ENDROOT
TORSDOF 0
ENDMDL
