MODEL 1
REMARK minimizedAffinity 11.1990223
REMARK minimizedRMSD -1
REMARK  0 active torsions:
REMARK  status: ('A' for Active; 'I' for Inactive)
ROOT
ATOM      1  C   UNL d   1       2.597   1.194  -0.680  0.00  0.00     0.124 A 
ATOM      2  C1  UNL d   1       1.559   1.346  -1.589  0.00  0.00     0.062 A 
ATOM      3  C2  UNL d   1       0.237   1.276  -1.160  0.00  0.00     0.162 A 
ATOM      4  C3  UNL d   1      -0.056   1.054   0.186  0.00  0.00    -0.034 A 
ATOM      5  C4  UNL d   1       0.994   0.901   1.094  0.00  0.00     0.162 A 
ATOM      6  C5  UNL d   1       2.313   0.972   0.660  0.00  0.00     0.062 A 
ATOM      7  F   UNL d   1       3.315   0.825   1.539  0.00  0.00    -0.097 F 
ATOM      8  F1  UNL d   1       0.748   0.686   2.395  0.00  0.00    -0.096 F 
ATOM      9  I   UNL d   1      -2.031   0.949   0.832  0.00  0.00    -0.060 I 
ATOM     10  F2  UNL d   1      -0.746   1.427  -2.060  0.00  0.00    -0.096 F 
ATOM     11  F3  UNL d   1       1.830   1.561  -2.885  0.00  0.00    -0.097 F 
ATOM     12  F4  UNL d   1       3.868   1.261  -1.096  0.00  0.00    -0.092 F 
ENDROOT
TORSDOF 0
ENDMDL
