MODEL 1
REMARK minimizedAffinity -2.96526837
REMARK minimizedRMSD -1
REMARK  0 active torsions:
REMARK  status: ('A' for Active; 'I' for Inactive)
ROOT
ATOM      1  C   UNL d   1       1.471  -2.519  -2.166  0.00  0.00     0.124 A 
ATOM      2  C1  UNL d   1       0.896  -2.378  -0.910  0.00  0.00     0.062 A 
ATOM      3  C2  UNL d   1       0.635  -1.111  -0.398  0.00  0.00     0.162 A 
ATOM      4  C3  UNL d   1       0.947   0.027  -1.143  0.00  0.00    -0.034 A 
ATOM      5  C4  UNL d   1       1.526  -0.123  -2.404  0.00  0.00     0.162 A 
ATOM      6  C5  UNL d   1       1.785  -1.392  -2.911  0.00  0.00     0.062 A 
ATOM      7  F   UNL d   1       2.340  -1.526  -4.124  0.00  0.00    -0.097 F 
ATOM      8  F1  UNL d   1       1.839   0.950  -3.146  0.00  0.00    -0.096 F 
ATOM      9  I   UNL d   1       0.558   1.924  -0.381  0.00  0.00    -0.060 I 
ATOM     10  F2  UNL d   1       0.079  -1.004   0.818  0.00  0.00    -0.096 F 
ATOM     11  F3  UNL d   1       0.593  -3.466  -0.187  0.00  0.00    -0.097 F 
ATOM     12  F4  UNL d   1       1.722  -3.740  -2.655  0.00  0.00    -0.092 F 
ENDROOT
TORSDOF 0
ENDMDL
