MODEL 1
REMARK minimizedAffinity -3.50339317
REMARK minimizedRMSD -1
REMARK  0 active torsions:
REMARK  status: ('A' for Active; 'I' for Inactive)
ROOT
ATOM      1  C   UNL d   1       0.764   1.059  -1.077  0.00  0.00     0.124 A 
ATOM      2  C1  UNL d   1       0.270   0.299  -0.025  0.00  0.00     0.062 A 
ATOM      3  C2  UNL d   1       0.466  -1.079  -0.005  0.00  0.00     0.162 A 
ATOM      4  C3  UNL d   1       1.160  -1.706  -1.039  0.00  0.00    -0.034 A 
ATOM      5  C4  UNL d   1       1.653  -0.936  -2.094  0.00  0.00     0.162 A 
ATOM      6  C5  UNL d   1       1.455   0.441  -2.109  0.00  0.00     0.062 A 
ATOM      7  F   UNL d   1       1.933   1.173  -3.126  0.00  0.00    -0.097 F 
ATOM      8  F1  UNL d   1       2.325  -1.507  -3.104  0.00  0.00    -0.096 F 
ATOM      9  I   UNL d   1       1.455  -3.767  -1.012  0.00  0.00    -0.060 I 
ATOM     10  F2  UNL d   1      -0.022  -1.788   1.024  0.00  0.00    -0.096 F 
ATOM     11  F3  UNL d   1      -0.398   0.894   0.973  0.00  0.00    -0.097 F 
ATOM     12  F4  UNL d   1       0.574   2.384  -1.094  0.00  0.00    -0.092 F 
ENDROOT
TORSDOF 0
ENDMDL
