MODEL 1
REMARK minimizedAffinity -0.978023171
REMARK minimizedRMSD -1
REMARK  0 active torsions:
REMARK  status: ('A' for Active; 'I' for Inactive)
ROOT
ATOM      1  C   UNL d   1      -2.737   0.442   1.693  0.00  0.00     0.124 A 
ATOM      2  C1  UNL d   1      -2.847   0.075   0.359  0.00  0.00     0.062 A 
ATOM      3  C2  UNL d   1      -1.726   0.091  -0.466  0.00  0.00     0.162 A 
ATOM      4  C3  UNL d   1      -0.484   0.474   0.042  0.00  0.00    -0.034 A 
ATOM      5  C4  UNL d   1      -0.382   0.842   1.384  0.00  0.00     0.162 A 
ATOM      6  C5  UNL d   1      -1.505   0.825   2.205  0.00  0.00     0.062 A 
ATOM      7  F   UNL d   1      -1.397   1.179   3.493  0.00  0.00    -0.097 F 
ATOM      8  F1  UNL d   1       0.797   1.216   1.905  0.00  0.00    -0.096 F 
ATOM      9  I   UNL d   1       1.194   0.500  -1.189  0.00  0.00    -0.060 I 
ATOM     10  F2  UNL d   1      -1.861  -0.268  -1.751  0.00  0.00    -0.096 F 
ATOM     11  F3  UNL d   1      -4.036  -0.294  -0.138  0.00  0.00    -0.097 F 
ATOM     12  F4  UNL d   1      -3.818   0.426   2.484  0.00  0.00    -0.092 F 
ENDROOT
TORSDOF 0
ENDMDL
