MODEL 1
REMARK minimizedAffinity -4.64493799
REMARK minimizedRMSD -1
REMARK  0 active torsions:
REMARK  status: ('A' for Active; 'I' for Inactive)
ROOT
ATOM      1  C   UNL d   1       0.896   1.283  -0.299  0.00  0.00     0.124 A 
ATOM      2  C1  UNL d   1       0.297   0.342   0.527  0.00  0.00     0.062 A 
ATOM      3  C2  UNL d   1       0.378  -1.013   0.219  0.00  0.00     0.162 A 
ATOM      4  C3  UNL d   1       1.063  -1.436  -0.920  0.00  0.00    -0.034 A 
ATOM      5  C4  UNL d   1       1.661  -0.483  -1.747  0.00  0.00     0.162 A 
ATOM      6  C5  UNL d   1       1.577   0.870  -1.435  0.00  0.00     0.062 A 
ATOM      7  F   UNL d   1       2.156   1.777  -2.234  0.00  0.00    -0.097 F 
ATOM      8  F1  UNL d   1       2.327  -0.855  -2.850  0.00  0.00    -0.096 F 
ATOM      9  I   UNL d   1       1.187  -3.461  -1.384  0.00  0.00    -0.060 I 
ATOM     10  F2  UNL d   1      -0.210  -1.900   1.036  0.00  0.00    -0.096 F 
ATOM     11  F3  UNL d   1      -0.363   0.739   1.625  0.00  0.00    -0.097 F 
ATOM     12  F4  UNL d   1       0.815   2.586  -0.001  0.00  0.00    -0.092 F 
ENDROOT
TORSDOF 0
ENDMDL
