MODEL 1
REMARK minimizedAffinity -0.856654704
REMARK minimizedRMSD -1
REMARK  0 active torsions:
REMARK  status: ('A' for Active; 'I' for Inactive)
ROOT
ATOM      1  C   UNL d   1      -0.876  -1.504   1.188  0.00  0.00     0.124 A 
ATOM      2  C1  UNL d   1      -0.107  -2.471   0.555  0.00  0.00     0.062 A 
ATOM      3  C2  UNL d   1       0.788  -2.107  -0.447  0.00  0.00     0.162 A 
ATOM      4  C3  UNL d   1       0.920  -0.770  -0.822  0.00  0.00    -0.034 A 
ATOM      5  C4  UNL d   1       0.141   0.196  -0.182  0.00  0.00     0.162 A 
ATOM      6  C5  UNL d   1      -0.752  -0.172   0.819  0.00  0.00     0.062 A 
ATOM      7  F   UNL d   1      -1.494   0.763   1.429  0.00  0.00    -0.097 F 
ATOM      8  F1  UNL d   1       0.243   1.490  -0.519  0.00  0.00    -0.096 F 
ATOM      9  I   UNL d   1       2.257  -0.223  -2.320  0.00  0.00    -0.060 I 
ATOM     10  F2  UNL d   1       1.519  -3.062  -1.041  0.00  0.00    -0.096 F 
ATOM     11  F3  UNL d   1      -0.226  -3.758   0.909  0.00  0.00    -0.097 F 
ATOM     12  F4  UNL d   1      -1.737  -1.857   2.151  0.00  0.00    -0.092 F 
ENDROOT
TORSDOF 0
ENDMDL
