MODEL 1
REMARK minimizedAffinity 1.82785738
REMARK minimizedRMSD -1
REMARK  0 active torsions:
REMARK  status: ('A' for Active; 'I' for Inactive)
ROOT
ATOM      1  C   UNL d   1       2.107  -0.906  -1.642  0.00  0.00     0.124 A 
ATOM      2  C1  UNL d   1       1.476  -1.931  -0.951  0.00  0.00     0.062 A 
ATOM      3  C2  UNL d   1       0.469  -1.642  -0.036  0.00  0.00     0.162 A 
ATOM      4  C3  UNL d   1       0.085  -0.321   0.194  0.00  0.00    -0.034 A 
ATOM      5  C4  UNL d   1       0.725   0.705  -0.503  0.00  0.00     0.162 A 
ATOM      6  C5  UNL d   1       1.731   0.411  -1.417  0.00  0.00     0.062 A 
ATOM      7  F   UNL d   1       2.340   1.403  -2.084  0.00  0.00    -0.097 F 
ATOM      8  F1  UNL d   1       0.381   1.987  -0.307  0.00  0.00    -0.096 F 
ATOM      9  I   UNL d   1      -1.421   0.116   1.562  0.00  0.00    -0.060 I 
ATOM     10  F2  UNL d   1      -0.124  -2.653   0.617  0.00  0.00    -0.096 F 
ATOM     11  F3  UNL d   1       1.838  -3.204  -1.166  0.00  0.00    -0.097 F 
ATOM     12  F4  UNL d   1       3.077  -1.187  -2.522  0.00  0.00    -0.092 F 
ENDROOT
TORSDOF 0
ENDMDL
