MODEL 1
REMARK minimizedAffinity -2.42649961
REMARK minimizedRMSD -1
REMARK  0 active torsions:
REMARK  status: ('A' for Active; 'I' for Inactive)
ROOT
ATOM      1  C   UNL d   1       1.324  -1.613  -2.239  0.00  0.00     0.124 A 
ATOM      2  C1  UNL d   1       0.824  -0.320  -2.183  0.00  0.00     0.062 A 
ATOM      3  C2  UNL d   1       0.119   0.110  -1.063  0.00  0.00     0.162 A 
ATOM      4  C3  UNL d   1      -0.090  -0.754   0.012  0.00  0.00    -0.034 A 
ATOM      5  C4  UNL d   1       0.415  -2.054  -0.052  0.00  0.00     0.162 A 
ATOM      6  C5  UNL d   1       1.119  -2.479  -1.173  0.00  0.00     0.062 A 
ATOM      7  F   UNL d   1       1.602  -3.729  -1.225  0.00  0.00    -0.097 F 
ATOM      8  F1  UNL d   1       0.232  -2.910   0.964  0.00  0.00    -0.096 F 
ATOM      9  I   UNL d   1      -1.145  -0.114   1.688  0.00  0.00    -0.060 I 
ATOM     10  F2  UNL d   1      -0.354   1.366  -1.037  0.00  0.00    -0.096 F 
ATOM     11  F3  UNL d   1       1.020   0.518  -3.211  0.00  0.00    -0.097 F 
ATOM     12  F4  UNL d   1       2.002  -2.025  -3.318  0.00  0.00    -0.092 F 
ENDROOT
TORSDOF 0
ENDMDL
