MODEL 1
REMARK minimizedAffinity -1.5337069
REMARK minimizedRMSD -1
REMARK  0 active torsions:
REMARK  status: ('A' for Active; 'I' for Inactive)
ROOT
ATOM      1  C   UNL d   1       2.096  -0.832  -1.625  0.00  0.00     0.124 A 
ATOM      2  C1  UNL d   1       1.561   0.421  -1.355  0.00  0.00     0.062 A 
ATOM      3  C2  UNL d   1       0.526   0.556  -0.435  0.00  0.00     0.162 A 
ATOM      4  C3  UNL d   1       0.019  -0.564   0.224  0.00  0.00    -0.034 A 
ATOM      5  C4  UNL d   1       0.562  -1.820  -0.053  0.00  0.00     0.162 A 
ATOM      6  C5  UNL d   1       1.596  -1.950  -0.974  0.00  0.00     0.062 A 
ATOM      7  F   UNL d   1       2.111  -3.161  -1.233  0.00  0.00    -0.097 F 
ATOM      8  F1  UNL d   1       0.098  -2.918   0.563  0.00  0.00    -0.096 F 
ATOM      9  I   UNL d   1      -1.528  -0.365   1.602  0.00  0.00    -0.060 I 
ATOM     10  F2  UNL d   1       0.028   1.778  -0.194  0.00  0.00    -0.096 F 
ATOM     11  F3  UNL d   1       2.042   1.503  -1.984  0.00  0.00    -0.097 F 
ATOM     12  F4  UNL d   1       3.091  -0.959  -2.512  0.00  0.00    -0.092 F 
ENDROOT
TORSDOF 0
ENDMDL
