MODEL 1
REMARK minimizedAffinity -3.01986599
REMARK minimizedRMSD -1
REMARK  0 active torsions:
REMARK  status: ('A' for Active; 'I' for Inactive)
ROOT
ATOM      1  C   UNL d   1       1.565  -1.296  -2.575  0.00  0.00     0.124 A 
ATOM      2  C1  UNL d   1       1.566  -2.120  -1.458  0.00  0.00     0.062 A 
ATOM      3  C2  UNL d   1       0.787  -1.798  -0.350  0.00  0.00     0.162 A 
ATOM      4  C3  UNL d   1      -0.001  -0.646  -0.354  0.00  0.00    -0.034 A 
ATOM      5  C4  UNL d   1       0.005   0.178  -1.481  0.00  0.00     0.162 A 
ATOM      6  C5  UNL d   1       0.785  -0.148  -2.585  0.00  0.00     0.062 A 
ATOM      7  F   UNL d   1       0.783   0.649  -3.663  0.00  0.00    -0.097 F 
ATOM      8  F1  UNL d   1      -0.740   1.293  -1.518  0.00  0.00    -0.096 F 
ATOM      9  I   UNL d   1      -1.167  -0.162   1.300  0.00  0.00    -0.060 I 
ATOM     10  F2  UNL d   1       0.806  -2.612   0.715  0.00  0.00    -0.096 F 
ATOM     11  F3  UNL d   1       2.319  -3.229  -1.445  0.00  0.00    -0.097 F 
ATOM     12  F4  UNL d   1       2.316  -1.607  -3.639  0.00  0.00    -0.092 F 
ENDROOT
TORSDOF 0
ENDMDL
