MODEL 1
REMARK minimizedAffinity -3.56980968
REMARK minimizedRMSD -1
REMARK  0 active torsions:
REMARK  status: ('A' for Active; 'I' for Inactive)
ROOT
ATOM      1  C   UNL d   1       1.153  -1.095  -1.836  0.00  0.00     0.124 A 
ATOM      2  C1  UNL d   1       1.015   0.267  -1.610  0.00  0.00     0.062 A 
ATOM      3  C2  UNL d   1       0.155   0.729  -0.618  0.00  0.00     0.162 A 
ATOM      4  C3  UNL d   1      -0.575  -0.173   0.156  0.00  0.00    -0.034 A 
ATOM      5  C4  UNL d   1      -0.432  -1.542  -0.077  0.00  0.00     0.162 A 
ATOM      6  C5  UNL d   1       0.429  -1.998  -1.070  0.00  0.00     0.062 A 
ATOM      7  F   UNL d   1       0.561  -3.315  -1.287  0.00  0.00    -0.097 F 
ATOM      8  F1  UNL d   1      -1.119  -2.437   0.649  0.00  0.00    -0.096 F 
ATOM      9  I   UNL d   1      -1.863   0.513   1.640  0.00  0.00    -0.060 I 
ATOM     10  F2  UNL d   1       0.042   2.051  -0.422  0.00  0.00    -0.096 F 
ATOM     11  F3  UNL d   1       1.712   1.142  -2.350  0.00  0.00    -0.097 F 
ATOM     12  F4  UNL d   1       1.981  -1.537  -2.792  0.00  0.00    -0.092 F 
ENDROOT
TORSDOF 0
ENDMDL
