MODEL 1
REMARK minimizedAffinity -1.75622618
REMARK minimizedRMSD -1
REMARK  0 active torsions:
REMARK  status: ('A' for Active; 'I' for Inactive)
ROOT
ATOM      1  C   UNL d   1      -3.444   0.552   1.429  0.00  0.00     0.124 A 
ATOM      2  C1  UNL d   1      -2.304   0.330   2.190  0.00  0.00     0.062 A 
ATOM      3  C2  UNL d   1      -1.110  -0.031   1.572  0.00  0.00     0.162 A 
ATOM      4  C3  UNL d   1      -1.049  -0.170   0.186  0.00  0.00    -0.034 A 
ATOM      5  C4  UNL d   1      -2.199   0.055  -0.572  0.00  0.00     0.162 A 
ATOM      6  C5  UNL d   1      -3.390   0.415   0.049  0.00  0.00     0.062 A 
ATOM      7  F   UNL d   1      -4.490   0.629  -0.687  0.00  0.00    -0.097 F 
ATOM      8  F1  UNL d   1      -2.176  -0.070  -1.908  0.00  0.00    -0.096 F 
ATOM      9  I   UNL d   1       0.735  -0.709  -0.742  0.00  0.00    -0.060 I 
ATOM     10  F2  UNL d   1      -0.024  -0.240   2.332  0.00  0.00    -0.096 F 
ATOM     11  F3  UNL d   1      -2.353   0.461   3.523  0.00  0.00    -0.097 F 
ATOM     12  F4  UNL d   1      -4.592   0.898   2.026  0.00  0.00    -0.092 F 
ENDROOT
TORSDOF 0
ENDMDL
