MODEL 1
REMARK minimizedAffinity -3.81254792
REMARK minimizedRMSD -1
REMARK  0 active torsions:
REMARK  status: ('A' for Active; 'I' for Inactive)
ROOT
ATOM      1  C   UNL d   1       1.791  -0.868  -1.915  0.00  0.00     0.124 A 
ATOM      2  C1  UNL d   1       1.287   0.411  -1.723  0.00  0.00     0.062 A 
ATOM      3  C2  UNL d   1       0.437   0.675  -0.653  0.00  0.00     0.162 A 
ATOM      4  C3  UNL d   1       0.087  -0.342   0.235  0.00  0.00    -0.034 A 
ATOM      5  C4  UNL d   1       0.596  -1.626   0.035  0.00  0.00     0.162 A 
ATOM      6  C5  UNL d   1       1.445  -1.885  -1.037  0.00  0.00     0.062 A 
ATOM      7  F   UNL d   1       1.931  -3.121  -1.221  0.00  0.00    -0.097 F 
ATOM      8  F1  UNL d   1       0.279  -2.627   0.869  0.00  0.00    -0.096 F 
ATOM      9  I   UNL d   1      -1.184   0.049   1.836  0.00  0.00    -0.060 I 
ATOM     10  F2  UNL d   1      -0.034   1.920  -0.492  0.00  0.00    -0.096 F 
ATOM     11  F3  UNL d   1       1.619   1.395  -2.571  0.00  0.00    -0.097 F 
ATOM     12  F4  UNL d   1       2.608  -1.120  -2.946  0.00  0.00    -0.092 F 
ENDROOT
TORSDOF 0
ENDMDL
