MODEL 1
REMARK minimizedAffinity 2.31588435
REMARK minimizedRMSD -1
REMARK  0 active torsions:
REMARK  status: ('A' for Active; 'I' for Inactive)
ROOT
ATOM      1  C   UNL d   1       1.734  -0.123  -1.193  0.00  0.00     0.124 A 
ATOM      2  C1  UNL d   1       1.162   1.142  -1.199  0.00  0.00     0.062 A 
ATOM      3  C2  UNL d   1      -0.092   1.345  -0.630  0.00  0.00     0.162 A 
ATOM      4  C3  UNL d   1      -0.783   0.281  -0.049  0.00  0.00    -0.034 A 
ATOM      5  C4  UNL d   1      -0.201  -0.988  -0.047  0.00  0.00     0.162 A 
ATOM      6  C5  UNL d   1       1.052  -1.186  -0.617  0.00  0.00     0.062 A 
ATOM      7  F   UNL d   1       1.604  -2.408  -0.611  0.00  0.00    -0.097 F 
ATOM      8  F1  UNL d   1      -0.837  -2.033   0.503  0.00  0.00    -0.096 F 
ATOM      9  I   UNL d   1      -2.657   0.582   0.803  0.00  0.00    -0.060 I 
ATOM     10  F2  UNL d   1      -0.621   2.578  -0.650  0.00  0.00    -0.096 F 
ATOM     11  F3  UNL d   1       1.817   2.170  -1.755  0.00  0.00    -0.097 F 
ATOM     12  F4  UNL d   1       2.940  -0.316  -1.742  0.00  0.00    -0.092 F 
ENDROOT
TORSDOF 0
ENDMDL
