MODEL 1
REMARK minimizedAffinity -4.04696321
REMARK minimizedRMSD -1
REMARK  0 active torsions:
REMARK  status: ('A' for Active; 'I' for Inactive)
ROOT
ATOM      1  C   UNL d   1       1.860  -0.577  -1.421  0.00  0.00     0.124 A 
ATOM      2  C1  UNL d   1       1.204  -1.556  -0.687  0.00  0.00     0.062 A 
ATOM      3  C2  UNL d   1       0.282  -1.198   0.292  0.00  0.00     0.162 A 
ATOM      4  C3  UNL d   1       0.009   0.147   0.543  0.00  0.00    -0.034 A 
ATOM      5  C4  UNL d   1       0.673   1.126  -0.197  0.00  0.00     0.162 A 
ATOM      6  C5  UNL d   1       1.594   0.763  -1.175  0.00  0.00     0.062 A 
ATOM      7  F   UNL d   1       2.227   1.710  -1.882  0.00  0.00    -0.097 F 
ATOM      8  F1  UNL d   1       0.435   2.428   0.019  0.00  0.00    -0.096 F 
ATOM      9  I   UNL d   1      -1.368   0.687   2.007  0.00  0.00    -0.060 I 
ATOM     10  F2  UNL d   1      -0.337  -2.165   0.985  0.00  0.00    -0.096 F 
ATOM     11  F3  UNL d   1       1.459  -2.851  -0.922  0.00  0.00    -0.097 F 
ATOM     12  F4  UNL d   1       2.747  -0.925  -2.362  0.00  0.00    -0.092 F 
ENDROOT
TORSDOF 0
ENDMDL
