MODEL 1
REMARK minimizedAffinity -6.08243036
REMARK minimizedRMSD -1
REMARK  0 active torsions:
REMARK  status: ('A' for Active; 'I' for Inactive)
ROOT
ATOM      1  C   UNL d   1       2.029  -0.823  -2.712  0.00  0.00     0.124 A 
ATOM      2  C1  UNL d   1       1.888   0.437  -2.149  0.00  0.00     0.062 A 
ATOM      3  C2  UNL d   1       1.067   0.620  -1.039  0.00  0.00     0.162 A 
ATOM      4  C3  UNL d   1       0.381  -0.461  -0.485  0.00  0.00    -0.034 A 
ATOM      5  C4  UNL d   1       0.527  -1.726  -1.059  0.00  0.00     0.162 A 
ATOM      6  C5  UNL d   1       1.349  -1.903  -2.167  0.00  0.00     0.062 A 
ATOM      7  F   UNL d   1       1.484  -3.122  -2.711  0.00  0.00    -0.097 F 
ATOM      8  F1  UNL d   1      -0.117  -2.787  -0.551  0.00  0.00    -0.096 F 
ATOM      9  I   UNL d   1      -0.847  -0.192   1.173  0.00  0.00    -0.060 I 
ATOM     10  F2  UNL d   1       0.950   1.849  -0.515  0.00  0.00    -0.096 F 
ATOM     11  F3  UNL d   1       2.543   1.482  -2.674  0.00  0.00    -0.097 F 
ATOM     12  F4  UNL d   1       2.818  -0.996  -3.780  0.00  0.00    -0.092 F 
ENDROOT
TORSDOF 0
ENDMDL
