MODEL 1
REMARK minimizedAffinity 6.29625511
REMARK minimizedRMSD -1
REMARK  0 active torsions:
REMARK  status: ('A' for Active; 'I' for Inactive)
ROOT
ATOM      1  C   UNL d   1       1.651   1.498  -0.962  0.00  0.00     0.124 A 
ATOM      2  C1  UNL d   1       0.400   1.497  -0.361  0.00  0.00     0.062 A 
ATOM      3  C2  UNL d   1      -0.147   0.309   0.115  0.00  0.00     0.162 A 
ATOM      4  C3  UNL d   1       0.557  -0.889  -0.008  0.00  0.00    -0.034 A 
ATOM      5  C4  UNL d   1       1.814  -0.880  -0.615  0.00  0.00     0.162 A 
ATOM      6  C5  UNL d   1       2.357   0.310  -1.088  0.00  0.00     0.062 A 
ATOM      7  F   UNL d   1       3.566   0.308  -1.669  0.00  0.00    -0.097 F 
ATOM      8  F1  UNL d   1       2.518  -2.014  -0.749  0.00  0.00    -0.096 F 
ATOM      9  I   UNL d   1      -0.258  -2.667   0.702  0.00  0.00    -0.060 I 
ATOM     10  F2  UNL d   1      -1.358   0.338   0.692  0.00  0.00    -0.096 F 
ATOM     11  F3  UNL d   1      -0.284   2.644  -0.238  0.00  0.00    -0.097 F 
ATOM     12  F4  UNL d   1       2.175   2.642  -1.420  0.00  0.00    -0.092 F 
ENDROOT
TORSDOF 0
ENDMDL
