MODEL 1
REMARK minimizedAffinity -2.51088667
REMARK minimizedRMSD -1
REMARK  0 active torsions:
REMARK  status: ('A' for Active; 'I' for Inactive)
ROOT
ATOM      1  O1  BZF d   1      -2.883   0.408   0.671  0.00  0.00    -0.204 OA
ATOM      2  C2  BZF d   1      -3.487   0.539   1.906  0.00  0.00     0.174 A 
ATOM      3  C3  BZF d   1      -2.569   0.516   2.893  0.00  0.00    -0.012 A 
ATOM      4  C3A BZF d   1      -1.303   0.452   2.228  0.00  0.00    -0.107 A 
ATOM      5  C4  BZF d   1      -0.011   0.420   2.670  0.00  0.00     0.055 A 
ATOM      6  C5  BZF d   1       0.993   0.284   1.764  0.00  0.00    -0.016 A 
ATOM      7  C6  BZF d   1       0.741   0.173   0.412  0.00  0.00     0.022 A 
ATOM      8  C7  BZF d   1      -0.524   0.206  -0.074  0.00  0.00     0.029 A 
ATOM      9  C7A BZF d   1      -1.539   0.376   0.836  0.00  0.00     0.058 A 
ENDROOT
TORSDOF 0
ENDMDL
