MODEL 1
REMARK minimizedAffinity 0.538324893
REMARK minimizedRMSD -1
REMARK  0 active torsions:
REMARK  status: ('A' for Active; 'I' for Inactive)
ROOT
ATOM      1  O1  BZF d   1      -0.564   0.094  -1.631  0.00  0.00    -0.204 OA
ATOM      2  C2  BZF d   1       0.803   0.078  -1.429  0.00  0.00     0.174 A 
ATOM      3  C3  BZF d   1       1.092   0.113  -0.112  0.00  0.00    -0.012 A 
ATOM      4  C3A BZF d   1      -0.174   0.060   0.553  0.00  0.00    -0.107 A 
ATOM      5  C4  BZF d   1      -0.544   0.048   1.867  0.00  0.00     0.055 A 
ATOM      6  C5  BZF d   1      -1.867   0.067   2.181  0.00  0.00    -0.016 A 
ATOM      7  C6  BZF d   1      -2.843   0.104   1.207  0.00  0.00     0.022 A 
ATOM      8  C7  BZF d   1      -2.525   0.113  -0.110  0.00  0.00     0.029 A 
ATOM      9  C7A BZF d   1      -1.190   0.060  -0.431  0.00  0.00     0.058 A 
ENDROOT
TORSDOF 0
ENDMDL
