MODEL 1
REMARK minimizedAffinity -4.8140564
REMARK minimizedRMSD -1
REMARK  0 active torsions:
REMARK  status: ('A' for Active; 'I' for Inactive)
ROOT
ATOM      1  O1  BZF d   1      -0.604   0.242  -0.713  0.00  0.00    -0.204 OA
ATOM      2  C2  BZF d   1       0.728   0.609  -0.702  0.00  0.00     0.174 A 
ATOM      3  C3  BZF d   1       1.173   0.758   0.562  0.00  0.00    -0.012 A 
ATOM      4  C3A BZF d   1       0.074   0.376   1.395  0.00  0.00    -0.107 A 
ATOM      5  C4  BZF d   1      -0.096   0.297   2.748  0.00  0.00     0.055 A 
ATOM      6  C5  BZF d   1      -1.316  -0.041   3.242  0.00  0.00    -0.016 A 
ATOM      7  C6  BZF d   1      -2.388  -0.301   2.413  0.00  0.00     0.022 A 
ATOM      8  C7  BZF d   1      -2.267  -0.241   1.065  0.00  0.00     0.029 A 
ATOM      9  C7A BZF d   1      -1.027   0.069   0.562  0.00  0.00     0.058 A 
ENDROOT
TORSDOF 0
ENDMDL
