MODEL 1
REMARK minimizedAffinity -3.2971518
REMARK minimizedRMSD -1
REMARK  0 active torsions:
REMARK  status: ('A' for Active; 'I' for Inactive)
ROOT
ATOM      1  O1  BZF d   1      -1.080   0.395   3.024  0.00  0.00    -0.204 OA
ATOM      2  C2  BZF d   1      -2.419   0.292   2.699  0.00  0.00     0.174 A 
ATOM      3  C3  BZF d   1      -2.586   0.271   1.361  0.00  0.00    -0.012 A 
ATOM      4  C3A BZF d   1      -1.263   0.274   0.816  0.00  0.00    -0.107 A 
ATOM      5  C4  BZF d   1      -0.772   0.244  -0.457  0.00  0.00     0.055 A 
ATOM      6  C5  BZF d   1       0.570   0.332  -0.650  0.00  0.00    -0.016 A 
ATOM      7  C6  BZF d   1       1.449   0.456   0.406  0.00  0.00     0.022 A 
ATOM      8  C7  BZF d   1       1.009   0.484   1.688  0.00  0.00     0.029 A 
ATOM      9  C7A BZF d   1      -0.344   0.362   1.888  0.00  0.00     0.058 A 
ENDROOT
TORSDOF 0
ENDMDL
