MODEL 1
REMARK minimizedAffinity -1.0482527
REMARK minimizedRMSD -1
REMARK  0 active torsions:
REMARK  status: ('A' for Active; 'I' for Inactive)
ROOT
ATOM      1  O1  BZF d   1       1.208  -0.071  -0.401  0.00  0.00    -0.204 OA
ATOM      2  C2  BZF d   1      -0.072   0.110   0.086  0.00  0.00     0.174 A 
ATOM      3  C3  BZF d   1      -0.987  -0.116  -0.878  0.00  0.00    -0.012 A 
ATOM      4  C3A BZF d   1      -0.236  -0.550  -2.016  0.00  0.00    -0.107 A 
ATOM      5  C4  BZF d   1      -0.584  -0.939  -3.278  0.00  0.00     0.055 A 
ATOM      6  C5  BZF d   1       0.397  -1.231  -4.173  0.00  0.00    -0.016 A 
ATOM      7  C6  BZF d   1       1.733  -1.141  -3.841  0.00  0.00     0.022 A 
ATOM      8  C7  BZF d   1       2.126  -0.764  -2.600  0.00  0.00     0.029 A 
ATOM      9  C7A BZF d   1       1.138  -0.500  -1.684  0.00  0.00     0.058 A 
ENDROOT
TORSDOF 0
ENDMDL
