MODEL 1
REMARK minimizedAffinity -3.13215804
REMARK minimizedRMSD -1
REMARK  0 active torsions:
REMARK  status: ('A' for Active; 'I' for Inactive)
ROOT
ATOM      1  O1  BZF d   1      -0.333  -0.877  -0.721  0.00  0.00    -0.204 OA
ATOM      2  C2  BZF d   1       0.075   0.168   0.084  0.00  0.00     0.174 A 
ATOM      3  C3  BZF d   1       1.107   0.830  -0.477  0.00  0.00    -0.012 A 
ATOM      4  C3A BZF d   1       1.300   0.213  -1.753  0.00  0.00    -0.107 A 
ATOM      5  C4  BZF d   1       2.168   0.438  -2.784  0.00  0.00     0.055 A 
ATOM      6  C5  BZF d   1       2.143  -0.390  -3.861  0.00  0.00    -0.016 A 
ATOM      7  C6  BZF d   1       1.269  -1.455  -3.939  0.00  0.00     0.022 A 
ATOM      8  C7  BZF d   1       0.386  -1.715  -2.944  0.00  0.00     0.029 A 
ATOM      9  C7A BZF d   1       0.386  -0.860  -1.869  0.00  0.00     0.058 A 
ENDROOT
TORSDOF 0
ENDMDL
