MODEL 1
REMARK minimizedAffinity -2.99835777
REMARK minimizedRMSD -1
REMARK  0 active torsions:
REMARK  status: ('A' for Active; 'I' for Inactive)
ROOT
ATOM      1  O1  BZF d   1      -1.500   0.240  -0.141  0.00  0.00    -0.204 OA
ATOM      2  C2  BZF d   1      -0.653   0.238  -1.233  0.00  0.00     0.174 A 
ATOM      3  C3  BZF d   1       0.636   0.187  -0.838  0.00  0.00    -0.012 A 
ATOM      4  C3A BZF d   1       0.588   0.062   0.587  0.00  0.00    -0.107 A 
ATOM      5  C4  BZF d   1       1.547  -0.050   1.552  0.00  0.00     0.055 A 
ATOM      6  C5  BZF d   1       1.171  -0.080   2.857  0.00  0.00    -0.016 A 
ATOM      7  C6  BZF d   1      -0.154   0.004   3.233  0.00  0.00     0.022 A 
ATOM      8  C7  BZF d   1      -1.142   0.111   2.311  0.00  0.00     0.029 A 
ATOM      9  C7A BZF d   1      -0.767   0.109   0.990  0.00  0.00     0.058 A 
ENDROOT
TORSDOF 0
ENDMDL
