MODEL 1
REMARK minimizedAffinity -2.09697294
REMARK minimizedRMSD -1
REMARK  0 active torsions:
REMARK  status: ('A' for Active; 'I' for Inactive)
ROOT
ATOM      1  O1  BZF d   1      -0.566  -0.179  -0.166  0.00  0.00    -0.204 OA
ATOM      2  C2  BZF d   1       0.294   0.462   0.705  0.00  0.00     0.174 A 
ATOM      3  C3  BZF d   1       1.467   0.740   0.102  0.00  0.00    -0.012 A 
ATOM      4  C3A BZF d   1       1.300   0.324  -1.257  0.00  0.00    -0.107 A 
ATOM      5  C4  BZF d   1       2.111   0.354  -2.355  0.00  0.00     0.055 A 
ATOM      6  C5  BZF d   1       1.671  -0.198  -3.516  0.00  0.00    -0.016 A 
ATOM      7  C6  BZF d   1       0.431  -0.794  -3.613  0.00  0.00     0.022 A 
ATOM      8  C7  BZF d   1      -0.411  -0.844  -2.552  0.00  0.00     0.029 A 
ATOM      9  C7A BZF d   1       0.017  -0.257  -1.387  0.00  0.00     0.058 A 
ENDROOT
TORSDOF 0
ENDMDL
