MODEL 1
REMARK minimizedAffinity -2.99236202
REMARK minimizedRMSD -1
REMARK  0 active torsions:
REMARK  status: ('A' for Active; 'I' for Inactive)
ROOT
ATOM      1  O1  BZF d   1      -1.818   0.998  -0.377  0.00  0.00    -0.204 OA
ATOM      2  C2  BZF d   1      -0.809   0.959  -1.320  0.00  0.00     0.174 A 
ATOM      3  C3  BZF d   1       0.375   0.676  -0.741  0.00  0.00    -0.012 A 
ATOM      4  C3A BZF d   1       0.074   0.437   0.637  0.00  0.00    -0.107 A 
ATOM      5  C4  BZF d   1       0.833   0.096   1.719  0.00  0.00     0.055 A 
ATOM      6  C5  BZF d   1       0.243   0.011   2.940  0.00  0.00    -0.016 A 
ATOM      7  C6  BZF d   1      -1.101   0.266   3.116  0.00  0.00     0.022 A 
ATOM      8  C7  BZF d   1      -1.896   0.604   2.072  0.00  0.00     0.029 A 
ATOM      9  C7A BZF d   1      -1.310   0.658   0.831  0.00  0.00     0.058 A 
ENDROOT
TORSDOF 0
ENDMDL
