MODEL 1
REMARK minimizedAffinity -4.21799421
REMARK minimizedRMSD -1
REMARK  0 active torsions:
REMARK  status: ('A' for Active; 'I' for Inactive)
ROOT
ATOM      1  O1  BZF d   1      -1.026   0.162  -0.935  0.00  0.00    -0.204 OA
ATOM      2  C2  BZF d   1      -0.020   0.478  -1.828  0.00  0.00     0.174 A 
ATOM      3  C3  BZF d   1       1.165   0.587  -1.194  0.00  0.00    -0.012 A 
ATOM      4  C3A BZF d   1       0.899   0.231   0.166  0.00  0.00    -0.107 A 
ATOM      5  C4  BZF d   1       1.681   0.134   1.282  0.00  0.00     0.055 A 
ATOM      6  C5  BZF d   1       1.098  -0.167   2.472  0.00  0.00    -0.016 A 
ATOM      7  C6  BZF d   1      -0.261  -0.372   2.584  0.00  0.00     0.022 A 
ATOM      8  C7  BZF d   1      -1.077  -0.291   1.505  0.00  0.00     0.029 A 
ATOM      9  C7A BZF d   1      -0.487  -0.019   0.295  0.00  0.00     0.058 A 
ENDROOT
TORSDOF 0
ENDMDL
