MODEL 1
REMARK minimizedAffinity -4.28755236
REMARK minimizedRMSD -1
REMARK  0 active torsions:
REMARK  status: ('A' for Active; 'I' for Inactive)
ROOT
ATOM      1  O1  BZF d   1      -2.587   1.047   0.091  0.00  0.00    -0.204 OA
ATOM      2  C2  BZF d   1      -3.202   1.099   1.327  0.00  0.00     0.174 A 
ATOM      3  C3  BZF d   1      -2.298   0.954   2.318  0.00  0.00    -0.012 A 
ATOM      4  C3A BZF d   1      -1.028   0.895   1.662  0.00  0.00    -0.107 A 
ATOM      5  C4  BZF d   1       0.256   0.772   2.111  0.00  0.00     0.055 A 
ATOM      6  C5  BZF d   1       1.266   0.672   1.207  0.00  0.00    -0.016 A 
ATOM      7  C6  BZF d   1       1.027   0.686  -0.152  0.00  0.00     0.022 A 
ATOM      8  C7  BZF d   1      -0.229   0.811  -0.645  0.00  0.00     0.029 A 
ATOM      9  C7A BZF d   1      -1.248   0.946   0.266  0.00  0.00     0.058 A 
ENDROOT
TORSDOF 0
ENDMDL
