MODEL 1
REMARK minimizedAffinity -2.19230533
REMARK minimizedRMSD -1
REMARK  0 active torsions:
REMARK  status: ('A' for Active; 'I' for Inactive)
ROOT
ATOM      1  O1  BZF d   1      -2.169   0.602   2.366  0.00  0.00    -0.204 OA
ATOM      2  C2  BZF d   1      -3.302   0.565   1.577  0.00  0.00     0.174 A 
ATOM      3  C3  BZF d   1      -2.974   0.505   0.271  0.00  0.00    -0.012 A 
ATOM      4  C3A BZF d   1      -1.547   0.411   0.245  0.00  0.00    -0.107 A 
ATOM      5  C4  BZF d   1      -0.631   0.306  -0.762  0.00  0.00     0.055 A 
ATOM      6  C5  BZF d   1       0.693   0.308  -0.454  0.00  0.00    -0.016 A 
ATOM      7  C6  BZF d   1       1.135   0.418   0.848  0.00  0.00     0.022 A 
ATOM      8  C7  BZF d   1       0.264   0.519   1.881  0.00  0.00     0.029 A 
ATOM      9  C7A BZF d   1      -1.075   0.484   1.576  0.00  0.00     0.058 A 
ENDROOT
TORSDOF 0
ENDMDL
