MODEL 1
REMARK minimizedAffinity -0.00351463817
REMARK minimizedRMSD -1
REMARK  0 active torsions:
REMARK  status: ('A' for Active; 'I' for Inactive)
ROOT
ATOM      1  O1  BZF d   1      -0.678  -0.763  -0.496  0.00  0.00    -0.204 OA
ATOM      2  C2  BZF d   1       0.009  -0.010   0.436  0.00  0.00     0.174 A 
ATOM      3  C3  BZF d   1       1.205   0.379  -0.052  0.00  0.00    -0.012 A 
ATOM      4  C3A BZF d   1       1.229  -0.086  -1.405  0.00  0.00    -0.107 A 
ATOM      5  C4  BZF d   1       2.145   0.006  -2.413  0.00  0.00     0.055 A 
ATOM      6  C5  BZF d   1       1.895  -0.620  -3.593  0.00  0.00    -0.016 A 
ATOM      7  C6  BZF d   1       0.742  -1.350  -3.797  0.00  0.00     0.022 A 
ATOM      8  C7  BZF d   1      -0.199  -1.466  -2.828  0.00  0.00     0.029 A 
ATOM      9  C7A BZF d   1       0.037  -0.807  -1.646  0.00  0.00     0.058 A 
ENDROOT
TORSDOF 0
ENDMDL
