MODEL 1
REMARK minimizedAffinity 0.00362429535
REMARK minimizedRMSD -1
REMARK  0 active torsions:
REMARK  status: ('A' for Active; 'I' for Inactive)
ROOT
ATOM      1  O1  BZF d   1      -1.337   0.382   1.848  0.00  0.00    -0.204 OA
ATOM      2  C2  BZF d   1      -2.623   0.180   1.385  0.00  0.00     0.174 A 
ATOM      3  C3  BZF d   1      -3.468   1.094   1.905  0.00  0.00    -0.012 A 
ATOM      4  C3A BZF d   1      -2.643   1.975   2.674  0.00  0.00    -0.107 A 
ATOM      5  C4  BZF d   1      -2.899   3.091   3.417  0.00  0.00     0.055 A 
ATOM      6  C5  BZF d   1      -1.882   3.676   4.103  0.00  0.00    -0.016 A 
ATOM      7  C6  BZF d   1      -0.599   3.169   4.072  0.00  0.00     0.022 A 
ATOM      8  C7  BZF d   1      -0.295   2.066   3.344  0.00  0.00     0.029 A 
ATOM      9  C7A BZF d   1      -1.314   1.492   2.624  0.00  0.00     0.058 A 
ENDROOT
TORSDOF 0
ENDMDL
