MODEL 1
REMARK minimizedAffinity -0.687788904
REMARK minimizedRMSD -1
REMARK  0 active torsions:
REMARK  status: ('A' for Active; 'I' for Inactive)
ROOT
ATOM      1  O1  BZF d   1      -0.965  -0.474  -0.843  0.00  0.00    -0.204 OA
ATOM      2  C2  BZF d   1      -0.339   0.378   0.047  0.00  0.00     0.174 A 
ATOM      3  C3  BZF d   1       0.913   0.664  -0.365  0.00  0.00    -0.012 A 
ATOM      4  C3A BZF d   1       1.048   0.020  -1.636  0.00  0.00    -0.107 A 
ATOM      5  C4  BZF d   1       2.060  -0.051  -2.550  0.00  0.00     0.055 A 
ATOM      6  C5  BZF d   1       1.898  -0.823  -3.657  0.00  0.00    -0.016 A 
ATOM      7  C6  BZF d   1       0.740  -1.540  -3.878  0.00  0.00     0.022 A 
ATOM      8  C7  BZF d   1      -0.293  -1.498  -3.002  0.00  0.00     0.029 A 
ATOM      9  C7A BZF d   1      -0.145  -0.693  -1.899  0.00  0.00     0.058 A 
ENDROOT
TORSDOF 0
ENDMDL
