MODEL 1
REMARK minimizedAffinity -1.44528484
REMARK minimizedRMSD -1
REMARK  0 active torsions:
REMARK  status: ('A' for Active; 'I' for Inactive)
ROOT
ATOM      1  O1  BZF d   1       1.052  -0.066   2.031  0.00  0.00    -0.204 OA
ATOM      2  C2  BZF d   1       1.633  -0.190   0.784  0.00  0.00     0.174 A 
ATOM      3  C3  BZF d   1       0.714  -0.037  -0.190  0.00  0.00    -0.012 A 
ATOM      4  C3A BZF d   1      -0.503   0.289   0.489  0.00  0.00    -0.107 A 
ATOM      5  C4  BZF d   1      -1.769   0.572   0.062  0.00  0.00     0.055 A 
ATOM      6  C5  BZF d   1      -2.746   0.776   0.984  0.00  0.00    -0.016 A 
ATOM      7  C6  BZF d   1      -2.494   0.700   2.339  0.00  0.00     0.022 A 
ATOM      8  C7  BZF d   1      -1.253   0.426   2.809  0.00  0.00     0.029 A 
ATOM      9  C7A BZF d   1      -0.256   0.252   1.881  0.00  0.00     0.058 A 
ENDROOT
TORSDOF 0
ENDMDL
