MODEL 1
REMARK minimizedAffinity -1.56470394
REMARK minimizedRMSD -1
REMARK  0 active torsions:
REMARK  status: ('A' for Active; 'I' for Inactive)
ROOT
ATOM      1  C   UNL d   1       1.099  -1.670   1.901  0.00  0.00     0.124 A 
ATOM      2  C1  UNL d   1       1.710  -1.386   0.688  0.00  0.00     0.062 A 
ATOM      3  C2  UNL d   1       1.062  -0.588  -0.251  0.00  0.00     0.162 A 
ATOM      4  C3  UNL d   1      -0.204  -0.068   0.020  0.00  0.00    -0.034 A 
ATOM      5  C4  UNL d   1      -0.812  -0.360   1.242  0.00  0.00     0.162 A 
ATOM      6  C5  UNL d   1      -0.160  -1.158   2.177  0.00  0.00     0.062 A 
ATOM      7  F   UNL d   1      -0.752  -1.432   3.349  0.00  0.00    -0.097 F 
ATOM      8  F1  UNL d   1      -2.028   0.123   1.535  0.00  0.00    -0.096 F 
ATOM      9  I   UNL d   1      -1.175   1.125  -1.382  0.00  0.00    -0.060 I 
ATOM     10  F2  UNL d   1       1.676  -0.329  -1.415  0.00  0.00    -0.096 F 
ATOM     11  F3  UNL d   1       2.926  -1.880   0.419  0.00  0.00    -0.097 F 
ATOM     12  F4  UNL d   1       1.724  -2.439   2.803  0.00  0.00    -0.092 F 
ENDROOT
TORSDOF 0
ENDMDL
