MODEL 1
REMARK minimizedAffinity -1.43861306
REMARK minimizedRMSD -1
REMARK  0 active torsions:
REMARK  status: ('A' for Active; 'I' for Inactive)
ROOT
ATOM      1  C   UNL d   1       0.285   0.977   0.088  0.00  0.00     0.124 A 
ATOM      2  C1  UNL d   1       1.533   0.432  -0.180  0.00  0.00     0.062 A 
ATOM      3  C2  UNL d   1       1.870  -0.823   0.316  0.00  0.00     0.162 A 
ATOM      4  C3  UNL d   1       0.957  -1.544   1.086  0.00  0.00    -0.034 A 
ATOM      5  C4  UNL d   1      -0.296  -0.990   1.352  0.00  0.00     0.162 A 
ATOM      6  C5  UNL d   1      -0.628   0.266   0.854  0.00  0.00     0.062 A 
ATOM      7  F   UNL d   1      -1.835   0.791   1.114  0.00  0.00    -0.097 F 
ATOM      8  F1  UNL d   1      -1.198  -1.655   2.089  0.00  0.00    -0.096 F 
ATOM      9  I   UNL d   1       1.457  -3.422   1.830  0.00  0.00    -0.060 I 
ATOM     10  F2  UNL d   1       3.083  -1.325   0.041  0.00  0.00    -0.096 F 
ATOM     11  F3  UNL d   1       2.417   1.118  -0.919  0.00  0.00    -0.097 F 
ATOM     12  F4  UNL d   1      -0.037   2.186  -0.390  0.00  0.00    -0.092 F 
ENDROOT
TORSDOF 0
ENDMDL
