MODEL 1
REMARK minimizedAffinity -2.28374863
REMARK minimizedRMSD -1
REMARK  0 active torsions:
REMARK  status: ('A' for Active; 'I' for Inactive)
ROOT
ATOM      1  C   UNL d   1       1.202  -2.367   1.897  0.00  0.00     0.124 A 
ATOM      2  C1  UNL d   1       1.899  -1.692   0.904  0.00  0.00     0.062 A 
ATOM      3  C2  UNL d   1       1.333  -0.582   0.283  0.00  0.00     0.162 A 
ATOM      4  C3  UNL d   1       0.063  -0.139   0.654  0.00  0.00    -0.034 A 
ATOM      5  C4  UNL d   1      -0.632  -0.824   1.653  0.00  0.00     0.162 A 
ATOM      6  C5  UNL d   1      -0.062  -1.933   2.270  0.00  0.00     0.062 A 
ATOM      7  F   UNL d   1      -0.737  -2.584   3.229  0.00  0.00    -0.097 F 
ATOM      8  F1  UNL d   1      -1.854  -0.425   2.033  0.00  0.00    -0.096 F 
ATOM      9  I   UNL d   1      -0.786   1.520  -0.272  0.00  0.00    -0.060 I 
ATOM     10  F2  UNL d   1       2.029   0.051  -0.672  0.00  0.00    -0.096 F 
ATOM     11  F3  UNL d   1       3.120  -2.110   0.541  0.00  0.00    -0.097 F 
ATOM     12  F4  UNL d   1       1.748  -3.435   2.492  0.00  0.00    -0.092 F 
ENDROOT
TORSDOF 0
ENDMDL
