MODEL 1
REMARK minimizedAffinity -4.31103706
REMARK minimizedRMSD -1
REMARK  0 active torsions:
REMARK  status: ('A' for Active; 'I' for Inactive)
ROOT
ATOM      1  C   UNL d   1       0.644  -1.611   1.733  0.00  0.00     0.124 A 
ATOM      2  C1  UNL d   1       1.136  -1.563   0.436  0.00  0.00     0.062 A 
ATOM      3  C2  UNL d   1       0.617  -0.649  -0.476  0.00  0.00     0.162 A 
ATOM      4  C3  UNL d   1      -0.401   0.225  -0.096  0.00  0.00    -0.034 A 
ATOM      5  C4  UNL d   1      -0.892   0.170   1.210  0.00  0.00     0.162 A 
ATOM      6  C5  UNL d   1      -0.370  -0.745   2.118  0.00  0.00     0.062 A 
ATOM      7  F   UNL d   1      -0.848  -0.791   3.371  0.00  0.00    -0.097 F 
ATOM      8  F1  UNL d   1      -1.871   0.995   1.610  0.00  0.00    -0.096 F 
ATOM      9  I   UNL d   1      -1.180   1.592  -1.457  0.00  0.00    -0.060 I 
ATOM     10  F2  UNL d   1       1.113  -0.625  -1.723  0.00  0.00    -0.096 F 
ATOM     11  F3  UNL d   1       2.115  -2.399   0.061  0.00  0.00    -0.097 F 
ATOM     12  F4  UNL d   1       1.144  -2.492   2.609  0.00  0.00    -0.092 F 
ENDROOT
TORSDOF 0
ENDMDL
