MODEL 1
REMARK minimizedAffinity -5.24271917
REMARK minimizedRMSD -1
REMARK  0 active torsions:
REMARK  status: ('A' for Active; 'I' for Inactive)
ROOT
ATOM      1  C   UNL d   1      -0.059   0.811  -0.243  0.00  0.00     0.124 A 
ATOM      2  C1  UNL d   1       1.206   0.241  -0.263  0.00  0.00     0.062 A 
ATOM      3  C2  UNL d   1       1.478  -0.889   0.503  0.00  0.00     0.162 A 
ATOM      4  C3  UNL d   1       0.481  -1.457   1.297  0.00  0.00    -0.034 A 
ATOM      5  C4  UNL d   1      -0.789  -0.877   1.313  0.00  0.00     0.162 A 
ATOM      6  C5  UNL d   1      -1.055   0.252   0.545  0.00  0.00     0.062 A 
ATOM      7  F   UNL d   1      -2.278   0.801   0.566  0.00  0.00    -0.097 F 
ATOM      8  F1  UNL d   1      -1.771  -1.398   2.064  0.00  0.00    -0.096 F 
ATOM      9  I   UNL d   1       0.882  -3.146   2.444  0.00  0.00    -0.060 I 
ATOM     10  F2  UNL d   1       2.709  -1.419   0.464  0.00  0.00    -0.096 F 
ATOM     11  F3  UNL d   1       2.171   0.780  -1.023  0.00  0.00    -0.097 F 
ATOM     12  F4  UNL d   1      -0.317   1.898  -0.981  0.00  0.00    -0.092 F 
ENDROOT
TORSDOF 0
ENDMDL
