MODEL 1
REMARK minimizedAffinity -3.51403403
REMARK minimizedRMSD -1
REMARK  0 active torsions:
REMARK  status: ('A' for Active; 'I' for Inactive)
ROOT
ATOM      1  C   UNL d   1       0.393  -1.964   1.879  0.00  0.00     0.124 A 
ATOM      2  C1  UNL d   1       0.831  -1.929   0.563  0.00  0.00     0.062 A 
ATOM      3  C2  UNL d   1       0.336  -0.968  -0.314  0.00  0.00     0.162 A 
ATOM      4  C3  UNL d   1      -0.602  -0.033   0.122  0.00  0.00    -0.034 A 
ATOM      5  C4  UNL d   1      -1.039  -0.075   1.448  0.00  0.00     0.162 A 
ATOM      6  C5  UNL d   1      -0.541  -1.037   2.320  0.00  0.00     0.062 A 
ATOM      7  F   UNL d   1      -0.966  -1.070   3.592  0.00  0.00    -0.097 F 
ATOM      8  F1  UNL d   1      -1.940   0.809   1.901  0.00  0.00    -0.096 F 
ATOM      9  I   UNL d   1      -1.344   1.405  -1.186  0.00  0.00    -0.060 I 
ATOM     10  F2  UNL d   1       0.778  -0.957  -1.581  0.00  0.00    -0.096 F 
ATOM     11  F3  UNL d   1       1.733  -2.823   0.134  0.00  0.00    -0.097 F 
ATOM     12  F4  UNL d   1       0.870  -2.890   2.721  0.00  0.00    -0.092 F 
ENDROOT
TORSDOF 0
ENDMDL
