MODEL 1
REMARK minimizedAffinity -5.3281045
REMARK minimizedRMSD -1
REMARK  0 active torsions:
REMARK  status: ('A' for Active; 'I' for Inactive)
ROOT
ATOM      1  C   UNL d   1       1.126  -2.567   1.703  0.00  0.00     0.124 A 
ATOM      2  C1  UNL d   1      -0.043  -2.028   2.222  0.00  0.00     0.062 A 
ATOM      3  C2  UNL d   1      -0.639  -0.929   1.611  0.00  0.00     0.162 A 
ATOM      4  C3  UNL d   1      -0.068  -0.362   0.472  0.00  0.00    -0.034 A 
ATOM      5  C4  UNL d   1       1.108  -0.909  -0.044  0.00  0.00     0.162 A 
ATOM      6  C5  UNL d   1       1.700  -2.007   0.570  0.00  0.00     0.062 A 
ATOM      7  F   UNL d   1       2.829  -2.526   0.067  0.00  0.00    -0.097 F 
ATOM      8  F1  UNL d   1       1.684  -0.388  -1.138  0.00  0.00    -0.096 F 
ATOM      9  I   UNL d   1      -0.956   1.282  -0.445  0.00  0.00    -0.060 I 
ATOM     10  F2  UNL d   1      -1.768  -0.429   2.135  0.00  0.00    -0.096 F 
ATOM     11  F3  UNL d   1      -0.599  -2.567   3.317  0.00  0.00    -0.097 F 
ATOM     12  F4  UNL d   1       1.698  -3.624   2.293  0.00  0.00    -0.092 F 
ENDROOT
TORSDOF 0
ENDMDL
