MODEL 1
REMARK minimizedAffinity -1.64632642
REMARK minimizedRMSD -1
REMARK  0 active torsions:
REMARK  status: ('A' for Active; 'I' for Inactive)
ROOT
ATOM      1  C   UNL d   1       0.952  -1.634   2.150  0.00  0.00     0.124 A 
ATOM      2  C1  UNL d   1      -0.314  -1.113   2.376  0.00  0.00     0.062 A 
ATOM      3  C2  UNL d   1      -0.901  -0.269   1.438  0.00  0.00     0.162 A 
ATOM      4  C3  UNL d   1      -0.223   0.058   0.264  0.00  0.00    -0.034 A 
ATOM      5  C4  UNL d   1       1.051  -0.469   0.044  0.00  0.00     0.162 A 
ATOM      6  C5  UNL d   1       1.633  -1.312   0.985  0.00  0.00     0.062 A 
ATOM      7  F   UNL d   1       2.857  -1.815   0.765  0.00  0.00    -0.097 F 
ATOM      8  F1  UNL d   1       1.731  -0.175  -1.074  0.00  0.00    -0.096 F 
ATOM      9  I   UNL d   1      -1.098   1.319  -1.142  0.00  0.00    -0.060 I 
ATOM     10  F2  UNL d   1      -2.126   0.220   1.682  0.00  0.00    -0.096 F 
ATOM     11  F3  UNL d   1      -0.974  -1.422   3.502  0.00  0.00    -0.097 F 
ATOM     12  F4  UNL d   1       1.515  -2.445   3.055  0.00  0.00    -0.092 F 
ENDROOT
TORSDOF 0
ENDMDL
