MODEL 1
REMARK minimizedAffinity -2.84969306
REMARK minimizedRMSD -1
REMARK  0 active torsions:
REMARK  status: ('A' for Active; 'I' for Inactive)
ROOT
ATOM      1  C   UNL d   1       0.957  -1.885   1.887  0.00  0.00     0.124 A 
ATOM      2  C1  UNL d   1       1.537  -1.712   0.638  0.00  0.00     0.062 A 
ATOM      3  C2  UNL d   1       1.016  -0.777  -0.252  0.00  0.00     0.162 A 
ATOM      4  C3  UNL d   1      -0.091  -0.006   0.104  0.00  0.00    -0.034 A 
ATOM      5  C4  UNL d   1      -0.670  -0.187   1.361  0.00  0.00     0.162 A 
ATOM      6  C5  UNL d   1      -0.146  -1.123   2.247  0.00  0.00     0.062 A 
ATOM      7  F   UNL d   1      -0.708  -1.289   3.454  0.00  0.00    -0.097 F 
ATOM      8  F1  UNL d   1      -1.735   0.537   1.736  0.00  0.00    -0.096 F 
ATOM      9  I   UNL d   1      -0.872   1.392  -1.224  0.00  0.00    -0.060 I 
ATOM     10  F2  UNL d   1       1.597  -0.630  -1.452  0.00  0.00    -0.096 F 
ATOM     11  F3  UNL d   1       2.602  -2.447   0.287  0.00  0.00    -0.097 F 
ATOM     12  F4  UNL d   1       1.459  -2.786   2.741  0.00  0.00    -0.092 F 
ENDROOT
TORSDOF 0
ENDMDL
