MODEL 1
REMARK minimizedAffinity -1.65293205
REMARK minimizedRMSD -1
REMARK  0 active torsions:
REMARK  status: ('A' for Active; 'I' for Inactive)
ROOT
ATOM      1  C   UNL d   1       1.083  -2.603   1.588  0.00  0.00     0.124 A 
ATOM      2  C1  UNL d   1      -0.069  -2.053   2.132  0.00  0.00     0.062 A 
ATOM      3  C2  UNL d   1      -0.607  -0.885   1.598  0.00  0.00     0.162 A 
ATOM      4  C3  UNL d   1       0.006  -0.260   0.513  0.00  0.00    -0.034 A 
ATOM      5  C4  UNL d   1       1.166  -0.819  -0.029  0.00  0.00     0.162 A 
ATOM      6  C5  UNL d   1       1.699  -1.985   0.509  0.00  0.00     0.062 A 
ATOM      7  F   UNL d   1       2.813  -2.515  -0.018  0.00  0.00    -0.097 F 
ATOM      8  F1  UNL d   1       1.781  -0.243  -1.072  0.00  0.00    -0.096 F 
ATOM      9  I   UNL d   1      -0.795   1.486  -0.289  0.00  0.00    -0.060 I 
ATOM     10  F2  UNL d   1      -1.722  -0.376   2.144  0.00  0.00    -0.096 F 
ATOM     11  F3  UNL d   1      -0.666  -2.647   3.176  0.00  0.00    -0.097 F 
ATOM     12  F4  UNL d   1       1.599  -3.726   2.104  0.00  0.00    -0.092 F 
ENDROOT
TORSDOF 0
ENDMDL
