MODEL 1
REMARK minimizedAffinity -2.88575912
REMARK minimizedRMSD -1
REMARK  0 active torsions:
REMARK  status: ('A' for Active; 'I' for Inactive)
ROOT
ATOM      1  C   UNL d   1       0.895  -2.319   1.679  0.00  0.00     0.124 A 
ATOM      2  C1  UNL d   1       1.462  -2.163   0.421  0.00  0.00     0.062 A 
ATOM      3  C2  UNL d   1       1.004  -1.166  -0.435  0.00  0.00     0.162 A 
ATOM      4  C3  UNL d   1      -0.027  -0.315  -0.036  0.00  0.00    -0.034 A 
ATOM      5  C4  UNL d   1      -0.593  -0.478   1.230  0.00  0.00     0.162 A 
ATOM      6  C5  UNL d   1      -0.131  -1.477   2.082  0.00  0.00     0.062 A 
ATOM      7  F   UNL d   1      -0.681  -1.625   3.296  0.00  0.00    -0.097 F 
ATOM      8  F1  UNL d   1      -1.586   0.322   1.645  0.00  0.00    -0.096 F 
ATOM      9  I   UNL d   1      -0.715   1.177  -1.313  0.00  0.00    -0.060 I 
ATOM     10  F2  UNL d   1       1.571  -1.039  -1.644  0.00  0.00    -0.096 F 
ATOM     11  F3  UNL d   1       2.454  -2.976   0.030  0.00  0.00    -0.097 F 
ATOM     12  F4  UNL d   1       1.338  -3.280   2.500  0.00  0.00    -0.092 F 
ENDROOT
TORSDOF 0
ENDMDL
