MODEL 1
REMARK minimizedAffinity 0.0256320965
REMARK minimizedRMSD -1
REMARK  0 active torsions:
REMARK  status: ('A' for Active; 'I' for Inactive)
ROOT
ATOM      1  C   UNL d   1      -0.451  -1.593   0.960  0.00  0.00     0.124 A 
ATOM      2  C1  UNL d   1      -1.206  -0.506   1.379  0.00  0.00     0.062 A 
ATOM      3  C2  UNL d   1      -1.309   0.626   0.577  0.00  0.00     0.162 A 
ATOM      4  C3  UNL d   1      -0.656   0.678  -0.654  0.00  0.00    -0.034 A 
ATOM      5  C4  UNL d   1       0.103  -0.418  -1.069  0.00  0.00     0.162 A 
ATOM      6  C5  UNL d   1       0.203  -1.548  -0.264  0.00  0.00     0.062 A 
ATOM      7  F   UNL d   1       0.933  -2.596  -0.671  0.00  0.00    -0.097 F 
ATOM      8  F1  UNL d   1       0.743  -0.401  -2.247  0.00  0.00    -0.096 F 
ATOM      9  I   UNL d   1      -0.808   2.370  -1.857  0.00  0.00    -0.060 I 
ATOM     10  F2  UNL d   1      -2.046   1.661   1.008  0.00  0.00    -0.096 F 
ATOM     11  F3  UNL d   1      -1.837  -0.547   2.561  0.00  0.00    -0.097 F 
ATOM     12  F4  UNL d   1      -0.352  -2.681   1.734  0.00  0.00    -0.092 F 
ENDROOT
TORSDOF 0
ENDMDL
