MODEL 1
REMARK minimizedAffinity -0.871161461
REMARK minimizedRMSD -1
REMARK  0 active torsions:
REMARK  status: ('A' for Active; 'I' for Inactive)
ROOT
ATOM      1  C   UNL d   1       1.139  -1.439   2.112  0.00  0.00     0.124 A 
ATOM      2  C1  UNL d   1      -0.162  -0.995   2.306  0.00  0.00     0.062 A 
ATOM      3  C2  UNL d   1      -0.731  -0.087   1.418  0.00  0.00     0.162 A 
ATOM      4  C3  UNL d   1      -0.000   0.382   0.326  0.00  0.00    -0.034 A 
ATOM      5  C4  UNL d   1       1.307  -0.068   0.138  0.00  0.00     0.162 A 
ATOM      6  C5  UNL d   1       1.872  -0.975   1.029  0.00  0.00     0.062 A 
ATOM      7  F   UNL d   1       3.129  -1.404   0.840  0.00  0.00    -0.097 F 
ATOM      8  F1  UNL d   1       2.038   0.362  -0.901  0.00  0.00    -0.096 F 
ATOM      9  I   UNL d   1      -0.848   1.740  -1.005  0.00  0.00    -0.060 I 
ATOM     10  F2  UNL d   1      -1.990   0.325   1.629  0.00  0.00    -0.096 F 
ATOM     11  F3  UNL d   1      -0.872  -1.440   3.352  0.00  0.00    -0.097 F 
ATOM     12  F4  UNL d   1       1.684  -2.312   2.969  0.00  0.00    -0.092 F 
ENDROOT
TORSDOF 0
ENDMDL
