MODEL 1
REMARK minimizedAffinity -5.04875851
REMARK minimizedRMSD -1
REMARK  0 active torsions:
REMARK  status: ('A' for Active; 'I' for Inactive)
ROOT
ATOM      1  C   UNL d   1       0.598  -2.596   2.097  0.00  0.00     0.124 A 
ATOM      2  C1  UNL d   1       1.306  -2.450   0.913  0.00  0.00     0.062 A 
ATOM      3  C2  UNL d   1       1.004  -1.408   0.041  0.00  0.00     0.162 A 
ATOM      4  C3  UNL d   1      -0.012  -0.503   0.350  0.00  0.00    -0.034 A 
ATOM      5  C4  UNL d   1      -0.721  -0.658   1.543  0.00  0.00     0.162 A 
ATOM      6  C5  UNL d   1      -0.415  -1.701   2.411  0.00  0.00     0.062 A 
ATOM      7  F   UNL d   1      -1.100  -1.841   3.555  0.00  0.00    -0.097 F 
ATOM      8  F1  UNL d   1      -1.704   0.193   1.872  0.00  0.00    -0.096 F 
ATOM      9  I   UNL d   1      -0.468   1.056  -0.951  0.00  0.00    -0.060 I 
ATOM     10  F2  UNL d   1       1.705  -1.290  -1.097  0.00  0.00    -0.096 F 
ATOM     11  F3  UNL d   1       2.285  -3.314   0.607  0.00  0.00    -0.097 F 
ATOM     12  F4  UNL d   1       0.890  -3.600   2.934  0.00  0.00    -0.092 F 
ENDROOT
TORSDOF 0
ENDMDL
