MODEL 1
REMARK minimizedAffinity -3.62063861
REMARK minimizedRMSD -1
REMARK  0 active torsions:
REMARK  status: ('A' for Active; 'I' for Inactive)
ROOT
ATOM      1  C   UNL d   1       0.399  -2.054   1.866  0.00  0.00     0.124 A 
ATOM      2  C1  UNL d   1      -0.667  -1.254   2.251  0.00  0.00     0.062 A 
ATOM      3  C2  UNL d   1      -1.111  -0.230   1.418  0.00  0.00     0.162 A 
ATOM      4  C3  UNL d   1      -0.487  -0.002   0.191  0.00  0.00    -0.034 A 
ATOM      5  C4  UNL d   1       0.585  -0.810  -0.188  0.00  0.00     0.162 A 
ATOM      6  C5  UNL d   1       1.025  -1.832   0.647  0.00  0.00     0.062 A 
ATOM      7  F   UNL d   1       2.055  -2.604   0.274  0.00  0.00    -0.097 F 
ATOM      8  F1  UNL d   1       1.207  -0.618  -1.361  0.00  0.00    -0.096 F 
ATOM      9  I   UNL d   1      -1.147   1.528  -1.057  0.00  0.00    -0.060 I 
ATOM     10  F2  UNL d   1      -2.144   0.528   1.815  0.00  0.00    -0.096 F 
ATOM     11  F3  UNL d   1      -1.273  -1.466   3.428  0.00  0.00    -0.097 F 
ATOM     12  F4  UNL d   1       0.824  -3.038   2.670  0.00  0.00    -0.092 F 
ENDROOT
TORSDOF 0
ENDMDL
