MODEL 1
REMARK minimizedAffinity 5.10596037
REMARK minimizedRMSD -1
REMARK  0 active torsions:
REMARK  status: ('A' for Active; 'I' for Inactive)
ROOT
ATOM      1  C   UNL d   1       0.722  -1.826   2.136  0.00  0.00     0.124 A 
ATOM      2  C1  UNL d   1       1.328  -1.570   0.914  0.00  0.00     0.062 A 
ATOM      3  C2  UNL d   1       0.766  -0.651   0.033  0.00  0.00     0.162 A 
ATOM      4  C3  UNL d   1      -0.409   0.021   0.371  0.00  0.00    -0.034 A 
ATOM      5  C4  UNL d   1      -1.013  -0.243   1.601  0.00  0.00     0.162 A 
ATOM      6  C5  UNL d   1      -0.448  -1.162   2.479  0.00  0.00     0.062 A 
ATOM      7  F   UNL d   1      -1.035  -1.408   3.659  0.00  0.00    -0.097 F 
ATOM      8  F1  UNL d   1      -2.143   0.385   1.958  0.00  0.00    -0.096 F 
ATOM      9  I   UNL d   1      -1.252   1.396  -0.944  0.00  0.00    -0.060 I 
ATOM     10  F2  UNL d   1       1.374  -0.423  -1.141  0.00  0.00    -0.096 F 
ATOM     11  F3  UNL d   1       2.458  -2.211   0.580  0.00  0.00    -0.097 F 
ATOM     12  F4  UNL d   1       1.264  -2.712   2.982  0.00  0.00    -0.092 F 
ENDROOT
TORSDOF 0
ENDMDL
