MODEL 1
REMARK minimizedAffinity -2.968014
REMARK minimizedRMSD -1
REMARK  0 active torsions:
REMARK  status: ('A' for Active; 'I' for Inactive)
ROOT
ATOM      1  C   UNL d   1       1.314  -2.272   1.706  0.00  0.00     0.124 A 
ATOM      2  C1  UNL d   1       1.892  -1.399   0.794  0.00  0.00     0.062 A 
ATOM      3  C2  UNL d   1       1.120  -0.418   0.178  0.00  0.00     0.162 A 
ATOM      4  C3  UNL d   1      -0.238  -0.303   0.474  0.00  0.00    -0.034 A 
ATOM      5  C4  UNL d   1      -0.812  -1.184   1.392  0.00  0.00     0.162 A 
ATOM      6  C5  UNL d   1      -0.037  -2.163   2.004  0.00  0.00     0.062 A 
ATOM      7  F   UNL d   1      -0.597  -3.005   2.885  0.00  0.00    -0.097 F 
ATOM      8  F1  UNL d   1      -2.115  -1.102   1.699  0.00  0.00    -0.096 F 
ATOM      9  I   UNL d   1      -1.396   1.163  -0.444  0.00  0.00    -0.060 I 
ATOM     10  F2  UNL d   1       1.704   0.411  -0.699  0.00  0.00    -0.096 F 
ATOM     11  F3  UNL d   1       3.197  -1.503   0.503  0.00  0.00    -0.097 F 
ATOM     12  F4  UNL d   1       2.059  -3.215   2.296  0.00  0.00    -0.092 F 
ENDROOT
TORSDOF 0
ENDMDL
