MODEL 1
REMARK minimizedAffinity 0.0945438147
REMARK minimizedRMSD -1
REMARK  0 active torsions:
REMARK  status: ('A' for Active; 'I' for Inactive)
ROOT
ATOM      1  C   UNL d   1       0.939  -1.759   1.672  0.00  0.00     0.124 A 
ATOM      2  C1  UNL d   1       1.513  -1.583   0.420  0.00  0.00     0.062 A 
ATOM      3  C2  UNL d   1       0.996  -0.638  -0.461  0.00  0.00     0.162 A 
ATOM      4  C3  UNL d   1      -0.103   0.140  -0.094  0.00  0.00    -0.034 A 
ATOM      5  C4  UNL d   1      -0.675  -0.044   1.166  0.00  0.00     0.162 A 
ATOM      6  C5  UNL d   1      -0.154  -0.989   2.043  0.00  0.00     0.062 A 
ATOM      7  F   UNL d   1      -0.710  -1.158   3.252  0.00  0.00    -0.097 F 
ATOM      8  F1  UNL d   1      -1.732   0.687   1.552  0.00  0.00    -0.096 F 
ATOM      9  I   UNL d   1      -0.879   1.553  -1.408  0.00  0.00    -0.060 I 
ATOM     10  F2  UNL d   1       1.571  -0.490  -1.664  0.00  0.00    -0.096 F 
ATOM     11  F3  UNL d   1       2.569  -2.326   0.058  0.00  0.00    -0.097 F 
ATOM     12  F4  UNL d   1       1.439  -2.669   2.517  0.00  0.00    -0.092 F 
ENDROOT
TORSDOF 0
ENDMDL
