MODEL 1
REMARK minimizedAffinity -2.59907126
REMARK minimizedRMSD -1
REMARK  0 active torsions:
REMARK  status: ('A' for Active; 'I' for Inactive)
ROOT
ATOM      1  C   UNL d   1       1.389  -2.189   2.154  0.00  0.00     0.124 A 
ATOM      2  C1  UNL d   1       2.068  -1.339   1.292  0.00  0.00     0.062 A 
ATOM      3  C2  UNL d   1       1.363  -0.445   0.491  0.00  0.00     0.162 A 
ATOM      4  C3  UNL d   1      -0.030  -0.395   0.549  0.00  0.00    -0.034 A 
ATOM      5  C4  UNL d   1      -0.706  -1.254   1.418  0.00  0.00     0.162 A 
ATOM      6  C5  UNL d   1       0.003  -2.146   2.216  0.00  0.00     0.062 A 
ATOM      7  F   UNL d   1      -0.654  -2.966   3.048  0.00  0.00    -0.097 F 
ATOM      8  F1  UNL d   1      -2.044  -1.233   1.499  0.00  0.00    -0.096 F 
ATOM      9  I   UNL d   1      -1.087   0.940  -0.646  0.00  0.00    -0.060 I 
ATOM     10  F2  UNL d   1       2.045   0.365  -0.332  0.00  0.00    -0.096 F 
ATOM     11  F3  UNL d   1       3.407  -1.379   1.230  0.00  0.00    -0.097 F 
ATOM     12  F4  UNL d   1       2.070  -3.049   2.923  0.00  0.00    -0.092 F 
ENDROOT
TORSDOF 0
ENDMDL
