MODEL 1
REMARK minimizedAffinity 10.2621431
REMARK minimizedRMSD -1
REMARK  0 active torsions:
REMARK  status: ('A' for Active; 'I' for Inactive)
ROOT
ATOM      1  C2' OXE d   1       0.376   5.883   0.304  0.00  0.00     0.078 C 
ATOM      2  C1' OXE d   1       0.303   3.190   1.092  0.00  0.00     0.078 C 
ATOM      3  C1  OXE d   1      -1.003   3.943   1.038  0.00  0.00    -0.078 A 
ATOM      4  C2  OXE d   1      -0.952   5.273   0.696  0.00  0.00    -0.078 A 
ATOM      5  C3  OXE d   1      -2.133   6.000   0.578  0.00  0.00     0.003 A 
ATOM      6  C4  OXE d   1      -3.357   5.430   0.953  0.00  0.00    -0.002 A 
ATOM      7  C5  OXE d   1      -3.425   4.088   1.342  0.00  0.00    -0.002 A 
ATOM      8  C6  OXE d   1      -2.266   3.321   1.348  0.00  0.00     0.003 A 
ENDROOT
TORSDOF 0
ENDMDL
