MODEL 1
REMARK minimizedAffinity 4.06155205
REMARK minimizedRMSD -1
REMARK  0 active torsions:
REMARK  status: ('A' for Active; 'I' for Inactive)
ROOT
ATOM      1  C2' OXE d   1      -2.288  -5.819   0.026  0.00  0.00     0.078 C 
ATOM      2  C1' OXE d   1       0.386  -5.349  -0.688  0.00  0.00     0.078 C 
ATOM      3  C1  OXE d   1      -0.384  -4.215  -0.060  0.00  0.00    -0.078 A 
ATOM      4  C2  OXE d   1      -1.705  -4.439   0.244  0.00  0.00    -0.078 A 
ATOM      5  C3  OXE d   1      -2.446  -3.444   0.875  0.00  0.00     0.003 A 
ATOM      6  C4  OXE d   1      -1.903  -2.168   1.064  0.00  0.00    -0.002 A 
ATOM      7  C5  OXE d   1      -0.571  -1.906   0.725  0.00  0.00    -0.002 A 
ATOM      8  C6  OXE d   1       0.213  -2.929   0.203  0.00  0.00     0.003 A 
ENDROOT
TORSDOF 0
ENDMDL
