MODEL 1
REMARK minimizedAffinity 8.21277046
REMARK minimizedRMSD -1
REMARK  0 active torsions:
REMARK  status: ('A' for Active; 'I' for Inactive)
ROOT
ATOM      1  C2' OXE d   1      -3.472   1.089  -2.102  0.00  0.00     0.078 C 
ATOM      2  C1' OXE d   1      -4.464   3.485  -1.027  0.00  0.00     0.078 C 
ATOM      3  C1  OXE d   1      -4.181   3.442  -2.508  0.00  0.00    -0.078 A 
ATOM      4  C2  OXE d   1      -3.652   2.281  -3.017  0.00  0.00    -0.078 A 
ATOM      5  C3  OXE d   1      -3.423   2.170  -4.386  0.00  0.00     0.003 A 
ATOM      6  C4  OXE d   1      -3.583   3.280  -5.224  0.00  0.00    -0.002 A 
ATOM      7  C5  OXE d   1      -4.084   4.484  -4.718  0.00  0.00    -0.002 A 
ATOM      8  C6  OXE d   1      -4.428   4.569  -3.373  0.00  0.00     0.003 A 
ENDROOT
TORSDOF 0
ENDMDL
