MODEL 1
REMARK minimizedAffinity 3.84535027
REMARK minimizedRMSD -1
REMARK  0 active torsions:
REMARK  status: ('A' for Active; 'I' for Inactive)
ROOT
ATOM      1  C2' OXE d   1       2.903  -3.147   1.756  0.00  0.00     0.078 C 
ATOM      2  C1' OXE d   1       1.129  -1.041   2.305  0.00  0.00     0.078 C 
ATOM      3  C1  OXE d   1       1.539  -1.933   3.450  0.00  0.00    -0.078 A 
ATOM      4  C2  OXE d   1       2.370  -2.989   3.164  0.00  0.00    -0.078 A 
ATOM      5  C3  OXE d   1       2.822  -3.809   4.193  0.00  0.00     0.003 A 
ATOM      6  C4  OXE d   1       2.317  -3.662   5.491  0.00  0.00    -0.002 A 
ATOM      7  C5  OXE d   1       1.438  -2.618   5.796  0.00  0.00    -0.002 A 
ATOM      8  C6  OXE d   1       1.073  -1.720   4.798  0.00  0.00     0.003 A 
ENDROOT
TORSDOF 0
ENDMDL
