MODEL 1
REMARK minimizedAffinity 9.31086636
REMARK minimizedRMSD -1
REMARK  0 active torsions:
REMARK  status: ('A' for Active; 'I' for Inactive)
ROOT
ATOM      1  C2' OXE d   1       2.707  -3.656   2.227  0.00  0.00     0.078 C 
ATOM      2  C1' OXE d   1       1.181  -1.300   2.257  0.00  0.00     0.078 C 
ATOM      3  C1  OXE d   1       1.440  -1.987   3.574  0.00  0.00    -0.078 A 
ATOM      4  C2  OXE d   1       2.148  -3.164   3.545  0.00  0.00    -0.078 A 
ATOM      5  C3  OXE d   1       2.462  -3.810   4.738  0.00  0.00     0.003 A 
ATOM      6  C4  OXE d   1       1.932  -3.354   5.951  0.00  0.00    -0.002 A 
ATOM      7  C5  OXE d   1       1.175  -2.179   5.998  0.00  0.00    -0.002 A 
ATOM      8  C6  OXE d   1       0.956  -1.462   4.827  0.00  0.00     0.003 A 
ENDROOT
TORSDOF 0
ENDMDL
