MODEL 1
REMARK minimizedAffinity 9.02506733
REMARK minimizedRMSD -1
REMARK  0 active torsions:
REMARK  status: ('A' for Active; 'I' for Inactive)
ROOT
ATOM      1  C2' OXE d   1      -3.105   1.032  -2.176  0.00  0.00     0.078 C 
ATOM      2  C1' OXE d   1      -4.262   3.167  -0.769  0.00  0.00     0.078 C 
ATOM      3  C1  OXE d   1      -3.986   3.361  -2.239  0.00  0.00    -0.078 A 
ATOM      4  C2  OXE d   1      -3.376   2.328  -2.909  0.00  0.00    -0.078 A 
ATOM      5  C3  OXE d   1      -3.149   2.433  -4.279  0.00  0.00     0.003 A 
ATOM      6  C4  OXE d   1      -3.394   3.639  -4.947  0.00  0.00    -0.002 A 
ATOM      7  C5  OXE d   1      -3.978   4.717  -4.274  0.00  0.00    -0.002 A 
ATOM      8  C6  OXE d   1      -4.318   4.581  -2.933  0.00  0.00     0.003 A 
ENDROOT
TORSDOF 0
ENDMDL
