MODEL 1
REMARK minimizedAffinity 8.58336353
REMARK minimizedRMSD -1
REMARK  0 active torsions:
REMARK  status: ('A' for Active; 'I' for Inactive)
ROOT
ATOM      1  C2' OXE d   1       0.511  -0.097   5.940  0.00  0.00     0.078 C 
ATOM      2  C1' OXE d   1       0.672  -2.899   6.000  0.00  0.00     0.078 C 
ATOM      3  C1  OXE d   1       0.851  -2.212   4.669  0.00  0.00    -0.078 A 
ATOM      4  C2  OXE d   1       0.723  -0.844   4.641  0.00  0.00    -0.078 A 
ATOM      5  C3  OXE d   1       0.933  -0.157   3.449  0.00  0.00     0.003 A 
ATOM      6  C4  OXE d   1       1.119  -0.856   2.250  0.00  0.00    -0.002 A 
ATOM      7  C5  OXE d   1       1.212  -2.252   2.250  0.00  0.00    -0.002 A 
ATOM      8  C6  OXE d   1       1.123  -2.941   3.454  0.00  0.00     0.003 A 
ENDROOT
TORSDOF 0
ENDMDL
