MODEL 1
REMARK minimizedAffinity 11.5154219
REMARK minimizedRMSD -1
REMARK  0 active torsions:
REMARK  status: ('A' for Active; 'I' for Inactive)
ROOT
ATOM      1  C2' OXE d   1      -1.549  -4.942   0.171  0.00  0.00     0.078 C 
ATOM      2  C1' OXE d   1       0.869  -5.659   1.403  0.00  0.00     0.078 C 
ATOM      3  C1  OXE d   1       0.903  -5.312  -0.065  0.00  0.00    -0.078 A 
ATOM      4  C2  OXE d   1      -0.292  -5.008  -0.670  0.00  0.00    -0.078 A 
ATOM      5  C3  OXE d   1      -0.310  -4.627  -2.009  0.00  0.00     0.003 A 
ATOM      6  C4  OXE d   1       0.856  -4.700  -2.782  0.00  0.00    -0.002 A 
ATOM      7  C5  OXE d   1       2.077  -5.046  -2.194  0.00  0.00    -0.002 A 
ATOM      8  C6  OXE d   1       2.125  -5.313  -0.830  0.00  0.00     0.003 A 
ENDROOT
TORSDOF 0
ENDMDL
