MODEL 1
REMARK minimizedAffinity 7.79896975
REMARK minimizedRMSD -1
REMARK  0 active torsions:
REMARK  status: ('A' for Active; 'I' for Inactive)
ROOT
ATOM      1  C2' OXE d   1       2.421  -4.887   2.040  0.00  0.00     0.078 C 
ATOM      2  C1' OXE d   1       4.220  -3.660   0.268  0.00  0.00     0.078 C 
ATOM      3  C1  OXE d   1       3.206  -2.784   0.961  0.00  0.00    -0.078 A 
ATOM      4  C2  OXE d   1       2.300  -3.399   1.791  0.00  0.00    -0.078 A 
ATOM      5  C3  OXE d   1       1.379  -2.630   2.496  0.00  0.00     0.003 A 
ATOM      6  C4  OXE d   1       1.267  -1.256   2.252  0.00  0.00    -0.002 A 
ATOM      7  C5  OXE d   1       2.155  -0.616   1.380  0.00  0.00    -0.002 A 
ATOM      8  C6  OXE d   1       3.155  -1.356   0.761  0.00  0.00     0.003 A 
ENDROOT
TORSDOF 0
ENDMDL
