MODEL 1
REMARK minimizedAffinity 13.8093109
REMARK minimizedRMSD -1
REMARK  0 active torsions:
REMARK  status: ('A' for Active; 'I' for Inactive)
ROOT
ATOM      1  C2' OXE d   1       0.752  -1.499   2.268  0.00  0.00     0.078 C 
ATOM      2  C1' OXE d   1       2.255  -3.869   2.206  0.00  0.00     0.078 C 
ATOM      3  C1  OXE d   1       1.864  -3.319   3.555  0.00  0.00    -0.078 A 
ATOM      4  C2  OXE d   1       1.169  -2.134   3.577  0.00  0.00    -0.078 A 
ATOM      5  C3  OXE d   1       0.736  -1.611   4.792  0.00  0.00     0.003 A 
ATOM      6  C4  OXE d   1       1.134  -2.199   5.999  0.00  0.00    -0.002 A 
ATOM      7  C5  OXE d   1       1.876  -3.385   6.000  0.00  0.00    -0.002 A 
ATOM      8  C6  OXE d   1       2.212  -3.979   4.789  0.00  0.00     0.003 A 
ENDROOT
TORSDOF 0
ENDMDL
