MODEL 1
REMARK minimizedAffinity 9.21082115
REMARK minimizedRMSD -1
REMARK  0 active torsions:
REMARK  status: ('A' for Active; 'I' for Inactive)
ROOT
ATOM      1  C2' OXE d   1       2.380  -3.776   2.632  0.00  0.00     0.078 C 
ATOM      2  C1' OXE d   1       3.683  -3.218   0.209  0.00  0.00     0.078 C 
ATOM      3  C1  OXE d   1       2.729  -2.182   0.749  0.00  0.00    -0.078 A 
ATOM      4  C2  OXE d   1       2.060  -2.484   1.911  0.00  0.00    -0.078 A 
ATOM      5  C3  OXE d   1       1.209  -1.541   2.481  0.00  0.00     0.003 A 
ATOM      6  C4  OXE d   1       0.911  -0.353   1.803  0.00  0.00    -0.002 A 
ATOM      7  C5  OXE d   1       1.551  -0.044   0.598  0.00  0.00    -0.002 A 
ATOM      8  C6  OXE d   1       2.493  -0.927   0.080  0.00  0.00     0.003 A 
ENDROOT
TORSDOF 0
ENDMDL
