MODEL 1
REMARK minimizedAffinity -4.43984604
REMARK minimizedRMSD -1
REMARK  1 active torsions:
REMARK  status: ('A' for Active; 'I' for Inactive)
REMARK    1  A    between atoms: C1_2  and  C2_3 
ROOT
ATOM      1  C2  UNL d   1       0.437  -0.552  -0.320  0.00  0.00    -0.076 A 
ATOM      2  C3  UNL d   1       0.709  -1.931  -0.368  0.00  0.00     0.004 A 
ATOM      3  C4  UNL d   1       1.745  -2.431  -1.155  0.00  0.00    -0.003 A 
ATOM      4  C5  UNL d   1       2.527  -1.560  -1.906  0.00  0.00     0.000 A 
ATOM      5  C6  UNL d   1       2.283  -0.188  -1.857  0.00  0.00     0.000 A 
ATOM      6  C7  UNL d   1       1.253   0.334  -1.056  0.00  0.00    -0.073 A 
ATOM      7  C8  UNL d   1       1.030   1.821  -1.045  0.00  0.00     0.078 C 
ENDROOT
BRANCH   1   8
ATOM      8  C1  UNL d   1      -0.717  -0.071   0.530  0.00  0.00     0.053 C 
ATOM      9  C   UNL d   1      -0.776  -0.767   1.881  0.00  0.00     0.018 C 
ENDBRANCH   1   8
TORSDOF 1
ENDMDL
