MODEL 1
REMARK minimizedAffinity -4.86470127
REMARK minimizedRMSD -1
REMARK  1 active torsions:
REMARK  status: ('A' for Active; 'I' for Inactive)
REMARK    1  A    between atoms: C1_2  and  C2_3 
ROOT
ATOM      1  C2  UNL d   1       0.589  -0.516  -0.519  0.00  0.00    -0.076 A 
ATOM      2  C3  UNL d   1       0.886   0.835  -0.769  0.00  0.00     0.004 A 
ATOM      3  C4  UNL d   1       1.715   1.204  -1.826  0.00  0.00    -0.003 A 
ATOM      4  C5  UNL d   1       2.261   0.228  -2.652  0.00  0.00     0.000 A 
ATOM      5  C6  UNL d   1       1.963  -1.116  -2.431  0.00  0.00     0.000 A 
ATOM      6  C7  UNL d   1       1.116  -1.504  -1.379  0.00  0.00    -0.073 A 
ATOM      7  C8  UNL d   1       0.834  -2.968  -1.181  0.00  0.00     0.078 C 
ENDROOT
BRANCH   1   8
ATOM      8  C1  UNL d   1      -0.294  -0.858   0.659  0.00  0.00     0.053 C 
ATOM      9  C   UNL d   1       0.082  -0.085   1.914  0.00  0.00     0.018 C 
ENDBRANCH   1   8
TORSDOF 1
ENDMDL
