MODEL 1
REMARK minimizedAffinity -3.34290171
REMARK minimizedRMSD -1
REMARK  1 active torsions:
REMARK  status: ('A' for Active; 'I' for Inactive)
REMARK    1  A    between atoms: C1_2  and  C2_3 
ROOT
ATOM      1  C2  UNL d   1       0.228   0.089   0.412  0.00  0.00    -0.076 A 
ATOM      2  C3  UNL d   1       0.595   1.352  -0.083  0.00  0.00     0.004 A 
ATOM      3  C4  UNL d   1       1.593   1.482  -1.048  0.00  0.00    -0.003 A 
ATOM      4  C5  UNL d   1       2.240   0.351  -1.533  0.00  0.00     0.000 A 
ATOM      5  C6  UNL d   1       1.876  -0.912  -1.065  0.00  0.00     0.000 A 
ATOM      6  C7  UNL d   1       0.861  -1.061  -0.105  0.00  0.00    -0.073 A 
ATOM      7  C8  UNL d   1       0.513  -2.446   0.368  0.00  0.00     0.078 C 
ENDROOT
BRANCH   1   8
ATOM      8  C1  UNL d   1      -0.842   0.012   1.478  0.00  0.00     0.053 C 
ATOM      9  C   UNL d   1      -2.245   0.130   0.903  0.00  0.00     0.018 C 
ENDBRANCH   1   8
TORSDOF 1
ENDMDL
