MODEL 1
REMARK minimizedAffinity -2.65631151
REMARK minimizedRMSD -1
REMARK  1 active torsions:
REMARK  status: ('A' for Active; 'I' for Inactive)
REMARK    1  A    between atoms: C1_2  and  C2_3 
ROOT
ATOM      1  C2  UNL d   1      -2.039   0.760   0.665  0.00  0.00    -0.076 A 
ATOM      2  C3  UNL d   1      -2.002   1.937  -0.103  0.00  0.00     0.004 A 
ATOM      3  C4  UNL d   1      -0.843   2.320  -0.775  0.00  0.00    -0.003 A 
ATOM      4  C5  UNL d   1       0.299   1.531  -0.690  0.00  0.00     0.000 A 
ATOM      5  C6  UNL d   1       0.276   0.351   0.052  0.00  0.00     0.000 A 
ATOM      6  C7  UNL d   1      -0.890  -0.057   0.722  0.00  0.00    -0.073 A 
ATOM      7  C8  UNL d   1      -0.857  -1.336   1.514  0.00  0.00     0.078 C 
ENDROOT
BRANCH   1   8
ATOM      8  C1  UNL d   1      -3.317   0.410   1.394  0.00  0.00     0.053 C 
ATOM      9  C   UNL d   1      -3.305   0.870   2.843  0.00  0.00     0.018 C 
ENDBRANCH   1   8
TORSDOF 1
ENDMDL
