MODEL 1
REMARK minimizedAffinity -3.38176727
REMARK minimizedRMSD -1
REMARK  1 active torsions:
REMARK  status: ('A' for Active; 'I' for Inactive)
REMARK    1  A    between atoms: C1_2  and  C2_3 
ROOT
ATOM      1  C2  UNL d   1       0.844  -0.637  -0.715  0.00  0.00    -0.076 A 
ATOM      2  C3  UNL d   1       1.572   0.285  -1.488  0.00  0.00     0.004 A 
ATOM      3  C4  UNL d   1       2.646  -0.129  -2.274  0.00  0.00    -0.003 A 
ATOM      4  C5  UNL d   1       3.010  -1.470  -2.300  0.00  0.00     0.000 A 
ATOM      5  C6  UNL d   1       2.288  -2.401  -1.553  0.00  0.00     0.000 A 
ATOM      6  C7  UNL d   1       1.192  -2.003  -0.768  0.00  0.00    -0.073 A 
ATOM      7  C8  UNL d   1       0.453  -3.048   0.022  0.00  0.00     0.078 C 
ENDROOT
BRANCH   1   8
ATOM      8  C1  UNL d   1      -0.294  -0.126   0.139  0.00  0.00     0.053 C 
ATOM      9  C   UNL d   1       0.190   0.689   1.328  0.00  0.00     0.018 C 
ENDBRANCH   1   8
TORSDOF 1
ENDMDL
