MODEL 1
REMARK minimizedAffinity -3.64310837
REMARK minimizedRMSD -1
REMARK  1 active torsions:
REMARK  status: ('A' for Active; 'I' for Inactive)
REMARK    1  A    between atoms: C1_2  and  C2_3 
ROOT
ATOM      1  C2  UNL d   1       0.702  -0.393   0.075  0.00  0.00    -0.076 A 
ATOM      2  C3  UNL d   1       0.821   1.006  -0.007  0.00  0.00     0.004 A 
ATOM      3  C4  UNL d   1       1.645   1.601  -0.961  0.00  0.00    -0.003 A 
ATOM      4  C5  UNL d   1       2.361   0.808  -1.850  0.00  0.00     0.000 A 
ATOM      5  C6  UNL d   1       2.241  -0.580  -1.795  0.00  0.00     0.000 A 
ATOM      6  C7  UNL d   1       1.403  -1.196  -0.850  0.00  0.00    -0.073 A 
ATOM      7  C8  UNL d   1       1.315  -2.698  -0.832  0.00  0.00     0.078 C 
ENDROOT
BRANCH   1   8
ATOM      8  C1  UNL d   1      -0.185  -0.983   1.148  0.00  0.00     0.053 C 
ATOM      9  C   UNL d   1      -1.329  -0.057   1.532  0.00  0.00     0.018 C 
ENDBRANCH   1   8
TORSDOF 1
ENDMDL
