MODEL 1
REMARK minimizedAffinity -0.608889997
REMARK minimizedRMSD -1
REMARK  1 active torsions:
REMARK  status: ('A' for Active; 'I' for Inactive)
REMARK    1  A    between atoms: C1_2  and  C2_3 
ROOT
ATOM      1  C2  UNL d   1      -1.247   0.206   1.012  0.00  0.00    -0.076 A 
ATOM      2  C3  UNL d   1      -1.148   1.280   0.112  0.00  0.00     0.004 A 
ATOM      3  C4  UNL d   1      -0.106   1.349  -0.812  0.00  0.00    -0.003 A 
ATOM      4  C5  UNL d   1       0.854   0.344  -0.850  0.00  0.00     0.000 A 
ATOM      5  C6  UNL d   1       0.761  -0.739   0.025  0.00  0.00     0.000 A 
ATOM      6  C7  UNL d   1      -0.292  -0.831   0.951  0.00  0.00    -0.073 A 
ATOM      7  C8  UNL d   1      -0.339  -2.018   1.874  0.00  0.00     0.078 C 
ENDROOT
BRANCH   1   8
ATOM      8  C1  UNL d   1      -2.384   0.199   2.009  0.00  0.00     0.053 C 
ATOM      9  C   UNL d   1      -3.575  -0.615   1.529  0.00  0.00     0.018 C 
ENDBRANCH   1   8
TORSDOF 1
ENDMDL
