MODEL 1
REMARK minimizedAffinity -3.8995676
REMARK minimizedRMSD -1
REMARK  1 active torsions:
REMARK  status: ('A' for Active; 'I' for Inactive)
REMARK    1  A    between atoms: C1_2  and  C2_3 
ROOT
ATOM      1  C2  UNL d   1       0.483   0.728  -0.368  0.00  0.00    -0.076 A 
ATOM      2  C3  UNL d   1       0.558   0.297   0.968  0.00  0.00     0.004 A 
ATOM      3  C4  UNL d   1      -0.597   0.012   1.695  0.00  0.00    -0.003 A 
ATOM      4  C5  UNL d   1      -1.844   0.152   1.098  0.00  0.00     0.000 A 
ATOM      5  C6  UNL d   1      -1.936   0.561  -0.232  0.00  0.00     0.000 A 
ATOM      6  C7  UNL d   1      -0.781   0.837  -0.985  0.00  0.00    -0.073 A 
ATOM      7  C8  UNL d   1      -0.939   1.280  -2.413  0.00  0.00     0.078 C 
ENDROOT
BRANCH   1   8
ATOM      8  C1  UNL d   1       1.768   1.048  -1.098  0.00  0.00     0.053 C 
ATOM      9  C   UNL d   1       2.292  -0.132  -1.902  0.00  0.00     0.018 C 
ENDBRANCH   1   8
TORSDOF 1
ENDMDL
