MODEL 1
REMARK minimizedAffinity -2.16225696
REMARK minimizedRMSD -1
REMARK  1 active torsions:
REMARK  status: ('A' for Active; 'I' for Inactive)
REMARK    1  A    between atoms: C1_2  and  C2_3 
ROOT
ATOM      1  C2  UNL d   1       0.227   0.058   0.124  0.00  0.00    -0.076 A 
ATOM      2  C3  UNL d   1       0.532   1.389  -0.209  0.00  0.00     0.004 A 
ATOM      3  C4  UNL d   1       1.394   1.684  -1.265  0.00  0.00    -0.003 A 
ATOM      4  C5  UNL d   1       1.962   0.653  -2.004  0.00  0.00     0.000 A 
ATOM      5  C6  UNL d   1       1.656  -0.672  -1.699  0.00  0.00     0.000 A 
ATOM      6  C7  UNL d   1       0.777  -0.987  -0.648  0.00  0.00    -0.073 A 
ATOM      7  C8  UNL d   1       0.487  -2.434  -0.358  0.00  0.00     0.078 C 
ENDROOT
BRANCH   1   8
ATOM      8  C1  UNL d   1      -0.692  -0.201   1.297  0.00  0.00     0.053 C 
ATOM      9  C   UNL d   1      -2.129   0.207   1.012  0.00  0.00     0.018 C 
ENDBRANCH   1   8
TORSDOF 1
ENDMDL
