MODEL 1
REMARK minimizedAffinity -1.43430972
REMARK minimizedRMSD -1
REMARK  1 active torsions:
REMARK  status: ('A' for Active; 'I' for Inactive)
REMARK    1  A    between atoms: C1_2  and  C2_3 
ROOT
ATOM      1  C2  UNL d   1      -0.879   0.392   0.841  0.00  0.00    -0.076 A 
ATOM      2  C3  UNL d   1      -1.632   1.533   0.514  0.00  0.00     0.004 A 
ATOM      3  C4  UNL d   1      -2.824   1.821   1.179  0.00  0.00    -0.003 A 
ATOM      4  C5  UNL d   1      -3.280   0.972   2.181  0.00  0.00     0.000 A 
ATOM      5  C6  UNL d   1      -2.537  -0.154   2.531  0.00  0.00     0.000 A 
ATOM      6  C7  UNL d   1      -1.325  -0.450   1.882  0.00  0.00    -0.073 A 
ATOM      7  C8  UNL d   1      -0.567  -1.682   2.295  0.00  0.00     0.078 C 
ENDROOT
BRANCH   1   8
ATOM      8  C1  UNL d   1       0.391   0.117   0.068  0.00  0.00     0.053 C 
ATOM      9  C   UNL d   1       1.040   1.388  -0.457  0.00  0.00     0.018 C 
ENDBRANCH   1   8
TORSDOF 1
ENDMDL
