MODEL 1
REMARK minimizedAffinity 6.216012
REMARK minimizedRMSD -1
REMARK  2 active torsions:
REMARK  status: ('A' for Active; 'I' for Inactive)
REMARK    1  A    between atoms: C2'_3  and  C1'_4 
REMARK    2  A    between atoms: C1'_4  and  C1_5 
ROOT
ATOM      1  C1  I4B d   1       4.260   0.194  -4.329  0.00  0.00    -0.075 A 
ATOM      2  C2  I4B d   1       5.430   0.742  -3.867  0.00  0.00     0.003 A 
ATOM      3  C3  I4B d   1       5.952   1.915  -4.464  0.00  0.00     0.002 A 
ATOM      4  C4  I4B d   1       5.304   2.474  -5.546  0.00  0.00    -0.004 A 
ATOM      5  C5  I4B d   1       4.105   1.930  -5.999  0.00  0.00     0.002 A 
ATOM      6  C6  I4B d   1       3.573   0.790  -5.379  0.00  0.00     0.003 A 
ENDROOT
BRANCH   1   7
ATOM      7  C1' I4B d   1       3.753  -1.064  -3.697  0.00  0.00     0.060 C 
BRANCH   7   8
ATOM      8  C2' I4B d   1       2.249  -0.947  -3.565  0.00  0.00    -0.013 C 
ATOM      9  C4' I4B d   1       1.546  -2.021  -4.353  0.00  0.00     0.013 C 
ATOM     10  C3' I4B d   1       1.904  -1.032  -2.108  0.00  0.00     0.013 C 
ENDBRANCH   7   8
ENDBRANCH   1   7
TORSDOF 2
ENDMDL
