MODEL 1
REMARK minimizedAffinity 7.06660271
REMARK minimizedRMSD -1
REMARK  2 active torsions:
REMARK  status: ('A' for Active; 'I' for Inactive)
REMARK    1  A    between atoms: C2'_3  and  C1'_4 
REMARK    2  A    between atoms: C1'_4  and  C1_5 
ROOT
ATOM      1  C1  I4B d   1      -2.766  -5.987   1.584  0.00  0.00    -0.075 A 
ATOM      2  C2  I4B d   1      -1.763  -5.988   0.646  0.00  0.00     0.003 A 
ATOM      3  C3  I4B d   1      -0.407  -5.992   1.054  0.00  0.00     0.002 A 
ATOM      4  C4  I4B d   1      -0.101  -5.943   2.398  0.00  0.00    -0.004 A 
ATOM      5  C5  I4B d   1      -1.119  -5.965   3.347  0.00  0.00     0.002 A 
ATOM      6  C6  I4B d   1      -2.460  -5.999   2.938  0.00  0.00     0.003 A 
ENDROOT
BRANCH   1   7
ATOM      7  C1' I4B d   1      -4.187  -5.949   1.118  0.00  0.00     0.060 C 
BRANCH   7   8
ATOM      8  C2' I4B d   1      -4.975  -5.097   2.092  0.00  0.00    -0.013 C 
ATOM      9  C4' I4B d   1      -5.734  -4.011   1.375  0.00  0.00     0.013 C 
ATOM     10  C3' I4B d   1      -5.904  -5.998   2.849  0.00  0.00     0.013 C 
ENDBRANCH   7   8
ENDBRANCH   1   7
TORSDOF 2
ENDMDL
