MODEL 1
REMARK minimizedAffinity 17.4824047
REMARK minimizedRMSD -1
REMARK  2 active torsions:
REMARK  status: ('A' for Active; 'I' for Inactive)
REMARK    1  A    between atoms: C2'_3  and  C1'_4 
REMARK    2  A    between atoms: C1'_4  and  C1_5 
ROOT
ATOM      1  C1  I4B d   1       0.327  -1.089  -1.127  0.00  0.00    -0.075 A 
ATOM      2  C2  I4B d   1       1.118  -1.364  -2.215  0.00  0.00     0.003 A 
ATOM      3  C3  I4B d   1       0.613  -2.143  -3.284  0.00  0.00     0.002 A 
ATOM      4  C4  I4B d   1      -0.661  -2.666  -3.201  0.00  0.00    -0.004 A 
ATOM      5  C5  I4B d   1      -1.469  -2.367  -2.108  0.00  0.00     0.002 A 
ATOM      6  C6  I4B d   1      -0.977  -1.563  -1.070  0.00  0.00     0.003 A 
ENDROOT
BRANCH   1   7
ATOM      7  C1' I4B d   1       0.903  -0.291  -0.001  0.00  0.00     0.060 C 
BRANCH   7   8
ATOM      8  C2' I4B d   1       0.106   0.992   0.118  0.00  0.00    -0.013 C 
ATOM      9  C4' I4B d   1      -0.291   1.258   1.546  0.00  0.00     0.013 C 
ATOM     10  C3' I4B d   1       0.943   2.110  -0.428  0.00  0.00     0.013 C 
ENDBRANCH   7   8
ENDBRANCH   1   7
TORSDOF 2
ENDMDL
