MODEL 1
REMARK minimizedAffinity 2.79031754
REMARK minimizedRMSD -1
REMARK  2 active torsions:
REMARK  status: ('A' for Active; 'I' for Inactive)
REMARK    1  A    between atoms: C2'_3  and  C1'_4 
REMARK    2  A    between atoms: C1'_4  and  C1_5 
ROOT
ATOM      1  C1  I4B d   1      -3.512  -5.998   1.957  0.00  0.00    -0.075 A 
ATOM      2  C2  I4B d   1      -3.588  -5.995   3.328  0.00  0.00     0.003 A 
ATOM      3  C3  I4B d   1      -4.849  -5.982   3.972  0.00  0.00     0.002 A 
ATOM      4  C4  I4B d   1      -6.000  -5.922   3.212  0.00  0.00    -0.004 A 
ATOM      5  C5  I4B d   1      -5.921  -5.948   1.823  0.00  0.00     0.002 A 
ATOM      6  C6  I4B d   1      -4.670  -5.999   1.191  0.00  0.00     0.003 A 
ENDROOT
BRANCH   1   7
ATOM      7  C1' I4B d   1      -2.164  -5.978   1.310  0.00  0.00     0.060 C 
BRANCH   7   8
ATOM      8  C2' I4B d   1      -1.201  -5.293   2.258  0.00  0.00    -0.013 C 
ATOM      9  C4' I4B d   1       0.137  -5.984   2.271  0.00  0.00     0.013 C 
ATOM     10  C3' I4B d   1      -1.067  -3.862   1.828  0.00  0.00     0.013 C 
ENDBRANCH   7   8
ENDBRANCH   1   7
TORSDOF 2
ENDMDL
