MODEL 1
REMARK minimizedAffinity 6.55819464
REMARK minimizedRMSD -1
REMARK  2 active torsions:
REMARK  status: ('A' for Active; 'I' for Inactive)
REMARK    1  A    between atoms: C2'_3  and  C1'_4 
REMARK    2  A    between atoms: C1'_4  and  C1_5 
ROOT
ATOM      1  C1  I4B d   1      -3.243  -0.945   4.462  0.00  0.00    -0.075 A 
ATOM      2  C2  I4B d   1      -4.097  -0.478   3.494  0.00  0.00     0.003 A 
ATOM      3  C3  I4B d   1      -5.476  -0.323   3.775  0.00  0.00     0.002 A 
ATOM      4  C4  I4B d   1      -5.963  -0.691   5.012  0.00  0.00    -0.004 A 
ATOM      5  C5  I4B d   1      -5.092  -1.142   6.000  0.00  0.00     0.002 A 
ATOM      6  C6  I4B d   1      -3.721  -1.258   5.727  0.00  0.00     0.003 A 
ENDROOT
BRANCH   1   7
ATOM      7  C1' I4B d   1      -1.798  -1.128   4.121  0.00  0.00     0.060 C 
BRANCH   7   8
ATOM      8  C2' I4B d   1      -1.607  -0.735   2.670  0.00  0.00    -0.013 C 
ATOM      9  C4' I4B d   1      -0.708   0.466   2.544  0.00  0.00     0.013 C 
ATOM     10  C3' I4B d   1      -1.039  -1.916   1.942  0.00  0.00     0.013 C 
ENDBRANCH   7   8
ENDBRANCH   1   7
TORSDOF 2
ENDMDL
