MODEL 1
REMARK minimizedAffinity 7.39717197
REMARK minimizedRMSD -1
REMARK  2 active torsions:
REMARK  status: ('A' for Active; 'I' for Inactive)
REMARK    1  A    between atoms: C2'_3  and  C1'_4 
REMARK    2  A    between atoms: C1'_4  and  C1_5 
ROOT
ATOM      1  C1  I4B d   1      -1.042  -5.968   1.546  0.00  0.00    -0.075 A 
ATOM      2  C2  I4B d   1      -1.741  -5.935   2.727  0.00  0.00     0.003 A 
ATOM      3  C3  I4B d   1      -3.157  -5.913   2.717  0.00  0.00     0.002 A 
ATOM      4  C4  I4B d   1      -3.827  -5.875   1.511  0.00  0.00    -0.004 A 
ATOM      5  C5  I4B d   1      -3.117  -5.932   0.315  0.00  0.00     0.002 A 
ATOM      6  C6  I4B d   1      -1.716  -5.991   0.332  0.00  0.00     0.003 A 
ENDROOT
BRANCH   1   7
ATOM      7  C1' I4B d   1       0.454  -5.957   1.594  0.00  0.00     0.060 C 
BRANCH   7   8
ATOM      8  C2' I4B d   1       0.874  -5.459   2.962  0.00  0.00    -0.013 C 
ATOM      9  C4' I4B d   1      -0.033  -5.994   4.039  0.00  0.00     0.013 C 
ATOM     10  C3' I4B d   1       2.294  -5.881   3.192  0.00  0.00     0.013 C 
ENDBRANCH   7   8
ENDBRANCH   1   7
TORSDOF 2
ENDMDL
