MODEL 1
REMARK minimizedAffinity 17.9369411
REMARK minimizedRMSD -1
REMARK  2 active torsions:
REMARK  status: ('A' for Active; 'I' for Inactive)
REMARK    1  A    between atoms: C2'_3  and  C1'_4 
REMARK    2  A    between atoms: C1'_4  and  C1_5 
ROOT
ATOM      1  C1  I4B d   1      -3.454  -0.205   4.256  0.00  0.00    -0.075 A 
ATOM      2  C2  I4B d   1      -3.935   0.917   3.627  0.00  0.00     0.003 A 
ATOM      3  C3  I4B d   1      -5.217   1.422   3.953  0.00  0.00     0.002 A 
ATOM      4  C4  I4B d   1      -5.999   0.750   4.871  0.00  0.00    -0.004 A 
ATOM      5  C5  I4B d   1      -5.500  -0.373   5.524  0.00  0.00     0.002 A 
ATOM      6  C6  I4B d   1      -4.215  -0.847   5.223  0.00  0.00     0.003 A 
ENDROOT
BRANCH   1   7
ATOM      7  C1' I4B d   1      -2.109  -0.730   3.863  0.00  0.00     0.060 C 
BRANCH   7   8
ATOM      8  C2' I4B d   1      -1.810  -0.245   2.459  0.00  0.00    -0.013 C 
ATOM      9  C4' I4B d   1      -0.815   0.886   2.473  0.00  0.00     0.013 C 
ATOM     10  C3' I4B d   1      -1.295  -1.409   1.667  0.00  0.00     0.013 C 
ENDBRANCH   7   8
ENDBRANCH   1   7
TORSDOF 2
ENDMDL
