MODEL 1
REMARK minimizedAffinity 10.2785568
REMARK minimizedRMSD -1
REMARK  2 active torsions:
REMARK  status: ('A' for Active; 'I' for Inactive)
REMARK    1  A    between atoms: C2'_3  and  C1'_4 
REMARK    2  A    between atoms: C1'_4  and  C1_5 
ROOT
ATOM      1  C1  I4B d   1       1.132  -2.279  -3.820  0.00  0.00    -0.075 A 
ATOM      2  C2  I4B d   1       0.761  -3.491  -4.348  0.00  0.00     0.003 A 
ATOM      3  C3  I4B d   1      -0.593  -3.740  -4.679  0.00  0.00     0.002 A 
ATOM      4  C4  I4B d   1      -1.545  -2.775  -4.419  0.00  0.00    -0.004 A 
ATOM      5  C5  I4B d   1      -1.163  -1.539  -3.905  0.00  0.00     0.002 A 
ATOM      6  C6  I4B d   1       0.185  -1.284  -3.615  0.00  0.00     0.003 A 
ENDROOT
BRANCH   1   7
ATOM      7  C1' I4B d   1       2.565  -2.062  -3.452  0.00  0.00     0.060 C 
BRANCH   7   8
ATOM      8  C2' I4B d   1       2.635  -0.858  -2.536  0.00  0.00    -0.013 C 
ATOM      9  C4' I4B d   1       2.877  -1.272  -1.108  0.00  0.00     0.013 C 
ATOM     10  C3' I4B d   1       3.729   0.040  -3.032  0.00  0.00     0.013 C 
ENDBRANCH   7   8
ENDBRANCH   1   7
TORSDOF 2
ENDMDL
