MODEL 1
REMARK minimizedAffinity 11.0048227
REMARK minimizedRMSD -1
REMARK  2 active torsions:
REMARK  status: ('A' for Active; 'I' for Inactive)
REMARK    1  A    between atoms: C2'_3  and  C1'_4 
REMARK    2  A    between atoms: C1'_4  and  C1_5 
ROOT
ATOM      1  C1  I4B d   1      -0.792  -5.994   3.679  0.00  0.00    -0.075 A 
ATOM      2  C2  I4B d   1       0.224  -5.988   2.756  0.00  0.00     0.003 A 
ATOM      3  C3  I4B d   1       1.574  -5.976   3.183  0.00  0.00     0.002 A 
ATOM      4  C4  I4B d   1       1.860  -5.919   4.531  0.00  0.00    -0.004 A 
ATOM      5  C5  I4B d   1       0.829  -5.948   5.466  0.00  0.00     0.002 A 
ATOM      6  C6  I4B d   1      -0.506  -5.998   5.038  0.00  0.00     0.003 A 
ENDROOT
BRANCH   1   7
ATOM      7  C1' I4B d   1      -2.207  -5.973   3.193  0.00  0.00     0.060 C 
BRANCH   7   8
ATOM      8  C2' I4B d   1      -2.189  -5.632   1.717  0.00  0.00    -0.013 C 
ATOM      9  C4' I4B d   1      -3.492  -6.000   1.057  0.00  0.00     0.013 C 
ATOM     10  C3' I4B d   1      -1.910  -4.165   1.584  0.00  0.00     0.013 C 
ENDBRANCH   7   8
ENDBRANCH   1   7
TORSDOF 2
ENDMDL
