MODEL 1
REMARK minimizedAffinity 9.88813019
REMARK minimizedRMSD -1
REMARK  2 active torsions:
REMARK  status: ('A' for Active; 'I' for Inactive)
REMARK    1  A    between atoms: C2'_3  and  C1'_4 
REMARK    2  A    between atoms: C1'_4  and  C1_5 
ROOT
ATOM      1  C1  I4B d   1       0.526  -2.317  -4.212  0.00  0.00    -0.075 A 
ATOM      2  C2  I4B d   1       0.170  -3.586  -3.830  0.00  0.00     0.003 A 
ATOM      3  C3  I4B d   1      -1.196  -3.931  -3.687  0.00  0.00     0.002 A 
ATOM      4  C4  I4B d   1      -2.165  -2.968  -3.886  0.00  0.00    -0.004 A 
ATOM      5  C5  I4B d   1      -1.803  -1.688  -4.296  0.00  0.00     0.002 A 
ATOM      6  C6  I4B d   1      -0.450  -1.363  -4.472  0.00  0.00     0.003 A 
ENDROOT
BRANCH   1   7
ATOM      7  C1' I4B d   1       1.979  -1.978  -4.320  0.00  0.00     0.060 C 
BRANCH   7   8
ATOM      8  C2' I4B d   1       2.263  -0.831  -3.372  0.00  0.00    -0.013 C 
ATOM      9  C4' I4B d   1       2.180  -1.278  -1.936  0.00  0.00     0.013 C 
ATOM     10  C3' I4B d   1       3.624  -0.291  -3.694  0.00  0.00     0.013 C 
ENDBRANCH   7   8
ENDBRANCH   1   7
TORSDOF 2
ENDMDL
