MODEL 1
REMARK minimizedAffinity 13.6044884
REMARK minimizedRMSD -1
REMARK  2 active torsions:
REMARK  status: ('A' for Active; 'I' for Inactive)
REMARK    1  A    between atoms: C2'_3  and  C1'_4 
REMARK    2  A    between atoms: C1'_4  and  C1_5 
ROOT
ATOM      1  C1  I4B d   1      -0.060  -1.903  -3.749  0.00  0.00    -0.075 A 
ATOM      2  C2  I4B d   1      -0.981  -2.369  -2.843  0.00  0.00     0.003 A 
ATOM      3  C3  I4B d   1      -1.862  -3.419  -3.198  0.00  0.00     0.002 A 
ATOM      4  C4  I4B d   1      -1.822  -3.937  -4.476  0.00  0.00    -0.004 A 
ATOM      5  C5  I4B d   1      -0.874  -3.479  -5.386  0.00  0.00     0.002 A 
ATOM      6  C6  I4B d   1       0.022  -2.465  -5.017  0.00  0.00     0.003 A 
ENDROOT
BRANCH   1   7
ATOM      7  C1' I4B d   1       0.833  -0.771  -3.352  0.00  0.00     0.060 C 
BRANCH   7   8
ATOM      8  C2' I4B d   1       2.143  -1.357  -2.867  0.00  0.00    -0.013 C 
ATOM      9  C4' I4B d   1       3.316  -0.546  -3.352  0.00  0.00     0.013 C 
ATOM     10  C3' I4B d   1       2.101  -1.407  -1.369  0.00  0.00     0.013 C 
ENDBRANCH   7   8
ENDBRANCH   1   7
TORSDOF 2
ENDMDL
