MODEL 1
REMARK minimizedAffinity 16.2581787
REMARK minimizedRMSD -1
REMARK  2 active torsions:
REMARK  status: ('A' for Active; 'I' for Inactive)
REMARK    1  A    between atoms: C2'_3  and  C1'_4 
REMARK    2  A    between atoms: C1'_4  and  C1_5 
ROOT
ATOM      1  C1  I4B d   1      -0.391   1.339   1.507  0.00  0.00    -0.075 A 
ATOM      2  C2  I4B d   1      -0.847   1.022   0.252  0.00  0.00     0.003 A 
ATOM      3  C3  I4B d   1       0.009   1.144  -0.870  0.00  0.00     0.002 A 
ATOM      4  C4  I4B d   1       1.288   1.633  -0.698  0.00  0.00    -0.004 A 
ATOM      5  C5  I4B d   1       1.756   1.933   0.578  0.00  0.00     0.002 A 
ATOM      6  C6  I4B d   1       0.916   1.774   1.689  0.00  0.00     0.003 A 
ENDROOT
BRANCH   1   7
ATOM      7  C1' I4B d   1      -1.331   1.230   2.665  0.00  0.00     0.060 C 
BRANCH   7   8
ATOM      8  C2' I4B d   1      -1.433  -0.233   3.046  0.00  0.00    -0.013 C 
ATOM      9  C4' I4B d   1      -2.759  -0.537   3.693  0.00  0.00     0.013 C 
ATOM     10  C3' I4B d   1      -1.238  -1.050   1.804  0.00  0.00     0.013 C 
ENDBRANCH   7   8
ENDBRANCH   1   7
TORSDOF 2
ENDMDL
