MODEL 1
REMARK minimizedAffinity 10.4784412
REMARK minimizedRMSD -1
REMARK  2 active torsions:
REMARK  status: ('A' for Active; 'I' for Inactive)
REMARK    1  A    between atoms: C2'_3  and  C1'_4 
REMARK    2  A    between atoms: C1'_4  and  C1_5 
ROOT
ATOM      1  C1  I4B d   1      -1.253  -2.041   1.533  0.00  0.00    -0.075 A 
ATOM      2  C2  I4B d   1      -0.447  -1.413   0.617  0.00  0.00     0.003 A 
ATOM      3  C3  I4B d   1      -0.023  -0.080   0.837  0.00  0.00     0.002 A 
ATOM      4  C4  I4B d   1      -0.467   0.599   1.953  0.00  0.00    -0.004 A 
ATOM      5  C5  I4B d   1      -1.266  -0.047   2.892  0.00  0.00     0.002 A 
ATOM      6  C6  I4B d   1      -1.652  -1.380   2.688  0.00  0.00     0.003 A 
ENDROOT
BRANCH   1   7
ATOM      7  C1' I4B d   1      -1.709  -3.438   1.253  0.00  0.00     0.060 C 
BRANCH   7   8
ATOM      8  C2' I4B d   1      -0.624  -4.386   1.721  0.00  0.00    -0.013 C 
ATOM      9  C4' I4B d   1      -0.646  -4.543   3.219  0.00  0.00     0.013 C 
ATOM     10  C3' I4B d   1      -0.833  -5.703   1.035  0.00  0.00     0.013 C 
ENDBRANCH   7   8
ENDBRANCH   1   7
TORSDOF 2
ENDMDL
