MODEL 1
REMARK minimizedAffinity 5.73316765
REMARK minimizedRMSD -1
REMARK  2 active torsions:
REMARK  status: ('A' for Active; 'I' for Inactive)
REMARK    1  A    between atoms: C2'_3  and  C1'_4 
REMARK    2  A    between atoms: C1'_4  and  C1_5 
ROOT
ATOM      1  C1  I4B d   1       0.378  -2.161  -4.303  0.00  0.00    -0.075 A 
ATOM      2  C2  I4B d   1      -0.165  -3.413  -4.452  0.00  0.00     0.003 A 
ATOM      3  C3  I4B d   1      -1.539  -3.629  -4.188  0.00  0.00     0.002 A 
ATOM      4  C4  I4B d   1      -2.316  -2.584  -3.731  0.00  0.00    -0.004 A 
ATOM      5  C5  I4B d   1      -1.769  -1.311  -3.603  0.00  0.00     0.002 A 
ATOM      6  C6  I4B d   1      -0.416  -1.095  -3.902  0.00  0.00     0.003 A 
ENDROOT
BRANCH   1   7
ATOM      7  C1' I4B d   1       1.840  -1.975  -4.558  0.00  0.00     0.060 C 
BRANCH   7   8
ATOM      8  C2' I4B d   1       2.291  -0.737  -3.811  0.00  0.00    -0.013 C 
ATOM      9  C4' I4B d   1       2.566  -1.044  -2.362  0.00  0.00     0.013 C 
ATOM     10  C3' I4B d   1       3.516  -0.204  -4.493  0.00  0.00     0.013 C 
ENDBRANCH   7   8
ENDBRANCH   1   7
TORSDOF 2
ENDMDL
