MODEL 1
REMARK minimizedAffinity 8.3484211
REMARK minimizedRMSD -1
REMARK  2 active torsions:
REMARK  status: ('A' for Active; 'I' for Inactive)
REMARK    1  A    between atoms: C2'_3  and  C1'_4 
REMARK    2  A    between atoms: C1'_4  and  C1_5 
ROOT
ATOM      1  C1  I4B d   1       3.346   1.588   1.424  0.00  0.00    -0.075 A 
ATOM      2  C2  I4B d   1       4.482   1.310   2.143  0.00  0.00     0.003 A 
ATOM      3  C3  I4B d   1       5.580   2.204   2.114  0.00  0.00     0.002 A 
ATOM      4  C4  I4B d   1       5.519   3.330   1.319  0.00  0.00    -0.004 A 
ATOM      5  C5  I4B d   1       4.358   3.622   0.609  0.00  0.00     0.002 A 
ATOM      6  C6  I4B d   1       3.260   2.752   0.672  0.00  0.00     0.003 A 
ENDROOT
BRANCH   1   7
ATOM      7  C1' I4B d   1       2.218   0.606   1.451  0.00  0.00     0.060 C 
BRANCH   7   8
ATOM      8  C2' I4B d   1       0.952   1.340   1.060  0.00  0.00    -0.013 C 
ATOM      9  C4' I4B d   1       0.416   0.838  -0.255  0.00  0.00     0.013 C 
ATOM     10  C3' I4B d   1      -0.051   1.152   2.160  0.00  0.00     0.013 C 
ENDBRANCH   7   8
ENDBRANCH   1   7
TORSDOF 2
ENDMDL
