MODEL 1
REMARK minimizedAffinity 7.81101894
REMARK minimizedRMSD -1
REMARK  2 active torsions:
REMARK  status: ('A' for Active; 'I' for Inactive)
REMARK    1  A    between atoms: C2'_3  and  C1'_4 
REMARK    2  A    between atoms: C1'_4  and  C1_5 
ROOT
ATOM      1  C1  I4B d   1      -0.330  -5.960   2.394  0.00  0.00    -0.075 A 
ATOM      2  C2  I4B d   1      -0.861  -5.963   3.660  0.00  0.00     0.003 A 
ATOM      3  C3  I4B d   1      -0.008  -5.958   4.790  0.00  0.00     0.002 A 
ATOM      4  C4  I4B d   1       1.360  -6.000   4.610  0.00  0.00    -0.004 A 
ATOM      5  C5  I4B d   1       1.896  -5.973   3.326  0.00  0.00     0.002 A 
ATOM      6  C6  I4B d   1       1.046  -5.940   2.211  0.00  0.00     0.003 A 
ENDROOT
BRANCH   1   7
ATOM      7  C1' I4B d   1      -1.260  -5.999   1.223  0.00  0.00     0.060 C 
BRANCH   7   8
ATOM      8  C2' I4B d   1      -2.469  -5.150   1.559  0.00  0.00    -0.013 C 
ATOM      9  C4' I4B d   1      -2.531  -3.921   0.690  0.00  0.00     0.013 C 
ATOM     10  C3' I4B d   1      -3.694  -5.998   1.384  0.00  0.00     0.013 C 
ENDBRANCH   7   8
ENDBRANCH   1   7
TORSDOF 2
ENDMDL
