MODEL 1
REMARK minimizedAffinity -1.45434439
REMARK minimizedRMSD -1
REMARK  0 active torsions:
REMARK  status: ('A' for Active; 'I' for Inactive)
ROOT
ATOM      1  C4' PXY d   1       1.755   5.451  -0.604  0.00  0.00     0.077 C 
ATOM      2  C1' PXY d   1       0.496  -0.167  -1.123  0.00  0.00     0.077 C 
ATOM      3  C1  PXY d   1       0.832   1.306  -0.999  0.00  0.00    -0.082 A 
ATOM      4  C2  PXY d   1       0.916   1.858   0.201  0.00  0.00     0.003 A 
ATOM      5  C3  PXY d   1       1.188   3.196   0.330  0.00  0.00     0.003 A 
ATOM      6  C4  PXY d   1       1.427   3.965  -0.777  0.00  0.00    -0.082 A 
ATOM      7  C5  PXY d   1       1.353   3.406  -2.004  0.00  0.00     0.003 A 
ATOM      8  C6  PXY d   1       1.036   2.056  -2.115  0.00  0.00     0.003 A 
ENDROOT
TORSDOF 0
ENDMDL
