MODEL 1
REMARK minimizedAffinity -4.91500044
REMARK minimizedRMSD -1
REMARK  0 active torsions:
REMARK  status: ('A' for Active; 'I' for Inactive)
ROOT
ATOM      1  C4' PXY d   1       0.857  -1.911  -1.179  0.00  0.00     0.077 C 
ATOM      2  C1' PXY d   1       1.704   3.695  -0.052  0.00  0.00     0.077 C 
ATOM      3  C1  PXY d   1       1.481   2.227  -0.360  0.00  0.00    -0.082 A 
ATOM      4  C2  PXY d   1       0.995   1.429   0.576  0.00  0.00     0.003 A 
ATOM      5  C3  PXY d   1       0.817   0.093   0.324  0.00  0.00     0.003 A 
ATOM      6  C4  PXY d   1       1.089  -0.421  -0.915  0.00  0.00    -0.082 A 
ATOM      7  C5  PXY d   1       1.575   0.390  -1.879  0.00  0.00     0.003 A 
ATOM      8  C6  PXY d   1       1.787   1.735  -1.591  0.00  0.00     0.003 A 
ENDROOT
TORSDOF 0
ENDMDL
