MODEL 1
REMARK minimizedAffinity -6.44540834
REMARK minimizedRMSD -1
REMARK  0 active torsions:
REMARK  status: ('A' for Active; 'I' for Inactive)
ROOT
ATOM      1  C4' PXY d   1       1.174  -0.185  -0.666  0.00  0.00     0.077 C 
ATOM      2  C1' PXY d   1       1.770   5.557  -0.970  0.00  0.00     0.077 C 
ATOM      3  C1  PXY d   1       1.614   4.052  -0.877  0.00  0.00    -0.082 A 
ATOM      4  C2  PXY d   1       1.953   3.294  -1.908  0.00  0.00     0.003 A 
ATOM      5  C3  PXY d   1       1.789   1.934  -1.853  0.00  0.00     0.003 A 
ATOM      6  C4  PXY d   1       1.323   1.338  -0.712  0.00  0.00    -0.082 A 
ATOM      7  C5  PXY d   1       0.985   2.103   0.348  0.00  0.00     0.003 A 
ATOM      8  C6  PXY d   1       1.120   3.485   0.257  0.00  0.00     0.003 A 
ENDROOT
TORSDOF 0
ENDMDL
