MODEL 1
REMARK minimizedAffinity -0.706222534
REMARK minimizedRMSD -1
REMARK  0 active torsions:
REMARK  status: ('A' for Active; 'I' for Inactive)
ROOT
ATOM      1  C4' PXY d   1       1.647   4.941  -0.769  0.00  0.00     0.077 C 
ATOM      2  C1' PXY d   1       0.657  -0.752  -0.600  0.00  0.00     0.077 C 
ATOM      3  C1  PXY d   1       0.925   0.739  -0.654  0.00  0.00    -0.082 A 
ATOM      4  C2  PXY d   1       0.717   1.481   0.422  0.00  0.00     0.003 A 
ATOM      5  C3  PXY d   1       0.924   2.836   0.381  0.00  0.00     0.003 A 
ATOM      6  C4  PXY d   1       1.399   3.430  -0.758  0.00  0.00    -0.082 A 
ATOM      7  C5  PXY d   1       1.623   2.679  -1.856  0.00  0.00     0.003 A 
ATOM      8  C6  PXY d   1       1.368   1.311  -1.807  0.00  0.00     0.003 A 
ENDROOT
TORSDOF 0
ENDMDL
