MODEL 1
REMARK minimizedAffinity -3.68667412
REMARK minimizedRMSD -1
REMARK  0 active torsions:
REMARK  status: ('A' for Active; 'I' for Inactive)
ROOT
ATOM      1  C4' PXY d   1       2.273   3.967   0.609  0.00  0.00     0.077 C 
ATOM      2  C1' PXY d   1       1.324  -1.181  -1.844  0.00  0.00     0.077 C 
ATOM      3  C1  PXY d   1       1.565   0.175  -1.209  0.00  0.00    -0.082 A 
ATOM      4  C2  PXY d   1       2.691   0.398  -0.551  0.00  0.00     0.003 A 
ATOM      5  C3  PXY d   1       2.911   1.608   0.057  0.00  0.00     0.003 A 
ATOM      6  C4  PXY d   1       1.992   2.617  -0.056  0.00  0.00    -0.082 A 
ATOM      7  C5  PXY d   1       0.845   2.400  -0.735  0.00  0.00     0.003 A 
ATOM      8  C6  PXY d   1       0.623   1.152  -1.309  0.00  0.00     0.003 A 
ENDROOT
TORSDOF 0
ENDMDL
