MODEL 1
REMARK minimizedAffinity -3.72069716
REMARK minimizedRMSD -1
REMARK  0 active torsions:
REMARK  status: ('A' for Active; 'I' for Inactive)
ROOT
ATOM      1  C4' PXY d   1       1.484   3.713  -1.413  0.00  0.00     0.077 C 
ATOM      2  C1' PXY d   1       0.917  -1.974  -0.544  0.00  0.00     0.077 C 
ATOM      3  C1  PXY d   1       1.070  -0.485  -0.784  0.00  0.00    -0.082 A 
ATOM      4  C2  PXY d   1       1.166   0.337   0.249  0.00  0.00     0.003 A 
ATOM      5  C3  PXY d   1       1.274   1.690   0.050  0.00  0.00     0.003 A 
ATOM      6  C4  PXY d   1       1.337   2.201  -1.218  0.00  0.00    -0.082 A 
ATOM      7  C5  PXY d   1       1.251   1.368  -2.277  0.00  0.00     0.003 A 
ATOM      8  C6  PXY d   1       1.101   0.002  -2.054  0.00  0.00     0.003 A 
ENDROOT
TORSDOF 0
ENDMDL
