MODEL 1
REMARK minimizedAffinity 1.55039704
REMARK minimizedRMSD -1
REMARK  0 active torsions:
REMARK  status: ('A' for Active; 'I' for Inactive)
ROOT
ATOM      1  C4' PXY d   1       1.749   1.864   1.025  0.00  0.00     0.077 C 
ATOM      2  C1' PXY d   1       1.745  -0.897  -4.053  0.00  0.00     0.077 C 
ATOM      3  C1  PXY d   1       1.751  -0.184  -2.715  0.00  0.00    -0.082 A 
ATOM      4  C2  PXY d   1       0.896   0.802  -2.496  0.00  0.00     0.003 A 
ATOM      5  C3  PXY d   1       0.910   1.480  -1.304  0.00  0.00     0.003 A 
ATOM      6  C4  PXY d   1       1.772   1.109  -0.306  0.00  0.00    -0.082 A 
ATOM      7  C5  PXY d   1       2.640   0.098  -0.519  0.00  0.00     0.003 A 
ATOM      8  C6  PXY d   1       2.638  -0.550  -1.751  0.00  0.00     0.003 A 
ENDROOT
TORSDOF 0
ENDMDL
