MODEL 1
REMARK minimizedAffinity -3.05046678
REMARK minimizedRMSD -1
REMARK  0 active torsions:
REMARK  status: ('A' for Active; 'I' for Inactive)
ROOT
ATOM      1  C4' PXY d   1       1.022  -2.576   0.230  0.00  0.00     0.077 C 
ATOM      2  C1' PXY d   1       0.739   3.014  -1.213  0.00  0.00     0.077 C 
ATOM      3  C1  PXY d   1       0.807   1.545  -0.846  0.00  0.00    -0.082 A 
ATOM      4  C2  PXY d   1       0.959   1.194   0.421  0.00  0.00     0.003 A 
ATOM      5  C3  PXY d   1       1.054  -0.129   0.767  0.00  0.00     0.003 A 
ATOM      6  C4  PXY d   1       0.939  -1.105  -0.186  0.00  0.00    -0.082 A 
ATOM      7  C5  PXY d   1       0.773  -0.755  -1.479  0.00  0.00     0.003 A 
ATOM      8  C6  PXY d   1       0.720   0.594  -1.815  0.00  0.00     0.003 A 
ENDROOT
TORSDOF 0
ENDMDL
