MODEL 1
REMARK minimizedAffinity -2.88231134
REMARK minimizedRMSD -1
REMARK  0 active torsions:
REMARK  status: ('A' for Active; 'I' for Inactive)
ROOT
ATOM      1  C4' PXY d   1       1.104   1.535  -1.725  0.00  0.00     0.077 C 
ATOM      2  C1' PXY d   1       1.411  -3.823   0.423  0.00  0.00     0.077 C 
ATOM      3  C1  PXY d   1       1.333  -2.413  -0.129  0.00  0.00    -0.082 A 
ATOM      4  C2  PXY d   1       0.622  -2.175  -1.219  0.00  0.00     0.003 A 
ATOM      5  C3  PXY d   1       0.567  -0.912  -1.750  0.00  0.00     0.003 A 
ATOM      6  C4  PXY d   1       1.203   0.129  -1.127  0.00  0.00    -0.082 A 
ATOM      7  C5  PXY d   1       1.921  -0.103  -0.008  0.00  0.00     0.003 A 
ATOM      8  C6  PXY d   1       1.999  -1.400   0.491  0.00  0.00     0.003 A 
ENDROOT
TORSDOF 0
ENDMDL
