MODEL 1
REMARK minimizedAffinity 1.73654091
REMARK minimizedRMSD -1
REMARK  0 active torsions:
REMARK  status: ('A' for Active; 'I' for Inactive)
ROOT
ATOM      1  C4' PXY d   1       1.208   2.677  -1.158  0.00  0.00     0.077 C 
ATOM      2  C1' PXY d   1       0.877  -2.955   0.100  0.00  0.00     0.077 C 
ATOM      3  C1  PXY d   1       0.965  -1.475  -0.217  0.00  0.00    -0.082 A 
ATOM      4  C2  PXY d   1       0.432  -1.013  -1.337  0.00  0.00     0.003 A 
ATOM      5  C3  PXY d   1       0.530   0.317  -1.655  0.00  0.00     0.003 A 
ATOM      6  C4  PXY d   1       1.135   1.192  -0.792  0.00  0.00    -0.082 A 
ATOM      7  C5  PXY d   1       1.672   0.731   0.357  0.00  0.00     0.003 A 
ATOM      8  C6  PXY d   1       1.597  -0.630   0.641  0.00  0.00     0.003 A 
ENDROOT
TORSDOF 0
ENDMDL
