MODEL 1
REMARK minimizedAffinity -4.73255825
REMARK minimizedRMSD -1
REMARK  0 active torsions:
REMARK  status: ('A' for Active; 'I' for Inactive)
ROOT
ATOM      1  C4' PXY d   1       1.787   5.355  -0.069  0.00  0.00     0.077 C 
ATOM      2  C1' PXY d   1       1.047  -0.263  -1.210  0.00  0.00     0.077 C 
ATOM      3  C1  PXY d   1       1.237   1.208  -0.899  0.00  0.00    -0.082 A 
ATOM      4  C2  PXY d   1       1.278   2.086  -1.888  0.00  0.00     0.003 A 
ATOM      5  C3  PXY d   1       1.481   3.417  -1.627  0.00  0.00     0.003 A 
ATOM      6  C4  PXY d   1       1.588   3.860  -0.336  0.00  0.00    -0.082 A 
ATOM      7  C5  PXY d   1       1.536   2.973   0.680  0.00  0.00     0.003 A 
ATOM      8  C6  PXY d   1       1.371   1.621   0.391  0.00  0.00     0.003 A 
ENDROOT
TORSDOF 0
ENDMDL
