MODEL 1
REMARK minimizedAffinity 0.226736292
REMARK minimizedRMSD -1
REMARK  0 active torsions:
REMARK  status: ('A' for Active; 'I' for Inactive)
ROOT
ATOM      1  C4' PXY d   1       1.546   4.091  -1.051  0.00  0.00     0.077 C 
ATOM      2  C1' PXY d   1       0.567  -1.476   0.161  0.00  0.00     0.077 C 
ATOM      3  C1  PXY d   1       0.834  -0.019  -0.164  0.00  0.00    -0.082 A 
ATOM      4  C2  PXY d   1       0.398   0.924   0.655  0.00  0.00     0.003 A 
ATOM      5  C3  PXY d   1       0.603   2.247   0.360  0.00  0.00     0.003 A 
ATOM      6  C4  PXY d   1       1.308   2.607  -0.758  0.00  0.00    -0.082 A 
ATOM      7  C5  PXY d   1       1.765   1.650  -1.592  0.00  0.00     0.003 A 
ATOM      8  C6  PXY d   1       1.511   0.314  -1.296  0.00  0.00     0.003 A 
ENDROOT
TORSDOF 0
ENDMDL
