MODEL 1
REMARK minimizedAffinity -3.03808737
REMARK minimizedRMSD -1
REMARK  0 active torsions:
REMARK  status: ('A' for Active; 'I' for Inactive)
ROOT
ATOM      1  C4' PXY d   1       1.859   5.181  -0.716  0.00  0.00     0.077 C 
ATOM      2  C1' PXY d   1       0.716  -0.483  -0.550  0.00  0.00     0.077 C 
ATOM      3  C1  PXY d   1       1.023   1.000  -0.604  0.00  0.00    -0.082 A 
ATOM      4  C2  PXY d   1       0.968   1.721   0.504  0.00  0.00     0.003 A 
ATOM      5  C3  PXY d   1       1.212   3.070   0.467  0.00  0.00     0.003 A 
ATOM      6  C4  PXY d   1       1.566   3.678  -0.707  0.00  0.00    -0.082 A 
ATOM      7  C5  PXY d   1       1.634   2.948  -1.840  0.00  0.00     0.003 A 
ATOM      8  C6  PXY d   1       1.343   1.587  -1.789  0.00  0.00     0.003 A 
ENDROOT
TORSDOF 0
ENDMDL
