MODEL 1
REMARK minimizedAffinity -4.23473215
REMARK minimizedRMSD -1
REMARK  0 active torsions:
REMARK  status: ('A' for Active; 'I' for Inactive)
ROOT
ATOM      1  C4' PXY d   1       1.741   5.439  -0.761  0.00  0.00     0.077 C 
ATOM      2  C1' PXY d   1       0.923  -0.279  -0.526  0.00  0.00     0.077 C 
ATOM      3  C1  PXY d   1       1.143   1.219  -0.599  0.00  0.00    -0.082 A 
ATOM      4  C2  PXY d   1       1.183   1.930   0.516  0.00  0.00     0.003 A 
ATOM      5  C3  PXY d   1       1.350   3.290   0.466  0.00  0.00     0.003 A 
ATOM      6  C4  PXY d   1       1.530   3.922  -0.735  0.00  0.00    -0.082 A 
ATOM      7  C5  PXY d   1       1.501   3.203  -1.876  0.00  0.00     0.003 A 
ATOM      8  C6  PXY d   1       1.290   1.829  -1.807  0.00  0.00     0.003 A 
ENDROOT
TORSDOF 0
ENDMDL
