MODEL 1
REMARK minimizedAffinity -2.90163445
REMARK minimizedRMSD -1
REMARK  0 active torsions:
REMARK  status: ('A' for Active; 'I' for Inactive)
ROOT
ATOM      1  C4' PXY d   1       1.850   5.541  -1.317  0.00  0.00     0.077 C 
ATOM      2  C1' PXY d   1       0.842  -0.051  -0.255  0.00  0.00     0.077 C 
ATOM      3  C1  PXY d   1       1.111   1.412  -0.545  0.00  0.00    -0.082 A 
ATOM      4  C2  PXY d   1       1.236   2.266   0.458  0.00  0.00     0.003 A 
ATOM      5  C3  PXY d   1       1.448   3.598   0.213  0.00  0.00     0.003 A 
ATOM      6  C4  PXY d   1       1.587   4.053  -1.071  0.00  0.00    -0.082 A 
ATOM      7  C5  PXY d   1       1.471   3.187  -2.100  0.00  0.00     0.003 A 
ATOM      8  C6  PXY d   1       1.215   1.845  -1.831  0.00  0.00     0.003 A 
ENDROOT
TORSDOF 0
ENDMDL
