MODEL 1
REMARK minimizedAffinity -3.89816642
REMARK minimizedRMSD -1
REMARK  0 active torsions:
REMARK  status: ('A' for Active; 'I' for Inactive)
ROOT
ATOM      1  C4' PXY d   1       1.617   4.677  -1.052  0.00  0.00     0.077 C 
ATOM      2  C1' PXY d   1       0.545  -1.002  -0.936  0.00  0.00     0.077 C 
ATOM      3  C1  PXY d   1       0.818   0.489  -0.956  0.00  0.00    -0.082 A 
ATOM      4  C2  PXY d   1       1.265   1.057  -2.065  0.00  0.00     0.003 A 
ATOM      5  C3  PXY d   1       1.547   2.398  -2.092  0.00  0.00     0.003 A 
ATOM      6  C4  PXY d   1       1.319   3.176  -0.988  0.00  0.00    -0.082 A 
ATOM      7  C5  PXY d   1       0.853   2.606   0.143  0.00  0.00     0.003 A 
ATOM      8  C6  PXY d   1       0.612   1.236   0.162  0.00  0.00     0.003 A 
ENDROOT
TORSDOF 0
ENDMDL
