MODEL 1
REMARK minimizedAffinity 0.442510217
REMARK minimizedRMSD -1
REMARK  0 active torsions:
REMARK  status: ('A' for Active; 'I' for Inactive)
ROOT
ATOM      1  C4' PXY d   1       2.099   5.312  -0.873  0.00  0.00     0.077 C 
ATOM      2  C1' PXY d   1       0.834  -0.309  -0.406  0.00  0.00     0.077 C 
ATOM      3  C1  PXY d   1       1.160   1.167  -0.517  0.00  0.00    -0.082 A 
ATOM      4  C2  PXY d   1       1.377   1.701  -1.708  0.00  0.00     0.003 A 
ATOM      5  C3  PXY d   1       1.704   3.028  -1.824  0.00  0.00     0.003 A 
ATOM      6  C4  PXY d   1       1.758   3.828  -0.714  0.00  0.00    -0.082 A 
ATOM      7  C5  PXY d   1       1.526   3.292   0.504  0.00  0.00     0.003 A 
ATOM      8  C6  PXY d   1       1.236   1.935   0.604  0.00  0.00     0.003 A 
ENDROOT
TORSDOF 0
ENDMDL
