MODEL 1
REMARK minimizedAffinity -3.61337066
REMARK minimizedRMSD -1
REMARK  0 active torsions:
REMARK  status: ('A' for Active; 'I' for Inactive)
ROOT
ATOM      1  C4' PXY d   1       2.051   5.129  -1.338  0.00  0.00     0.077 C 
ATOM      2  C1' PXY d   1       0.003  -0.276  -1.448  0.00  0.00     0.077 C 
ATOM      3  C1  PXY d   1       0.540   1.141  -1.406  0.00  0.00    -0.082 A 
ATOM      4  C2  PXY d   1       0.395   1.927  -2.461  0.00  0.00     0.003 A 
ATOM      5  C3  PXY d   1       0.902   3.201  -2.452  0.00  0.00     0.003 A 
ATOM      6  C4  PXY d   1       1.517   3.694  -1.332  0.00  0.00    -0.082 A 
ATOM      7  C5  PXY d   1       1.659   2.902  -0.248  0.00  0.00     0.003 A 
ATOM      8  C6  PXY d   1       1.174   1.598  -0.293  0.00  0.00     0.003 A 
ENDROOT
TORSDOF 0
ENDMDL
