MODEL 1
REMARK minimizedAffinity 1.81725991
REMARK minimizedRMSD -1
REMARK  0 active torsions:
REMARK  status: ('A' for Active; 'I' for Inactive)
ROOT
ATOM      1  C4' PXY d   1       1.753   4.295  -1.876  0.00  0.00     0.077 C 
ATOM      2  C1' PXY d   1       0.988  -1.131  -0.034  0.00  0.00     0.077 C 
ATOM      3  C1  PXY d   1       1.192   0.288  -0.529  0.00  0.00    -0.082 A 
ATOM      4  C2  PXY d   1       1.460   1.251   0.338  0.00  0.00     0.003 A 
ATOM      5  C3  PXY d   1       1.616   2.544  -0.089  0.00  0.00     0.003 A 
ATOM      6  C4  PXY d   1       1.549   2.847  -1.422  0.00  0.00    -0.082 A 
ATOM      7  C5  PXY d   1       1.286   1.868  -2.314  0.00  0.00     0.003 A 
ATOM      8  C6  PXY d   1       1.091   0.568  -1.856  0.00  0.00     0.003 A 
ENDROOT
TORSDOF 0
ENDMDL
