MODEL 1
REMARK minimizedAffinity -4.03525496
REMARK minimizedRMSD -1
REMARK  1 active torsions:
REMARK  status: ('A' for Active; 'I' for Inactive)
REMARK    1  A    between atoms: C1_2  and  C2_3 
ROOT
ATOM      1  C2  UNL d   1      -0.246  -0.075  -0.935  0.00  0.00    -0.081 A 
ATOM      2  C3  UNL d   1      -1.171  -0.094   0.116  0.00  0.00     0.006 A 
ATOM      3  C4  UNL d   1      -0.761  -0.401   1.415  0.00  0.00     0.002 A 
ATOM      4  C5  UNL d   1       0.582  -0.684   1.687  0.00  0.00    -0.080 A 
ATOM      5  C6  UNL d   1       1.041  -0.985   3.083  0.00  0.00     0.076 C 
ATOM      6  C7  UNL d   1       1.503  -0.682   0.635  0.00  0.00     0.002 A 
ATOM      7  C8  UNL d   1       1.094  -0.376  -0.665  0.00  0.00     0.006 A 
ENDROOT
BRANCH   1   8
ATOM      8  C1  UNL d   1      -0.673   0.319  -2.326  0.00  0.00     0.054 C 
ATOM      9  C   UNL d   1      -0.741   1.832  -2.477  0.00  0.00     0.018 C 
ENDBRANCH   1   8
TORSDOF 1
ENDMDL
