MODEL 1
REMARK minimizedAffinity -2.39064097
REMARK minimizedRMSD -1
REMARK  1 active torsions:
REMARK  status: ('A' for Active; 'I' for Inactive)
REMARK    1  A    between atoms: C1_2  and  C2_3 
ROOT
ATOM      1  C2  UNL d   1      -0.808   0.589  -1.079  0.00  0.00    -0.081 A 
ATOM      2  C3  UNL d   1      -1.720   0.478  -0.022  0.00  0.00     0.006 A 
ATOM      3  C4  UNL d   1      -1.325  -0.075   1.198  0.00  0.00     0.002 A 
ATOM      4  C5  UNL d   1      -0.012  -0.519   1.385  0.00  0.00    -0.080 A 
ATOM      5  C6  UNL d   1       0.433  -1.087   2.700  0.00  0.00     0.076 C 
ATOM      6  C7  UNL d   1       0.894  -0.425   0.323  0.00  0.00     0.002 A 
ATOM      7  C8  UNL d   1       0.500   0.127  -0.898  0.00  0.00     0.006 A 
ENDROOT
BRANCH   1   8
ATOM      8  C1  UNL d   1      -1.213   1.244  -2.375  0.00  0.00     0.054 C 
ATOM      9  C   UNL d   1      -0.181   2.269  -2.823  0.00  0.00     0.018 C 
ENDBRANCH   1   8
TORSDOF 1
ENDMDL
