MODEL 1
REMARK minimizedAffinity -4.89536858
REMARK minimizedRMSD -1
REMARK  1 active torsions:
REMARK  status: ('A' for Active; 'I' for Inactive)
REMARK    1  A    between atoms: C1_2  and  C2_3 
ROOT
ATOM      1  C2  UNL d   1       1.431  -1.040   1.905  0.00  0.00    -0.081 A 
ATOM      2  C3  UNL d   1       0.595  -1.435   2.956  0.00  0.00     0.006 A 
ATOM      3  C4  UNL d   1      -0.737  -1.017   2.997  0.00  0.00     0.002 A 
ATOM      4  C5  UNL d   1      -1.257  -0.203   1.984  0.00  0.00    -0.080 A 
ATOM      5  C6  UNL d   1      -2.693   0.229   2.001  0.00  0.00     0.076 C 
ATOM      6  C7  UNL d   1      -0.417   0.207   0.944  0.00  0.00     0.002 A 
ATOM      7  C8  UNL d   1       0.916  -0.211   0.902  0.00  0.00     0.006 A 
ENDROOT
BRANCH   1   8
ATOM      8  C1  UNL d   1       2.850  -1.542   1.823  0.00  0.00     0.054 C 
ATOM      9  C   UNL d   1       3.011  -2.570   0.712  0.00  0.00     0.018 C 
ENDBRANCH   1   8
TORSDOF 1
ENDMDL
