MODEL 1
REMARK minimizedAffinity -4.83017731
REMARK minimizedRMSD -1
REMARK  1 active torsions:
REMARK  status: ('A' for Active; 'I' for Inactive)
REMARK    1  A    between atoms: C1_2  and  C2_3 
ROOT
ATOM      1  C2  UNL d   1      -0.069   0.028  -0.526  0.00  0.00    -0.081 A 
ATOM      2  C3  UNL d   1       1.308  -0.226  -0.499  0.00  0.00     0.006 A 
ATOM      3  C4  UNL d   1       1.956  -0.487   0.710  0.00  0.00     0.002 A 
ATOM      4  C5  UNL d   1       1.238  -0.508   1.911  0.00  0.00    -0.080 A 
ATOM      5  C6  UNL d   1       1.916  -0.817   3.212  0.00  0.00     0.076 C 
ATOM      6  C7  UNL d   1      -0.134  -0.237   1.886  0.00  0.00     0.002 A 
ATOM      7  C8  UNL d   1      -0.783   0.026   0.677  0.00  0.00     0.006 A 
ENDROOT
BRANCH   1   8
ATOM      8  C1  UNL d   1      -0.782   0.247  -1.836  0.00  0.00     0.054 C 
ATOM      9  C   UNL d   1      -0.386   1.574  -2.467  0.00  0.00     0.018 C 
ENDBRANCH   1   8
TORSDOF 1
ENDMDL
