MODEL 1
REMARK minimizedAffinity -5.48435736
REMARK minimizedRMSD -1
REMARK  1 active torsions:
REMARK  status: ('A' for Active; 'I' for Inactive)
REMARK    1  A    between atoms: C1_2  and  C2_3 
ROOT
ATOM      1  C2  UNL d   1       0.479  -0.638   1.754  0.00  0.00    -0.081 A 
ATOM      2  C3  UNL d   1      -0.779  -0.187   1.335  0.00  0.00     0.006 A 
ATOM      3  C4  UNL d   1      -0.983   0.217   0.013  0.00  0.00     0.002 A 
ATOM      4  C5  UNL d   1       0.065   0.169  -0.913  0.00  0.00    -0.080 A 
ATOM      5  C6  UNL d   1      -0.148   0.570  -2.342  0.00  0.00     0.076 C 
ATOM      6  C7  UNL d   1       1.326  -0.266  -0.490  0.00  0.00     0.002 A 
ATOM      7  C8  UNL d   1       1.530  -0.669   0.831  0.00  0.00     0.006 A 
ENDROOT
BRANCH   1   8
ATOM      8  C1  UNL d   1       0.685  -1.135   3.162  0.00  0.00     0.054 C 
ATOM      9  C   UNL d   1       1.820  -2.146   3.231  0.00  0.00     0.018 C 
ENDBRANCH   1   8
TORSDOF 1
ENDMDL
