MODEL 1
REMARK minimizedAffinity -5.39816809
REMARK minimizedRMSD -1
REMARK  1 active torsions:
REMARK  status: ('A' for Active; 'I' for Inactive)
REMARK    1  A    between atoms: C1_2  and  C2_3 
ROOT
ATOM      1  C2  UNL d   1       0.278  -0.329  -0.586  0.00  0.00    -0.081 A 
ATOM      2  C3  UNL d   1       1.416  -1.136  -0.700  0.00  0.00     0.006 A 
ATOM      3  C4  UNL d   1       2.107  -1.551   0.441  0.00  0.00     0.002 A 
ATOM      4  C5  UNL d   1       1.666  -1.173   1.714  0.00  0.00    -0.080 A 
ATOM      5  C6  UNL d   1       2.381  -1.636   2.949  0.00  0.00     0.076 C 
ATOM      6  C7  UNL d   1       0.539  -0.352   1.827  0.00  0.00     0.002 A 
ATOM      7  C8  UNL d   1      -0.151   0.064   0.686  0.00  0.00     0.006 A 
ENDROOT
BRANCH   1   8
ATOM      8  C1  UNL d   1      -0.506   0.067  -1.812  0.00  0.00     0.054 C 
ATOM      9  C   UNL d   1      -0.919   1.531  -1.755  0.00  0.00     0.018 C 
ENDBRANCH   1   8
TORSDOF 1
ENDMDL
