MODEL 1
REMARK minimizedAffinity -5.0276742
REMARK minimizedRMSD -1
REMARK  1 active torsions:
REMARK  status: ('A' for Active; 'I' for Inactive)
REMARK    1  A    between atoms: C1_2  and  C2_3 
ROOT
ATOM      1  C2  UNL d   1      -0.410   0.287  -0.685  0.00  0.00    -0.081 A 
ATOM      2  C3  UNL d   1      -1.119   0.144   0.514  0.00  0.00     0.006 A 
ATOM      3  C4  UNL d   1      -0.444  -0.125   1.707  0.00  0.00     0.002 A 
ATOM      4  C5  UNL d   1       0.949  -0.248   1.723  0.00  0.00    -0.080 A 
ATOM      5  C6  UNL d   1       1.689  -0.508   3.002  0.00  0.00     0.076 C 
ATOM      6  C7  UNL d   1       1.656  -0.123   0.522  0.00  0.00     0.002 A 
ATOM      7  C8  UNL d   1       0.982   0.146  -0.672  0.00  0.00     0.006 A 
ENDROOT
BRANCH   1   8
ATOM      8  C1  UNL d   1      -1.129   0.642  -1.962  0.00  0.00     0.054 C 
ATOM      9  C   UNL d   1      -0.742   2.032  -2.447  0.00  0.00     0.018 C 
ENDBRANCH   1   8
TORSDOF 1
ENDMDL
