MODEL 1
REMARK minimizedAffinity -4.25801086
REMARK minimizedRMSD -1
REMARK  1 active torsions:
REMARK  status: ('A' for Active; 'I' for Inactive)
REMARK    1  A    between atoms: C1_2  and  C2_3 
ROOT
ATOM      1  C2  UNL d   1      -0.753  -0.476  -1.079  0.00  0.00    -0.081 A 
ATOM      2  C3  UNL d   1      -2.002  -0.611  -0.460  0.00  0.00     0.006 A 
ATOM      3  C4  UNL d   1      -2.090  -0.823   0.917  0.00  0.00     0.002 A 
ATOM      4  C5  UNL d   1      -0.933  -0.895   1.700  0.00  0.00    -0.080 A 
ATOM      5  C6  UNL d   1      -1.015  -1.091   3.185  0.00  0.00     0.076 C 
ATOM      6  C7  UNL d   1       0.315  -0.777   1.080  0.00  0.00     0.002 A 
ATOM      7  C8  UNL d   1       0.405  -0.566  -0.298  0.00  0.00     0.006 A 
ENDROOT
BRANCH   1   8
ATOM      8  C1  UNL d   1      -0.656  -0.183  -2.554  0.00  0.00     0.054 C 
ATOM      9  C   UNL d   1      -0.741   1.312  -2.829  0.00  0.00     0.018 C 
ENDBRANCH   1   8
TORSDOF 1
ENDMDL
