MODEL 1
REMARK minimizedAffinity -5.95660448
REMARK minimizedRMSD -1
REMARK  0 active torsions:
REMARK  status: ('A' for Active; 'I' for Inactive)
ROOT
ATOM      1  C1  DEN d   1       0.505  -1.652  -0.815  0.00  0.00     0.130 A 
ATOM      2  C2  DEN d   1      -0.218  -1.415   0.432  0.00  0.00    -0.031 A 
ATOM      3  C3  DEN d   1      -0.082   0.015   0.773  0.00  0.00     0.027 A 
ATOM      4  C4  DEN d   1       1.167   1.876  -0.503  0.00  0.00     0.027 A 
ATOM      5  C5  DEN d   1       1.941   2.155  -1.608  0.00  0.00    -0.003 A 
ATOM      6  C6  DEN d   1       2.316   1.186  -2.500  0.00  0.00     0.001 A 
ATOM      7  C7  DEN d   1       1.879  -0.101  -2.328  0.00  0.00     0.017 A 
ATOM      8  C8  DEN d   1       1.105  -0.391  -1.212  0.00  0.00    -0.094 A 
ATOM      9  C9  DEN d   1       0.726   0.605  -0.328  0.00  0.00    -0.072 A 
ENDROOT
TORSDOF 0
ENDMDL
