MODEL 1
REMARK minimizedAffinity -6.18064785
REMARK minimizedRMSD -1
REMARK  0 active torsions:
REMARK  status: ('A' for Active; 'I' for Inactive)
ROOT
ATOM      1  C1  DEN d   1       2.283  -0.837  -2.602  0.00  0.00     0.130 A 
ATOM      2  C2  DEN d   1       1.907  -2.147  -2.077  0.00  0.00    -0.031 A 
ATOM      3  C3  DEN d   1       1.116  -1.936  -0.849  0.00  0.00     0.027 A 
ATOM      4  C4  DEN d   1       0.435   0.279   0.284  0.00  0.00     0.027 A 
ATOM      5  C5  DEN d   1       0.531   1.651   0.213  0.00  0.00    -0.003 A 
ATOM      6  C6  DEN d   1       1.241   2.284  -0.773  0.00  0.00     0.001 A 
ATOM      7  C7  DEN d   1       1.845   1.545  -1.755  0.00  0.00     0.017 A 
ATOM      8  C8  DEN d   1       1.758   0.161  -1.687  0.00  0.00    -0.094 A 
ATOM      9  C9  DEN d   1       1.026  -0.460  -0.689  0.00  0.00    -0.072 A 
ENDROOT
TORSDOF 0
ENDMDL
