MODEL 1
REMARK minimizedAffinity -4.4358654
REMARK minimizedRMSD -1
REMARK  0 active torsions:
REMARK  status: ('A' for Active; 'I' for Inactive)
ROOT
ATOM      1  C1  DEN d   1       0.928  -0.603  -2.342  0.00  0.00     0.130 A 
ATOM      2  C2  DEN d   1       2.015   0.261  -2.792  0.00  0.00    -0.031 A 
ATOM      3  C3  DEN d   1       2.177   1.344  -1.802  0.00  0.00     0.027 A 
ATOM      4  C4  DEN d   1       0.859   1.763   0.375  0.00  0.00     0.027 A 
ATOM      5  C5  DEN d   1      -0.167   1.304   1.172  0.00  0.00    -0.003 A 
ATOM      6  C6  DEN d   1      -0.915   0.206   0.839  0.00  0.00     0.001 A 
ATOM      7  C7  DEN d   1      -0.620  -0.497  -0.299  0.00  0.00     0.017 A 
ATOM      8  C8  DEN d   1       0.408  -0.036  -1.111  0.00  0.00    -0.094 A 
ATOM      9  C9  DEN d   1       1.161   1.068  -0.751  0.00  0.00    -0.072 A 
ENDROOT
TORSDOF 0
ENDMDL
