MODEL 1
REMARK minimizedAffinity -4.48763704
REMARK minimizedRMSD -1
REMARK  0 active torsions:
REMARK  status: ('A' for Active; 'I' for Inactive)
ROOT
ATOM      1  C1  DEN d   1       0.961  -0.410  -2.900  0.00  0.00     0.130 A 
ATOM      2  C2  DEN d   1       2.251   0.207  -3.194  0.00  0.00    -0.031 A 
ATOM      3  C3  DEN d   1       2.659   0.997  -2.015  0.00  0.00     0.027 A 
ATOM      4  C4  DEN d   1       1.426   1.320   0.227  0.00  0.00     0.027 A 
ATOM      5  C5  DEN d   1       0.291   1.003   0.940  0.00  0.00    -0.003 A 
ATOM      6  C6  DEN d   1      -0.708   0.227   0.414  0.00  0.00     0.001 A 
ATOM      7  C7  DEN d   1      -0.571  -0.296  -0.845  0.00  0.00     0.017 A 
ATOM      8  C8  DEN d   1       0.568   0.025  -1.572  0.00  0.00    -0.094 A 
ATOM      9  C9  DEN d   1       1.572   0.801  -1.018  0.00  0.00    -0.072 A 
ENDROOT
TORSDOF 0
ENDMDL
