MODEL 1
REMARK minimizedAffinity -5.31888008
REMARK minimizedRMSD -1
REMARK  0 active torsions:
REMARK  status: ('A' for Active; 'I' for Inactive)
ROOT
ATOM      1  C1  DEN d   1       1.807  -1.895  -1.791  0.00  0.00     0.130 A 
ATOM      2  C2  DEN d   1       2.553  -1.001  -2.673  0.00  0.00    -0.031 A 
ATOM      3  C3  DEN d   1       2.189   0.388  -2.328  0.00  0.00     0.027 A 
ATOM      4  C4  DEN d   1       0.555   1.236  -0.522  0.00  0.00     0.027 A 
ATOM      5  C5  DEN d   1      -0.322   0.852   0.468  0.00  0.00    -0.003 A 
ATOM      6  C6  DEN d   1      -0.575  -0.465   0.749  0.00  0.00     0.001 A 
ATOM      7  C7  DEN d   1       0.091  -1.445   0.062  0.00  0.00     0.017 A 
ATOM      8  C8  DEN d   1       0.972  -1.065  -0.942  0.00  0.00    -0.094 A 
ATOM      9  C9  DEN d   1       1.223   0.271  -1.203  0.00  0.00    -0.072 A 
ENDROOT
TORSDOF 0
ENDMDL
