MODEL 1
REMARK minimizedAffinity -4.26410484
REMARK minimizedRMSD -1
REMARK  0 active torsions:
REMARK  status: ('A' for Active; 'I' for Inactive)
ROOT
ATOM      1  C1  DEN d   1      -0.513  -0.842  -0.444  0.00  0.00     0.130 A 
ATOM      2  C2  DEN d   1      -0.480  -0.329   0.922  0.00  0.00    -0.031 A 
ATOM      3  C3  DEN d   1       0.539   0.738   0.985  0.00  0.00     0.027 A 
ATOM      4  C4  DEN d   1       2.056   1.645  -0.893  0.00  0.00     0.027 A 
ATOM      5  C5  DEN d   1       2.399   1.515  -2.220  0.00  0.00    -0.003 A 
ATOM      6  C6  DEN d   1       1.824   0.575  -3.034  0.00  0.00     0.001 A 
ATOM      7  C7  DEN d   1       0.842  -0.242  -2.539  0.00  0.00     0.017 A 
ATOM      8  C8  DEN d   1       0.497  -0.122  -1.199  0.00  0.00    -0.094 A 
ATOM      9  C9  DEN d   1       1.081   0.842  -0.396  0.00  0.00    -0.072 A 
ENDROOT
TORSDOF 0
ENDMDL
