MODEL 1
REMARK minimizedAffinity -5.35211515
REMARK minimizedRMSD -1
REMARK  0 active torsions:
REMARK  status: ('A' for Active; 'I' for Inactive)
ROOT
ATOM      1  C1  DEN d   1       0.051   0.847   0.349  0.00  0.00     0.130 A 
ATOM      2  C2  DEN d   1      -0.827   0.138   1.277  0.00  0.00    -0.031 A 
ATOM      3  C3  DEN d   1      -0.820  -1.292   0.908  0.00  0.00     0.027 A 
ATOM      4  C4  DEN d   1       0.460  -2.471  -0.996  0.00  0.00     0.027 A 
ATOM      5  C5  DEN d   1       1.322  -2.283  -2.053  0.00  0.00    -0.003 A 
ATOM      6  C6  DEN d   1       1.791  -1.044  -2.402  0.00  0.00     0.001 A 
ATOM      7  C7  DEN d   1       1.435   0.050  -1.659  0.00  0.00     0.017 A 
ATOM      8  C8  DEN d   1       0.560  -0.131  -0.596  0.00  0.00    -0.094 A 
ATOM      9  C9  DEN d   1       0.107  -1.393  -0.251  0.00  0.00    -0.072 A 
ENDROOT
TORSDOF 0
ENDMDL
