MODEL 1
REMARK minimizedAffinity -5.70783043
REMARK minimizedRMSD -1
REMARK  0 active torsions:
REMARK  status: ('A' for Active; 'I' for Inactive)
ROOT
ATOM      1  C1  DEN d   1       0.820   1.233  -1.168  0.00  0.00     0.130 A 
ATOM      2  C2  DEN d   1       1.353   0.731  -2.431  0.00  0.00    -0.031 A 
ATOM      3  C3  DEN d   1       1.307  -0.744  -2.392  0.00  0.00     0.027 A 
ATOM      4  C4  DEN d   1       0.461  -2.291  -0.509  0.00  0.00     0.027 A 
ATOM      5  C5  DEN d   1      -0.074  -2.327   0.760  0.00  0.00    -0.003 A 
ATOM      6  C6  DEN d   1      -0.315  -1.188   1.482  0.00  0.00     0.001 A 
ATOM      7  C7  DEN d   1      -0.062   0.037   0.924  0.00  0.00     0.017 A 
ATOM      8  C8  DEN d   1       0.484   0.080  -0.352  0.00  0.00    -0.094 A 
ATOM      9  C9  DEN d   1       0.709  -1.082  -1.072  0.00  0.00    -0.072 A 
ENDROOT
TORSDOF 0
ENDMDL
