MODEL 1
REMARK minimizedAffinity -4.48251772
REMARK minimizedRMSD -1
REMARK  0 active torsions:
REMARK  status: ('A' for Active; 'I' for Inactive)
ROOT
ATOM      1  C1  DEN d   1       0.259  -0.258  -2.303  0.00  0.00     0.130 A 
ATOM      2  C2  DEN d   1       1.511   0.463  -2.511  0.00  0.00    -0.031 A 
ATOM      3  C3  DEN d   1       1.923   1.046  -1.218  0.00  0.00     0.027 A 
ATOM      4  C4  DEN d   1       0.750   0.900   1.074  0.00  0.00     0.027 A 
ATOM      5  C5  DEN d   1      -0.348   0.406   1.744  0.00  0.00    -0.003 A 
ATOM      6  C6  DEN d   1      -1.329  -0.309   1.110  0.00  0.00     0.001 A 
ATOM      7  C7  DEN d   1      -1.210  -0.589  -0.225  0.00  0.00     0.017 A 
ATOM      8  C8  DEN d   1      -0.110  -0.088  -0.909  0.00  0.00    -0.094 A 
ATOM      9  C9  DEN d   1       0.878   0.622  -0.248  0.00  0.00    -0.072 A 
ENDROOT
TORSDOF 0
ENDMDL
