MODEL 1
REMARK minimizedAffinity -5.44040537
REMARK minimizedRMSD -1
REMARK  0 active torsions:
REMARK  status: ('A' for Active; 'I' for Inactive)
ROOT
ATOM      1  C1  DEN d   1       0.296   0.703   0.640  0.00  0.00     0.130 A 
ATOM      2  C2  DEN d   1      -0.381  -0.370   1.362  0.00  0.00    -0.031 A 
ATOM      3  C3  DEN d   1      -0.320  -1.589   0.531  0.00  0.00     0.027 A 
ATOM      4  C4  DEN d   1       0.756  -1.918  -1.790  0.00  0.00     0.027 A 
ATOM      5  C5  DEN d   1       1.439  -1.292  -2.810  0.00  0.00    -0.003 A 
ATOM      6  C6  DEN d   1       1.756   0.039  -2.767  0.00  0.00     0.001 A 
ATOM      7  C7  DEN d   1       1.430   0.779  -1.661  0.00  0.00     0.017 A 
ATOM      8  C8  DEN d   1       0.735   0.157  -0.632  0.00  0.00    -0.094 A 
ATOM      9  C9  DEN d   1       0.434  -1.193  -0.689  0.00  0.00    -0.072 A 
ENDROOT
TORSDOF 0
ENDMDL
