MODEL 1
REMARK minimizedAffinity -3.15758538
REMARK minimizedRMSD -1
REMARK  0 active torsions:
REMARK  status: ('A' for Active; 'I' for Inactive)
ROOT
ATOM      1  C1  DEN d   1       1.202  -1.088  -2.347  0.00  0.00     0.130 A 
ATOM      2  C2  DEN d   1       1.970  -0.007  -2.958  0.00  0.00    -0.031 A 
ATOM      3  C3  DEN d   1       1.972   1.137  -2.024  0.00  0.00     0.027 A 
ATOM      4  C4  DEN d   1       0.870   1.336   0.299  0.00  0.00     0.027 A 
ATOM      5  C5  DEN d   1       0.102   0.683   1.237  0.00  0.00    -0.003 A 
ATOM      6  C6  DEN d   1      -0.379  -0.584   1.033  0.00  0.00     0.001 A 
ATOM      7  C7  DEN d   1      -0.057  -1.254  -0.118  0.00  0.00     0.017 A 
ATOM      8  C8  DEN d   1       0.711  -0.599  -1.071  0.00  0.00    -0.094 A 
ATOM      9  C9  DEN d   1       1.197   0.677  -0.841  0.00  0.00    -0.072 A 
ENDROOT
TORSDOF 0
ENDMDL
