MODEL 1
REMARK minimizedAffinity -4.02131319
REMARK minimizedRMSD -1
REMARK  0 active torsions:
REMARK  status: ('A' for Active; 'I' for Inactive)
ROOT
ATOM      1  C1  DEN d   1      -0.369  -1.204  -0.487  0.00  0.00     0.130 A 
ATOM      2  C2  DEN d   1      -1.075  -0.816   0.731  0.00  0.00    -0.031 A 
ATOM      3  C3  DEN d   1      -0.689   0.571   1.059  0.00  0.00     0.027 A 
ATOM      4  C4  DEN d   1       0.920   2.148  -0.196  0.00  0.00     0.027 A 
ATOM      5  C5  DEN d   1       1.766   2.261  -1.277  0.00  0.00    -0.003 A 
ATOM      6  C6  DEN d   1       1.984   1.223  -2.145  0.00  0.00     0.001 A 
ATOM      7  C7  DEN d   1       1.313   0.041  -1.971  0.00  0.00     0.017 A 
ATOM      8  C8  DEN d   1       0.464  -0.082  -0.879  0.00  0.00    -0.094 A 
ATOM      9  C9  DEN d   1       0.248   0.983  -0.021  0.00  0.00    -0.072 A 
ENDROOT
TORSDOF 0
ENDMDL
