MODEL 1
REMARK minimizedAffinity -3.86002946
REMARK minimizedRMSD -1
REMARK  0 active torsions:
REMARK  status: ('A' for Active; 'I' for Inactive)
ROOT
ATOM      1  C1  DEN d   1       1.474   0.012  -2.137  0.00  0.00     0.130 A 
ATOM      2  C2  DEN d   1       1.141  -1.359  -2.514  0.00  0.00    -0.031 A 
ATOM      3  C3  DEN d   1       0.276  -1.925  -1.460  0.00  0.00     0.027 A 
ATOM      4  C4  DEN d   1      -0.580  -0.817   0.706  0.00  0.00     0.027 A 
ATOM      5  C5  DEN d   1      -0.554   0.332   1.464  0.00  0.00    -0.003 A 
ATOM      6  C6  DEN d   1       0.171   1.435   1.096  0.00  0.00     0.001 A 
ATOM      7  C7  DEN d   1       0.864   1.427  -0.085  0.00  0.00     0.017 A 
ATOM      8  C8  DEN d   1       0.849   0.269  -0.852  0.00  0.00    -0.094 A 
ATOM      9  C9  DEN d   1       0.100  -0.830  -0.469  0.00  0.00    -0.072 A 
ENDROOT
TORSDOF 0
ENDMDL
