MODEL 1
REMARK minimizedAffinity -4.89189291
REMARK minimizedRMSD -1
REMARK  0 active torsions:
REMARK  status: ('A' for Active; 'I' for Inactive)
ROOT
ATOM      1  C1  DEN d   1       0.927  -2.395  -0.649  0.00  0.00     0.130 A 
ATOM      2  C2  DEN d   1       1.828  -2.861  -1.699  0.00  0.00    -0.031 A 
ATOM      3  C3  DEN d   1       2.469  -1.679  -2.309  0.00  0.00     0.027 A 
ATOM      4  C4  DEN d   1       2.158   0.815  -1.730  0.00  0.00     0.027 A 
ATOM      5  C5  DEN d   1       1.488   1.704  -0.918  0.00  0.00    -0.003 A 
ATOM      6  C6  DEN d   1       0.567   1.295   0.009  0.00  0.00     0.001 A 
ATOM      7  C7  DEN d   1       0.323  -0.043   0.179  0.00  0.00     0.017 A 
ATOM      8  C8  DEN d   1       0.989  -0.944  -0.641  0.00  0.00    -0.094 A 
ATOM      9  C9  DEN d   1       1.925  -0.512  -1.564  0.00  0.00    -0.072 A 
ENDROOT
TORSDOF 0
ENDMDL
