MODEL 1
REMARK minimizedAffinity 5.12693119
REMARK minimizedRMSD -1
REMARK  0 active torsions:
REMARK  status: ('A' for Active; 'I' for Inactive)
ROOT
ATOM      1  C   UNL d   1       0.733   4.468  -0.000  0.00  0.00     0.023 A 
ATOM      2  C1  UNL d   1       0.360   4.515  -1.343  0.00  0.00     0.003 A 
ATOM      3  C2  UNL d   1      -0.381   3.471  -1.900  0.00  0.00     0.048 A 
ATOM      4  C3  UNL d   1      -0.747   2.383  -1.108  0.00  0.00     0.023 A 
ATOM      5  C4  UNL d   1      -0.377   2.333   0.237  0.00  0.00     0.048 A 
ATOM      6  C5  UNL d   1       0.365   3.379   0.789  0.00  0.00     0.003 A 
ATOM      7  I   UNL d   1      -1.850   0.828  -1.935  0.00  0.00    -0.146 I 
ENDROOT
TORSDOF 0
ENDMDL
