MODEL 1
REMARK minimizedAffinity 3.56130624
REMARK minimizedRMSD -1
REMARK  0 active torsions:
REMARK  status: ('A' for Active; 'I' for Inactive)
ROOT
ATOM      1  C   UNL d   1       4.091  -2.558  -4.099  0.00  0.00     0.023 A 
ATOM      2  C1  UNL d   1       4.128  -2.225  -2.745  0.00  0.00     0.003 A 
ATOM      3  C2  UNL d   1       4.377  -3.211  -1.788  0.00  0.00     0.048 A 
ATOM      4  C3  UNL d   1       4.590  -4.529  -2.193  0.00  0.00     0.023 A 
ATOM      5  C4  UNL d   1       4.555  -4.866  -3.547  0.00  0.00     0.048 A 
ATOM      6  C5  UNL d   1       4.304  -3.877  -4.500  0.00  0.00     0.003 A 
ATOM      7  I   UNL d   1       4.962  -5.999  -0.772  0.00  0.00    -0.146 I 
ENDROOT
TORSDOF 0
ENDMDL
