MODEL 1
REMARK minimizedAffinity 4.70354557
REMARK minimizedRMSD -1
REMARK  0 active torsions:
REMARK  status: ('A' for Active; 'I' for Inactive)
ROOT
ATOM      1  C   UNL d   1       0.912   2.179   3.942  0.00  0.00     0.023 A 
ATOM      2  C1  UNL d   1      -0.389   2.112   3.443  0.00  0.00     0.003 A 
ATOM      3  C2  UNL d   1      -0.658   2.525   2.136  0.00  0.00     0.048 A 
ATOM      4  C3  UNL d   1       0.378   3.002   1.334  0.00  0.00     0.023 A 
ATOM      5  C4  UNL d   1       1.681   3.070   1.830  0.00  0.00     0.048 A 
ATOM      6  C5  UNL d   1       1.946   2.657   3.137  0.00  0.00     0.003 A 
ATOM      7  I   UNL d   1      -0.021   3.617  -0.611  0.00  0.00    -0.146 I 
ENDROOT
TORSDOF 0
ENDMDL
