MODEL 1
REMARK minimizedAffinity 3.7261591
REMARK minimizedRMSD -1
REMARK  0 active torsions:
REMARK  status: ('A' for Active; 'I' for Inactive)
ROOT
ATOM      1  C   UNL d   1       5.563  -1.863  -3.075  0.00  0.00     0.023 A 
ATOM      2  C1  UNL d   1       4.259  -2.136  -3.486  0.00  0.00     0.003 A 
ATOM      3  C2  UNL d   1       3.337  -2.668  -2.582  0.00  0.00     0.048 A 
ATOM      4  C3  UNL d   1       3.727  -2.923  -1.268  0.00  0.00     0.023 A 
ATOM      5  C4  UNL d   1       5.031  -2.651  -0.852  0.00  0.00     0.048 A 
ATOM      6  C5  UNL d   1       5.949  -2.120  -1.760  0.00  0.00     0.003 A 
ATOM      7  I   UNL d   1       2.357  -3.715   0.080  0.00  0.00    -0.146 I 
ENDROOT
TORSDOF 0
ENDMDL
