MODEL 1
REMARK minimizedAffinity 2.89464521
REMARK minimizedRMSD -1
REMARK  0 active torsions:
REMARK  status: ('A' for Active; 'I' for Inactive)
ROOT
ATOM      1  C   UNL d   1       4.880  -6.000  -1.249  0.00  0.00     0.023 A 
ATOM      2  C1  UNL d   1       3.551  -5.581  -1.322  0.00  0.00     0.003 A 
ATOM      3  C2  UNL d   1       3.225  -4.402  -1.995  0.00  0.00     0.048 A 
ATOM      4  C3  UNL d   1       4.233  -3.646  -2.593  0.00  0.00     0.023 A 
ATOM      5  C4  UNL d   1       5.564  -4.062  -2.523  0.00  0.00     0.048 A 
ATOM      6  C5  UNL d   1       5.885  -5.241  -1.849  0.00  0.00     0.003 A 
ATOM      7  I   UNL d   1       3.751  -1.891  -3.596  0.00  0.00    -0.146 I 
ENDROOT
TORSDOF 0
ENDMDL
