MODEL 1
REMARK minimizedAffinity 0.205373779
REMARK minimizedRMSD -1
REMARK  0 active torsions:
REMARK  status: ('A' for Active; 'I' for Inactive)
ROOT
ATOM      1  C   UNL d   1       5.380  -3.103  -0.391  0.00  0.00     0.023 A 
ATOM      2  C1  UNL d   1       4.474  -2.191  -0.930  0.00  0.00     0.003 A 
ATOM      3  C2  UNL d   1       3.697  -2.547  -2.035  0.00  0.00     0.048 A 
ATOM      4  C3  UNL d   1       3.831  -3.817  -2.594  0.00  0.00     0.023 A 
ATOM      5  C4  UNL d   1       4.737  -4.734  -2.057  0.00  0.00     0.048 A 
ATOM      6  C5  UNL d   1       5.512  -4.373  -0.953  0.00  0.00     0.003 A 
ATOM      7  I   UNL d   1       2.676  -4.349  -4.238  0.00  0.00    -0.146 I 
ENDROOT
TORSDOF 0
ENDMDL
