MODEL 1
REMARK minimizedAffinity 8.64295101
REMARK minimizedRMSD -1
REMARK  0 active torsions:
REMARK  status: ('A' for Active; 'I' for Inactive)
ROOT
ATOM      1  C   UNL d   1       4.752  -2.134  -2.404  0.00  0.00     0.023 A 
ATOM      2  C1  UNL d   1       4.294  -3.139  -3.255  0.00  0.00     0.003 A 
ATOM      3  C2  UNL d   1       3.393  -4.097  -2.785  0.00  0.00     0.048 A 
ATOM      4  C3  UNL d   1       2.954  -4.043  -1.463  0.00  0.00     0.023 A 
ATOM      5  C4  UNL d   1       3.409  -3.038  -0.607  0.00  0.00     0.048 A 
ATOM      6  C5  UNL d   1       4.310  -2.083  -1.082  0.00  0.00     0.003 A 
ATOM      7  I   UNL d   1       1.613  -5.468  -0.761  0.00  0.00    -0.146 I 
ENDROOT
TORSDOF 0
ENDMDL
