MODEL 1
REMARK minimizedAffinity 7.56868601
REMARK minimizedRMSD -1
REMARK  0 active torsions:
REMARK  status: ('A' for Active; 'I' for Inactive)
ROOT
ATOM      1  C   UNL d   1       5.565  -5.141  -3.396  0.00  0.00     0.023 A 
ATOM      2  C1  UNL d   1       4.505  -4.304  -3.744  0.00  0.00     0.003 A 
ATOM      3  C2  UNL d   1       3.355  -4.267  -2.953  0.00  0.00     0.048 A 
ATOM      4  C3  UNL d   1       3.272  -5.068  -1.815  0.00  0.00     0.023 A 
ATOM      5  C4  UNL d   1       4.331  -5.907  -1.462  0.00  0.00     0.048 A 
ATOM      6  C5  UNL d   1       5.478  -5.941  -2.256  0.00  0.00     0.003 A 
ATOM      7  I   UNL d   1       1.561  -5.014  -0.636  0.00  0.00    -0.146 I 
ENDROOT
TORSDOF 0
ENDMDL
