MODEL 1
REMARK minimizedAffinity 4.76811981
REMARK minimizedRMSD -1
REMARK  0 active torsions:
REMARK  status: ('A' for Active; 'I' for Inactive)
ROOT
ATOM      1  C   UNL d   1       5.432  -4.068  -3.727  0.00  0.00     0.023 A 
ATOM      2  C1  UNL d   1       5.149  -5.215  -2.984  0.00  0.00     0.003 A 
ATOM      3  C2  UNL d   1       4.011  -5.262  -2.176  0.00  0.00     0.048 A 
ATOM      4  C3  UNL d   1       3.160  -4.159  -2.116  0.00  0.00     0.023 A 
ATOM      5  C4  UNL d   1       3.438  -3.010  -2.858  0.00  0.00     0.048 A 
ATOM      6  C5  UNL d   1       4.578  -2.967  -3.663  0.00  0.00     0.003 A 
ATOM      7  I   UNL d   1       1.465  -4.226  -0.914  0.00  0.00    -0.146 I 
ENDROOT
TORSDOF 0
ENDMDL
