MODEL 1
REMARK minimizedAffinity 3.31936169
REMARK minimizedRMSD -1
REMARK  0 active torsions:
REMARK  status: ('A' for Active; 'I' for Inactive)
ROOT
ATOM      1  C   UNL d   1       4.766  -2.353  -0.824  0.00  0.00     0.023 A 
ATOM      2  C1  UNL d   1       4.125  -2.294  -2.061  0.00  0.00     0.003 A 
ATOM      3  C2  UNL d   1       3.294  -3.340  -2.469  0.00  0.00     0.048 A 
ATOM      4  C3  UNL d   1       3.108  -4.441  -1.634  0.00  0.00     0.023 A 
ATOM      5  C4  UNL d   1       3.747  -4.504  -0.394  0.00  0.00     0.048 A 
ATOM      6  C5  UNL d   1       4.577  -3.456   0.009  0.00  0.00     0.003 A 
ATOM      7  I   UNL d   1       1.872  -5.999  -2.238  0.00  0.00    -0.146 I 
ENDROOT
TORSDOF 0
ENDMDL
