MODEL 1
REMARK minimizedAffinity -2.22637129
REMARK minimizedRMSD -1
REMARK  1 active torsions:
REMARK  status: ('A' for Active; 'I' for Inactive)
REMARK    1  A    between atoms: C3_4  and  O_7 
ROOT
ATOM      1  C   UNL d   1      -2.255   3.822  -5.979  0.00  0.00    -0.033 A 
ATOM      2  C1  UNL d   1      -3.473   3.139  -5.992  0.00  0.00     0.039 A 
ATOM      3  C2  UNL d   1      -4.674   3.851  -6.000  0.00  0.00    -0.080 A 
ATOM      4  C3  UNL d   1      -4.645   5.242  -5.997  0.00  0.00     0.150 A 
ATOM      5  C4  UNL d   1      -3.435   5.929  -5.988  0.00  0.00    -0.007 A 
ATOM      6  C5  UNL d   1      -2.236   5.217  -5.978  0.00  0.00     0.039 A 
ENDROOT
BRANCH   4   7
ATOM      7  O   UNL d   1      -5.791   5.980  -6.000  0.00  0.00    -0.526 OA
ATOM      8  H5  UNL d   1      -6.548   5.371  -5.977  0.00  0.00     0.418 HD
ENDBRANCH   4   7
TORSDOF 1
ENDMDL
