MODEL 1
REMARK minimizedAffinity -2.88966775
REMARK minimizedRMSD -1
REMARK  1 active torsions:
REMARK  status: ('A' for Active; 'I' for Inactive)
REMARK    1  A    between atoms: C3_4  and  O_7 
ROOT
ATOM      1  C   UNL d   1      -5.580   5.360  -5.999  0.00  0.00    -0.033 A 
ATOM      2  C1  UNL d   1      -4.318   5.956  -5.999  0.00  0.00     0.039 A 
ATOM      3  C2  UNL d   1      -3.169   5.163  -5.996  0.00  0.00    -0.080 A 
ATOM      4  C3  UNL d   1      -3.297   3.776  -5.994  0.00  0.00     0.150 A 
ATOM      5  C4  UNL d   1      -4.551   3.176  -5.997  0.00  0.00    -0.007 A 
ATOM      6  C5  UNL d   1      -5.697   3.970  -5.999  0.00  0.00     0.039 A 
ENDROOT
BRANCH   4   7
ATOM      7  O   UNL d   1      -2.204   2.960  -5.986  0.00  0.00    -0.526 OA
ATOM      8  H5  UNL d   1      -1.407   3.514  -5.955  0.00  0.00     0.418 HD
ENDBRANCH   4   7
TORSDOF 1
ENDMDL
