MODEL 1
REMARK minimizedAffinity -1.46578348
REMARK minimizedRMSD -1
REMARK  1 active torsions:
REMARK  status: ('A' for Active; 'I' for Inactive)
REMARK    1  A    between atoms: C3_4  and  O_7 
ROOT
ATOM      1  C   UNL d   1      -0.738   5.094  -4.798  0.00  0.00    -0.033 A 
ATOM      2  C1  UNL d   1      -1.098   3.961  -4.067  0.00  0.00     0.039 A 
ATOM      3  C2  UNL d   1      -2.326   3.338  -4.299  0.00  0.00    -0.080 A 
ATOM      4  C3  UNL d   1      -3.183   3.858  -5.265  0.00  0.00     0.150 A 
ATOM      5  C4  UNL d   1      -2.830   4.985  -6.000  0.00  0.00    -0.007 A 
ATOM      6  C5  UNL d   1      -1.603   5.605  -5.766  0.00  0.00     0.039 A 
ENDROOT
BRANCH   4   7
ATOM      7  O   UNL d   1      -4.394   3.288  -5.523  0.00  0.00    -0.526 OA
ATOM      8  H5  UNL d   1      -4.516   2.536  -4.920  0.00  0.00     0.418 HD
ENDBRANCH   4   7
TORSDOF 1
ENDMDL
