MODEL 1
REMARK minimizedAffinity 5.39048529
REMARK minimizedRMSD -1
REMARK  1 active torsions:
REMARK  status: ('A' for Active; 'I' for Inactive)
REMARK    1  A    between atoms: C3_4  and  O_7 
ROOT
ATOM      1  C   UNL d   1      -3.849   5.419  -5.070  0.00  0.00    -0.033 A 
ATOM      2  C1  UNL d   1      -2.601   5.563  -5.679  0.00  0.00     0.039 A 
ATOM      3  C2  UNL d   1      -1.842   4.435  -5.995  0.00  0.00    -0.080 A 
ATOM      4  C3  UNL d   1      -2.342   3.170  -5.699  0.00  0.00     0.150 A 
ATOM      5  C4  UNL d   1      -3.587   3.018  -5.096  0.00  0.00    -0.007 A 
ATOM      6  C5  UNL d   1      -4.343   4.146  -4.780  0.00  0.00     0.039 A 
ENDROOT
BRANCH   4   7
ATOM      7  O   UNL d   1      -1.636   2.039  -5.985  0.00  0.00    -0.526 OA
ATOM      8  H5  UNL d   1      -0.784   2.299  -6.373  0.00  0.00     0.418 HD
ENDBRANCH   4   7
TORSDOF 1
ENDMDL
