MODEL 1
REMARK minimizedAffinity 4.55139017
REMARK minimizedRMSD -1
REMARK  1 active torsions:
REMARK  status: ('A' for Active; 'I' for Inactive)
REMARK    1  A    between atoms: C3_4  and  O_7 
ROOT
ATOM      1  C   UNL d   1      -0.319   4.254  -5.999  0.00  0.00    -0.033 A 
ATOM      2  C1  UNL d   1      -0.825   2.952  -6.000  0.00  0.00     0.039 A 
ATOM      3  C2  UNL d   1      -2.205   2.738  -5.997  0.00  0.00    -0.080 A 
ATOM      4  C3  UNL d   1      -3.066   3.832  -5.994  0.00  0.00     0.150 A 
ATOM      5  C4  UNL d   1      -2.568   5.131  -5.998  0.00  0.00    -0.007 A 
ATOM      6  C5  UNL d   1      -1.190   5.343  -6.000  0.00  0.00     0.039 A 
ENDROOT
BRANCH   4   7
ATOM      7  O   UNL d   1      -4.420   3.673  -5.986  0.00  0.00    -0.526 OA
ATOM      8  H5  UNL d   1      -4.618   2.722  -5.956  0.00  0.00     0.418 HD
ENDBRANCH   4   7
TORSDOF 1
ENDMDL
