MODEL 1
REMARK minimizedAffinity 4.74624681
REMARK minimizedRMSD -1
REMARK  1 active torsions:
REMARK  status: ('A' for Active; 'I' for Inactive)
REMARK    1  A    between atoms: C3_4  and  O_7 
ROOT
ATOM      1  C   UNL d   1      -1.694   2.244  -0.083  0.00  0.00    -0.033 A 
ATOM      2  C1  UNL d   1      -1.472   0.988   0.484  0.00  0.00     0.039 A 
ATOM      3  C2  UNL d   1      -0.177   0.470   0.556  0.00  0.00    -0.080 A 
ATOM      4  C3  UNL d   1       0.886   1.218   0.058  0.00  0.00     0.150 A 
ATOM      5  C4  UNL d   1       0.673   2.472  -0.505  0.00  0.00    -0.007 A 
ATOM      6  C5  UNL d   1      -0.621   2.987  -0.577  0.00  0.00     0.039 A 
ENDROOT
BRANCH   4   7
ATOM      7  O   UNL d   1       2.166   0.753   0.101  0.00  0.00    -0.526 OA
ATOM      8  H5  UNL d   1       2.157  -0.137   0.491  0.00  0.00     0.418 HD
ENDBRANCH   4   7
TORSDOF 1
ENDMDL
