MODEL 1
REMARK minimizedAffinity 5.39291954
REMARK minimizedRMSD -1
REMARK  1 active torsions:
REMARK  status: ('A' for Active; 'I' for Inactive)
REMARK    1  A    between atoms: C3_4  and  O_7 
ROOT
ATOM      1  C   UNL d   1      -3.503   5.400  -5.983  0.00  0.00    -0.033 A 
ATOM      2  C1  UNL d   1      -2.124   5.621  -5.986  0.00  0.00     0.039 A 
ATOM      3  C2  UNL d   1      -1.242   4.539  -5.993  0.00  0.00    -0.080 A 
ATOM      4  C3  UNL d   1      -1.750   3.243  -5.998  0.00  0.00     0.150 A 
ATOM      5  C4  UNL d   1      -3.123   3.016  -5.999  0.00  0.00    -0.007 A 
ATOM      6  C5  UNL d   1      -4.002   4.098  -5.991  0.00  0.00     0.039 A 
ENDROOT
BRANCH   4   7
ATOM      7  O   UNL d   1      -0.929   2.156  -6.000  0.00  0.00    -0.526 OA
ATOM      8  H5  UNL d   1      -0.008   2.465  -5.969  0.00  0.00     0.418 HD
ENDBRANCH   4   7
TORSDOF 1
ENDMDL
