MODEL 1
REMARK minimizedAffinity 6.70446253
REMARK minimizedRMSD -1
REMARK  1 active torsions:
REMARK  status: ('A' for Active; 'I' for Inactive)
REMARK    1  A    between atoms: C3_4  and  O_7 
ROOT
ATOM      1  C   UNL d   1       1.056   2.783   2.234  0.00  0.00    -0.033 A 
ATOM      2  C1  UNL d   1       1.020   3.059   3.602  0.00  0.00     0.039 A 
ATOM      3  C2  UNL d   1      -0.201   3.300   4.236  0.00  0.00    -0.080 A 
ATOM      4  C3  UNL d   1      -1.376   3.262   3.491  0.00  0.00     0.150 A 
ATOM      5  C4  UNL d   1      -1.348   2.984   2.128  0.00  0.00    -0.007 A 
ATOM      6  C5  UNL d   1      -0.128   2.745   1.497  0.00  0.00     0.039 A 
ENDROOT
BRANCH   4   7
ATOM      7  O   UNL d   1      -2.591   3.496   4.064  0.00  0.00    -0.526 OA
ATOM      8  H5  UNL d   1      -2.453   3.702   5.004  0.00  0.00     0.418 HD
ENDBRANCH   4   7
TORSDOF 1
ENDMDL
