MODEL 1
REMARK minimizedAffinity 6.59101963
REMARK minimizedRMSD -1
REMARK  1 active torsions:
REMARK  status: ('A' for Active; 'I' for Inactive)
REMARK    1  A    between atoms: C3_4  and  O_7 
ROOT
ATOM      1  C   UNL d   1      -0.699  -3.285  -2.625  0.00  0.00    -0.033 A 
ATOM      2  C1  UNL d   1      -1.734  -2.729  -1.872  0.00  0.00     0.039 A 
ATOM      3  C2  UNL d   1      -2.654  -3.559  -1.227  0.00  0.00    -0.080 A 
ATOM      4  C3  UNL d   1      -2.526  -4.940  -1.343  0.00  0.00     0.150 A 
ATOM      5  C4  UNL d   1      -1.495  -5.501  -2.089  0.00  0.00    -0.007 A 
ATOM      6  C5  UNL d   1      -0.578  -4.671  -2.733  0.00  0.00     0.039 A 
ENDROOT
BRANCH   4   7
ATOM      7  O   UNL d   1      -3.402  -5.790  -0.736  0.00  0.00    -0.526 OA
ATOM      8  H5  UNL d   1      -4.078  -5.262  -0.280  0.00  0.00     0.418 HD
ENDBRANCH   4   7
TORSDOF 1
ENDMDL
