MODEL 1
REMARK minimizedAffinity 8.84456635
REMARK minimizedRMSD -1
REMARK  1 active torsions:
REMARK  status: ('A' for Active; 'I' for Inactive)
REMARK    1  A    between atoms: C3_4  and  O_7 
ROOT
ATOM      1  C   UNL d   1       0.716   3.351  -4.083  0.00  0.00    -0.033 A 
ATOM      2  C1  UNL d   1       0.527   3.664  -5.431  0.00  0.00     0.039 A 
ATOM      3  C2  UNL d   1      -0.744   3.570  -6.000  0.00  0.00    -0.080 A 
ATOM      4  C3  UNL d   1      -1.817   3.163  -5.212  0.00  0.00     0.150 A 
ATOM      5  C4  UNL d   1      -1.637   2.853  -3.867  0.00  0.00    -0.007 A 
ATOM      6  C5  UNL d   1      -0.367   2.947  -3.301  0.00  0.00     0.039 A 
ENDROOT
BRANCH   4   7
ATOM      7  O   UNL d   1      -3.075   3.051  -5.724  0.00  0.00    -0.526 OA
ATOM      8  H5  UNL d   1      -3.043   3.269  -6.670  0.00  0.00     0.418 HD
ENDBRANCH   4   7
TORSDOF 1
ENDMDL
