MODEL 1
REMARK minimizedAffinity -1.57536328
REMARK minimizedRMSD -1
REMARK  1 active torsions:
REMARK  status: ('A' for Active; 'I' for Inactive)
REMARK    1  A    between atoms: C3_4  and  O_7 
ROOT
ATOM      1  C   UNL d   1      -3.916   4.321  -6.000  0.00  0.00    -0.033 A 
ATOM      2  C1  UNL d   1      -3.124   5.471  -5.999  0.00  0.00     0.039 A 
ATOM      3  C2  UNL d   1      -1.733   5.362  -5.991  0.00  0.00    -0.080 A 
ATOM      4  C3  UNL d   1      -1.146   4.100  -5.985  0.00  0.00     0.150 A 
ATOM      5  C4  UNL d   1      -1.929   2.950  -5.989  0.00  0.00    -0.007 A 
ATOM      6  C5  UNL d   1      -3.318   3.060  -5.997  0.00  0.00     0.039 A 
ENDROOT
BRANCH   4   7
ATOM      7  O   UNL d   1       0.208   3.943  -5.972  0.00  0.00    -0.526 OA
ATOM      8  H5  UNL d   1       0.620   4.823  -5.941  0.00  0.00     0.418 HD
ENDBRANCH   4   7
TORSDOF 1
ENDMDL
