MODEL 1
REMARK minimizedAffinity 0.311304629
REMARK minimizedRMSD -1
REMARK  1 active torsions:
REMARK  status: ('A' for Active; 'I' for Inactive)
REMARK    1  A    between atoms: C3_4  and  O_7 
ROOT
ATOM      1  C   UNL d   1      -0.946   2.642  -5.912  0.00  0.00    -0.033 A 
ATOM      2  C1  UNL d   1       0.357   2.148  -6.000  0.00  0.00     0.039 A 
ATOM      3  C2  UNL d   1       1.442   3.026  -5.961  0.00  0.00    -0.080 A 
ATOM      4  C3  UNL d   1       1.210   4.393  -5.833  0.00  0.00     0.150 A 
ATOM      5  C4  UNL d   1      -0.085   4.891  -5.741  0.00  0.00    -0.007 A 
ATOM      6  C5  UNL d   1      -1.167   4.013  -5.781  0.00  0.00     0.039 A 
ENDROOT
BRANCH   4   7
ATOM      7  O   UNL d   1       2.237   5.289  -5.796  0.00  0.00    -0.526 OA
ATOM      8  H5  UNL d   1       3.073   4.804  -5.898  0.00  0.00     0.418 HD
ENDBRANCH   4   7
TORSDOF 1
ENDMDL
