MODEL 1
REMARK minimizedAffinity 11.6776686
REMARK minimizedRMSD -1
REMARK  1 active torsions:
REMARK  status: ('A' for Active; 'I' for Inactive)
REMARK    1  A    between atoms: C1_2  and  C2_3 
ROOT
ATOM      1  C2  UNL d   1       3.613   2.587  -1.174  0.00  0.00    -0.077 A 
ATOM      2  C3  UNL d   1       3.811   3.719  -0.370  0.00  0.00     0.002 A 
ATOM      3  C4  UNL d   1       4.998   4.448  -0.457  0.00  0.00     0.002 A 
ATOM      4  C5  UNL d   1       5.995   4.056  -1.348  0.00  0.00    -0.004 A 
ATOM      5  C6  UNL d   1       5.809   2.931  -2.150  0.00  0.00     0.002 A 
ATOM      6  C7  UNL d   1       4.623   2.200  -2.064  0.00  0.00     0.002 A 
ENDROOT
BRANCH   1   7
ATOM      7  C1  UNL d   1       2.313   1.828  -1.118  0.00  0.00     0.055 C 
ATOM      8  C   UNL d   1       2.405   0.516  -1.883  0.00  0.00     0.019 C 
ENDBRANCH   1   7
TORSDOF 1
ENDMDL
