MODEL 1
REMARK minimizedAffinity 13.2293711
REMARK minimizedRMSD -1
REMARK  1 active torsions:
REMARK  status: ('A' for Active; 'I' for Inactive)
REMARK    1  A    between atoms: C1_2  and  C2_3 
ROOT
ATOM      1  C2  UNL d   1      -4.069   3.783  -4.991  0.00  0.00    -0.077 A 
ATOM      2  C3  UNL d   1      -3.889   4.908  -4.175  0.00  0.00     0.002 A 
ATOM      3  C4  UNL d   1      -4.757   5.998  -4.272  0.00  0.00     0.002 A 
ATOM      4  C5  UNL d   1      -5.812   5.971  -5.182  0.00  0.00    -0.004 A 
ATOM      5  C6  UNL d   1      -5.998   4.857  -6.000  0.00  0.00     0.002 A 
ATOM      6  C7  UNL d   1      -5.131   3.768  -5.904  0.00  0.00     0.002 A 
ENDROOT
BRANCH   1   7
ATOM      7  C1  UNL d   1      -3.163   2.587  -4.853  0.00  0.00     0.055 C 
ATOM      8  C   UNL d   1      -1.837   2.968  -4.211  0.00  0.00     0.019 C 
ENDBRANCH   1   7
TORSDOF 1
ENDMDL
