MODEL 1
REMARK minimizedAffinity 2.91300774
REMARK minimizedRMSD -1
REMARK  1 active torsions:
REMARK  status: ('A' for Active; 'I' for Inactive)
REMARK    1  A    between atoms: C1_2  and  C2_3 
ROOT
ATOM      1  C2  UNL d   1       3.812   2.495   5.181  0.00  0.00    -0.077 A 
ATOM      2  C3  UNL d   1       3.205   1.650   4.242  0.00  0.00     0.002 A 
ATOM      3  C4  UNL d   1       3.961   0.693   3.561  0.00  0.00     0.002 A 
ATOM      4  C5  UNL d   1       5.325   0.570   3.815  0.00  0.00    -0.004 A 
ATOM      5  C6  UNL d   1       5.938   1.408   4.746  0.00  0.00     0.002 A 
ATOM      6  C7  UNL d   1       5.185   2.366   5.426  0.00  0.00     0.002 A 
ENDROOT
BRANCH   1   7
ATOM      7  C1  UNL d   1       2.990   3.494   5.952  0.00  0.00     0.055 C 
ATOM      8  C   UNL d   1       3.637   4.872   5.939  0.00  0.00     0.019 C 
ENDBRANCH   1   7
TORSDOF 1
ENDMDL
