MODEL 1
REMARK minimizedAffinity 8.17370224
REMARK minimizedRMSD -1
REMARK  1 active torsions:
REMARK  status: ('A' for Active; 'I' for Inactive)
REMARK    1  A    between atoms: C1_2  and  C2_3 
ROOT
ATOM      1  C2  UNL d   1      -5.132   5.729  -3.513  0.00  0.00    -0.077 A 
ATOM      2  C3  UNL d   1      -6.000   5.961  -2.437  0.00  0.00     0.002 A 
ATOM      3  C4  UNL d   1      -5.519   5.948  -1.126  0.00  0.00     0.002 A 
ATOM      4  C5  UNL d   1      -4.169   5.708  -0.880  0.00  0.00    -0.004 A 
ATOM      5  C6  UNL d   1      -3.298   5.474  -1.943  0.00  0.00     0.002 A 
ATOM      6  C7  UNL d   1      -3.777   5.486  -3.254  0.00  0.00     0.002 A 
ENDROOT
BRANCH   1   7
ATOM      7  C1  UNL d   1      -5.639   5.792  -4.930  0.00  0.00     0.055 C 
ATOM      8  C   UNL d   1      -5.888   4.399  -5.490  0.00  0.00     0.019 C 
ENDBRANCH   1   7
TORSDOF 1
ENDMDL
