MODEL 1
REMARK minimizedAffinity 7.17193031
REMARK minimizedRMSD -1
REMARK  1 active torsions:
REMARK  status: ('A' for Active; 'I' for Inactive)
REMARK    1  A    between atoms: C1_2  and  C2_3 
ROOT
ATOM      1  C2  UNL d   1      -2.249  -0.946   5.353  0.00  0.00    -0.077 A 
ATOM      2  C3  UNL d   1      -1.146  -1.542   5.980  0.00  0.00     0.002 A 
ATOM      3  C4  UNL d   1      -0.834  -2.881   5.737  0.00  0.00     0.002 A 
ATOM      4  C5  UNL d   1      -1.618  -3.634   4.864  0.00  0.00    -0.004 A 
ATOM      5  C6  UNL d   1      -2.718  -3.051   4.238  0.00  0.00     0.002 A 
ATOM      6  C7  UNL d   1      -3.032  -1.713   4.481  0.00  0.00     0.002 A 
ENDROOT
BRANCH   1   7
ATOM      7  C1  UNL d   1      -2.559   0.511   5.576  0.00  0.00     0.055 C 
ATOM      8  C   UNL d   1      -4.007   0.712   5.999  0.00  0.00     0.019 C 
ENDBRANCH   1   7
TORSDOF 1
ENDMDL
