MODEL 1
REMARK minimizedAffinity 16.1109447
REMARK minimizedRMSD -1
REMARK  1 active torsions:
REMARK  status: ('A' for Active; 'I' for Inactive)
REMARK    1  A    between atoms: C1_2  and  C2_3 
ROOT
ATOM      1  C2  UNL d   1      -1.331  -3.577   0.820  0.00  0.00    -0.077 A 
ATOM      2  C3  UNL d   1      -2.387  -3.170   1.648  0.00  0.00     0.002 A 
ATOM      3  C4  UNL d   1      -3.034  -1.953   1.421  0.00  0.00     0.002 A 
ATOM      4  C5  UNL d   1      -2.635  -1.137   0.365  0.00  0.00    -0.004 A 
ATOM      5  C6  UNL d   1      -1.584  -1.532  -0.462  0.00  0.00     0.002 A 
ATOM      6  C7  UNL d   1      -0.936  -2.747  -0.236  0.00  0.00     0.002 A 
ENDROOT
BRANCH   1   7
ATOM      7  C1  UNL d   1      -0.665  -4.911   1.033  0.00  0.00     0.055 C 
ATOM      8  C   UNL d   1      -1.180  -5.950   0.047  0.00  0.00     0.019 C 
ENDBRANCH   1   7
TORSDOF 1
ENDMDL
