MODEL 1
REMARK minimizedAffinity 6.09715319
REMARK minimizedRMSD -1
REMARK  1 active torsions:
REMARK  status: ('A' for Active; 'I' for Inactive)
REMARK    1  A    between atoms: C1_2  and  C2_3 
ROOT
ATOM      1  C2  UNL d   1      -1.680  -3.713   2.224  0.00  0.00    -0.077 A 
ATOM      2  C3  UNL d   1      -1.228  -3.730   0.897  0.00  0.00     0.002 A 
ATOM      3  C4  UNL d   1      -0.611  -4.869   0.375  0.00  0.00     0.002 A 
ATOM      4  C5  UNL d   1      -0.445  -6.000   1.172  0.00  0.00    -0.004 A 
ATOM      5  C6  UNL d   1      -0.889  -5.992   2.493  0.00  0.00     0.002 A 
ATOM      6  C7  UNL d   1      -1.504  -4.854   3.017  0.00  0.00     0.002 A 
ENDROOT
BRANCH   1   7
ATOM      7  C1  UNL d   1      -2.389  -2.503   2.773  0.00  0.00     0.055 C 
ATOM      8  C   UNL d   1      -3.757  -2.869   3.330  0.00  0.00     0.019 C 
ENDBRANCH   1   7
TORSDOF 1
ENDMDL
