MODEL 1
REMARK minimizedAffinity 8.80948448
REMARK minimizedRMSD -1
REMARK  1 active torsions:
REMARK  status: ('A' for Active; 'I' for Inactive)
REMARK    1  A    between atoms: C1_2  and  C2_3 
ROOT
ATOM      1  C2  UNL d   1      -1.343  -0.895  -2.268  0.00  0.00    -0.077 A 
ATOM      2  C3  UNL d   1      -1.443  -1.804  -1.205  0.00  0.00     0.002 A 
ATOM      3  C4  UNL d   1      -2.553  -1.781  -0.359  0.00  0.00     0.002 A 
ATOM      4  C5  UNL d   1      -3.574  -0.857  -0.570  0.00  0.00    -0.004 A 
ATOM      5  C6  UNL d   1      -3.483   0.052  -1.623  0.00  0.00     0.002 A 
ATOM      6  C7  UNL d   1      -2.373   0.032  -2.469  0.00  0.00     0.002 A 
ENDROOT
BRANCH   1   7
ATOM      7  C1  UNL d   1      -0.170  -0.950  -3.211  0.00  0.00     0.055 C 
ATOM      8  C   UNL d   1       0.982  -0.089  -2.713  0.00  0.00     0.019 C 
ENDBRANCH   1   7
TORSDOF 1
ENDMDL
