MODEL 1
REMARK minimizedAffinity 5.03877878
REMARK minimizedRMSD -1
REMARK  1 active torsions:
REMARK  status: ('A' for Active; 'I' for Inactive)
REMARK    1  A    between atoms: C1_2  and  C2_3 
ROOT
ATOM      1  C2  UNL d   1      -3.403   0.288   5.960  0.00  0.00    -0.077 A 
ATOM      2  C3  UNL d   1      -4.698  -0.250   5.977  0.00  0.00     0.002 A 
ATOM      3  C4  UNL d   1      -5.812   0.591   5.998  0.00  0.00     0.002 A 
ATOM      4  C5  UNL d   1      -5.643   1.974   5.999  0.00  0.00    -0.004 A 
ATOM      5  C6  UNL d   1      -4.360   2.518   5.984  0.00  0.00     0.002 A 
ATOM      6  C7  UNL d   1      -3.245   1.679   5.964  0.00  0.00     0.002 A 
ENDROOT
BRANCH   1   7
ATOM      7  C1  UNL d   1      -2.201  -0.617   5.886  0.00  0.00     0.055 C 
ATOM      8  C   UNL d   1      -2.564  -1.973   5.299  0.00  0.00     0.019 C 
ENDBRANCH   1   7
TORSDOF 1
ENDMDL
