MODEL 1
REMARK minimizedAffinity 8.39449787
REMARK minimizedRMSD -1
REMARK  1 active torsions:
REMARK  status: ('A' for Active; 'I' for Inactive)
REMARK    1  A    between atoms: C1_2  and  C2_3 
ROOT
ATOM      1  C2  UNL d   1      -0.978   2.827  -4.875  0.00  0.00    -0.077 A 
ATOM      2  C3  UNL d   1      -1.644   2.044  -3.921  0.00  0.00     0.002 A 
ATOM      3  C4  UNL d   1      -3.024   1.848  -4.007  0.00  0.00     0.002 A 
ATOM      4  C5  UNL d   1      -3.748   2.426  -5.047  0.00  0.00    -0.004 A 
ATOM      5  C6  UNL d   1      -3.095   3.208  -6.000  0.00  0.00     0.002 A 
ATOM      6  C7  UNL d   1      -1.717   3.406  -5.915  0.00  0.00     0.002 A 
ENDROOT
BRANCH   1   7
ATOM      7  C1  UNL d   1       0.517   2.999  -4.812  0.00  0.00     0.055 C 
ATOM      8  C   UNL d   1       1.111   2.251  -3.627  0.00  0.00     0.019 C 
ENDBRANCH   1   7
TORSDOF 1
ENDMDL
