MODEL 1
REMARK minimizedAffinity 5.97337055
REMARK minimizedRMSD -1
REMARK  1 active torsions:
REMARK  status: ('A' for Active; 'I' for Inactive)
REMARK    1  A    between atoms: C1_2  and  C2_3 
ROOT
ATOM      1  C2  UNL d   1      -1.678  -1.882  -1.289  0.00  0.00    -0.077 A 
ATOM      2  C3  UNL d   1      -0.707  -2.853  -1.006  0.00  0.00     0.002 A 
ATOM      3  C4  UNL d   1      -0.640  -3.437   0.261  0.00  0.00     0.002 A 
ATOM      4  C5  UNL d   1      -1.542  -3.058   1.253  0.00  0.00    -0.004 A 
ATOM      5  C6  UNL d   1      -2.510  -2.091   0.982  0.00  0.00     0.002 A 
ATOM      6  C7  UNL d   1      -2.578  -1.506  -0.283  0.00  0.00     0.002 A 
ENDROOT
BRANCH   1   7
ATOM      7  C1  UNL d   1      -1.783  -1.287  -2.669  0.00  0.00     0.055 C 
ATOM      8  C   UNL d   1      -2.642  -0.031  -2.666  0.00  0.00     0.019 C 
ENDBRANCH   1   7
TORSDOF 1
ENDMDL
