MODEL 1
REMARK minimizedAffinity 8.46216583
REMARK minimizedRMSD -1
REMARK  1 active torsions:
REMARK  status: ('A' for Active; 'I' for Inactive)
REMARK    1  A    between atoms: C1_2  and  C2_3 
ROOT
ATOM      1  C2  UNL d   1      -1.141  -3.483  -0.419  0.00  0.00    -0.077 A 
ATOM      2  C3  UNL d   1      -0.580  -3.742   0.839  0.00  0.00     0.002 A 
ATOM      3  C4  UNL d   1      -0.038  -4.997   1.126  0.00  0.00     0.002 A 
ATOM      4  C5  UNL d   1      -0.049  -6.000   0.159  0.00  0.00    -0.004 A 
ATOM      5  C6  UNL d   1      -0.607  -5.753  -1.094  0.00  0.00     0.002 A 
ATOM      6  C7  UNL d   1      -1.150  -4.500  -1.382  0.00  0.00     0.002 A 
ENDROOT
BRANCH   1   7
ATOM      7  C1  UNL d   1      -1.682  -2.116  -0.747  0.00  0.00     0.055 C 
ATOM      8  C   UNL d   1      -2.632  -1.622   0.334  0.00  0.00     0.019 C 
ENDBRANCH   1   7
TORSDOF 1
ENDMDL
