MODEL 1
REMARK minimizedAffinity 6.27484703
REMARK minimizedRMSD -1
REMARK  1 active torsions:
REMARK  status: ('A' for Active; 'I' for Inactive)
REMARK    1  A    between atoms: C1_2  and  C2_3 
ROOT
ATOM      1  C2  UNL d   1      -2.572   4.047  -5.062  0.00  0.00    -0.077 A 
ATOM      2  C3  UNL d   1      -3.614   3.529  -5.845  0.00  0.00     0.002 A 
ATOM      3  C4  UNL d   1      -4.804   4.242  -5.997  0.00  0.00     0.002 A 
ATOM      4  C5  UNL d   1      -4.963   5.478  -5.373  0.00  0.00    -0.004 A 
ATOM      5  C6  UNL d   1      -3.934   6.000  -4.590  0.00  0.00     0.002 A 
ATOM      6  C7  UNL d   1      -2.744   5.288  -4.436  0.00  0.00     0.002 A 
ENDROOT
BRANCH   1   7
ATOM      7  C1  UNL d   1      -1.269   3.302  -4.937  0.00  0.00     0.055 C 
ATOM      8  C   UNL d   1      -0.141   4.036  -5.649  0.00  0.00     0.019 C 
ENDBRANCH   1   7
TORSDOF 1
ENDMDL
