MODEL 1
REMARK minimizedAffinity 12.5346279
REMARK minimizedRMSD -1
REMARK  1 active torsions:
REMARK  status: ('A' for Active; 'I' for Inactive)
REMARK    1  A    between atoms: C1_2  and  C2_3 
ROOT
ATOM      1  C2  UNL d   1      -2.295   3.479  -5.264  0.00  0.00    -0.077 A 
ATOM      2  C3  UNL d   1      -2.238   2.673  -4.118  0.00  0.00     0.002 A 
ATOM      3  C4  UNL d   1      -1.030   2.099  -3.717  0.00  0.00     0.002 A 
ATOM      4  C5  UNL d   1       0.130   2.328  -4.454  0.00  0.00    -0.004 A 
ATOM      5  C6  UNL d   1       0.084   3.127  -5.596  0.00  0.00     0.002 A 
ATOM      6  C7  UNL d   1      -1.123   3.700  -5.999  0.00  0.00     0.002 A 
ENDROOT
BRANCH   1   7
ATOM      7  C1  UNL d   1      -3.587   4.139  -5.670  0.00  0.00     0.055 C 
ATOM      8  C   UNL d   1      -4.655   3.107  -5.999  0.00  0.00     0.019 C 
ENDBRANCH   1   7
TORSDOF 1
ENDMDL
