MODEL 1
REMARK minimizedAffinity 11.3362961
REMARK minimizedRMSD -1
REMARK  1 active torsions:
REMARK  status: ('A' for Active; 'I' for Inactive)
REMARK    1  A    between atoms: C1_2  and  C2_3 
ROOT
ATOM      1  C2  UNL d   1      -3.779  -1.280   5.278  0.00  0.00    -0.077 A 
ATOM      2  C3  UNL d   1      -2.553  -0.704   5.639  0.00  0.00     0.002 A 
ATOM      3  C4  UNL d   1      -2.484   0.644   5.996  0.00  0.00     0.002 A 
ATOM      4  C5  UNL d   1      -3.638   1.426   6.000  0.00  0.00    -0.004 A 
ATOM      5  C6  UNL d   1      -4.862   0.862   5.641  0.00  0.00     0.002 A 
ATOM      6  C7  UNL d   1      -4.932  -0.485   5.282  0.00  0.00     0.002 A 
ENDROOT
BRANCH   1   7
ATOM      7  C1  UNL d   1      -3.864  -2.746   4.941  0.00  0.00     0.055 C 
ATOM      8  C   UNL d   1      -2.608  -3.223   4.226  0.00  0.00     0.019 C 
ENDBRANCH   1   7
TORSDOF 1
ENDMDL
