MODEL 1
REMARK minimizedAffinity 9.04174614
REMARK minimizedRMSD -1
REMARK  1 active torsions:
REMARK  status: ('A' for Active; 'I' for Inactive)
REMARK    1  A    between atoms: C1_2  and  C2_3 
ROOT
ATOM      1  C2  UNL d   1      -3.810   4.104  -4.986  0.00  0.00    -0.077 A 
ATOM      2  C3  UNL d   1      -3.888   5.055  -3.958  0.00  0.00     0.002 A 
ATOM      3  C4  UNL d   1      -4.917   5.999  -3.946  0.00  0.00     0.002 A 
ATOM      4  C5  UNL d   1      -5.876   5.999  -4.956  0.00  0.00    -0.004 A 
ATOM      5  C6  UNL d   1      -5.806   5.060  -5.984  0.00  0.00     0.002 A 
ATOM      6  C7  UNL d   1      -4.778   4.116  -5.998  0.00  0.00     0.002 A 
ENDROOT
BRANCH   1   7
ATOM      7  C1  UNL d   1      -2.730   3.054  -4.974  0.00  0.00     0.055 C 
ATOM      8  C   UNL d   1      -2.358   2.659  -3.553  0.00  0.00     0.019 C 
ENDBRANCH   1   7
TORSDOF 1
ENDMDL
