MODEL 1
REMARK minimizedAffinity 8.95978451
REMARK minimizedRMSD -1
REMARK  0 active torsions:
REMARK  status: ('A' for Active; 'I' for Inactive)
ROOT
ATOM      1  C   UNL d   1       2.342  -3.574  -2.782  0.00  0.00     0.077 C 
ATOM      2  C1  UNL d   1       3.057  -2.258  -2.696  0.00  0.00    -0.074 A 
ATOM      3  C2  UNL d   1       3.102  -1.541  -1.496  0.00  0.00    -0.005 A 
ATOM      4  C3  UNL d   1       3.779  -0.323  -1.430  0.00  0.00     0.006 A 
ATOM      5  C4  UNL d   1       4.417   0.189  -2.560  0.00  0.00    -0.005 A 
ATOM      6  C5  UNL d   1       4.383  -0.514  -3.769  0.00  0.00    -0.074 A 
ATOM      7  C6  UNL d   1       5.071   0.017  -4.991  0.00  0.00     0.077 C 
ATOM      8  C7  UNL d   1       3.706  -1.741  -3.826  0.00  0.00    -0.001 A 
ENDROOT
TORSDOF 0
ENDMDL
