MODEL 1
REMARK minimizedAffinity 7.62839746
REMARK minimizedRMSD -1
REMARK  0 active torsions:
REMARK  status: ('A' for Active; 'I' for Inactive)
ROOT
ATOM      1  C   UNL d   1       2.420   4.928  -1.585  0.00  0.00     0.077 C 
ATOM      2  C1  UNL d   1       3.671   5.274  -2.337  0.00  0.00    -0.074 A 
ATOM      3  C2  UNL d   1       4.833   5.662  -1.662  0.00  0.00    -0.005 A 
ATOM      4  C3  UNL d   1       5.991   5.971  -2.375  0.00  0.00     0.006 A 
ATOM      5  C4  UNL d   1       5.999   5.897  -3.768  0.00  0.00    -0.005 A 
ATOM      6  C5  UNL d   1       4.847   5.511  -4.461  0.00  0.00    -0.074 A 
ATOM      7  C6  UNL d   1       4.841   5.417  -5.958  0.00  0.00     0.077 C 
ATOM      8  C7  UNL d   1       3.689   5.195  -3.737  0.00  0.00    -0.001 A 
ENDROOT
TORSDOF 0
ENDMDL
