MODEL 1
REMARK minimizedAffinity 5.56696415
REMARK minimizedRMSD -1
REMARK  0 active torsions:
REMARK  status: ('A' for Active; 'I' for Inactive)
ROOT
ATOM      1  C   UNL d   1       2.463   4.569  -1.730  0.00  0.00     0.077 C 
ATOM      2  C1  UNL d   1       3.694   5.074  -2.422  0.00  0.00    -0.074 A 
ATOM      3  C2  UNL d   1       4.792   5.537  -1.689  0.00  0.00    -0.005 A 
ATOM      4  C3  UNL d   1       5.933   5.996  -2.347  0.00  0.00     0.006 A 
ATOM      5  C4  UNL d   1       5.988   5.996  -3.741  0.00  0.00    -0.005 A 
ATOM      6  C5  UNL d   1       4.901   5.536  -4.491  0.00  0.00    -0.074 A 
ATOM      7  C6  UNL d   1       4.947   5.521  -5.990  0.00  0.00     0.077 C 
ATOM      8  C7  UNL d   1       3.760   5.071  -3.822  0.00  0.00    -0.001 A 
ENDROOT
TORSDOF 0
ENDMDL
