MODEL 1
REMARK minimizedAffinity 2.15485168
REMARK minimizedRMSD -1
REMARK  0 active torsions:
REMARK  status: ('A' for Active; 'I' for Inactive)
ROOT
ATOM      1  C   UNL d   1      -5.968  -3.434  -1.873  0.00  0.00     0.077 C 
ATOM      2  C1  UNL d   1      -5.534  -3.439  -3.308  0.00  0.00    -0.074 A 
ATOM      3  C2  UNL d   1      -5.317  -2.241  -3.998  0.00  0.00    -0.005 A 
ATOM      4  C3  UNL d   1      -4.904  -2.261  -5.330  0.00  0.00     0.006 A 
ATOM      5  C4  UNL d   1      -4.704  -3.477  -5.985  0.00  0.00    -0.005 A 
ATOM      6  C5  UNL d   1      -4.915  -4.685  -5.312  0.00  0.00    -0.074 A 
ATOM      7  C6  UNL d   1      -4.696  -6.000  -5.999  0.00  0.00     0.077 C 
ATOM      8  C7  UNL d   1      -5.323  -4.656  -3.971  0.00  0.00    -0.001 A 
ENDROOT
TORSDOF 0
ENDMDL
