MODEL 1
REMARK minimizedAffinity 6.6621213
REMARK minimizedRMSD -1
REMARK  0 active torsions:
REMARK  status: ('A' for Active; 'I' for Inactive)
ROOT
ATOM      1  C   UNL d   1       6.000  -2.641  -5.834  0.00  0.00     0.077 C 
ATOM      2  C1  UNL d   1       5.361  -1.425  -5.231  0.00  0.00    -0.074 A 
ATOM      3  C2  UNL d   1       5.126  -0.281  -6.000  0.00  0.00    -0.005 A 
ATOM      4  C3  UNL d   1       4.523   0.839  -5.427  0.00  0.00     0.006 A 
ATOM      5  C4  UNL d   1       4.149   0.826  -4.083  0.00  0.00    -0.005 A 
ATOM      6  C5  UNL d   1       4.376  -0.310  -3.299  0.00  0.00    -0.074 A 
ATOM      7  C6  UNL d   1       3.972  -0.344  -1.855  0.00  0.00     0.077 C 
ATOM      8  C7  UNL d   1       4.976  -1.434  -3.883  0.00  0.00    -0.001 A 
ENDROOT
TORSDOF 0
ENDMDL
