MODEL 1
REMARK minimizedAffinity 1.98181248
REMARK minimizedRMSD -1
REMARK  0 active torsions:
REMARK  status: ('A' for Active; 'I' for Inactive)
ROOT
ATOM      1  C   UNL d   1       1.861   3.684  -1.116  0.00  0.00     0.077 C 
ATOM      2  C1  UNL d   1       2.340   2.501  -0.328  0.00  0.00    -0.074 A 
ATOM      3  C2  UNL d   1       3.687   2.370   0.025  0.00  0.00    -0.005 A 
ATOM      4  C3  UNL d   1       4.116   1.269   0.766  0.00  0.00     0.006 A 
ATOM      5  C4  UNL d   1       3.204   0.290   1.161  0.00  0.00    -0.005 A 
ATOM      6  C5  UNL d   1       1.853   0.405   0.819  0.00  0.00    -0.074 A 
ATOM      7  C6  UNL d   1       0.858  -0.634   1.244  0.00  0.00     0.077 C 
ATOM      8  C7  UNL d   1       1.428   1.518   0.080  0.00  0.00    -0.001 A 
ENDROOT
TORSDOF 0
ENDMDL
