MODEL 1
REMARK minimizedAffinity 4.79293442
REMARK minimizedRMSD -1
REMARK  0 active torsions:
REMARK  status: ('A' for Active; 'I' for Inactive)
ROOT
ATOM      1  C   UNL d   1       2.935   2.319   1.150  0.00  0.00     0.077 C 
ATOM      2  C1  UNL d   1       2.855   0.822   1.155  0.00  0.00    -0.074 A 
ATOM      3  C2  UNL d   1       3.983   0.041   0.883  0.00  0.00    -0.005 A 
ATOM      4  C3  UNL d   1       3.896  -1.351   0.901  0.00  0.00     0.006 A 
ATOM      5  C4  UNL d   1       2.682  -1.975   1.191  0.00  0.00    -0.005 A 
ATOM      6  C5  UNL d   1       1.544  -1.211   1.467  0.00  0.00    -0.074 A 
ATOM      7  C6  UNL d   1       0.233  -1.865   1.790  0.00  0.00     0.077 C 
ATOM      8  C7  UNL d   1       1.641   0.188   1.453  0.00  0.00    -0.001 A 
ENDROOT
TORSDOF 0
ENDMDL
