MODEL 1
REMARK minimizedAffinity -2.66166711
REMARK minimizedRMSD -1
REMARK  0 active torsions:
REMARK  status: ('A' for Active; 'I' for Inactive)
ROOT
ATOM      1  C   UNL d   1       1.119   1.748   3.808  0.00  0.00     0.077 C 
ATOM      2  C1  UNL d   1       1.454   0.287   3.753  0.00  0.00    -0.074 A 
ATOM      3  C2  UNL d   1       2.110  -0.259   2.646  0.00  0.00    -0.005 A 
ATOM      4  C3  UNL d   1       2.423  -1.618   2.614  0.00  0.00     0.006 A 
ATOM      5  C4  UNL d   1       2.083  -2.443   3.686  0.00  0.00    -0.005 A 
ATOM      6  C5  UNL d   1       1.427  -1.914   4.802  0.00  0.00    -0.074 A 
ATOM      7  C6  UNL d   1       1.063  -2.785   5.968  0.00  0.00     0.077 C 
ATOM      8  C7  UNL d   1       1.122  -0.547   4.830  0.00  0.00    -0.001 A 
ENDROOT
TORSDOF 0
ENDMDL
