MODEL 1
REMARK minimizedAffinity 2.85109401
REMARK minimizedRMSD -1
REMARK  0 active torsions:
REMARK  status: ('A' for Active; 'I' for Inactive)
ROOT
ATOM      1  C   UNL d   1       1.133  -1.209   2.715  0.00  0.00     0.077 C 
ATOM      2  C1  UNL d   1       0.778   0.008   1.915  0.00  0.00    -0.074 A 
ATOM      3  C2  UNL d   1      -0.556   0.320   1.634  0.00  0.00    -0.005 A 
ATOM      4  C3  UNL d   1      -0.872   1.461   0.896  0.00  0.00     0.006 A 
ATOM      5  C4  UNL d   1       0.142   2.300   0.432  0.00  0.00    -0.005 A 
ATOM      6  C5  UNL d   1       1.482   2.005   0.704  0.00  0.00    -0.074 A 
ATOM      7  C6  UNL d   1       2.583   2.902   0.222  0.00  0.00     0.077 C 
ATOM      8  C7  UNL d   1       1.790   0.861   1.452  0.00  0.00    -0.001 A 
ENDROOT
TORSDOF 0
ENDMDL
