MODEL 1
REMARK minimizedAffinity 2.13122559
REMARK minimizedRMSD -1
REMARK  0 active torsions:
REMARK  status: ('A' for Active; 'I' for Inactive)
ROOT
ATOM      1  C   UNL d   1      -5.452  -5.473  -1.165  0.00  0.00     0.077 C 
ATOM      2  C1  UNL d   1      -5.440  -4.933  -2.564  0.00  0.00    -0.074 A 
ATOM      3  C2  UNL d   1      -5.999  -3.685  -2.857  0.00  0.00    -0.005 A 
ATOM      4  C3  UNL d   1      -5.972  -3.191  -4.161  0.00  0.00     0.006 A 
ATOM      5  C4  UNL d   1      -5.387  -3.938  -5.183  0.00  0.00    -0.005 A 
ATOM      6  C5  UNL d   1      -4.822  -5.188  -4.909  0.00  0.00    -0.074 A 
ATOM      7  C6  UNL d   1      -4.180  -6.000  -5.995  0.00  0.00     0.077 C 
ATOM      8  C7  UNL d   1      -4.847  -5.674  -3.595  0.00  0.00    -0.001 A 
ENDROOT
TORSDOF 0
ENDMDL
