MODEL 1
REMARK minimizedAffinity 11.4826918
REMARK minimizedRMSD -1
REMARK  0 active torsions:
REMARK  status: ('A' for Active; 'I' for Inactive)
ROOT
ATOM      1  C   UNL d   1       3.968   1.395  -1.985  0.00  0.00     0.124 A 
ATOM      2  C1  UNL d   1       3.251   1.423  -0.797  0.00  0.00     0.062 A 
ATOM      3  C2  UNL d   1       2.360   0.399  -0.492  0.00  0.00     0.162 A 
ATOM      4  C3  UNL d   1       2.180  -0.664  -1.377  0.00  0.00    -0.034 A 
ATOM      5  C4  UNL d   1       2.904  -0.685  -2.571  0.00  0.00     0.162 A 
ATOM      6  C5  UNL d   1       3.793   0.341  -2.871  0.00  0.00     0.062 A 
ATOM      7  F   UNL d   1       4.485   0.312  -4.020  0.00  0.00    -0.097 F 
ATOM      8  F1  UNL d   1       2.755  -1.692  -3.445  0.00  0.00    -0.096 F 
ATOM      9  I   UNL d   1       0.849  -2.198  -0.925  0.00  0.00    -0.060 I 
ATOM     10  F2  UNL d   1       1.681   0.452   0.663  0.00  0.00    -0.096 F 
ATOM     11  F3  UNL d   1       3.417   2.441   0.060  0.00  0.00    -0.097 F 
ATOM     12  F4  UNL d   1       4.824   2.383  -2.277  0.00  0.00    -0.092 F 
ENDROOT
TORSDOF 0
ENDMDL
