MODEL 1
REMARK minimizedAffinity 11.1572952
REMARK minimizedRMSD -1
REMARK  0 active torsions:
REMARK  status: ('A' for Active; 'I' for Inactive)
ROOT
ATOM      1  C   UNL d   1       1.965  -0.342  -1.398  0.00  0.00     0.124 A 
ATOM      2  C1  UNL d   1       2.748  -0.200  -2.535  0.00  0.00     0.062 A 
ATOM      3  C2  UNL d   1       3.714   0.800  -2.599  0.00  0.00     0.162 A 
ATOM      4  C3  UNL d   1       3.903   1.666  -1.522  0.00  0.00    -0.034 A 
ATOM      5  C4  UNL d   1       3.111   1.517  -0.382  0.00  0.00     0.162 A 
ATOM      6  C5  UNL d   1       2.147   0.516  -0.323  0.00  0.00     0.062 A 
ATOM      7  F   UNL d   1       1.391   0.380   0.776  0.00  0.00    -0.097 F 
ATOM      8  F1  UNL d   1       3.266   2.332   0.672  0.00  0.00    -0.096 F 
ATOM      9  I   UNL d   1       5.347   3.162  -1.613  0.00  0.00    -0.060 I 
ATOM     10  F2  UNL d   1       4.457   0.915  -3.710  0.00  0.00    -0.096 F 
ATOM     11  F3  UNL d   1       2.574  -1.027  -3.576  0.00  0.00    -0.097 F 
ATOM     12  F4  UNL d   1       1.035  -1.304  -1.340  0.00  0.00    -0.092 F 
ENDROOT
TORSDOF 0
ENDMDL
