MODEL 1
REMARK minimizedAffinity 15.3923941
REMARK minimizedRMSD -1
REMARK  0 active torsions:
REMARK  status: ('A' for Active; 'I' for Inactive)
ROOT
ATOM      1  C   UNL d   1       2.531  -0.382  -0.267  0.00  0.00     0.124 A 
ATOM      2  C1  UNL d   1       3.797  -0.519   0.286  0.00  0.00     0.062 A 
ATOM      3  C2  UNL d   1       4.785   0.423   0.014  0.00  0.00     0.162 A 
ATOM      4  C3  UNL d   1       4.512   1.511  -0.815  0.00  0.00    -0.034 A 
ATOM      5  C4  UNL d   1       3.237   1.641  -1.369  0.00  0.00     0.162 A 
ATOM      6  C5  UNL d   1       2.253   0.697  -1.094  0.00  0.00     0.062 A 
ATOM      7  F   UNL d   1       1.030   0.831  -1.629  0.00  0.00    -0.097 F 
ATOM      8  F1  UNL d   1       2.940   2.675  -2.170  0.00  0.00    -0.096 F 
ATOM      9  I   UNL d   1       5.987   2.920  -1.224  0.00  0.00    -0.060 I 
ATOM     10  F2  UNL d   1       5.999   0.265   0.562  0.00  0.00    -0.096 F 
ATOM     11  F3  UNL d   1       4.069  -1.561   1.084  0.00  0.00    -0.097 F 
ATOM     12  F4  UNL d   1       1.583  -1.290  -0.004  0.00  0.00    -0.092 F 
ENDROOT
TORSDOF 0
ENDMDL
