MODEL 1
REMARK minimizedAffinity 11.5928726
REMARK minimizedRMSD -1
REMARK  0 active torsions:
REMARK  status: ('A' for Active; 'I' for Inactive)
ROOT
ATOM      1  C   UNL d   1       3.172   0.354  -2.221  0.00  0.00     0.124 A 
ATOM      2  C1  UNL d   1       2.076  -0.339  -1.726  0.00  0.00     0.062 A 
ATOM      3  C2  UNL d   1       1.717  -0.214  -0.387  0.00  0.00     0.162 A 
ATOM      4  C3  UNL d   1       2.454   0.607   0.467  0.00  0.00    -0.034 A 
ATOM      5  C4  UNL d   1       3.555   1.300  -0.039  0.00  0.00     0.162 A 
ATOM      6  C5  UNL d   1       3.910   1.172  -1.378  0.00  0.00     0.062 A 
ATOM      7  F   UNL d   1       4.969   1.842  -1.856  0.00  0.00    -0.097 F 
ATOM      8  F1  UNL d   1       4.286   2.098   0.753  0.00  0.00    -0.096 F 
ATOM      9  I   UNL d   1       1.920   0.795   2.469  0.00  0.00    -0.060 I 
ATOM     10  F2  UNL d   1       0.653  -0.895   0.065  0.00  0.00    -0.096 F 
ATOM     11  F3  UNL d   1       1.361  -1.130  -2.538  0.00  0.00    -0.097 F 
ATOM     12  F4  UNL d   1       3.516   0.232  -3.510  0.00  0.00    -0.092 F 
ENDROOT
TORSDOF 0
ENDMDL
