MODEL 1
REMARK minimizedAffinity 5.66334343
REMARK minimizedRMSD -1
REMARK  0 active torsions:
REMARK  status: ('A' for Active; 'I' for Inactive)
ROOT
ATOM      1  C   UNL d   1       1.946  -1.501  -1.175  0.00  0.00     0.124 A 
ATOM      2  C1  UNL d   1       2.739  -1.272  -2.291  0.00  0.00     0.062 A 
ATOM      3  C2  UNL d   1       3.486  -0.102  -2.391  0.00  0.00     0.162 A 
ATOM      4  C3  UNL d   1       3.446   0.848  -1.370  0.00  0.00    -0.034 A 
ATOM      5  C4  UNL d   1       2.645   0.611  -0.251  0.00  0.00     0.162 A 
ATOM      6  C5  UNL d   1       1.900  -0.560  -0.157  0.00  0.00     0.062 A 
ATOM      7  F   UNL d   1       1.134  -0.780   0.922  0.00  0.00    -0.097 F 
ATOM      8  F1  UNL d   1       2.583   1.503   0.748  0.00  0.00    -0.096 F 
ATOM      9  I   UNL d   1       4.562   2.599  -1.515  0.00  0.00    -0.060 I 
ATOM     10  F2  UNL d   1       4.244   0.093  -3.480  0.00  0.00    -0.096 F 
ATOM     11  F3  UNL d   1       2.785  -2.179  -3.277  0.00  0.00    -0.097 F 
ATOM     12  F4  UNL d   1       1.227  -2.627  -1.083  0.00  0.00    -0.092 F 
ENDROOT
TORSDOF 0
ENDMDL
