MODEL 1
REMARK minimizedAffinity 12.2393255
REMARK minimizedRMSD -1
REMARK  0 active torsions:
REMARK  status: ('A' for Active; 'I' for Inactive)
ROOT
ATOM      1  C   UNL d   1       2.640  -0.685  -1.281  0.00  0.00     0.124 A 
ATOM      2  C1  UNL d   1       2.218   0.406  -0.534  0.00  0.00     0.062 A 
ATOM      3  C2  UNL d   1       3.061   1.499  -0.354  0.00  0.00     0.162 A 
ATOM      4  C3  UNL d   1       4.334   1.507  -0.923  0.00  0.00    -0.034 A 
ATOM      5  C4  UNL d   1       4.751   0.406  -1.673  0.00  0.00     0.162 A 
ATOM      6  C5  UNL d   1       3.906  -0.684  -1.850  0.00  0.00     0.062 A 
ATOM      7  F   UNL d   1       4.315  -1.737  -2.573  0.00  0.00    -0.097 F 
ATOM      8  F1  UNL d   1       5.969   0.381  -2.235  0.00  0.00    -0.096 F 
ATOM      9  I   UNL d   1       5.597   3.140  -0.656  0.00  0.00    -0.060 I 
ATOM     10  F2  UNL d   1       2.627   2.539   0.374  0.00  0.00    -0.096 F 
ATOM     11  F3  UNL d   1       0.996   0.407   0.018  0.00  0.00    -0.097 F 
ATOM     12  F4  UNL d   1       1.827  -1.736  -1.452  0.00  0.00    -0.092 F 
ENDROOT
TORSDOF 0
ENDMDL
