MODEL 1
REMARK minimizedAffinity -3.40106392
REMARK minimizedRMSD -1
REMARK  1 active torsions:
REMARK  status: ('A' for Active; 'I' for Inactive)
REMARK    1  A    between atoms: C3_4  and  O_7 
ROOT
ATOM      1  C   UNL d   1       5.189   5.996   4.134  0.00  0.00    -0.033 A 
ATOM      2  C1  UNL d   1       3.893   5.604   3.797  0.00  0.00     0.039 A 
ATOM      3  C2  UNL d   1       3.399   4.371   4.229  0.00  0.00    -0.080 A 
ATOM      4  C3  UNL d   1       4.211   3.542   4.999  0.00  0.00     0.150 A 
ATOM      5  C4  UNL d   1       5.502   3.929   5.342  0.00  0.00    -0.007 A 
ATOM      6  C5  UNL d   1       5.994   5.159   4.908  0.00  0.00     0.039 A 
ENDROOT
BRANCH   4   7
ATOM      7  O   UNL d   1       3.775   2.328   5.440  0.00  0.00    -0.526 OA
ATOM      8  H5  UNL d   1       2.876   2.183   5.102  0.00  0.00     0.418 HD
ENDBRANCH   4   7
TORSDOF 1
ENDMDL
