MODEL 1
REMARK minimizedAffinity 1.06705582
REMARK minimizedRMSD -1
REMARK  1 active torsions:
REMARK  status: ('A' for Active; 'I' for Inactive)
REMARK    1  A    between atoms: C3_4  and  O_7 
ROOT
ATOM      1  C   UNL d   1      -1.226   2.786  -0.853  0.00  0.00    -0.033 A 
ATOM      2  C1  UNL d   1      -1.388   1.424  -0.592  0.00  0.00     0.039 A 
ATOM      3  C2  UNL d   1      -0.417   0.730   0.131  0.00  0.00    -0.080 A 
ATOM      4  C3  UNL d   1       0.710   1.408   0.589  0.00  0.00     0.150 A 
ATOM      5  C4  UNL d   1       0.876   2.765   0.336  0.00  0.00    -0.007 A 
ATOM      6  C5  UNL d   1      -0.095   3.457  -0.387  0.00  0.00     0.039 A 
ENDROOT
BRANCH   4   7
ATOM      7  O   UNL d   1       1.687   0.771   1.295  0.00  0.00    -0.526 OA
ATOM      8  H5  UNL d   1       1.451  -0.169   1.368  0.00  0.00     0.418 HD
ENDBRANCH   4   7
TORSDOF 1
ENDMDL
