MODEL 1
REMARK minimizedAffinity -0.681302369
REMARK minimizedRMSD -1
REMARK  1 active torsions:
REMARK  status: ('A' for Active; 'I' for Inactive)
REMARK    1  A    between atoms: C3_4  and  O_7 
ROOT
ATOM      1  C   UNL d   1      -5.997   5.878   4.792  0.00  0.00    -0.033 A 
ATOM      2  C1  UNL d   1      -6.000   5.093   5.947  0.00  0.00     0.039 A 
ATOM      3  C2  UNL d   1      -6.000   3.701   5.847  0.00  0.00    -0.080 A 
ATOM      4  C3  UNL d   1      -5.995   3.106   4.588  0.00  0.00     0.150 A 
ATOM      5  C4  UNL d   1      -5.988   3.881   3.433  0.00  0.00    -0.007 A 
ATOM      6  C5  UNL d   1      -5.989   5.271   3.535  0.00  0.00     0.039 A 
ENDROOT
BRANCH   4   7
ATOM      7  O   UNL d   1      -6.000   1.750   4.441  0.00  0.00    -0.526 OA
ATOM      8  H5  UNL d   1      -6.034   1.345   5.323  0.00  0.00     0.418 HD
ENDBRANCH   4   7
TORSDOF 1
ENDMDL
