MODEL 1
REMARK minimizedAffinity 7.04434538
REMARK minimizedRMSD -1
REMARK  1 active torsions:
REMARK  status: ('A' for Active; 'I' for Inactive)
REMARK    1  A    between atoms: C3_4  and  O_7 
ROOT
ATOM      1  C   UNL d   1      -4.591   5.642   0.395  0.00  0.00    -0.033 A 
ATOM      2  C1  UNL d   1      -5.853   5.871   0.948  0.00  0.00     0.039 A 
ATOM      3  C2  UNL d   1      -6.000   5.995   2.331  0.00  0.00    -0.080 A 
ATOM      4  C3  UNL d   1      -4.878   5.890   3.149  0.00  0.00     0.150 A 
ATOM      5  C4  UNL d   1      -3.618   5.665   2.605  0.00  0.00    -0.007 A 
ATOM      6  C5  UNL d   1      -3.474   5.541   1.224  0.00  0.00     0.039 A 
ENDROOT
BRANCH   4   7
ATOM      7  O   UNL d   1      -4.972   6.000   4.504  0.00  0.00    -0.526 OA
ATOM      8  H5  UNL d   1      -5.907   6.124   4.739  0.00  0.00     0.418 HD
ENDBRANCH   4   7
TORSDOF 1
ENDMDL
