MODEL 1
REMARK minimizedAffinity -2.83309627
REMARK minimizedRMSD -1
REMARK  1 active torsions:
REMARK  status: ('A' for Active; 'I' for Inactive)
REMARK    1  A    between atoms: C3_4  and  O_7 
ROOT
ATOM      1  C   UNL d   1      -5.937   5.598   4.503  0.00  0.00    -0.033 A 
ATOM      2  C1  UNL d   1      -5.780   5.092   5.795  0.00  0.00     0.039 A 
ATOM      3  C2  UNL d   1      -5.684   3.714   6.000  0.00  0.00    -0.080 A 
ATOM      4  C3  UNL d   1      -5.746   2.855   4.906  0.00  0.00     0.150 A 
ATOM      5  C4  UNL d   1      -5.900   3.352   3.617  0.00  0.00    -0.007 A 
ATOM      6  C5  UNL d   1      -5.996   4.728   3.414  0.00  0.00     0.039 A 
ENDROOT
BRANCH   4   7
ATOM      7  O   UNL d   1      -5.663   1.502   5.057  0.00  0.00    -0.526 OA
ATOM      8  H5  UNL d   1      -5.588   1.302   6.005  0.00  0.00     0.418 HD
ENDBRANCH   4   7
TORSDOF 1
ENDMDL
