MODEL 1
REMARK minimizedAffinity -1.19124496
REMARK minimizedRMSD -1
REMARK  1 active torsions:
REMARK  status: ('A' for Active; 'I' for Inactive)
REMARK    1  A    between atoms: C3_4  and  O_7 
ROOT
ATOM      1  C   UNL d   1       2.352  -2.156  -0.294  0.00  0.00    -0.033 A 
ATOM      2  C1  UNL d   1       2.802  -3.450  -0.025  0.00  0.00     0.039 A 
ATOM      3  C2  UNL d   1       1.893  -4.507   0.045  0.00  0.00    -0.080 A 
ATOM      4  C3  UNL d   1       0.538  -4.257  -0.155  0.00  0.00     0.150 A 
ATOM      5  C4  UNL d   1       0.083  -2.971  -0.428  0.00  0.00    -0.007 A 
ATOM      6  C5  UNL d   1       0.992  -1.917  -0.497  0.00  0.00     0.039 A 
ENDROOT
BRANCH   4   7
ATOM      7  O   UNL d   1      -0.388  -5.256  -0.092  0.00  0.00    -0.526 OA
ATOM      8  H5  UNL d   1       0.068  -6.084   0.132  0.00  0.00     0.418 HD
ENDBRANCH   4   7
TORSDOF 1
ENDMDL
