MODEL 1
REMARK minimizedAffinity 1.82866096
REMARK minimizedRMSD -1
REMARK  1 active torsions:
REMARK  status: ('A' for Active; 'I' for Inactive)
REMARK    1  A    between atoms: C3_4  and  O_7 
ROOT
ATOM      1  C   UNL d   1       0.787   0.795   4.492  0.00  0.00    -0.033 A 
ATOM      2  C1  UNL d   1       1.721   0.798   5.530  0.00  0.00     0.039 A 
ATOM      3  C2  UNL d   1       2.874   1.578   5.431  0.00  0.00    -0.080 A 
ATOM      4  C3  UNL d   1       3.081   2.351   4.292  0.00  0.00     0.150 A 
ATOM      5  C4  UNL d   1       2.153   2.356   3.256  0.00  0.00    -0.007 A 
ATOM      6  C5  UNL d   1       1.002   1.575   3.356  0.00  0.00     0.039 A 
ENDROOT
BRANCH   4   7
ATOM      7  O   UNL d   1       4.194   3.125   4.148  0.00  0.00    -0.526 OA
ATOM      8  H5  UNL d   1       4.759   3.000   4.929  0.00  0.00     0.418 HD
ENDBRANCH   4   7
TORSDOF 1
ENDMDL
