MODEL 1
REMARK minimizedAffinity -2.39227819
REMARK minimizedRMSD -1
REMARK  1 active torsions:
REMARK  status: ('A' for Active; 'I' for Inactive)
REMARK    1  A    between atoms: C3_4  and  O_7 
ROOT
ATOM      1  C   UNL d   1      -3.647   0.338  -1.695  0.00  0.00    -0.033 A 
ATOM      2  C1  UNL d   1      -3.310  -0.790  -0.944  0.00  0.00     0.039 A 
ATOM      3  C2  UNL d   1      -4.086  -1.155   0.158  0.00  0.00    -0.080 A 
ATOM      4  C3  UNL d   1      -5.195  -0.385   0.497  0.00  0.00     0.150 A 
ATOM      5  C4  UNL d   1      -5.539   0.738  -0.249  0.00  0.00    -0.007 A 
ATOM      6  C5  UNL d   1      -4.762   1.101  -1.348  0.00  0.00     0.039 A 
ENDROOT
BRANCH   4   7
ATOM      7  O   UNL d   1      -5.980  -0.699   1.566  0.00  0.00    -0.526 OA
ATOM      8  H5  UNL d   1      -5.605  -1.481   2.004  0.00  0.00     0.418 HD
ENDBRANCH   4   7
TORSDOF 1
ENDMDL
