MODEL 1
REMARK minimizedAffinity -4.46008539
REMARK minimizedRMSD -1
REMARK  1 active torsions:
REMARK  status: ('A' for Active; 'I' for Inactive)
REMARK    1  A    between atoms: C3_4  and  O_7 
ROOT
ATOM      1  C   UNL d   1       3.371  -1.498  -0.925  0.00  0.00    -0.033 A 
ATOM      2  C1  UNL d   1       3.126  -0.139  -1.130  0.00  0.00     0.039 A 
ATOM      3  C2  UNL d   1       1.832   0.304  -1.411  0.00  0.00    -0.080 A 
ATOM      4  C3  UNL d   1       0.794  -0.621  -1.484  0.00  0.00     0.150 A 
ATOM      5  C4  UNL d   1       1.031  -1.976  -1.278  0.00  0.00    -0.007 A 
ATOM      6  C5  UNL d   1       2.323  -2.417  -0.997  0.00  0.00     0.039 A 
ENDROOT
BRANCH   4   7
ATOM      7  O   UNL d   1      -0.485  -0.237  -1.761  0.00  0.00    -0.526 OA
ATOM      8  H5  UNL d   1      -0.492   0.723  -1.909  0.00  0.00     0.418 HD
ENDBRANCH   4   7
TORSDOF 1
ENDMDL
