MODEL 1
REMARK minimizedAffinity -0.349114835
REMARK minimizedRMSD -1
REMARK  0 active torsions:
REMARK  status: ('A' for Active; 'I' for Inactive)
ROOT
ATOM      1  N1  IND d   1      -1.145   0.506  -5.997  0.00  0.00    -0.196 N 
ATOM      2  C2  IND d   1      -1.706  -0.741  -5.998  0.00  0.00     0.054 A 
ATOM      3  C3  IND d   1      -1.195  -1.488  -4.994  0.00  0.00    -0.031 A 
ATOM      4  C4  IND d   1       0.497  -0.834  -3.167  0.00  0.00     0.051 A 
ATOM      5  C5  IND d   1       1.318   0.186  -2.774  0.00  0.00    -0.031 A 
ATOM      6  C6  IND d   1       1.358   1.390  -3.447  0.00  0.00     0.015 A 
ATOM      7  C7  IND d   1       0.567   1.624  -4.536  0.00  0.00    -0.016 A 
ATOM      8  C8  IND d   1      -0.262   0.588  -4.943  0.00  0.00    -0.047 A 
ATOM      9  C9  IND d   1      -0.276  -0.651  -4.289  0.00  0.00    -0.096 A 
ATOM     10  HN1 IND d   1      -1.315   1.133  -6.560  0.00  0.00     0.298 HD
ENDROOT
TORSDOF 0
ENDMDL
