MODEL 1
REMARK minimizedAffinity -0.0957549363
REMARK minimizedRMSD -1
REMARK  0 active torsions:
REMARK  status: ('A' for Active; 'I' for Inactive)
ROOT
ATOM      1  N1  IND d   1       0.553  -1.065  -0.855  0.00  0.00    -0.196 N 
ATOM      2  C2  IND d   1       1.841  -1.429  -0.576  0.00  0.00     0.054 A 
ATOM      3  C3  IND d   1       2.637  -1.199  -1.645  0.00  0.00    -0.031 A 
ATOM      4  C4  IND d   1       2.057  -0.139  -3.918  0.00  0.00     0.051 A 
ATOM      5  C5  IND d   1       1.001   0.321  -4.654  0.00  0.00    -0.031 A 
ATOM      6  C6  IND d   1      -0.283   0.345  -4.151  0.00  0.00     0.015 A 
ATOM      7  C7  IND d   1      -0.559  -0.081  -2.882  0.00  0.00    -0.016 A 
ATOM      8  C8  IND d   1       0.509  -0.555  -2.134  0.00  0.00    -0.047 A 
ATOM      9  C9  IND d   1       1.808  -0.622  -2.655  0.00  0.00    -0.096 A 
ATOM     10  HN1 IND d   1      -0.117  -1.142  -0.322  0.00  0.00     0.298 HD
ENDROOT
TORSDOF 0
ENDMDL
