MODEL 1
REMARK minimizedAffinity -2.69109392
REMARK minimizedRMSD -1
REMARK  0 active torsions:
REMARK  status: ('A' for Active; 'I' for Inactive)
ROOT
ATOM      1  N1  IND d   1      -1.862  -1.070   2.000  0.00  0.00    -0.196 N 
ATOM      2  C2  IND d   1      -1.590  -0.122   2.947  0.00  0.00     0.054 A 
ATOM      3  C3  IND d   1      -0.734   0.802   2.455  0.00  0.00    -0.031 A 
ATOM      4  C4  IND d   1       0.266   1.011   0.092  0.00  0.00     0.051 A 
ATOM      5  C5  IND d   1       0.339   0.362  -1.108  0.00  0.00    -0.031 A 
ATOM      6  C6  IND d   1      -0.335  -0.820  -1.340  0.00  0.00     0.015 A 
ATOM      7  C7  IND d   1      -1.118  -1.394  -0.378  0.00  0.00    -0.016 A 
ATOM      8  C8  IND d   1      -1.188  -0.741   0.844  0.00  0.00    -0.047 A 
ATOM      9  C9  IND d   1      -0.473   0.437   1.099  0.00  0.00    -0.096 A 
ATOM     10  HN1 IND d   1      -2.368  -1.756   2.108  0.00  0.00     0.298 HD
ENDROOT
TORSDOF 0
ENDMDL
