MODEL 1
REMARK minimizedAffinity -2.24984646
REMARK minimizedRMSD -1
REMARK  0 active torsions:
REMARK  status: ('A' for Active; 'I' for Inactive)
ROOT
ATOM      1  N1  IND d   1       0.258   0.374   2.948  0.00  0.00    -0.196 N 
ATOM      2  C2  IND d   1      -1.014   0.871   3.009  0.00  0.00     0.054 A 
ATOM      3  C3  IND d   1      -1.585   0.853   1.784  0.00  0.00    -0.031 A 
ATOM      4  C4  IND d   1      -0.652  -0.042  -0.442  0.00  0.00     0.051 A 
ATOM      5  C5  IND d   1       0.481  -0.559  -1.005  0.00  0.00    -0.031 A 
ATOM      6  C6  IND d   1       1.620  -0.798  -0.264  0.00  0.00     0.015 A 
ATOM      7  C7  IND d   1       1.665  -0.539   1.077  0.00  0.00    -0.016 A 
ATOM      8  C8  IND d   1       0.518  -0.008   1.651  0.00  0.00    -0.047 A 
ATOM      9  C9  IND d   1      -0.627   0.277   0.895  0.00  0.00    -0.096 A 
ATOM     10  HN1 IND d   1       0.804   0.311   3.610  0.00  0.00     0.298 HD
ENDROOT
TORSDOF 0
ENDMDL
