MODEL 1
REMARK minimizedAffinity -2.49949145
REMARK minimizedRMSD -1
REMARK  0 active torsions:
REMARK  status: ('A' for Active; 'I' for Inactive)
ROOT
ATOM      1  N1  IND d   1       1.811  -0.445  -3.875  0.00  0.00    -0.196 N 
ATOM      2  C2  IND d   1       1.439   0.733  -4.459  0.00  0.00     0.054 A 
ATOM      3  C3  IND d   1       0.533   1.375  -3.688  0.00  0.00    -0.031 A 
ATOM      4  C4  IND d   1      -0.403   0.724  -1.380  0.00  0.00     0.051 A 
ATOM      5  C5  IND d   1      -0.388  -0.283  -0.456  0.00  0.00    -0.031 A 
ATOM      6  C6  IND d   1       0.378  -1.418  -0.627  0.00  0.00     0.015 A 
ATOM      7  C7  IND d   1       1.171  -1.583  -1.728  0.00  0.00    -0.016 A 
ATOM      8  C8  IND d   1       1.152  -0.565  -2.671  0.00  0.00    -0.047 A 
ATOM      9  C9  IND d   1       0.344   0.569  -2.523  0.00  0.00    -0.096 A 
ATOM     10  HN1 IND d   1       2.364  -1.016  -4.204  0.00  0.00     0.298 HD
ENDROOT
TORSDOF 0
ENDMDL
