MODEL 1
REMARK minimizedAffinity -3.06783009
REMARK minimizedRMSD -1
REMARK  0 active torsions:
REMARK  status: ('A' for Active; 'I' for Inactive)
ROOT
ATOM      1  N1  IND d   1       1.008  -0.488   3.216  0.00  0.00    -0.196 N 
ATOM      2  C2  IND d   1      -0.218  -0.208   3.751  0.00  0.00     0.054 A 
ATOM      3  C3  IND d   1      -1.074   0.190   2.783  0.00  0.00    -0.031 A 
ATOM      4  C4  IND d   1      -0.704   0.355   0.241  0.00  0.00     0.051 A 
ATOM      5  C5  IND d   1       0.264   0.237  -0.717  0.00  0.00    -0.031 A 
ATOM      6  C6  IND d   1       1.555  -0.139  -0.407  0.00  0.00     0.015 A 
ATOM      7  C7  IND d   1       1.925  -0.423   0.877  0.00  0.00    -0.016 A 
ATOM      8  C8  IND d   1       0.946  -0.298   1.853  0.00  0.00    -0.047 A 
ATOM      9  C9  IND d   1      -0.355   0.124   1.550  0.00  0.00    -0.096 A 
ATOM     10  HN1 IND d   1       1.702  -0.741   3.657  0.00  0.00     0.298 HD
ENDROOT
TORSDOF 0
ENDMDL
