MODEL 1
REMARK minimizedAffinity 0.955538094
REMARK minimizedRMSD -1
REMARK  2 active torsions:
REMARK  status: ('A' for Active; 'I' for Inactive)
REMARK    1  A    between atoms: C2'_3  and  C1'_4 
REMARK    2  A    between atoms: C1'_4  and  C1_5 
ROOT
ATOM      1  C1  I4B d   1       0.163  -1.049   0.585  0.00  0.00    -0.075 A 
ATOM      2  C2  I4B d   1      -0.128  -1.813   1.687  0.00  0.00     0.003 A 
ATOM      3  C3  I4B d   1       0.587  -3.010   1.934  0.00  0.00     0.002 A 
ATOM      4  C4  I4B d   1       1.545  -3.427   1.032  0.00  0.00    -0.004 A 
ATOM      5  C5  I4B d   1       1.854  -2.639  -0.072  0.00  0.00     0.002 A 
ATOM      6  C6  I4B d   1       1.168  -1.436  -0.291  0.00  0.00     0.003 A 
ENDROOT
BRANCH   1   7
ATOM      7  C1' I4B d   1      -0.635   0.192   0.338  0.00  0.00     0.060 C 
BRANCH   7   8
ATOM      8  C2' I4B d   1      -2.049  -0.225  -0.016  0.00  0.00    -0.013 C 
ATOM      9  C4' I4B d   1      -2.985   0.955  -0.001  0.00  0.00     0.013 C 
ATOM     10  C3' I4B d   1      -2.016  -0.873  -1.368  0.00  0.00     0.013 C 
ENDBRANCH   7   8
ENDBRANCH   1   7
TORSDOF 2
ENDMDL
