MODEL 1
REMARK minimizedAffinity 6.50226593
REMARK minimizedRMSD -1
REMARK  2 active torsions:
REMARK  status: ('A' for Active; 'I' for Inactive)
REMARK    1  A    between atoms: C2'_3  and  C1'_4 
REMARK    2  A    between atoms: C1'_4  and  C1_5 
ROOT
ATOM      1  C1  I4B d   1       1.252  -1.942   0.515  0.00  0.00    -0.075 A 
ATOM      2  C2  I4B d   1       0.461  -2.589   1.430  0.00  0.00     0.003 A 
ATOM      3  C3  I4B d   1      -0.309  -1.847   2.359  0.00  0.00     0.002 A 
ATOM      4  C4  I4B d   1      -0.219  -0.470   2.369  0.00  0.00    -0.004 A 
ATOM      5  C5  I4B d   1       0.566   0.186   1.426  0.00  0.00     0.002 A 
ATOM      6  C6  I4B d   1       1.297  -0.554   0.484  0.00  0.00     0.003 A 
ENDROOT
BRANCH   1   7
ATOM      7  C1' I4B d   1       2.077  -2.757  -0.430  0.00  0.00     0.060 C 
BRANCH   7   8
ATOM      8  C2' I4B d   1       2.618  -3.949   0.333  0.00  0.00    -0.013 C 
ATOM      9  C4' I4B d   1       1.525  -4.934   0.653  0.00  0.00     0.013 C 
ATOM     10  C3' I4B d   1       3.692  -4.583  -0.500  0.00  0.00     0.013 C 
ENDBRANCH   7   8
ENDBRANCH   1   7
TORSDOF 2
ENDMDL
