MODEL 1
REMARK minimizedAffinity 0.637314975
REMARK minimizedRMSD -1
REMARK  2 active torsions:
REMARK  status: ('A' for Active; 'I' for Inactive)
REMARK    1  A    between atoms: C2'_3  and  C1'_4 
REMARK    2  A    between atoms: C1'_4  and  C1_5 
ROOT
ATOM      1  C1  I4B d   1       1.000  -1.511   0.361  0.00  0.00    -0.075 A 
ATOM      2  C2  I4B d   1       1.471  -0.795   1.434  0.00  0.00     0.003 A 
ATOM      3  C3  I4B d   1       0.611   0.080   2.140  0.00  0.00     0.002 A 
ATOM      4  C4  I4B d   1      -0.690   0.246   1.711  0.00  0.00    -0.004 A 
ATOM      5  C5  I4B d   1      -1.172  -0.497   0.638  0.00  0.00     0.002 A 
ATOM      6  C6  I4B d   1      -0.326  -1.391  -0.034  0.00  0.00     0.003 A 
ENDROOT
BRANCH   1   7
ATOM      7  C1' I4B d   1       1.945  -2.401  -0.382  0.00  0.00     0.060 C 
BRANCH   7   8
ATOM      8  C2' I4B d   1       2.493  -3.420   0.596  0.00  0.00    -0.013 C 
ATOM      9  C4' I4B d   1       1.890  -4.780   0.361  0.00  0.00     0.013 C 
ATOM     10  C3' I4B d   1       3.984  -3.455   0.442  0.00  0.00     0.013 C 
ENDBRANCH   7   8
ENDBRANCH   1   7
TORSDOF 2
ENDMDL
