MODEL 1
REMARK minimizedAffinity -4.20247221
REMARK minimizedRMSD -1
REMARK  2 active torsions:
REMARK  status: ('A' for Active; 'I' for Inactive)
REMARK    1  A    between atoms: C2'_3  and  C1'_4 
REMARK    2  A    between atoms: C1'_4  and  C1_5 
ROOT
ATOM      1  C1  I4B d   1       0.680  -2.047   1.211  0.00  0.00    -0.075 A 
ATOM      2  C2  I4B d   1       1.134  -3.300   1.543  0.00  0.00     0.003 A 
ATOM      3  C3  I4B d   1       2.106  -3.942   0.738  0.00  0.00     0.002 A 
ATOM      4  C4  I4B d   1       2.558  -3.320  -0.408  0.00  0.00    -0.004 A 
ATOM      5  C5  I4B d   1       2.114  -2.041  -0.730  0.00  0.00     0.002 A 
ATOM      6  C6  I4B d   1       1.179  -1.395   0.091  0.00  0.00     0.003 A 
ENDROOT
BRANCH   1   7
ATOM      7  C1' I4B d   1      -0.371  -1.412   2.065  0.00  0.00     0.060 C 
BRANCH   7   8
ATOM      8  C2' I4B d   1      -0.911  -0.207   1.321  0.00  0.00    -0.013 C 
ATOM      9  C4' I4B d   1      -2.331  -0.434   0.873  0.00  0.00     0.013 C 
ATOM     10  C3' I4B d   1      -0.813   0.980   2.232  0.00  0.00     0.013 C 
ENDBRANCH   7   8
ENDBRANCH   1   7
TORSDOF 2
ENDMDL
