MODEL 1
REMARK minimizedAffinity 4.45650625
REMARK minimizedRMSD -1
REMARK  2 active torsions:
REMARK  status: ('A' for Active; 'I' for Inactive)
REMARK    1  A    between atoms: C2'_3  and  C1'_4 
REMARK    2  A    between atoms: C1'_4  and  C1_5 
ROOT
ATOM      1  C1  I4B d   1       1.367  -3.583   0.955  0.00  0.00    -0.075 A 
ATOM      2  C2  I4B d   1       1.316  -2.226   1.155  0.00  0.00     0.003 A 
ATOM      3  C3  I4B d   1       0.257  -1.655   1.901  0.00  0.00     0.002 A 
ATOM      4  C4  I4B d   1      -0.750  -2.466   2.383  0.00  0.00    -0.004 A 
ATOM      5  C5  I4B d   1      -0.685  -3.844   2.199  0.00  0.00     0.002 A 
ATOM      6  C6  I4B d   1       0.387  -4.408   1.491  0.00  0.00     0.003 A 
ENDROOT
BRANCH   1   7
ATOM      7  C1' I4B d   1       2.482  -4.150   0.134  0.00  0.00     0.060 C 
BRANCH   7   8
ATOM      8  C2' I4B d   1       3.580  -4.591   1.080  0.00  0.00    -0.013 C 
ATOM      9  C4' I4B d   1       3.348  -5.997   1.567  0.00  0.00     0.013 C 
ATOM     10  C3' I4B d   1       4.889  -4.478   0.356  0.00  0.00     0.013 C 
ENDBRANCH   7   8
ENDBRANCH   1   7
TORSDOF 2
ENDMDL
