MODEL 1
REMARK minimizedAffinity 5.35035133
REMARK minimizedRMSD -1
REMARK  2 active torsions:
REMARK  status: ('A' for Active; 'I' for Inactive)
REMARK    1  A    between atoms: C2'_3  and  C1'_4 
REMARK    2  A    between atoms: C1'_4  and  C1_5 
ROOT
ATOM      1  C1  I4B d   1      -0.097  -1.266   1.465  0.00  0.00    -0.075 A 
ATOM      2  C2  I4B d   1       0.854  -0.737   0.629  0.00  0.00     0.003 A 
ATOM      3  C3  I4B d   1       1.796  -1.582  -0.005  0.00  0.00     0.002 A 
ATOM      4  C4  I4B d   1       1.783  -2.936   0.263  0.00  0.00    -0.004 A 
ATOM      5  C5  I4B d   1       0.804  -3.474   1.094  0.00  0.00     0.002 A 
ATOM      6  C6  I4B d   1      -0.150  -2.636   1.689  0.00  0.00     0.003 A 
ENDROOT
BRANCH   1   7
ATOM      7  C1' I4B d   1      -1.056  -0.341   2.144  0.00  0.00     0.060 C 
BRANCH   7   8
ATOM      8  C2' I4B d   1      -2.028   0.172   1.101  0.00  0.00    -0.013 C 
ATOM      9  C4' I4B d   1      -2.825  -0.955   0.498  0.00  0.00     0.013 C 
ATOM     10  C3' I4B d   1      -2.925   1.178   1.758  0.00  0.00     0.013 C 
ENDBRANCH   7   8
ENDBRANCH   1   7
TORSDOF 2
ENDMDL
