MODEL 1
REMARK minimizedAffinity 5.38577652
REMARK minimizedRMSD -1
REMARK  2 active torsions:
REMARK  status: ('A' for Active; 'I' for Inactive)
REMARK    1  A    between atoms: C2'_3  and  C1'_4 
REMARK    2  A    between atoms: C1'_4  and  C1_5 
ROOT
ATOM      1  C1  I4B d   1       1.632  -2.951   0.735  0.00  0.00    -0.075 A 
ATOM      2  C2  I4B d   1       0.466  -2.656   1.397  0.00  0.00     0.003 A 
ATOM      3  C3  I4B d   1       0.040  -1.311   1.526  0.00  0.00     0.002 A 
ATOM      4  C4  I4B d   1       0.831  -0.297   1.026  0.00  0.00    -0.004 A 
ATOM      5  C5  I4B d   1       2.001  -0.599   0.335  0.00  0.00     0.002 A 
ATOM      6  C6  I4B d   1       2.398  -1.935   0.178  0.00  0.00     0.003 A 
ENDROOT
BRANCH   1   7
ATOM      7  C1' I4B d   1       2.069  -4.379   0.646  0.00  0.00     0.060 C 
BRANCH   7   8
ATOM      8  C2' I4B d   1       3.560  -4.395   0.380  0.00  0.00    -0.013 C 
ATOM      9  C4' I4B d   1       4.324  -4.873   1.587  0.00  0.00     0.013 C 
ATOM     10  C3' I4B d   1       3.810  -5.280  -0.804  0.00  0.00     0.013 C 
ENDBRANCH   7   8
ENDBRANCH   1   7
TORSDOF 2
ENDMDL
