MODEL 1
REMARK minimizedAffinity 11.7307787
REMARK minimizedRMSD -1
REMARK  3 active torsions:
REMARK  status: ('A' for Active; 'I' for Inactive)
REMARK    1  A    between atoms: C3'_2  and  C2'_3 
REMARK    2  A    between atoms: C2'_3  and  C1'_4 
REMARK    3  A    between atoms: C1'_4  and  C1_5 
ROOT
ATOM      1  C1  N4B d   1      -1.547  -3.910   0.163  0.00  0.00    -0.075 A 
ATOM      2  C2  N4B d   1      -1.213  -3.720  -1.196  0.00  0.00     0.002 A 
ATOM      3  C3  N4B d   1      -0.485  -4.674  -1.864  0.00  0.00     0.002 A 
ATOM      4  C4  N4B d   1      -0.065  -5.812  -1.192  0.00  0.00    -0.004 A 
ATOM      5  C5  N4B d   1      -0.413  -6.000   0.114  0.00  0.00     0.002 A 
ATOM      6  C6  N4B d   1      -1.148  -5.052   0.796  0.00  0.00     0.002 A 
ENDROOT
BRANCH   1   7
ATOM      7  C1' N4B d   1      -2.268  -2.856   0.958  0.00  0.00     0.057 C 
BRANCH   7   8
ATOM      8  C2' N4B d   1      -2.272  -1.550   0.170  0.00  0.00     0.009 C 
BRANCH   8   9
ATOM      9  C3' N4B d   1      -3.323  -0.580   0.684  0.00  0.00     0.004 C 
ATOM     10  C4' N4B d   1      -3.010  -0.056   2.053  0.00  0.00     0.003 C 
ENDBRANCH   8   9
ENDBRANCH   7   8
ENDBRANCH   1   7
TORSDOF 3
ENDMDL
