MODEL 1
REMARK minimizedAffinity 3.71767616
REMARK minimizedRMSD -1
REMARK  3 active torsions:
REMARK  status: ('A' for Active; 'I' for Inactive)
REMARK    1  A    between atoms: C3'_2  and  C2'_3 
REMARK    2  A    between atoms: C2'_3  and  C1'_4 
REMARK    3  A    between atoms: C1'_4  and  C1_5 
ROOT
ATOM      1  C1  N4B d   1      -1.483  -2.740  -0.520  0.00  0.00    -0.075 A 
ATOM      2  C2  N4B d   1      -1.334  -3.817   0.381  0.00  0.00     0.002 A 
ATOM      3  C3  N4B d   1      -1.209  -5.098  -0.096  0.00  0.00     0.002 A 
ATOM      4  C4  N4B d   1      -1.249  -5.329  -1.463  0.00  0.00    -0.004 A 
ATOM      5  C5  N4B d   1      -1.367  -4.280  -2.327  0.00  0.00     0.002 A 
ATOM      6  C6  N4B d   1      -1.490  -2.986  -1.862  0.00  0.00     0.002 A 
ENDROOT
BRANCH   1   7
ATOM      7  C1' N4B d   1      -1.710  -1.331  -0.043  0.00  0.00     0.057 C 
BRANCH   7   8
ATOM      8  C2' N4B d   1      -2.194  -1.364   1.403  0.00  0.00     0.009 C 
BRANCH   8   9
ATOM      9  C3' N4B d   1      -2.534   0.024   1.920  0.00  0.00     0.004 C 
ATOM     10  C4' N4B d   1      -1.677   0.438   3.079  0.00  0.00     0.003 C 
ENDBRANCH   8   9
ENDBRANCH   7   8
ENDBRANCH   1   7
TORSDOF 3
ENDMDL
