MODEL 1
REMARK minimizedAffinity 7.99241352
REMARK minimizedRMSD -1
REMARK  3 active torsions:
REMARK  status: ('A' for Active; 'I' for Inactive)
REMARK    1  A    between atoms: C3'_2  and  C2'_3 
REMARK    2  A    between atoms: C2'_3  and  C1'_4 
REMARK    3  A    between atoms: C1'_4  and  C1_5 
ROOT
ATOM      1  C1  N4B d   1      -1.908  -3.009   1.849  0.00  0.00    -0.075 A 
ATOM      2  C2  N4B d   1      -1.982  -2.331   3.085  0.00  0.00     0.002 A 
ATOM      3  C3  N4B d   1      -2.193  -0.974   3.113  0.00  0.00     0.002 A 
ATOM      4  C4  N4B d   1      -2.313  -0.274   1.922  0.00  0.00    -0.004 A 
ATOM      5  C5  N4B d   1      -2.266  -0.941   0.732  0.00  0.00     0.002 A 
ATOM      6  C6  N4B d   1      -2.059  -2.305   0.689  0.00  0.00     0.002 A 
ENDROOT
BRANCH   1   7
ATOM      7  C1' N4B d   1      -1.594  -4.478   1.766  0.00  0.00     0.057 C 
BRANCH   7   8
ATOM      8  C2' N4B d   1      -1.516  -4.891   0.299  0.00  0.00     0.009 C 
BRANCH   8   9
ATOM      9  C3' N4B d   1      -0.468  -5.966   0.066  0.00  0.00     0.004 C 
ATOM     10  C4' N4B d   1       0.052  -5.975  -1.340  0.00  0.00     0.003 C 
ENDBRANCH   8   9
ENDBRANCH   7   8
ENDBRANCH   1   7
TORSDOF 3
ENDMDL
