MODEL 1
REMARK minimizedAffinity 1.06402409
REMARK minimizedRMSD -1
REMARK  3 active torsions:
REMARK  status: ('A' for Active; 'I' for Inactive)
REMARK    1  A    between atoms: C3'_2  and  C2'_3 
REMARK    2  A    between atoms: C2'_3  and  C1'_4 
REMARK    3  A    between atoms: C1'_4  and  C1_5 
ROOT
ATOM      1  C1  N4B d   1      -2.718  -1.972   0.400  0.00  0.00    -0.075 A 
ATOM      2  C2  N4B d   1      -3.180  -1.831   1.727  0.00  0.00     0.002 A 
ATOM      3  C3  N4B d   1      -4.104  -0.862   2.033  0.00  0.00     0.002 A 
ATOM      4  C4  N4B d   1      -4.564  -0.014   1.037  0.00  0.00    -0.004 A 
ATOM      5  C5  N4B d   1      -4.132  -0.173  -0.247  0.00  0.00     0.002 A 
ATOM      6  C6  N4B d   1      -3.206  -1.145  -0.570  0.00  0.00     0.002 A 
ENDROOT
BRANCH   1   7
ATOM      7  C1' N4B d   1      -1.644  -2.960   0.034  0.00  0.00     0.057 C 
BRANCH   7   8
ATOM      8  C2' N4B d   1      -1.916  -4.282   0.745  0.00  0.00     0.009 C 
BRANCH   8   9
ATOM      9  C3' N4B d   1      -1.341  -5.465  -0.014  0.00  0.00     0.004 C 
ATOM     10  C4' N4B d   1      -0.463  -5.050  -1.157  0.00  0.00     0.003 C 
ENDBRANCH   8   9
ENDBRANCH   7   8
ENDBRANCH   1   7
TORSDOF 3
ENDMDL
