MODEL 1
REMARK minimizedAffinity 0.744065166
REMARK minimizedRMSD -1
REMARK  3 active torsions:
REMARK  status: ('A' for Active; 'I' for Inactive)
REMARK    1  A    between atoms: C3'_2  and  C2'_3 
REMARK    2  A    between atoms: C2'_3  and  C1'_4 
REMARK    3  A    between atoms: C1'_4  and  C1_5 
ROOT
ATOM      1  C1  N4B d   1      -1.442   0.857   2.632  0.00  0.00    -0.075 A 
ATOM      2  C2  N4B d   1      -1.538   1.819   1.603  0.00  0.00     0.002 A 
ATOM      3  C3  N4B d   1      -0.915   3.035   1.741  0.00  0.00     0.002 A 
ATOM      4  C4  N4B d   1      -0.209   3.317   2.901  0.00  0.00    -0.004 A 
ATOM      5  C5  N4B d   1      -0.100   2.372   3.879  0.00  0.00     0.002 A 
ATOM      6  C6  N4B d   1      -0.718   1.144   3.752  0.00  0.00     0.002 A 
ENDROOT
BRANCH   1   7
ATOM      7  C1' N4B d   1      -2.178  -0.454   2.564  0.00  0.00     0.057 C 
BRANCH   7   8
ATOM      8  C2' N4B d   1      -2.715  -0.654   1.150  0.00  0.00     0.009 C 
BRANCH   8   9
ATOM      9  C3' N4B d   1      -4.155  -0.190   1.019  0.00  0.00     0.004 C 
ATOM     10  C4' N4B d   1      -4.733  -0.465  -0.338  0.00  0.00     0.003 C 
ENDBRANCH   8   9
ENDBRANCH   7   8
ENDBRANCH   1   7
TORSDOF 3
ENDMDL
