MODEL 1
REMARK minimizedAffinity 4.96614838
REMARK minimizedRMSD -1
REMARK  3 active torsions:
REMARK  status: ('A' for Active; 'I' for Inactive)
REMARK    1  A    between atoms: C3'_2  and  C2'_3 
REMARK    2  A    between atoms: C2'_3  and  C1'_4 
REMARK    3  A    between atoms: C1'_4  and  C1_5 
ROOT
ATOM      1  C1  N4B d   1      -2.693  -0.495   2.670  0.00  0.00    -0.075 A 
ATOM      2  C2  N4B d   1      -3.341  -1.749   2.619  0.00  0.00     0.002 A 
ATOM      3  C3  N4B d   1      -4.436  -1.923   1.807  0.00  0.00     0.002 A 
ATOM      4  C4  N4B d   1      -4.909  -0.857   1.056  0.00  0.00    -0.004 A 
ATOM      5  C5  N4B d   1      -4.261   0.343   1.092  0.00  0.00     0.002 A 
ATOM      6  C6  N4B d   1      -3.158   0.531   1.900  0.00  0.00     0.002 A 
ENDROOT
BRANCH   1   7
ATOM      7  C1' N4B d   1      -1.545  -0.233   3.607  0.00  0.00     0.057 C 
BRANCH   7   8
ATOM      8  C2' N4B d   1      -1.921  -0.713   5.006  0.00  0.00     0.009 C 
BRANCH   8   9
ATOM      9  C3' N4B d   1      -0.785  -0.522   5.996  0.00  0.00     0.004 C 
ATOM     10  C4' N4B d   1       0.225  -1.629   5.943  0.00  0.00     0.003 C 
ENDBRANCH   8   9
ENDBRANCH   7   8
ENDBRANCH   1   7
TORSDOF 3
ENDMDL
