MODEL 1
REMARK minimizedAffinity 7.2247138
REMARK minimizedRMSD -1
REMARK  3 active torsions:
REMARK  status: ('A' for Active; 'I' for Inactive)
REMARK    1  A    between atoms: C3'_2  and  C2'_3 
REMARK    2  A    between atoms: C2'_3  and  C1'_4 
REMARK    3  A    between atoms: C1'_4  and  C1_5 
ROOT
ATOM      1  C1  N4B d   1       0.001  -3.046   5.824  0.00  0.00    -0.075 A 
ATOM      2  C2  N4B d   1      -1.392  -3.263   5.900  0.00  0.00     0.002 A 
ATOM      3  C3  N4B d   1      -1.884  -4.541   5.995  0.00  0.00     0.002 A 
ATOM      4  C4  N4B d   1      -1.007  -5.615   5.997  0.00  0.00    -0.004 A 
ATOM      5  C5  N4B d   1       0.339  -5.396   5.950  0.00  0.00     0.002 A 
ATOM      6  C6  N4B d   1       0.847  -4.117   5.858  0.00  0.00     0.002 A 
ENDROOT
BRANCH   1   7
ATOM      7  C1' N4B d   1       0.582  -1.672   5.632  0.00  0.00     0.057 C 
BRANCH   7   8
ATOM      8  C2' N4B d   1       1.644  -1.726   4.539  0.00  0.00     0.009 C 
BRANCH   8   9
ATOM      9  C3' N4B d   1       1.073  -2.199   3.213  0.00  0.00     0.004 C 
ATOM     10  C4' N4B d   1       1.654  -1.472   2.037  0.00  0.00     0.003 C 
ENDBRANCH   8   9
ENDBRANCH   7   8
ENDBRANCH   1   7
TORSDOF 3
ENDMDL
