MODEL 1
REMARK minimizedAffinity 9.31472111
REMARK minimizedRMSD -1
REMARK  1 active torsions:
REMARK  status: ('A' for Active; 'I' for Inactive)
REMARK    1  A    between atoms: C3_4  and  O_7 
ROOT
ATOM      1  C   UNL d   1       5.953   4.966   2.437  0.00  0.00    -0.033 A 
ATOM      2  C1  UNL d   1       5.011   3.944   2.563  0.00  0.00     0.039 A 
ATOM      3  C2  UNL d   1       4.115   3.946   3.634  0.00  0.00    -0.080 A 
ATOM      4  C3  UNL d   1       4.170   4.975   4.569  0.00  0.00     0.150 A 
ATOM      5  C4  UNL d   1       5.104   6.000   4.447  0.00  0.00    -0.007 A 
ATOM      6  C5  UNL d   1       5.998   5.995   3.378  0.00  0.00     0.039 A 
ENDROOT
BRANCH   4   7
ATOM      7  O   UNL d   1       3.320   5.018   5.633  0.00  0.00    -0.526 OA
ATOM      8  H5  UNL d   1       2.750   4.231   5.603  0.00  0.00     0.418 HD
ENDBRANCH   4   7
TORSDOF 1
ENDMDL
