MODEL 1
REMARK minimizedAffinity -1.34387338
REMARK minimizedRMSD -1
REMARK  1 active torsions:
REMARK  status: ('A' for Active; 'I' for Inactive)
REMARK    1  A    between atoms: C3_4  and  O_7 
ROOT
ATOM      1  C   UNL d   1       5.281   5.999   2.117  0.00  0.00    -0.033 A 
ATOM      2  C1  UNL d   1       4.483   5.985   3.262  0.00  0.00     0.039 A 
ATOM      3  C2  UNL d   1       3.995   4.775   3.760  0.00  0.00    -0.080 A 
ATOM      4  C3  UNL d   1       4.312   3.589   3.105  0.00  0.00     0.150 A 
ATOM      5  C4  UNL d   1       5.110   3.595   1.966  0.00  0.00    -0.007 A 
ATOM      6  C5  UNL d   1       5.596   4.804   1.469  0.00  0.00     0.039 A 
ENDROOT
BRANCH   4   7
ATOM      7  O   UNL d   1       3.855   2.384   3.551  0.00  0.00    -0.526 OA
ATOM      8  H5  UNL d   1       3.293   2.537   4.329  0.00  0.00     0.418 HD
ENDBRANCH   4   7
TORSDOF 1
ENDMDL
