MODEL 1
REMARK minimizedAffinity 2.89900017
REMARK minimizedRMSD -1
REMARK  1 active torsions:
REMARK  status: ('A' for Active; 'I' for Inactive)
REMARK    1  A    between atoms: C3_4  and  O_7 
ROOT
ATOM      1  C   UNL d   1       2.191   2.149   2.107  0.00  0.00    -0.033 A 
ATOM      2  C1  UNL d   1       3.357   1.427   2.369  0.00  0.00     0.039 A 
ATOM      3  C2  UNL d   1       3.279   0.097   2.786  0.00  0.00    -0.080 A 
ATOM      4  C3  UNL d   1       2.030  -0.499   2.937  0.00  0.00     0.150 A 
ATOM      5  C4  UNL d   1       0.864   0.212   2.674  0.00  0.00    -0.007 A 
ATOM      6  C5  UNL d   1       0.944   1.541   2.258  0.00  0.00     0.039 A 
ENDROOT
BRANCH   4   7
ATOM      7  O   UNL d   1       1.903  -1.793   3.346  0.00  0.00    -0.526 OA
ATOM      8  H5  UNL d   1       2.790  -2.150   3.518  0.00  0.00     0.418 HD
ENDBRANCH   4   7
TORSDOF 1
ENDMDL
