MODEL 1
REMARK minimizedAffinity 3.27912211
REMARK minimizedRMSD -1
REMARK  1 active torsions:
REMARK  status: ('A' for Active; 'I' for Inactive)
REMARK    1  A    between atoms: C3_4  and  O_7 
ROOT
ATOM      1  C   UNL d   1      -0.009   0.559   2.632  0.00  0.00    -0.033 A 
ATOM      2  C1  UNL d   1       0.783   0.752   3.766  0.00  0.00     0.039 A 
ATOM      3  C2  UNL d   1       1.271  -0.348   4.474  0.00  0.00    -0.080 A 
ATOM      4  C3  UNL d   1       0.963  -1.633   4.037  0.00  0.00     0.150 A 
ATOM      5  C4  UNL d   1       0.178  -1.833   2.906  0.00  0.00    -0.007 A 
ATOM      6  C5  UNL d   1      -0.310  -0.733   2.201  0.00  0.00     0.039 A 
ENDROOT
BRANCH   4   7
ATOM      7  O   UNL d   1       1.413  -2.738   4.697  0.00  0.00    -0.526 OA
ATOM      8  H5  UNL d   1       1.918  -2.447   5.475  0.00  0.00     0.418 HD
ENDBRANCH   4   7
TORSDOF 1
ENDMDL
