MODEL 1
REMARK minimizedAffinity -2.41241527
REMARK minimizedRMSD -1
REMARK  1 active torsions:
REMARK  status: ('A' for Active; 'I' for Inactive)
REMARK    1  A    between atoms: C3_4  and  O_7 
ROOT
ATOM      1  C   UNL d   1       4.854   3.605   2.817  0.00  0.00    -0.033 A 
ATOM      2  C1  UNL d   1       5.469   4.857   2.752  0.00  0.00     0.039 A 
ATOM      3  C2  UNL d   1       5.342   5.640   1.603  0.00  0.00    -0.080 A 
ATOM      4  C3  UNL d   1       4.598   5.160   0.528  0.00  0.00     0.150 A 
ATOM      5  C4  UNL d   1       3.980   3.916   0.587  0.00  0.00    -0.007 A 
ATOM      6  C5  UNL d   1       4.108   3.135   1.735  0.00  0.00     0.039 A 
ENDROOT
BRANCH   4   7
ATOM      7  O   UNL d   1       4.450   5.886  -0.617  0.00  0.00    -0.526 OA
ATOM      8  H5  UNL d   1       4.956   6.711  -0.525  0.00  0.00     0.418 HD
ENDBRANCH   4   7
TORSDOF 1
ENDMDL
