MODEL 1
REMARK minimizedAffinity 9.8342104
REMARK minimizedRMSD -1
REMARK  1 active torsions:
REMARK  status: ('A' for Active; 'I' for Inactive)
REMARK    1  A    between atoms: C3_4  and  O_7 
ROOT
ATOM      1  C   UNL d   1       5.477   1.302   1.498  0.00  0.00    -0.033 A 
ATOM      2  C1  UNL d   1       4.957   2.598   1.493  0.00  0.00     0.039 A 
ATOM      3  C2  UNL d   1       4.955   3.356   2.665  0.00  0.00    -0.080 A 
ATOM      4  C3  UNL d   1       5.476   2.808   3.834  0.00  0.00     0.150 A 
ATOM      5  C4  UNL d   1       6.000   1.519   3.846  0.00  0.00    -0.007 A 
ATOM      6  C5  UNL d   1       6.000   0.763   2.674  0.00  0.00     0.039 A 
ENDROOT
BRANCH   4   7
ATOM      7  O   UNL d   1       5.492   3.508   5.004  0.00  0.00    -0.526 OA
ATOM      8  H5  UNL d   1       5.072   4.371   4.852  0.00  0.00     0.418 HD
ENDBRANCH   4   7
TORSDOF 1
ENDMDL
