MODEL 1
REMARK minimizedAffinity 5.85463428
REMARK minimizedRMSD -1
REMARK  1 active torsions:
REMARK  status: ('A' for Active; 'I' for Inactive)
REMARK    1  A    between atoms: C3_4  and  O_7 
ROOT
ATOM      1  C   UNL d   1      -0.542   0.405   2.533  0.00  0.00    -0.033 A 
ATOM      2  C1  UNL d   1       0.751   0.740   2.940  0.00  0.00     0.039 A 
ATOM      3  C2  UNL d   1       1.590  -0.238   3.478  0.00  0.00    -0.080 A 
ATOM      4  C3  UNL d   1       1.125  -1.544   3.602  0.00  0.00     0.150 A 
ATOM      5  C4  UNL d   1      -0.160  -1.885   3.195  0.00  0.00    -0.007 A 
ATOM      6  C5  UNL d   1      -0.997  -0.908   2.659  0.00  0.00     0.039 A 
ENDROOT
BRANCH   4   7
ATOM      7  O   UNL d   1       1.906  -2.532   4.125  0.00  0.00    -0.526 OA
ATOM      8  H5  UNL d   1       2.757  -2.144   4.389  0.00  0.00     0.418 HD
ENDBRANCH   4   7
TORSDOF 1
ENDMDL
