MODEL 1
REMARK minimizedAffinity 8.65314388
REMARK minimizedRMSD -1
REMARK  1 active torsions:
REMARK  status: ('A' for Active; 'I' for Inactive)
REMARK    1  A    between atoms: C3_4  and  O_7 
ROOT
ATOM      1  C   UNL d   1      -3.224   0.576   2.244  0.00  0.00    -0.033 A 
ATOM      2  C1  UNL d   1      -2.298   1.618   2.324  0.00  0.00     0.039 A 
ATOM      3  C2  UNL d   1      -0.988   1.360   2.732  0.00  0.00    -0.080 A 
ATOM      4  C3  UNL d   1      -0.617   0.058   3.056  0.00  0.00     0.150 A 
ATOM      5  C4  UNL d   1      -1.534  -0.986   2.974  0.00  0.00    -0.007 A 
ATOM      6  C5  UNL d   1      -2.842  -0.726   2.568  0.00  0.00     0.039 A 
ENDROOT
BRANCH   4   7
ATOM      7  O   UNL d   1       0.649  -0.242   3.463  0.00  0.00    -0.526 OA
ATOM      8  H5  UNL d   1       1.163   0.581   3.500  0.00  0.00     0.418 HD
ENDBRANCH   4   7
TORSDOF 1
ENDMDL
