MODEL 1
REMARK minimizedAffinity 15.1162634
REMARK minimizedRMSD -1
REMARK  1 active torsions:
REMARK  status: ('A' for Active; 'I' for Inactive)
REMARK    1  A    between atoms: C3_4  and  O_7 
ROOT
ATOM      1  C   UNL d   1      -1.135  -2.225  -2.324  0.00  0.00    -0.033 A 
ATOM      2  C1  UNL d   1       0.241  -2.087  -2.512  0.00  0.00     0.039 A 
ATOM      3  C2  UNL d   1       0.731  -1.436  -3.646  0.00  0.00    -0.080 A 
ATOM      4  C3  UNL d   1      -0.165  -0.929  -4.583  0.00  0.00     0.150 A 
ATOM      5  C4  UNL d   1      -1.538  -1.060  -4.400  0.00  0.00    -0.007 A 
ATOM      6  C5  UNL d   1      -2.025  -1.711  -3.268  0.00  0.00     0.039 A 
ENDROOT
BRANCH   4   7
ATOM      7  O   UNL d   1       0.265  -0.290  -5.708  0.00  0.00    -0.526 OA
ATOM      8  H5  UNL d   1       1.237  -0.300  -5.714  0.00  0.00     0.418 HD
ENDBRANCH   4   7
TORSDOF 1
ENDMDL
