MODEL 1
REMARK minimizedAffinity 9.10672092
REMARK minimizedRMSD -1
REMARK  1 active torsions:
REMARK  status: ('A' for Active; 'I' for Inactive)
REMARK    1  A    between atoms: C3_4  and  O_7 
ROOT
ATOM      1  C   UNL d   1       0.635  -1.022  -5.467  0.00  0.00    -0.033 A 
ATOM      2  C1  UNL d   1      -0.731  -1.243  -5.280  0.00  0.00     0.039 A 
ATOM      3  C2  UNL d   1      -1.244  -1.404  -3.992  0.00  0.00    -0.080 A 
ATOM      4  C3  UNL d   1      -0.383  -1.340  -2.900  0.00  0.00     0.150 A 
ATOM      5  C4  UNL d   1       0.978  -1.116  -3.078  0.00  0.00    -0.007 A 
ATOM      6  C5  UNL d   1       1.490  -0.956  -4.365  0.00  0.00     0.039 A 
ENDROOT
BRANCH   4   7
ATOM      7  O   UNL d   1      -0.837  -1.496  -1.624  0.00  0.00    -0.526 OA
ATOM      8  H5  UNL d   1      -1.792  -1.672  -1.657  0.00  0.00     0.418 HD
ENDBRANCH   4   7
TORSDOF 1
ENDMDL
