MODEL 1
REMARK minimizedAffinity 10.9836617
REMARK minimizedRMSD -1
REMARK  1 active torsions:
REMARK  status: ('A' for Active; 'I' for Inactive)
REMARK    1  A    between atoms: C3_4  and  O_7 
ROOT
ATOM      1  C   UNL d   1       2.058  -2.493  -4.680  0.00  0.00    -0.033 A 
ATOM      2  C1  UNL d   1       3.038  -1.682  -4.104  0.00  0.00     0.039 A 
ATOM      3  C2  UNL d   1       4.372  -2.094  -4.096  0.00  0.00    -0.080 A 
ATOM      4  C3  UNL d   1       4.712  -3.317  -4.669  0.00  0.00     0.150 A 
ATOM      5  C4  UNL d   1       3.741  -4.128  -5.248  0.00  0.00    -0.007 A 
ATOM      6  C5  UNL d   1       2.410  -3.715  -5.253  0.00  0.00     0.039 A 
ENDROOT
BRANCH   4   7
ATOM      7  O   UNL d   1       6.000  -3.764  -4.682  0.00  0.00    -0.526 OA
ATOM      8  H5  UNL d   1       6.556  -3.113  -4.221  0.00  0.00     0.418 HD
ENDBRANCH   4   7
TORSDOF 1
ENDMDL
