MODEL 1
REMARK minimizedAffinity 8.2905283
REMARK minimizedRMSD -1
REMARK  0 active torsions:
REMARK  status: ('A' for Active; 'I' for Inactive)
ROOT
ATOM      1  C   UNL d   1       2.773   1.099  -2.943  0.00  0.00    -0.002 A 
ATOM      2  C1  UNL d   1       2.635  -0.218  -3.357  0.00  0.00     0.010 A 
ATOM      3  C2  UNL d   1       1.383  -0.725  -3.708  0.00  0.00     0.041 A 
ATOM      4  C3  UNL d   1       0.260   0.122  -3.637  0.00  0.00    -0.075 A 
ATOM      5  S   UNL d   1      -1.373  -0.281  -4.018  0.00  0.00     0.015 SA
ATOM      6  C4  UNL d   1      -1.926   1.287  -3.641  0.00  0.00     0.022 A 
ATOM      7  C5  UNL d   1      -0.904   2.110  -3.232  0.00  0.00     0.026 A 
ATOM      8  C6  UNL d   1       0.373   1.453  -3.223  0.00  0.00    -0.082 A 
ATOM      9  C7  UNL d   1       1.656   1.937  -2.873  0.00  0.00     0.045 A 
ENDROOT
TORSDOF 0
ENDMDL
