MODEL 1
REMARK minimizedAffinity 0.242748395
REMARK minimizedRMSD -1
REMARK  0 active torsions:
REMARK  status: ('A' for Active; 'I' for Inactive)
ROOT
ATOM      1  C   UNL d   1       2.747  -0.505  -3.699  0.00  0.00    -0.002 A 
ATOM      2  C1  UNL d   1       1.926  -1.474  -4.257  0.00  0.00     0.010 A 
ATOM      3  C2  UNL d   1       0.539  -1.310  -4.268  0.00  0.00     0.041 A 
ATOM      4  C3  UNL d   1      -0.013  -0.143  -3.704  0.00  0.00    -0.075 A 
ATOM      5  S   UNL d   1      -1.683   0.274  -3.606  0.00  0.00     0.015 SA
ATOM      6  C4  UNL d   1      -1.346   1.749  -2.821  0.00  0.00     0.022 A 
ATOM      7  C5  UNL d   1       0.003   1.935  -2.631  0.00  0.00     0.026 A 
ATOM      8  C6  UNL d   1       0.793   0.848  -3.137  0.00  0.00    -0.082 A 
ATOM      9  C7  UNL d   1       2.195   0.652  -3.141  0.00  0.00     0.045 A 
ENDROOT
TORSDOF 0
ENDMDL
