MODEL 1
REMARK minimizedAffinity 10.2534599
REMARK minimizedRMSD -1
REMARK  0 active torsions:
REMARK  status: ('A' for Active; 'I' for Inactive)
ROOT
ATOM      1  C   UNL d   1       3.669   0.763  -2.951  0.00  0.00    -0.002 A 
ATOM      2  C1  UNL d   1       2.763   1.123  -1.963  0.00  0.00     0.010 A 
ATOM      3  C2  UNL d   1       1.925   2.226  -2.137  0.00  0.00     0.041 A 
ATOM      4  C3  UNL d   1       2.012   2.967  -3.332  0.00  0.00    -0.075 A 
ATOM      5  S   UNL d   1       1.084   4.354  -3.765  0.00  0.00     0.015 SA
ATOM      6  C4  UNL d   1       1.868   4.501  -5.271  0.00  0.00     0.022 A 
ATOM      7  C5  UNL d   1       2.817   3.524  -5.456  0.00  0.00     0.026 A 
ATOM      8  C6  UNL d   1       2.915   2.623  -4.342  0.00  0.00    -0.082 A 
ATOM      9  C7  UNL d   1       3.752   1.500  -4.135  0.00  0.00     0.045 A 
ENDROOT
TORSDOF 0
ENDMDL
