MODEL 1
REMARK minimizedAffinity 15.6460552
REMARK minimizedRMSD -1
REMARK  0 active torsions:
REMARK  status: ('A' for Active; 'I' for Inactive)
ROOT
ATOM      1  C   UNL d   1       1.547  -0.310  -2.942  0.00  0.00    -0.002 A 
ATOM      2  C1  UNL d   1       2.673  -1.046  -2.602  0.00  0.00     0.010 A 
ATOM      3  C2  UNL d   1       3.409  -0.731  -1.458  0.00  0.00     0.041 A 
ATOM      4  C3  UNL d   1       2.989   0.347  -0.653  0.00  0.00    -0.075 A 
ATOM      5  S   UNL d   1       3.734   0.915   0.794  0.00  0.00     0.015 SA
ATOM      6  C4  UNL d   1       2.574   2.148   0.995  0.00  0.00     0.022 A 
ATOM      7  C5  UNL d   1       1.635   2.141  -0.009  0.00  0.00     0.026 A 
ATOM      8  C6  UNL d   1       1.858   1.103  -0.975  0.00  0.00    -0.082 A 
ATOM      9  C7  UNL d   1       1.134   0.758  -2.142  0.00  0.00     0.045 A 
ENDROOT
TORSDOF 0
ENDMDL
