MODEL 1
REMARK minimizedAffinity 7.12611055
REMARK minimizedRMSD -1
REMARK  0 active torsions:
REMARK  status: ('A' for Active; 'I' for Inactive)
ROOT
ATOM      1  C   UNL d   1      -1.851   0.009   0.282  0.00  0.00    -0.002 A 
ATOM      2  C1  UNL d   1      -0.764   0.867   0.187  0.00  0.00     0.010 A 
ATOM      3  C2  UNL d   1      -0.537   1.598  -0.981  0.00  0.00     0.041 A 
ATOM      4  C3  UNL d   1      -1.429   1.453  -2.061  0.00  0.00    -0.075 A 
ATOM      5  S   UNL d   1      -1.350   2.247  -3.589  0.00  0.00     0.015 SA
ATOM      6  C4  UNL d   1      -2.757   1.467  -4.151  0.00  0.00     0.022 A 
ATOM      7  C5  UNL d   1      -3.287   0.617  -3.209  0.00  0.00     0.026 A 
ATOM      8  C6  UNL d   1      -2.531   0.595  -1.989  0.00  0.00    -0.082 A 
ATOM      9  C7  UNL d   1      -2.734  -0.133  -0.791  0.00  0.00     0.045 A 
ENDROOT
TORSDOF 0
ENDMDL
