MODEL 1
REMARK minimizedAffinity 11.668479
REMARK minimizedRMSD -1
REMARK  0 active torsions:
REMARK  status: ('A' for Active; 'I' for Inactive)
ROOT
ATOM      1  C   UNL d   1       1.396   3.358  -4.153  0.00  0.00    -0.002 A 
ATOM      2  C1  UNL d   1       0.827   2.876  -2.983  0.00  0.00     0.010 A 
ATOM      3  C2  UNL d   1       1.230   1.650  -2.450  0.00  0.00     0.041 A 
ATOM      4  C3  UNL d   1       2.225   0.911  -3.118  0.00  0.00    -0.075 A 
ATOM      5  S   UNL d   1       2.877  -0.615  -2.650  0.00  0.00     0.015 SA
ATOM      6  C4  UNL d   1       3.927  -0.662  -3.992  0.00  0.00     0.022 A 
ATOM      7  C5  UNL d   1       3.796   0.451  -4.788  0.00  0.00     0.026 A 
ATOM      8  C6  UNL d   1       2.814   1.376  -4.297  0.00  0.00    -0.082 A 
ATOM      9  C7  UNL d   1       2.383   2.622  -4.813  0.00  0.00     0.045 A 
ENDROOT
TORSDOF 0
ENDMDL
