MODEL 1
REMARK minimizedAffinity 8.06287766
REMARK minimizedRMSD -1
REMARK  0 active torsions:
REMARK  status: ('A' for Active; 'I' for Inactive)
ROOT
ATOM      1  C   UNL d   1       3.657   0.526  -3.097  0.00  0.00    -0.002 A 
ATOM      2  C1  UNL d   1       2.705   0.722  -2.105  0.00  0.00     0.010 A 
ATOM      3  C2  UNL d   1       1.748   1.730  -2.230  0.00  0.00     0.041 A 
ATOM      4  C3  UNL d   1       1.761   2.545  -3.379  0.00  0.00    -0.075 A 
ATOM      5  S   UNL d   1       0.685   3.840  -3.748  0.00  0.00     0.015 SA
ATOM      6  C4  UNL d   1       1.462   4.163  -5.230  0.00  0.00     0.022 A 
ATOM      7  C5  UNL d   1       2.519   3.313  -5.454  0.00  0.00     0.026 A 
ATOM      8  C6  UNL d   1       2.708   2.366  -4.391  0.00  0.00    -0.082 A 
ATOM      9  C7  UNL d   1       3.667   1.336  -4.235  0.00  0.00     0.045 A 
ENDROOT
TORSDOF 0
ENDMDL
