MODEL 1
REMARK minimizedAffinity 12.2788811
REMARK minimizedRMSD -1
REMARK  0 active torsions:
REMARK  status: ('A' for Active; 'I' for Inactive)
ROOT
ATOM      1  C   UNL d   1       3.704   0.473  -3.277  0.00  0.00    -0.002 A 
ATOM      2  C1  UNL d   1       2.831   0.665  -2.215  0.00  0.00     0.010 A 
ATOM      3  C2  UNL d   1       1.994   1.782  -2.176  0.00  0.00     0.041 A 
ATOM      4  C3  UNL d   1       2.048   2.711  -3.234  0.00  0.00    -0.075 A 
ATOM      5  S   UNL d   1       1.116   4.152  -3.401  0.00  0.00     0.015 SA
ATOM      6  C4  UNL d   1       1.853   4.545  -4.887  0.00  0.00     0.022 A 
ATOM      7  C5  UNL d   1       2.790   3.612  -5.261  0.00  0.00     0.026 A 
ATOM      8  C6  UNL d   1       2.918   2.539  -4.315  0.00  0.00    -0.082 A 
ATOM      9  C7  UNL d   1       3.754   1.396  -4.324  0.00  0.00     0.045 A 
ENDROOT
TORSDOF 0
ENDMDL
