MODEL 1
REMARK minimizedAffinity 7.91117716
REMARK minimizedRMSD -1
REMARK  0 active torsions:
REMARK  status: ('A' for Active; 'I' for Inactive)
ROOT
ATOM      1  C   UNL d   1      -3.250   0.754   1.052  0.00  0.00    -0.002 A 
ATOM      2  C1  UNL d   1      -3.845  -0.361   0.478  0.00  0.00     0.010 A 
ATOM      3  C2  UNL d   1      -3.444  -0.811  -0.782  0.00  0.00     0.041 A 
ATOM      4  C3  UNL d   1      -2.424  -0.116  -1.460  0.00  0.00    -0.075 A 
ATOM      5  S   UNL d   1      -1.770  -0.486  -3.012  0.00  0.00     0.015 SA
ATOM      6  C4  UNL d   1      -0.684   0.827  -2.950  0.00  0.00     0.022 A 
ATOM      7  C5  UNL d   1      -0.805   1.541  -1.781  0.00  0.00     0.026 A 
ATOM      8  C6  UNL d   1      -1.809   1.009  -0.903  0.00  0.00    -0.082 A 
ATOM      9  C7  UNL d   1      -2.238   1.441   0.375  0.00  0.00     0.045 A 
ENDROOT
TORSDOF 0
ENDMDL
