MODEL 1
REMARK minimizedAffinity 5.51825619
REMARK minimizedRMSD -1
REMARK  0 active torsions:
REMARK  status: ('A' for Active; 'I' for Inactive)
ROOT
ATOM      1  C   UNL d   1       1.305   1.871  -2.821  0.00  0.00    -0.002 A 
ATOM      2  C1  UNL d   1       1.620   0.550  -3.106  0.00  0.00     0.010 A 
ATOM      3  C2  UNL d   1       0.649  -0.320  -3.606  0.00  0.00     0.041 A 
ATOM      4  C3  UNL d   1      -0.657   0.165  -3.818  0.00  0.00    -0.075 A 
ATOM      5  S   UNL d   1      -2.008  -0.717  -4.423  0.00  0.00     0.015 SA
ATOM      6  C4  UNL d   1      -3.036   0.638  -4.317  0.00  0.00     0.022 A 
ATOM      7  C5  UNL d   1      -2.380   1.746  -3.834  0.00  0.00     0.026 A 
ATOM      8  C6  UNL d   1      -0.998   1.492  -3.538  0.00  0.00    -0.082 A 
ATOM      9  C7  UNL d   1       0.009   2.348  -3.032  0.00  0.00     0.045 A 
ENDROOT
TORSDOF 0
ENDMDL
