MODEL 1
REMARK minimizedAffinity -0.561314464
REMARK minimizedRMSD -1
REMARK  1 active torsions:
REMARK  status: ('A' for Active; 'I' for Inactive)
REMARK    1  A    between atoms: C1_2  and  C2_3 
ROOT
ATOM      1  C2  UNL d   1       1.694   0.913   0.534  0.00  0.00    -0.073 A 
ATOM      2  C3  UNL d   1       2.068   0.974   1.881  0.00  0.00    -0.002 A 
ATOM      3  C4  UNL d   1       2.813   2.053   2.357  0.00  0.00     0.004 A 
ATOM      4  C5  UNL d   1       3.187   3.083   1.495  0.00  0.00    -0.004 A 
ATOM      5  C6  UNL d   1       2.813   3.046   0.148  0.00  0.00    -0.075 A 
ATOM      6  C7  UNL d   1       3.209   4.146  -0.793  0.00  0.00     0.076 C 
ATOM      7  C8  UNL d   1       2.067   1.958  -0.324  0.00  0.00     0.001 A 
ENDROOT
BRANCH   1   8
ATOM      8  C1  UNL d   1       0.884  -0.247   0.016  0.00  0.00     0.053 C 
ATOM      9  C   UNL d   1      -0.379   0.213  -0.697  0.00  0.00     0.018 C 
ENDBRANCH   1   8
TORSDOF 1
ENDMDL
