MODEL 1
REMARK minimizedAffinity -3.84145856
REMARK minimizedRMSD -1
REMARK  1 active torsions:
REMARK  status: ('A' for Active; 'I' for Inactive)
REMARK    1  A    between atoms: C1_2  and  C2_3 
ROOT
ATOM      1  C2  UNL d   1       0.397   0.760   0.009  0.00  0.00    -0.073 A 
ATOM      2  C3  UNL d   1      -0.552  -0.186   0.414  0.00  0.00    -0.002 A 
ATOM      3  C4  UNL d   1      -1.643  -0.484  -0.404  0.00  0.00     0.004 A 
ATOM      4  C5  UNL d   1      -1.792   0.153  -1.636  0.00  0.00    -0.004 A 
ATOM      5  C6  UNL d   1      -0.848   1.093  -2.063  0.00  0.00    -0.075 A 
ATOM      6  C7  UNL d   1      -0.995   1.789  -3.384  0.00  0.00     0.076 C 
ATOM      7  C8  UNL d   1       0.243   1.389  -1.234  0.00  0.00     0.001 A 
ENDROOT
BRANCH   1   8
ATOM      8  C1  UNL d   1       1.579   1.081   0.886  0.00  0.00     0.053 C 
ATOM      9  C   UNL d   1       2.429   2.203   0.310  0.00  0.00     0.018 C 
ENDBRANCH   1   8
TORSDOF 1
ENDMDL
