MODEL 1
REMARK minimizedAffinity -4.78388882
REMARK minimizedRMSD -1
REMARK  1 active torsions:
REMARK  status: ('A' for Active; 'I' for Inactive)
REMARK    1  A    between atoms: C1_2  and  C2_3 
ROOT
ATOM      1  C2  UNL d   1       1.483   1.270   0.393  0.00  0.00    -0.073 A 
ATOM      2  C3  UNL d   1       1.742   1.780   1.670  0.00  0.00    -0.002 A 
ATOM      3  C4  UNL d   1       2.462   2.966   1.822  0.00  0.00     0.004 A 
ATOM      4  C5  UNL d   1       2.922   3.657   0.701  0.00  0.00    -0.004 A 
ATOM      5  C6  UNL d   1       2.663   3.169  -0.584  0.00  0.00    -0.075 A 
ATOM      6  C7  UNL d   1       3.154   3.899  -1.800  0.00  0.00     0.076 C 
ATOM      7  C8  UNL d   1       1.942   1.976  -0.729  0.00  0.00     0.001 A 
ENDROOT
BRANCH   1   8
ATOM      8  C1  UNL d   1       0.701  -0.007   0.223  0.00  0.00     0.053 C 
ATOM      9  C   UNL d   1      -0.213   0.042  -0.991  0.00  0.00     0.018 C 
ENDBRANCH   1   8
TORSDOF 1
ENDMDL
