MODEL 1
REMARK minimizedAffinity 0.553141177
REMARK minimizedRMSD -1
REMARK  1 active torsions:
REMARK  status: ('A' for Active; 'I' for Inactive)
REMARK    1  A    between atoms: C1_2  and  C2_3 
ROOT
ATOM      1  C2  UNL d   1       1.156   0.851   0.429  0.00  0.00    -0.073 A 
ATOM      2  C3  UNL d   1       1.050   0.850  -0.966  0.00  0.00    -0.002 A 
ATOM      3  C4  UNL d   1       0.059   0.098  -1.598  0.00  0.00     0.004 A 
ATOM      4  C5  UNL d   1      -0.839  -0.655  -0.842  0.00  0.00    -0.004 A 
ATOM      5  C6  UNL d   1      -0.757  -0.659   0.554  0.00  0.00    -0.075 A 
ATOM      6  C7  UNL d   1      -1.714  -1.466   1.381  0.00  0.00     0.076 C 
ATOM      7  C8  UNL d   1       0.243   0.097   1.181  0.00  0.00     0.001 A 
ENDROOT
BRANCH   1   8
ATOM      8  C1  UNL d   1       2.220   1.667   1.116  0.00  0.00     0.053 C 
ATOM      9  C   UNL d   1       2.971   2.561   0.142  0.00  0.00     0.018 C 
ENDBRANCH   1   8
TORSDOF 1
ENDMDL
