MODEL 1
REMARK minimizedAffinity -4.30977011
REMARK minimizedRMSD -1
REMARK  1 active torsions:
REMARK  status: ('A' for Active; 'I' for Inactive)
REMARK    1  A    between atoms: C1_2  and  C2_3 
ROOT
ATOM      1  C2  UNL d   1      -0.852  -0.359  -0.076  0.00  0.00    -0.073 A 
ATOM      2  C3  UNL d   1      -0.644  -1.382   0.856  0.00  0.00    -0.002 A 
ATOM      3  C4  UNL d   1       0.614  -1.563   1.434  0.00  0.00     0.004 A 
ATOM      4  C5  UNL d   1       1.671  -0.720   1.092  0.00  0.00    -0.004 A 
ATOM      5  C6  UNL d   1       1.479   0.315   0.171  0.00  0.00    -0.075 A 
ATOM      6  C7  UNL d   1       2.608   1.228  -0.210  0.00  0.00     0.076 C 
ATOM      7  C8  UNL d   1       0.215   0.488  -0.407  0.00  0.00     0.001 A 
ENDROOT
BRANCH   1   8
ATOM      8  C1  UNL d   1      -2.210  -0.156  -0.698  0.00  0.00     0.053 C 
ATOM      9  C   UNL d   1      -2.311  -0.802  -2.071  0.00  0.00     0.018 C 
ENDBRANCH   1   8
TORSDOF 1
ENDMDL
