MODEL 1
REMARK minimizedAffinity -3.07655811
REMARK minimizedRMSD -1
REMARK  1 active torsions:
REMARK  status: ('A' for Active; 'I' for Inactive)
REMARK    1  A    between atoms: C1_2  and  C2_3 
ROOT
ATOM      1  C2  UNL d   1       0.132   0.918   0.037  0.00  0.00    -0.073 A 
ATOM      2  C3  UNL d   1       1.074   0.010  -0.462  0.00  0.00    -0.002 A 
ATOM      3  C4  UNL d   1       2.435   0.206  -0.226  0.00  0.00     0.004 A 
ATOM      4  C5  UNL d   1       2.868   1.306   0.515  0.00  0.00    -0.004 A 
ATOM      5  C6  UNL d   1       1.942   2.217   1.032  0.00  0.00    -0.075 A 
ATOM      6  C7  UNL d   1       2.391   3.406   1.829  0.00  0.00     0.076 C 
ATOM      7  C8  UNL d   1       0.576   2.015   0.789  0.00  0.00     0.001 A 
ENDROOT
BRANCH   1   8
ATOM      8  C1  UNL d   1      -1.339   0.707  -0.210  0.00  0.00     0.053 C 
ATOM      9  C   UNL d   1      -1.642  -0.708  -0.676  0.00  0.00     0.018 C 
ENDBRANCH   1   8
TORSDOF 1
ENDMDL
