MODEL 1
REMARK minimizedAffinity -3.18570423
REMARK minimizedRMSD -1
REMARK  1 active torsions:
REMARK  status: ('A' for Active; 'I' for Inactive)
REMARK    1  A    between atoms: C1_2  and  C2_3 
ROOT
ATOM      1  C2  UNL d   1       0.530  -0.035  -0.323  0.00  0.00    -0.073 A 
ATOM      2  C3  UNL d   1      -0.162   0.856  -1.151  0.00  0.00    -0.002 A 
ATOM      3  C4  UNL d   1      -1.525   0.680  -1.392  0.00  0.00     0.004 A 
ATOM      4  C5  UNL d   1      -2.211  -0.381  -0.802  0.00  0.00    -0.004 A 
ATOM      5  C6  UNL d   1      -1.540  -1.275   0.038  0.00  0.00    -0.075 A 
ATOM      6  C7  UNL d   1      -2.263  -2.424   0.678  0.00  0.00     0.076 C 
ATOM      7  C8  UNL d   1      -0.170  -1.094   0.273  0.00  0.00     0.001 A 
ENDROOT
BRANCH   1   8
ATOM      8  C1  UNL d   1       2.001   0.153  -0.055  0.00  0.00     0.053 C 
ATOM      9  C   UNL d   1       2.324   1.576   0.375  0.00  0.00     0.018 C 
ENDBRANCH   1   8
TORSDOF 1
ENDMDL
