MODEL 1
REMARK minimizedAffinity -1.74282694
REMARK minimizedRMSD -1
REMARK  1 active torsions:
REMARK  status: ('A' for Active; 'I' for Inactive)
REMARK    1  A    between atoms: C1_2  and  C2_3 
ROOT
ATOM      1  C2  UNL d   1      -1.899  -1.512  -0.550  0.00  0.00    -0.073 A 
ATOM      2  C3  UNL d   1      -2.406  -0.900  -1.702  0.00  0.00    -0.002 A 
ATOM      3  C4  UNL d   1      -1.803   0.250  -2.213  0.00  0.00     0.004 A 
ATOM      4  C5  UNL d   1      -0.684   0.795  -1.584  0.00  0.00    -0.004 A 
ATOM      5  C6  UNL d   1      -0.155   0.192  -0.438  0.00  0.00    -0.075 A 
ATOM      6  C7  UNL d   1       1.046   0.767   0.252  0.00  0.00     0.076 C 
ATOM      7  C8  UNL d   1      -0.768  -0.961   0.071  0.00  0.00     0.001 A 
ENDROOT
BRANCH   1   8
ATOM      8  C1  UNL d   1      -2.543  -2.757   0.002  0.00  0.00     0.053 C 
ATOM      9  C   UNL d   1      -1.708  -3.389   1.105  0.00  0.00     0.018 C 
ENDBRANCH   1   8
TORSDOF 1
ENDMDL
