MODEL 1
REMARK minimizedAffinity -2.7718029
REMARK minimizedRMSD -1
REMARK  1 active torsions:
REMARK  status: ('A' for Active; 'I' for Inactive)
REMARK    1  A    between atoms: C1_2  and  C2_3 
ROOT
ATOM      1  C2  UNL d   1       0.097   0.172  -0.623  0.00  0.00    -0.073 A 
ATOM      2  C3  UNL d   1       0.658  -0.750   0.268  0.00  0.00    -0.002 A 
ATOM      3  C4  UNL d   1       1.641  -0.348   1.173  0.00  0.00     0.004 A 
ATOM      4  C5  UNL d   1       2.068   0.980   1.201  0.00  0.00    -0.004 A 
ATOM      5  C6  UNL d   1       1.511   1.919   0.327  0.00  0.00    -0.075 A 
ATOM      6  C7  UNL d   1       1.961   3.350   0.343  0.00  0.00     0.076 C 
ATOM      7  C8  UNL d   1       0.526   1.506  -0.581  0.00  0.00     0.001 A 
ENDROOT
BRANCH   1   8
ATOM      8  C1  UNL d   1      -0.970  -0.256  -1.597  0.00  0.00     0.053 C 
ATOM      9  C   UNL d   1      -1.974   0.853  -1.867  0.00  0.00     0.018 C 
ENDBRANCH   1   8
TORSDOF 1
ENDMDL
