MODEL 1
REMARK minimizedAffinity -4.26608038
REMARK minimizedRMSD -1
REMARK  1 active torsions:
REMARK  status: ('A' for Active; 'I' for Inactive)
REMARK    1  A    between atoms: C1_2  and  C2_3 
ROOT
ATOM      1  C2  UNL d   1       0.379   0.281  -0.600  0.00  0.00    -0.073 A 
ATOM      2  C3  UNL d   1       0.080  -0.689   0.363  0.00  0.00    -0.002 A 
ATOM      3  C4  UNL d   1       0.481  -0.513   1.688  0.00  0.00     0.004 A 
ATOM      4  C5  UNL d   1       1.178   0.635   2.064  0.00  0.00    -0.004 A 
ATOM      5  C6  UNL d   1       1.476   1.621   1.118  0.00  0.00    -0.075 A 
ATOM      6  C7  UNL d   1       2.226   2.861   1.506  0.00  0.00     0.076 C 
ATOM      7  C8  UNL d   1       1.072   1.436  -0.211  0.00  0.00     0.001 A 
ENDROOT
BRANCH   1   8
ATOM      8  C1  UNL d   1      -0.058   0.098  -2.031  0.00  0.00     0.053 C 
ATOM      9  C   UNL d   1      -1.543  -0.210  -2.139  0.00  0.00     0.018 C 
ENDBRANCH   1   8
TORSDOF 1
ENDMDL
