MODEL 1
REMARK minimizedAffinity -1.65759528
REMARK minimizedRMSD -1
REMARK  1 active torsions:
REMARK  status: ('A' for Active; 'I' for Inactive)
REMARK    1  A    between atoms: C1_2  and  C2_3 
ROOT
ATOM      1  C2  UNL d   1      -0.349   0.626  -0.389  0.00  0.00    -0.081 A 
ATOM      2  C3  UNL d   1       0.090   0.894  -1.691  0.00  0.00     0.006 A 
ATOM      3  C4  UNL d   1       0.100   2.203  -2.180  0.00  0.00     0.002 A 
ATOM      4  C5  UNL d   1      -0.321   3.265  -1.373  0.00  0.00    -0.080 A 
ATOM      5  C6  UNL d   1      -0.286   4.678  -1.875  0.00  0.00     0.076 C 
ATOM      6  C7  UNL d   1      -0.775   2.996  -0.078  0.00  0.00     0.002 A 
ATOM      7  C8  UNL d   1      -0.786   1.687   0.412  0.00  0.00     0.006 A 
ENDROOT
BRANCH   1   8
ATOM      8  C1  UNL d   1      -0.299  -0.776   0.164  0.00  0.00     0.054 C 
ATOM      9  C   UNL d   1      -1.619  -1.502  -0.053  0.00  0.00     0.018 C 
ENDBRANCH   1   8
TORSDOF 1
ENDMDL
