MODEL 1
REMARK minimizedAffinity -0.525963843
REMARK minimizedRMSD -1
REMARK  1 active torsions:
REMARK  status: ('A' for Active; 'I' for Inactive)
REMARK    1  A    between atoms: C1_2  and  C2_3 
ROOT
ATOM      1  C2  UNL d   1       1.285  -0.153   0.553  0.00  0.00    -0.081 A 
ATOM      2  C3  UNL d   1       1.921  -1.370   0.828  0.00  0.00     0.006 A 
ATOM      3  C4  UNL d   1       3.231  -1.390   1.313  0.00  0.00     0.002 A 
ATOM      4  C5  UNL d   1       3.923  -0.196   1.539  0.00  0.00    -0.080 A 
ATOM      5  C6  UNL d   1       5.319  -0.203   2.088  0.00  0.00     0.076 C 
ATOM      6  C7  UNL d   1       3.294   1.020   1.248  0.00  0.00     0.002 A 
ATOM      7  C8  UNL d   1       1.984   1.041   0.763  0.00  0.00     0.006 A 
ENDROOT
BRANCH   1   8
ATOM      8  C1  UNL d   1      -0.150  -0.125   0.092  0.00  0.00     0.054 C 
ATOM      9  C   UNL d   1      -1.015   0.712   1.023  0.00  0.00     0.018 C 
ENDBRANCH   1   8
TORSDOF 1
ENDMDL
