MODEL 1
REMARK minimizedAffinity 1.19869411
REMARK minimizedRMSD -1
REMARK  1 active torsions:
REMARK  status: ('A' for Active; 'I' for Inactive)
REMARK    1  A    between atoms: C1_2  and  C2_3 
ROOT
ATOM      1  C2  UNL d   1      -1.734  -0.948   2.508  0.00  0.00    -0.081 A 
ATOM      2  C3  UNL d   1      -1.146  -2.197   2.273  0.00  0.00     0.006 A 
ATOM      3  C4  UNL d   1      -0.548  -2.478   1.042  0.00  0.00     0.002 A 
ATOM      4  C5  UNL d   1      -0.523  -1.514   0.029  0.00  0.00    -0.080 A 
ATOM      5  C6  UNL d   1       0.142  -1.793  -1.286  0.00  0.00     0.076 C 
ATOM      6  C7  UNL d   1      -1.126  -0.272   0.257  0.00  0.00     0.002 A 
ATOM      7  C8  UNL d   1      -1.724   0.009   1.487  0.00  0.00     0.006 A 
ENDROOT
BRANCH   1   8
ATOM      8  C1  UNL d   1      -2.322  -0.619   3.856  0.00  0.00     0.054 C 
ATOM      9  C   UNL d   1      -1.562  -1.315   4.976  0.00  0.00     0.018 C 
ENDBRANCH   1   8
TORSDOF 1
ENDMDL
