MODEL 1
REMARK minimizedAffinity -0.770048976
REMARK minimizedRMSD -1
REMARK  1 active torsions:
REMARK  status: ('A' for Active; 'I' for Inactive)
REMARK    1  A    between atoms: C1_2  and  C2_3 
ROOT
ATOM      1  C2  UNL d   1       0.536  -1.658   1.469  0.00  0.00    -0.081 A 
ATOM      2  C3  UNL d   1      -0.557  -0.817   1.709  0.00  0.00     0.006 A 
ATOM      3  C4  UNL d   1      -1.435  -1.080   2.764  0.00  0.00     0.002 A 
ATOM      4  C5  UNL d   1      -1.228  -2.181   3.601  0.00  0.00    -0.080 A 
ATOM      5  C6  UNL d   1      -2.145  -2.457   4.755  0.00  0.00     0.076 C 
ATOM      6  C7  UNL d   1      -0.146  -3.031   3.351  0.00  0.00     0.002 A 
ATOM      7  C8  UNL d   1       0.731  -2.770   2.296  0.00  0.00     0.006 A 
ENDROOT
BRANCH   1   8
ATOM      8  C1  UNL d   1       1.521  -1.341   0.372  0.00  0.00     0.054 C 
ATOM      9  C   UNL d   1       1.880   0.138   0.362  0.00  0.00     0.018 C 
ENDBRANCH   1   8
TORSDOF 1
ENDMDL
