MODEL 1
REMARK minimizedAffinity -3.40809989
REMARK minimizedRMSD -1
REMARK  1 active torsions:
REMARK  status: ('A' for Active; 'I' for Inactive)
REMARK    1  A    between atoms: C1_2  and  C2_3 
ROOT
ATOM      1  C2  UNL d   1       0.147  -1.625   1.490  0.00  0.00    -0.081 A 
ATOM      2  C3  UNL d   1       0.196  -2.992   1.792  0.00  0.00     0.006 A 
ATOM      3  C4  UNL d   1      -0.560  -3.512   2.845  0.00  0.00     0.002 A 
ATOM      4  C5  UNL d   1      -1.383  -2.676   3.608  0.00  0.00    -0.080 A 
ATOM      5  C6  UNL d   1      -2.224  -3.227   4.722  0.00  0.00     0.076 C 
ATOM      6  C7  UNL d   1      -1.419  -1.308   3.317  0.00  0.00     0.002 A 
ATOM      7  C8  UNL d   1      -0.663  -0.788   2.265  0.00  0.00     0.006 A 
ENDROOT
BRANCH   1   8
ATOM      8  C1  UNL d   1       0.912  -1.072   0.314  0.00  0.00     0.054 C 
ATOM      9  C   UNL d   1       0.615   0.406   0.107  0.00  0.00     0.018 C 
ENDBRANCH   1   8
TORSDOF 1
ENDMDL
