MODEL 1
REMARK minimizedAffinity -2.34785652
REMARK minimizedRMSD -1
REMARK  1 active torsions:
REMARK  status: ('A' for Active; 'I' for Inactive)
REMARK    1  A    between atoms: C1_2  and  C2_3 
ROOT
ATOM      1  C2  UNL d   1      -0.054  -1.553   1.523  0.00  0.00    -0.081 A 
ATOM      2  C3  UNL d   1      -0.471  -2.867   1.767  0.00  0.00     0.006 A 
ATOM      3  C4  UNL d   1      -1.313  -3.154   2.844  0.00  0.00     0.002 A 
ATOM      4  C5  UNL d   1      -1.758  -2.132   3.690  0.00  0.00    -0.080 A 
ATOM      5  C6  UNL d   1      -2.686  -2.422   4.832  0.00  0.00     0.076 C 
ATOM      6  C7  UNL d   1      -1.327  -0.822   3.456  0.00  0.00     0.002 A 
ATOM      7  C8  UNL d   1      -0.485  -0.534   2.380  0.00  0.00     0.006 A 
ENDROOT
BRANCH   1   8
ATOM      8  C1  UNL d   1       0.801  -1.230   0.325  0.00  0.00     0.054 C 
ATOM      9  C   UNL d   1       1.904  -0.243   0.681  0.00  0.00     0.018 C 
ENDBRANCH   1   8
TORSDOF 1
ENDMDL
