MODEL 1
REMARK minimizedAffinity 2.56989884
REMARK minimizedRMSD -1
REMARK  1 active torsions:
REMARK  status: ('A' for Active; 'I' for Inactive)
REMARK    1  A    between atoms: C1_2  and  C2_3 
ROOT
ATOM      1  C2  UNL d   1       0.177  -1.820   0.921  0.00  0.00    -0.081 A 
ATOM      2  C3  UNL d   1      -0.615  -1.236   1.917  0.00  0.00     0.006 A 
ATOM      3  C4  UNL d   1      -0.503  -1.652   3.246  0.00  0.00     0.002 A 
ATOM      4  C5  UNL d   1       0.409  -2.652   3.602  0.00  0.00    -0.080 A 
ATOM      5  C6  UNL d   1       0.561  -3.087   5.029  0.00  0.00     0.076 C 
ATOM      6  C7  UNL d   1       1.188  -3.248   2.604  0.00  0.00     0.002 A 
ATOM      7  C8  UNL d   1       1.075  -2.833   1.275  0.00  0.00     0.006 A 
ENDROOT
BRANCH   1   8
ATOM      8  C1  UNL d   1       0.104  -1.328  -0.502  0.00  0.00     0.054 C 
ATOM      9  C   UNL d   1      -0.540   0.048  -0.580  0.00  0.00     0.018 C 
ENDBRANCH   1   8
TORSDOF 1
ENDMDL
