MODEL 1
REMARK minimizedAffinity -3.16360211
REMARK minimizedRMSD -1
REMARK  0 active torsions:
REMARK  status: ('A' for Active; 'I' for Inactive)
ROOT
ATOM      1  C1  BNZ d   1      -1.043  -1.014  -0.127  0.00  0.00     0.000 A 
ATOM      2  C2  BNZ d   1       0.227  -1.175  -0.614  0.00  0.00     0.000 A 
ATOM      3  C3  BNZ d   1       1.101  -0.125  -0.651  0.00  0.00     0.000 A 
ATOM      4  C4  BNZ d   1       0.693   1.093  -0.239  0.00  0.00     0.000 A 
ATOM      5  C5  BNZ d   1      -0.587   1.273   0.246  0.00  0.00     0.000 A 
ATOM      6  C6  BNZ d   1      -1.452   0.205   0.318  0.00  0.00     0.000 A 
ENDROOT
TORSDOF 0
ENDMDL
