MODEL 1
REMARK minimizedAffinity 0.0635647774
REMARK minimizedRMSD -1
REMARK  0 active torsions:
REMARK  status: ('A' for Active; 'I' for Inactive)
ROOT
ATOM      1  C1  BNZ d   1      -1.851   1.261  -0.836  0.00  0.00     0.000 A 
ATOM      2  C2  BNZ d   1      -0.828   0.465  -1.277  0.00  0.00     0.000 A 
ATOM      3  C3  BNZ d   1      -0.459  -0.652  -0.580  0.00  0.00     0.000 A 
ATOM      4  C4  BNZ d   1      -1.086  -0.948   0.577  0.00  0.00     0.000 A 
ATOM      5  C5  BNZ d   1      -2.113  -0.150   1.040  0.00  0.00     0.000 A 
ATOM      6  C6  BNZ d   1      -2.507   0.952   0.315  0.00  0.00     0.000 A 
ENDROOT
TORSDOF 0
ENDMDL
