MODEL 1
REMARK minimizedAffinity -4.78760815
REMARK minimizedRMSD -1
REMARK  0 active torsions:
REMARK  status: ('A' for Active; 'I' for Inactive)
ROOT
ATOM      1  C1  BNZ d   1       1.011   0.092   1.557  0.00  0.00     0.000 A 
ATOM      2  C2  BNZ d   1       0.387   0.022   2.774  0.00  0.00     0.000 A 
ATOM      3  C3  BNZ d   1      -0.575   0.929   3.120  0.00  0.00     0.000 A 
ATOM      4  C4  BNZ d   1      -0.883   1.927   2.267  0.00  0.00     0.000 A 
ATOM      5  C5  BNZ d   1      -0.255   2.017   1.041  0.00  0.00     0.000 A 
ATOM      6  C6  BNZ d   1       0.685   1.080   0.680  0.00  0.00     0.000 A 
ENDROOT
TORSDOF 0
ENDMDL
