MODEL 1
REMARK minimizedAffinity -0.843263984
REMARK minimizedRMSD -1
REMARK  0 active torsions:
REMARK  status: ('A' for Active; 'I' for Inactive)
ROOT
ATOM      1  C1  BNZ d   1      -2.429   0.425  -0.171  0.00  0.00     0.000 A 
ATOM      2  C2  BNZ d   1      -1.218   0.032  -0.676  0.00  0.00     0.000 A 
ATOM      3  C3  BNZ d   1      -0.180  -0.280   0.157  0.00  0.00     0.000 A 
ATOM      4  C4  BNZ d   1      -0.341  -0.159   1.490  0.00  0.00     0.000 A 
ATOM      5  C5  BNZ d   1      -1.552   0.245   2.015  0.00  0.00     0.000 A 
ATOM      6  C6  BNZ d   1      -2.607   0.520   1.175  0.00  0.00     0.000 A 
ENDROOT
TORSDOF 0
ENDMDL
