MODEL 1
REMARK minimizedAffinity -1.35428464
REMARK minimizedRMSD -1
REMARK  0 active torsions:
REMARK  status: ('A' for Active; 'I' for Inactive)
ROOT
ATOM      1  C1  BNZ d   1      -0.946   0.425   1.908  0.00  0.00     0.000 A 
ATOM      2  C2  BNZ d   1       0.270   0.207   1.318  0.00  0.00     0.000 A 
ATOM      3  C3  BNZ d   1       0.363  -0.055  -0.020  0.00  0.00     0.000 A 
ATOM      4  C4  BNZ d   1      -0.763  -0.138  -0.758  0.00  0.00     0.000 A 
ATOM      5  C5  BNZ d   1      -1.997   0.069  -0.177  0.00  0.00     0.000 A 
ATOM      6  C6  BNZ d   1      -2.084   0.371   1.163  0.00  0.00     0.000 A 
ENDROOT
TORSDOF 0
ENDMDL
