MODEL 1
REMARK minimizedAffinity -4.42465639
REMARK minimizedRMSD -1
REMARK  0 active torsions:
REMARK  status: ('A' for Active; 'I' for Inactive)
ROOT
ATOM      1  C1  BNZ d   1      -0.710  -0.032   0.026  0.00  0.00     0.000 A 
ATOM      2  C2  BNZ d   1       0.390   0.147   0.822  0.00  0.00     0.000 A 
ATOM      3  C3  BNZ d   1       0.292   0.810   2.013  0.00  0.00     0.000 A 
ATOM      4  C4  BNZ d   1      -0.895   1.328   2.387  0.00  0.00     0.000 A 
ATOM      5  C5  BNZ d   1      -2.012   1.165   1.591  0.00  0.00     0.000 A 
ATOM      6  C6  BNZ d   1      -1.918   0.462   0.412  0.00  0.00     0.000 A 
ENDROOT
TORSDOF 0
ENDMDL
