MODEL 1
REMARK minimizedAffinity -0.621270955
REMARK minimizedRMSD -1
REMARK  0 active torsions:
REMARK  status: ('A' for Active; 'I' for Inactive)
ROOT
ATOM      1  C1  BNZ d   1       0.802   0.675  -3.987  0.00  0.00     0.000 A 
ATOM      2  C2  BNZ d   1       1.928   1.396  -3.691  0.00  0.00     0.000 A 
ATOM      3  C3  BNZ d   1       2.458   1.380  -2.431  0.00  0.00     0.000 A 
ATOM      4  C4  BNZ d   1       1.840   0.677  -1.460  0.00  0.00     0.000 A 
ATOM      5  C5  BNZ d   1       0.698  -0.047  -1.741  0.00  0.00     0.000 A 
ATOM      6  C6  BNZ d   1       0.190  -0.060  -3.019  0.00  0.00     0.000 A 
ENDROOT
TORSDOF 0
ENDMDL
