MODEL 1
REMARK minimizedAffinity -1.81831801
REMARK minimizedRMSD -1
REMARK  3 active torsions:
REMARK  status: ('A' for Active; 'I' for Inactive)
REMARK    1  A    between atoms: C3'_2  and  C2'_3 
REMARK    2  A    between atoms: C2'_3  and  C1'_4 
REMARK    3  A    between atoms: C1'_4  and  C1_5 
ROOT
ATOM      1  C1  N4B d   1       1.430   3.797  -0.564  0.00  0.00    -0.075 A 
ATOM      2  C2  N4B d   1       0.224   3.393   0.050  0.00  0.00     0.002 A 
ATOM      3  C3  N4B d   1       0.173   2.215   0.754  0.00  0.00     0.002 A 
ATOM      4  C4  N4B d   1       1.305   1.419   0.841  0.00  0.00    -0.004 A 
ATOM      5  C5  N4B d   1       2.473   1.828   0.267  0.00  0.00     0.002 A 
ATOM      6  C6  N4B d   1       2.540   3.012  -0.440  0.00  0.00     0.002 A 
ENDROOT
BRANCH   1   7
ATOM      7  C1' N4B d   1       1.512   5.034  -1.416  0.00  0.00     0.057 C 
BRANCH   7   8
ATOM      8  C2' N4B d   1       2.917   5.622  -1.311  0.00  0.00     0.009 C 
BRANCH   8   9
ATOM      9  C3' N4B d   1       3.478   5.999  -2.671  0.00  0.00     0.004 C 
ATOM     10  C4' N4B d   1       4.977   5.998  -2.701  0.00  0.00     0.003 C 
ENDBRANCH   8   9
ENDBRANCH   7   8
ENDBRANCH   1   7
TORSDOF 3
ENDMDL
