MODEL 1
REMARK minimizedAffinity 9.77176857
REMARK minimizedRMSD -1
REMARK  3 active torsions:
REMARK  status: ('A' for Active; 'I' for Inactive)
REMARK    1  A    between atoms: C3'_2  and  C2'_3 
REMARK    2  A    between atoms: C2'_3  and  C1'_4 
REMARK    3  A    between atoms: C1'_4  and  C1_5 
ROOT
ATOM      1  C1  N4B d   1       1.321  -0.613   1.593  0.00  0.00    -0.075 A 
ATOM      2  C2  N4B d   1       1.297   0.396   0.605  0.00  0.00     0.002 A 
ATOM      3  C3  N4B d   1       2.089   1.510   0.742  0.00  0.00     0.002 A 
ATOM      4  C4  N4B d   1       2.894   1.645   1.863  0.00  0.00    -0.004 A 
ATOM      5  C5  N4B d   1       2.931   0.654   2.800  0.00  0.00     0.002 A 
ATOM      6  C6  N4B d   1       2.144  -0.472   2.673  0.00  0.00     0.002 A 
ENDROOT
BRANCH   1   7
ATOM      7  C1' N4B d   1       0.410  -1.808   1.530  0.00  0.00     0.057 C 
BRANCH   7   8
ATOM      8  C2' N4B d   1      -0.999  -1.345   1.172  0.00  0.00     0.009 C 
BRANCH   8   9
ATOM      9  C3' N4B d   1      -1.807  -2.446   0.506  0.00  0.00     0.004 C 
ATOM     10  C4' N4B d   1      -1.934  -2.255  -0.977  0.00  0.00     0.003 C 
ENDBRANCH   8   9
ENDBRANCH   7   8
ENDBRANCH   1   7
TORSDOF 3
ENDMDL
