MODEL 1
REMARK minimizedAffinity -0.64505142
REMARK minimizedRMSD -1
REMARK  3 active torsions:
REMARK  status: ('A' for Active; 'I' for Inactive)
REMARK    1  A    between atoms: C3'_2  and  C2'_3 
REMARK    2  A    between atoms: C2'_3  and  C1'_4 
REMARK    3  A    between atoms: C1'_4  and  C1_5 
ROOT
ATOM      1  C1  N4B d   1       3.546   5.820  -2.594  0.00  0.00    -0.075 A 
ATOM      2  C2  N4B d   1       4.766   5.909  -1.888  0.00  0.00     0.002 A 
ATOM      3  C3  N4B d   1       5.952   5.999  -2.575  0.00  0.00     0.002 A 
ATOM      4  C4  N4B d   1       5.943   5.983  -3.962  0.00  0.00    -0.004 A 
ATOM      5  C5  N4B d   1       4.759   5.923  -4.636  0.00  0.00     0.002 A 
ATOM      6  C6  N4B d   1       3.559   5.836  -3.958  0.00  0.00     0.002 A 
ENDROOT
BRANCH   1   7
ATOM      7  C1' N4B d   1       2.231   5.634  -1.886  0.00  0.00     0.057 C 
BRANCH   7   8
ATOM      8  C2' N4B d   1       2.237   4.289  -1.166  0.00  0.00     0.009 C 
BRANCH   8   9
ATOM      9  C3' N4B d   1       0.831   3.810  -0.847  0.00  0.00     0.004 C 
ATOM     10  C4' N4B d   1       0.814   2.661   0.117  0.00  0.00     0.003 C 
ENDBRANCH   8   9
ENDBRANCH   7   8
ENDBRANCH   1   7
TORSDOF 3
ENDMDL
