MODEL 1
REMARK minimizedAffinity -0.526363909
REMARK minimizedRMSD -1
REMARK  3 active torsions:
REMARK  status: ('A' for Active; 'I' for Inactive)
REMARK    1  A    between atoms: C3'_2  and  C2'_3 
REMARK    2  A    between atoms: C2'_3  and  C1'_4 
REMARK    3  A    between atoms: C1'_4  and  C1_5 
ROOT
ATOM      1  C1  N4B d   1       1.850   2.224  -0.256  0.00  0.00    -0.075 A 
ATOM      2  C2  N4B d   1       3.008   1.882   0.477  0.00  0.00     0.002 A 
ATOM      3  C3  N4B d   1       2.923   0.990   1.518  0.00  0.00     0.002 A 
ATOM      4  C4  N4B d   1       1.693   0.443   1.854  0.00  0.00    -0.004 A 
ATOM      5  C5  N4B d   1       0.585   0.759   1.124  0.00  0.00     0.002 A 
ATOM      6  C6  N4B d   1       0.656   1.651   0.074  0.00  0.00     0.002 A 
ENDROOT
BRANCH   1   7
ATOM      7  C1' N4B d   1       1.878   3.260  -1.346  0.00  0.00     0.057 C 
BRANCH   7   8
ATOM      8  C2' N4B d   1       2.626   4.493  -0.847  0.00  0.00     0.009 C 
BRANCH   8   9
ATOM      9  C3' N4B d   1       2.625   5.612  -1.874  0.00  0.00     0.004 C 
ATOM     10  C4' N4B d   1       4.006   6.000  -2.311  0.00  0.00     0.003 C 
ENDBRANCH   8   9
ENDBRANCH   7   8
ENDBRANCH   1   7
TORSDOF 3
ENDMDL
