MODEL 1
REMARK minimizedAffinity 5.49252415
REMARK minimizedRMSD -1
REMARK  2 active torsions:
REMARK  status: ('A' for Active; 'I' for Inactive)
REMARK    1  A    between atoms: C1_2  and  C2_3 
REMARK    2  A    between atoms: C2_3  and  C3_4 
ROOT
ATOM      1  C3  UNL d   1      -0.388   5.306  -2.486  0.00  0.00    -0.075 A 
ATOM      2  C4  UNL d   1      -1.505   5.464  -1.654  0.00  0.00     0.002 A 
ATOM      3  C5  UNL d   1      -1.543   4.859  -0.397  0.00  0.00     0.002 A 
ATOM      4  C6  UNL d   1      -0.472   4.082   0.038  0.00  0.00    -0.004 A 
ATOM      5  C7  UNL d   1       0.636   3.905  -0.788  0.00  0.00     0.002 A 
ATOM      6  C8  UNL d   1       0.679   4.513  -2.044  0.00  0.00     0.002 A 
ENDROOT
BRANCH   1   7
ATOM      7  C2  UNL d   1      -0.328   5.983  -3.835  0.00  0.00     0.056 C 
BRANCH   7   8
ATOM      8  C1  UNL d   1       1.068   5.988  -4.469  0.00  0.00     0.007 C 
ATOM      9  C   UNL d   1       1.036   6.000  -5.991  0.00  0.00     0.009 C 
ENDBRANCH   7   8
ENDBRANCH   1   7
TORSDOF 2
ENDMDL
