MODEL 1
REMARK minimizedAffinity 4.56369114
REMARK minimizedRMSD -1
REMARK  2 active torsions:
REMARK  status: ('A' for Active; 'I' for Inactive)
REMARK    1  A    between atoms: C1_2  and  C2_3 
REMARK    2  A    between atoms: C2_3  and  C3_4 
ROOT
ATOM      1  C3  UNL d   1      -0.001   4.170  -0.771  0.00  0.00    -0.075 A 
ATOM      2  C4  UNL d   1      -1.383   4.283  -0.979  0.00  0.00     0.002 A 
ATOM      3  C5  UNL d   1      -1.881   5.051  -2.032  0.00  0.00     0.002 A 
ATOM      4  C6  UNL d   1      -1.006   5.721  -2.884  0.00  0.00    -0.004 A 
ATOM      5  C7  UNL d   1       0.369   5.630  -2.677  0.00  0.00     0.002 A 
ATOM      6  C8  UNL d   1       0.870   4.859  -1.626  0.00  0.00     0.002 A 
ENDROOT
BRANCH   1   7
ATOM      7  C2  UNL d   1       0.545   3.318   0.349  0.00  0.00     0.056 C 
BRANCH   7   8
ATOM      8  C1  UNL d   1      -0.417   3.147   1.529  0.00  0.00     0.007 C 
ATOM      9  C   UNL d   1       0.243   2.538   2.759  0.00  0.00     0.009 C 
ENDBRANCH   7   8
ENDBRANCH   1   7
TORSDOF 2
ENDMDL
