MODEL 1
REMARK minimizedAffinity 3.95132279
REMARK minimizedRMSD -1
REMARK  2 active torsions:
REMARK  status: ('A' for Active; 'I' for Inactive)
REMARK    1  A    between atoms: C1_2  and  C2_3 
REMARK    2  A    between atoms: C2_3  and  C3_4 
ROOT
ATOM      1  C3  UNL d   1      -0.028   3.727  -0.834  0.00  0.00    -0.075 A 
ATOM      2  C4  UNL d   1       0.768   4.867  -0.654  0.00  0.00     0.002 A 
ATOM      3  C5  UNL d   1       0.577   5.997  -1.449  0.00  0.00     0.002 A 
ATOM      4  C6  UNL d   1      -0.403   5.999  -2.439  0.00  0.00    -0.004 A 
ATOM      5  C7  UNL d   1      -1.189   4.866  -2.638  0.00  0.00     0.002 A 
ATOM      6  C8  UNL d   1      -1.003   3.735  -1.841  0.00  0.00     0.002 A 
ENDROOT
BRANCH   1   7
ATOM      7  C2  UNL d   1       0.154   2.511   0.042  0.00  0.00     0.056 C 
BRANCH   7   8
ATOM      8  C1  UNL d   1      -0.444   2.658   1.445  0.00  0.00     0.007 C 
ATOM      9  C   UNL d   1       0.333   1.898   2.512  0.00  0.00     0.009 C 
ENDBRANCH   7   8
ENDBRANCH   1   7
TORSDOF 2
ENDMDL
