MODEL 1
REMARK minimizedAffinity 9.30152702
REMARK minimizedRMSD -1
REMARK  2 active torsions:
REMARK  status: ('A' for Active; 'I' for Inactive)
REMARK    1  A    between atoms: C1_2  and  C2_3 
REMARK    2  A    between atoms: C2_3  and  C3_4 
ROOT
ATOM      1  C3  UNL d   1       1.300   2.753   2.668  0.00  0.00    -0.075 A 
ATOM      2  C4  UNL d   1       2.541   3.227   2.218  0.00  0.00     0.002 A 
ATOM      3  C5  UNL d   1       2.678   3.742   0.929  0.00  0.00     0.002 A 
ATOM      4  C6  UNL d   1       1.581   3.781   0.071  0.00  0.00    -0.004 A 
ATOM      5  C7  UNL d   1       0.347   3.297   0.501  0.00  0.00     0.002 A 
ATOM      6  C8  UNL d   1       0.207   2.785   1.792  0.00  0.00     0.002 A 
ENDROOT
BRANCH   1   7
ATOM      7  C2  UNL d   1       1.138   2.221   4.072  0.00  0.00     0.056 C 
BRANCH   7   8
ATOM      8  C1  UNL d   1       0.155   1.052   4.186  0.00  0.00     0.007 C 
ATOM      9  C   UNL d   1       0.724  -0.140   4.944  0.00  0.00     0.009 C 
ENDBRANCH   7   8
ENDBRANCH   1   7
TORSDOF 2
ENDMDL
