MODEL 1
REMARK minimizedAffinity 2.30580568
REMARK minimizedRMSD -1
REMARK  2 active torsions:
REMARK  status: ('A' for Active; 'I' for Inactive)
REMARK    1  A    between atoms: C1_2  and  C2_3 
REMARK    2  A    between atoms: C2_3  and  C3_4 
ROOT
ATOM      1  C3  UNL d   1       0.458   1.395   2.546  0.00  0.00    -0.075 A 
ATOM      2  C4  UNL d   1       1.708   0.770   2.431  0.00  0.00     0.002 A 
ATOM      3  C5  UNL d   1       2.046  -0.295   3.266  0.00  0.00     0.002 A 
ATOM      4  C6  UNL d   1       1.147  -0.741   4.231  0.00  0.00    -0.004 A 
ATOM      5  C7  UNL d   1      -0.091  -0.116   4.366  0.00  0.00     0.002 A 
ATOM      6  C8  UNL d   1      -0.435   0.947   3.528  0.00  0.00     0.002 A 
ENDROOT
BRANCH   1   7
ATOM      7  C2  UNL d   1       0.073   2.529   1.625  0.00  0.00     0.056 C 
BRANCH   7   8
ATOM      8  C1  UNL d   1       0.707   2.444   0.233  0.00  0.00     0.007 C 
ATOM      9  C   UNL d   1       0.318   3.603  -0.676  0.00  0.00     0.009 C 
ENDBRANCH   7   8
ENDBRANCH   1   7
TORSDOF 2
ENDMDL
