MODEL 1
REMARK minimizedAffinity 5.86188269
REMARK minimizedRMSD -1
REMARK  2 active torsions:
REMARK  status: ('A' for Active; 'I' for Inactive)
REMARK    1  A    between atoms: C1_2  and  C2_3 
REMARK    2  A    between atoms: C2_3  and  C3_4 
ROOT
ATOM      1  C3  UNL d   1      -0.188  -3.290  -1.355  0.00  0.00    -0.075 A 
ATOM      2  C4  UNL d   1       0.736  -4.260  -0.940  0.00  0.00     0.002 A 
ATOM      3  C5  UNL d   1       1.836  -3.902  -0.161  0.00  0.00     0.002 A 
ATOM      4  C6  UNL d   1       2.033  -2.572   0.204  0.00  0.00    -0.004 A 
ATOM      5  C7  UNL d   1       1.130  -1.598  -0.216  0.00  0.00     0.002 A 
ATOM      6  C8  UNL d   1       0.025  -1.953  -0.992  0.00  0.00     0.002 A 
ENDROOT
BRANCH   1   7
ATOM      7  C2  UNL d   1      -1.398  -3.675  -2.173  0.00  0.00     0.056 C 
BRANCH   7   8
ATOM      8  C1  UNL d   1      -1.156  -3.662  -3.686  0.00  0.00     0.007 C 
ATOM      9  C   UNL d   1      -2.105  -4.574  -4.453  0.00  0.00     0.009 C 
ENDBRANCH   7   8
ENDBRANCH   1   7
TORSDOF 2
ENDMDL
