MODEL 1
REMARK minimizedAffinity 7.21797419
REMARK minimizedRMSD -1
REMARK  2 active torsions:
REMARK  status: ('A' for Active; 'I' for Inactive)
REMARK    1  A    between atoms: C1_2  and  C2_3 
REMARK    2  A    between atoms: C2_3  and  C3_4 
ROOT
ATOM      1  C3  UNL d   1       5.181  -5.086  -2.280  0.00  0.00    -0.075 A 
ATOM      2  C4  UNL d   1       5.812  -4.974  -3.527  0.00  0.00     0.002 A 
ATOM      3  C5  UNL d   1       5.148  -5.359  -4.693  0.00  0.00     0.002 A 
ATOM      4  C6  UNL d   1       3.853  -5.867  -4.626  0.00  0.00    -0.004 A 
ATOM      5  C7  UNL d   1       3.223  -5.998  -3.390  0.00  0.00     0.002 A 
ATOM      6  C8  UNL d   1       3.883  -5.610  -2.222  0.00  0.00     0.002 A 
ENDROOT
BRANCH   1   7
ATOM      7  C2  UNL d   1       5.883  -4.644  -1.018  0.00  0.00     0.056 C 
BRANCH   7   8
ATOM      8  C1  UNL d   1       5.904  -3.125  -0.815  0.00  0.00     0.007 C 
ATOM      9  C   UNL d   1       4.519  -2.527  -0.609  0.00  0.00     0.009 C 
ENDBRANCH   7   8
ENDBRANCH   1   7
TORSDOF 2
ENDMDL
