MODEL 1
REMARK minimizedAffinity 4.42135239
REMARK minimizedRMSD -1
REMARK  0 active torsions:
REMARK  status: ('A' for Active; 'I' for Inactive)
ROOT
ATOM      1  O1  BZF d   1       5.999   3.931  -2.550  0.00  0.00    -0.204 OA
ATOM      2  C2  BZF d   1       5.986   5.002  -1.677  0.00  0.00     0.174 A 
ATOM      3  C3  BZF d   1       5.214   5.999  -2.154  0.00  0.00    -0.012 A 
ATOM      4  C3A BZF d   1       4.639   5.485  -3.360  0.00  0.00    -0.107 A 
ATOM      5  C4  BZF d   1       3.770   6.000  -4.279  0.00  0.00     0.055 A 
ATOM      6  C5  BZF d   1       3.465   5.267  -5.382  0.00  0.00    -0.016 A 
ATOM      7  C6  BZF d   1       4.014   4.021  -5.600  0.00  0.00     0.022 A 
ATOM      8  C7  BZF d   1       4.877   3.466  -4.714  0.00  0.00     0.029 A 
ATOM      9  C7A BZF d   1       5.161   4.190  -3.582  0.00  0.00     0.058 A 
ENDROOT
TORSDOF 0
ENDMDL
