MODEL 1
REMARK minimizedAffinity 1.97585785
REMARK minimizedRMSD -1
REMARK  0 active torsions:
REMARK  status: ('A' for Active; 'I' for Inactive)
ROOT
ATOM      1  O1  BZF d   1       5.977   5.995  -2.441  0.00  0.00    -0.204 OA
ATOM      2  C2  BZF d   1       5.255   5.581  -1.339  0.00  0.00     0.174 A 
ATOM      3  C3  BZF d   1       4.354   4.638  -1.685  0.00  0.00    -0.012 A 
ATOM      4  C3A BZF d   1       4.588   4.385  -3.073  0.00  0.00    -0.107 A 
ATOM      5  C4  BZF d   1       4.021   3.537  -3.982  0.00  0.00     0.055 A 
ATOM      6  C5  BZF d   1       4.430   3.588  -5.277  0.00  0.00    -0.016 A 
ATOM      7  C6  BZF d   1       5.398   4.475  -5.698  0.00  0.00     0.022 A 
ATOM      8  C7  BZF d   1       5.994   5.332  -4.833  0.00  0.00     0.029 A 
ATOM      9  C7A BZF d   1       5.606   5.260  -3.517  0.00  0.00     0.058 A 
ENDROOT
TORSDOF 0
ENDMDL
