MODEL 1
REMARK minimizedAffinity -3.76134419
REMARK minimizedRMSD -1
REMARK  0 active torsions:
REMARK  status: ('A' for Active; 'I' for Inactive)
ROOT
ATOM      1  O1  BZF d   1       5.125  -4.497   3.477  0.00  0.00    -0.204 OA
ATOM      2  C2  BZF d   1       5.999  -4.955   4.444  0.00  0.00     0.174 A 
ATOM      3  C3  BZF d   1       5.946  -4.174   5.543  0.00  0.00    -0.012 A 
ATOM      4  C3A BZF d   1       4.913  -3.221   5.279  0.00  0.00    -0.107 A 
ATOM      5  C4  BZF d   1       4.380  -2.190   5.999  0.00  0.00     0.055 A 
ATOM      6  C5  BZF d   1       3.431  -1.405   5.425  0.00  0.00    -0.016 A 
ATOM      7  C6  BZF d   1       2.996  -1.618   4.133  0.00  0.00     0.022 A 
ATOM      8  C7  BZF d   1       3.492  -2.631   3.381  0.00  0.00     0.029 A 
ATOM      9  C7A BZF d   1       4.427  -3.447   3.970  0.00  0.00     0.058 A 
ENDROOT
TORSDOF 0
ENDMDL
