MODEL 1
REMARK minimizedAffinity 3.65542889
REMARK minimizedRMSD -1
REMARK  0 active torsions:
REMARK  status: ('A' for Active; 'I' for Inactive)
ROOT
ATOM      1  O1  BZF d   1       4.349  -1.168   5.847  0.00  0.00    -0.204 OA
ATOM      2  C2  BZF d   1       2.970  -1.088   5.821  0.00  0.00     0.174 A 
ATOM      3  C3  BZF d   1       2.419  -2.318   5.802  0.00  0.00    -0.012 A 
ATOM      4  C3A BZF d   1       3.520  -3.225   5.911  0.00  0.00    -0.107 A 
ATOM      5  C4  BZF d   1       3.614  -4.587   5.963  0.00  0.00     0.055 A 
ATOM      6  C5  BZF d   1       4.844  -5.163   5.996  0.00  0.00    -0.016 A 
ATOM      7  C6  BZF d   1       6.000  -4.410   5.973  0.00  0.00     0.022 A 
ATOM      8  C7  BZF d   1       5.958  -3.056   5.927  0.00  0.00     0.029 A 
ATOM      9  C7A BZF d   1       4.716  -2.470   5.927  0.00  0.00     0.058 A 
ENDROOT
TORSDOF 0
ENDMDL
