MODEL 1
REMARK minimizedAffinity 1.41816592
REMARK minimizedRMSD -1
REMARK  0 active torsions:
REMARK  status: ('A' for Active; 'I' for Inactive)
ROOT
ATOM      1  O1  BZF d   1       5.187  -4.259   3.951  0.00  0.00    -0.204 OA
ATOM      2  C2  BZF d   1       5.999  -4.460   5.050  0.00  0.00     0.174 A 
ATOM      3  C3  BZF d   1       5.757  -3.534   6.000  0.00  0.00    -0.012 A 
ATOM      4  C3A BZF d   1       4.665  -2.758   5.499  0.00  0.00    -0.107 A 
ATOM      5  C4  BZF d   1       3.960  -1.698   5.995  0.00  0.00     0.055 A 
ATOM      6  C5  BZF d   1       3.000  -1.124   5.224  0.00  0.00    -0.016 A 
ATOM      7  C6  BZF d   1       2.723  -1.579   3.951  0.00  0.00     0.022 A 
ATOM      8  C7  BZF d   1       3.391  -2.630   3.418  0.00  0.00     0.029 A 
ATOM      9  C7A BZF d   1       4.339  -3.234   4.208  0.00  0.00     0.058 A 
ENDROOT
TORSDOF 0
ENDMDL
