MODEL 1
REMARK minimizedAffinity 3.41895366
REMARK minimizedRMSD -1
REMARK  0 active torsions:
REMARK  status: ('A' for Active; 'I' for Inactive)
ROOT
ATOM      1  O1  BZF d   1       5.424  -3.791   3.769  0.00  0.00    -0.204 OA
ATOM      2  C2  BZF d   1       6.000  -4.199   4.957  0.00  0.00     0.174 A 
ATOM      3  C3  BZF d   1       5.502  -3.497   5.995  0.00  0.00    -0.012 A 
ATOM      4  C3A BZF d   1       4.488  -2.659   5.431  0.00  0.00    -0.107 A 
ATOM      5  C4  BZF d   1       3.625  -1.743   5.962  0.00  0.00     0.055 A 
ATOM      6  C5  BZF d   1       2.812  -1.043   5.129  0.00  0.00    -0.016 A 
ATOM      7  C6  BZF d   1       2.838  -1.228   3.762  0.00  0.00     0.022 A 
ATOM      8  C7  BZF d   1       3.674  -2.129   3.190  0.00  0.00     0.029 A 
ATOM      9  C7A BZF d   1       4.474  -2.862   4.032  0.00  0.00     0.058 A 
ENDROOT
TORSDOF 0
ENDMDL
