MODEL 1
REMARK minimizedAffinity 0.55316186
REMARK minimizedRMSD -1
REMARK  0 active torsions:
REMARK  status: ('A' for Active; 'I' for Inactive)
ROOT
ATOM      1  O1  BZF d   1       3.137  -2.357   3.924  0.00  0.00    -0.204 OA
ATOM      2  C2  BZF d   1       3.033  -1.495   4.999  0.00  0.00     0.174 A 
ATOM      3  C3  BZF d   1       3.853  -1.877   5.999  0.00  0.00    -0.012 A 
ATOM      4  C3A BZF d   1       4.579  -2.997   5.484  0.00  0.00    -0.107 A 
ATOM      5  C4  BZF d   1       5.554  -3.802   6.000  0.00  0.00     0.055 A 
ATOM      6  C5  BZF d   1       6.000  -4.854   5.264  0.00  0.00    -0.016 A 
ATOM      7  C6  BZF d   1       5.491  -5.132   4.012  0.00  0.00     0.022 A 
ATOM      8  C7  BZF d   1       4.526  -4.359   3.456  0.00  0.00     0.029 A 
ATOM      9  C7A BZF d   1       4.097  -3.276   4.184  0.00  0.00     0.058 A 
ENDROOT
TORSDOF 0
ENDMDL
