MODEL 1
REMARK minimizedAffinity -1.85314202
REMARK minimizedRMSD -1
REMARK  0 active torsions:
REMARK  status: ('A' for Active; 'I' for Inactive)
ROOT
ATOM      1  O1  BZF d   1       6.000   4.057  -2.609  0.00  0.00    -0.204 OA
ATOM      2  C2  BZF d   1       5.712   5.187  -1.869  0.00  0.00     0.174 A 
ATOM      3  C3  BZF d   1       4.873   6.000  -2.542  0.00  0.00    -0.012 A 
ATOM      4  C3A BZF d   1       4.548   5.293  -3.743  0.00  0.00    -0.107 A 
ATOM      5  C4  BZF d   1       3.744   5.576  -4.811  0.00  0.00     0.055 A 
ATOM      6  C5  BZF d   1       3.702   4.706  -5.854  0.00  0.00    -0.016 A 
ATOM      7  C6  BZF d   1       4.452   3.549  -5.865  0.00  0.00     0.022 A 
ATOM      8  C7  BZF d   1       5.259   3.223  -4.827  0.00  0.00     0.029 A 
ATOM      9  C7A BZF d   1       5.279   4.083  -3.756  0.00  0.00     0.058 A 
ENDROOT
TORSDOF 0
ENDMDL
