MODEL 1
REMARK minimizedAffinity 9.81653976
REMARK minimizedRMSD -1
REMARK  0 active torsions:
REMARK  status: ('A' for Active; 'I' for Inactive)
ROOT
ATOM      1  O1  BZF d   1       4.778   5.999  -1.561  0.00  0.00    -0.204 OA
ATOM      2  C2  BZF d   1       5.770   5.176  -1.066  0.00  0.00     0.174 A 
ATOM      3  C3  BZF d   1       6.000   4.145  -1.905  0.00  0.00    -0.012 A 
ATOM      4  C3A BZF d   1       5.159   4.388  -3.038  0.00  0.00    -0.107 A 
ATOM      5  C4  BZF d   1       4.952   3.723  -4.213  0.00  0.00     0.055 A 
ATOM      6  C5  BZF d   1       4.009   4.185  -5.075  0.00  0.00    -0.016 A 
ATOM      7  C6  BZF d   1       3.251   5.303  -4.792  0.00  0.00     0.022 A 
ATOM      8  C7  BZF d   1       3.424   5.998  -3.642  0.00  0.00     0.029 A 
ATOM      9  C7A BZF d   1       4.400   5.553  -2.783  0.00  0.00     0.058 A 
ENDROOT
TORSDOF 0
ENDMDL
