MODEL 1
REMARK minimizedAffinity 2.54553604
REMARK minimizedRMSD -1
REMARK  0 active torsions:
REMARK  status: ('A' for Active; 'I' for Inactive)
ROOT
ATOM      1  O1  BZF d   1       5.999   3.453  -4.916  0.00  0.00    -0.204 OA
ATOM      2  C2  BZF d   1       5.109   3.377  -5.970  0.00  0.00     0.174 A 
ATOM      3  C3  BZF d   1       4.004   4.107  -5.716  0.00  0.00    -0.012 A 
ATOM      4  C3A BZF d   1       4.257   4.749  -4.462  0.00  0.00    -0.107 A 
ATOM      5  C4  BZF d   1       3.539   5.617  -3.691  0.00  0.00     0.055 A 
ATOM      6  C5  BZF d   1       4.039   5.999  -2.486  0.00  0.00    -0.016 A 
ATOM      7  C6  BZF d   1       5.249   5.528  -2.020  0.00  0.00     0.022 A 
ATOM      8  C7  BZF d   1       6.000   4.670  -2.753  0.00  0.00     0.029 A 
ATOM      9  C7A BZF d   1       5.513   4.308  -3.985  0.00  0.00     0.058 A 
ENDROOT
TORSDOF 0
ENDMDL
