MODEL 1
REMARK minimizedAffinity 6.77005625
REMARK minimizedRMSD -1
REMARK  0 active torsions:
REMARK  status: ('A' for Active; 'I' for Inactive)
ROOT
ATOM      1  O1  BZF d   1       5.736  -4.148   4.427  0.00  0.00    -0.204 OA
ATOM      2  C2  BZF d   1       5.999  -3.711   5.711  0.00  0.00     0.174 A 
ATOM      3  C3  BZF d   1       5.277  -2.608   5.998  0.00  0.00    -0.012 A 
ATOM      4  C3A BZF d   1       4.446  -2.393   4.853  0.00  0.00    -0.107 A 
ATOM      5  C4  BZF d   1       3.497  -1.462   4.544  0.00  0.00     0.055 A 
ATOM      6  C5  BZF d   1       2.923  -1.488   3.312  0.00  0.00    -0.016 A 
ATOM      7  C6  BZF d   1       3.277  -2.427   2.366  0.00  0.00     0.022 A 
ATOM      8  C7  BZF d   1       4.209  -3.375   2.629  0.00  0.00     0.029 A 
ATOM      9  C7A BZF d   1       4.768  -3.371   3.884  0.00  0.00     0.058 A 
ENDROOT
TORSDOF 0
ENDMDL
