MODEL 1
REMARK minimizedAffinity 9.52937222
REMARK minimizedRMSD -1
REMARK  0 active torsions:
REMARK  status: ('A' for Active; 'I' for Inactive)
ROOT
ATOM      1  O1  BZF d   1       5.998   2.943  -5.968  0.00  0.00    -0.204 OA
ATOM      2  C2  BZF d   1       5.251   1.806  -5.725  0.00  0.00     0.174 A 
ATOM      3  C3  BZF d   1       4.367   2.018  -4.729  0.00  0.00    -0.012 A 
ATOM      4  C3A BZF d   1       4.511   3.400  -4.386  0.00  0.00    -0.107 A 
ATOM      5  C4  BZF d   1       3.894   4.210  -3.476  0.00  0.00     0.055 A 
ATOM      6  C5  BZF d   1       4.318   5.494  -3.341  0.00  0.00    -0.016 A 
ATOM      7  C6  BZF d   1       5.358   5.999  -4.095  0.00  0.00     0.022 A 
ATOM      8  C7  BZF d   1       5.997   5.234  -5.014  0.00  0.00     0.029 A 
ATOM      9  C7A BZF d   1       5.549   3.946  -5.176  0.00  0.00     0.058 A 
ENDROOT
TORSDOF 0
ENDMDL
