MODEL 1
REMARK minimizedAffinity 5.3364687
REMARK minimizedRMSD -1
REMARK  0 active torsions:
REMARK  status: ('A' for Active; 'I' for Inactive)
ROOT
ATOM      1  O1  BZF d   1       3.763   5.892  -1.061  0.00  0.00    -0.204 OA
ATOM      2  C2  BZF d   1       4.971   5.998  -0.400  0.00  0.00     0.174 A 
ATOM      3  C3  BZF d   1       5.997   5.995  -1.276  0.00  0.00    -0.012 A 
ATOM      4  C3A BZF d   1       5.387   5.974  -2.570  0.00  0.00    -0.107 A 
ATOM      5  C4  BZF d   1       5.883   5.977  -3.842  0.00  0.00     0.055 A 
ATOM      6  C5  BZF d   1       5.021   5.877  -4.888  0.00  0.00    -0.016 A 
ATOM      7  C6  BZF d   1       3.659   5.767  -4.698  0.00  0.00     0.022 A 
ATOM      8  C7  BZF d   1       3.119   5.765  -3.455  0.00  0.00     0.029 A 
ATOM      9  C7A BZF d   1       3.985   5.899  -2.397  0.00  0.00     0.058 A 
ENDROOT
TORSDOF 0
ENDMDL
