MODEL 1
REMARK minimizedAffinity -2.88464332
REMARK minimizedRMSD -1
REMARK  0 active torsions:
REMARK  status: ('A' for Active; 'I' for Inactive)
ROOT
ATOM      1  O1  BZF d   1       5.979  -3.847   4.096  0.00  0.00    -0.204 OA
ATOM      2  C2  BZF d   1       4.979  -4.714   3.699  0.00  0.00     0.174 A 
ATOM      3  C3  BZF d   1       3.777  -4.295   4.145  0.00  0.00    -0.012 A 
ATOM      4  C3A BZF d   1       4.031  -3.041   4.786  0.00  0.00    -0.107 A 
ATOM      5  C4  BZF d   1       3.231  -2.129   5.413  0.00  0.00     0.055 A 
ATOM      6  C5  BZF d   1       3.800  -1.042   5.997  0.00  0.00    -0.016 A 
ATOM      7  C6  BZF d   1       5.165  -0.840   5.979  0.00  0.00     0.022 A 
ATOM      8  C7  BZF d   1       5.998  -1.715   5.366  0.00  0.00     0.029 A 
ATOM      9  C7A BZF d   1       5.423  -2.797   4.745  0.00  0.00     0.058 A 
ENDROOT
TORSDOF 0
ENDMDL
