MODEL 1
REMARK minimizedAffinity -2.8498888
REMARK minimizedRMSD -1
REMARK  0 active torsions:
REMARK  status: ('A' for Active; 'I' for Inactive)
ROOT
ATOM      1  O1  BZF d   1       3.375  -2.170   4.053  0.00  0.00    -0.204 OA
ATOM      2  C2  BZF d   1       3.563  -1.339   5.141  0.00  0.00     0.174 A 
ATOM      3  C3  BZF d   1       4.457  -1.869   6.000  0.00  0.00    -0.012 A 
ATOM      4  C3A BZF d   1       4.922  -3.066   5.368  0.00  0.00    -0.107 A 
ATOM      5  C4  BZF d   1       5.831  -4.022   5.721  0.00  0.00     0.055 A 
ATOM      6  C5  BZF d   1       6.000  -5.102   4.915  0.00  0.00    -0.016 A 
ATOM      7  C6  BZF d   1       5.274  -5.262   3.753  0.00  0.00     0.022 A 
ATOM      8  C7  BZF d   1       4.364  -4.338   3.358  0.00  0.00     0.029 A 
ATOM      9  C7A BZF d   1       4.215  -3.228   4.154  0.00  0.00     0.058 A 
ENDROOT
TORSDOF 0
ENDMDL
