MODEL 1
REMARK minimizedAffinity -1.89853907
REMARK minimizedRMSD -1
REMARK  0 active torsions:
REMARK  status: ('A' for Active; 'I' for Inactive)
ROOT
ATOM      1  O1  BZF d   1       1.645  -3.908   3.739  0.00  0.00    -0.204 OA
ATOM      2  C2  BZF d   1       1.593  -2.623   3.235  0.00  0.00     0.174 A 
ATOM      3  C3  BZF d   1       2.597  -1.873   3.732  0.00  0.00    -0.012 A 
ATOM      4  C3A BZF d   1       3.376  -2.768   4.531  0.00  0.00    -0.107 A 
ATOM      5  C4  BZF d   1       4.513  -2.618   5.272  0.00  0.00     0.055 A 
ATOM      6  C5  BZF d   1       4.976  -3.673   5.993  0.00  0.00    -0.016 A 
ATOM      7  C6  BZF d   1       4.325  -4.889   6.000  0.00  0.00     0.022 A 
ATOM      8  C7  BZF d   1       3.196  -5.088   5.276  0.00  0.00     0.029 A 
ATOM      9  C7A BZF d   1       2.744  -4.033   4.521  0.00  0.00     0.058 A 
ENDROOT
TORSDOF 0
ENDMDL
