MODEL 1
REMARK minimizedAffinity -3.65221357
REMARK minimizedRMSD -1
REMARK  0 active torsions:
REMARK  status: ('A' for Active; 'I' for Inactive)
ROOT
ATOM      1  O1  BZF d   1       5.081  -4.295   3.162  0.00  0.00    -0.204 OA
ATOM      2  C2  BZF d   1       5.997  -4.875   4.019  0.00  0.00     0.174 A 
ATOM      3  C3  BZF d   1       5.999  -4.248   5.213  0.00  0.00    -0.012 A 
ATOM      4  C3A BZF d   1       4.958  -3.269   5.126  0.00  0.00    -0.107 A 
ATOM      5  C4  BZF d   1       4.464  -2.343   6.000  0.00  0.00     0.055 A 
ATOM      6  C5  BZF d   1       3.494  -1.490   5.579  0.00  0.00    -0.016 A 
ATOM      7  C6  BZF d   1       2.999  -1.531   4.292  0.00  0.00     0.022 A 
ATOM      8  C7  BZF d   1       3.454  -2.435   3.391  0.00  0.00     0.029 A 
ATOM      9  C7A BZF d   1       4.411  -3.320   3.823  0.00  0.00     0.058 A 
ENDROOT
TORSDOF 0
ENDMDL
