MODEL 1
REMARK minimizedAffinity 4.70145607
REMARK minimizedRMSD -1
REMARK  0 active torsions:
REMARK  status: ('A' for Active; 'I' for Inactive)
ROOT
ATOM      1  O1  BZF d   1       5.155  -4.108   3.788  0.00  0.00    -0.204 OA
ATOM      2  C2  BZF d   1       5.992  -4.295   4.871  0.00  0.00     0.174 A 
ATOM      3  C3  BZF d   1       5.681  -3.442   5.868  0.00  0.00    -0.012 A 
ATOM      4  C3A BZF d   1       4.523  -2.737   5.414  0.00  0.00    -0.107 A 
ATOM      5  C4  BZF d   1       3.736  -1.768   5.967  0.00  0.00     0.055 A 
ATOM      6  C5  BZF d   1       2.724  -1.238   5.231  0.00  0.00    -0.016 A 
ATOM      7  C6  BZF d   1       2.473  -1.650   3.939  0.00  0.00     0.022 A 
ATOM      8  C7  BZF d   1       3.223  -2.612   3.349  0.00  0.00     0.029 A 
ATOM      9  C7A BZF d   1       4.226  -3.173   4.101  0.00  0.00     0.058 A 
ENDROOT
TORSDOF 0
ENDMDL
