MODEL 1
REMARK minimizedAffinity -1.24698412
REMARK minimizedRMSD -1
REMARK  1 active torsions:
REMARK  status: ('A' for Active; 'I' for Inactive)
REMARK    1  A    between atoms: N_2  and  C1_3 
ROOT
ATOM      1  C1  UNL d   1       3.303   5.489  -5.023  0.00  0.00     0.143 A 
ATOM      2  C2  UNL d   1       3.745   4.485  -4.154  0.00  0.00    -0.057 A 
ATOM      3  C3  UNL d   1       5.068   4.030  -4.184  0.00  0.00     0.033 A 
ATOM      4  C4  UNL d   1       5.969   4.552  -5.107  0.00  0.00    -0.042 A 
ATOM      5  C5  UNL d   1       5.545   5.532  -5.997  0.00  0.00     0.033 A 
ATOM      6  C6  UNL d   1       4.224   5.988  -5.957  0.00  0.00    -0.057 A 
ENDROOT
BRANCH   1   7
ATOM      7  N   UNL d   1       1.975   5.915  -5.108  0.00  0.00    -0.732 N 
ATOM      8  C   UNL d   1       1.045   5.254  -5.999  0.00  0.00     0.284 C 
ATOM      9  H3  UNL d   1       1.583   6.151  -4.199  0.00  0.00     0.395 HD
ENDBRANCH   1   7
TORSDOF 1
ENDMDL
