MODEL 1
REMARK minimizedAffinity 5.80609703
REMARK minimizedRMSD -1
REMARK  1 active torsions:
REMARK  status: ('A' for Active; 'I' for Inactive)
REMARK    1  A    between atoms: N_2  and  C1_3 
ROOT
ATOM      1  C1  UNL d   1       3.063   4.098  -3.943  0.00  0.00     0.143 A 
ATOM      2  C2  UNL d   1       2.093   5.066  -4.225  0.00  0.00    -0.057 A 
ATOM      3  C3  UNL d   1       2.274   5.999  -5.252  0.00  0.00     0.033 A 
ATOM      4  C4  UNL d   1       3.448   6.000  -6.000  0.00  0.00    -0.042 A 
ATOM      5  C5  UNL d   1       4.437   5.063  -5.721  0.00  0.00     0.033 A 
ATOM      6  C6  UNL d   1       4.246   4.130  -4.698  0.00  0.00    -0.057 A 
ENDROOT
BRANCH   1   7
ATOM      7  N   UNL d   1       2.984   3.207  -2.871  0.00  0.00    -0.732 N 
ATOM      8  C   UNL d   1       4.043   2.250  -2.628  0.00  0.00     0.284 C 
ATOM      9  H3  UNL d   1       2.617   3.643  -2.028  0.00  0.00     0.395 HD
ENDBRANCH   1   7
TORSDOF 1
ENDMDL
