MODEL 1
REMARK minimizedAffinity 1.92829442
REMARK minimizedRMSD -1
REMARK  1 active torsions:
REMARK  status: ('A' for Active; 'I' for Inactive)
REMARK    1  A    between atoms: N_2  and  C1_3 
ROOT
ATOM      1  C1  UNL d   1       4.280   4.612  -4.842  0.00  0.00     0.143 A 
ATOM      2  C2  UNL d   1       4.871   3.449  -4.336  0.00  0.00    -0.057 A 
ATOM      3  C3  UNL d   1       4.121   2.285  -4.128  0.00  0.00     0.033 A 
ATOM      4  C4  UNL d   1       2.756   2.272  -4.396  0.00  0.00    -0.042 A 
ATOM      5  C5  UNL d   1       2.143   3.424  -4.876  0.00  0.00     0.033 A 
ATOM      6  C6  UNL d   1       2.898   4.581  -5.088  0.00  0.00    -0.057 A 
ENDROOT
BRANCH   1   7
ATOM      7  N   UNL d   1       4.951   5.829  -4.977  0.00  0.00    -0.732 N 
ATOM      8  C   UNL d   1       5.973   6.000  -5.988  0.00  0.00     0.284 C 
ATOM      9  H3  UNL d   1       4.330   6.629  -4.875  0.00  0.00     0.395 HD
ENDBRANCH   1   7
TORSDOF 1
ENDMDL
