MODEL 1
REMARK minimizedAffinity 1.27427816
REMARK minimizedRMSD -1
REMARK  1 active torsions:
REMARK  status: ('A' for Active; 'I' for Inactive)
REMARK    1  A    between atoms: N_2  and  C1_3 
ROOT
ATOM      1  C1  UNL d   1       4.554   3.993  -4.616  0.00  0.00     0.143 A 
ATOM      2  C2  UNL d   1       5.198   4.997  -5.346  0.00  0.00    -0.057 A 
ATOM      3  C3  UNL d   1       4.470   5.999  -6.000  0.00  0.00     0.033 A 
ATOM      4  C4  UNL d   1       3.080   5.997  -5.959  0.00  0.00    -0.042 A 
ATOM      5  C5  UNL d   1       2.418   4.994  -5.260  0.00  0.00     0.033 A 
ATOM      6  C6  UNL d   1       3.150   4.000  -4.603  0.00  0.00    -0.057 A 
ENDROOT
BRANCH   1   7
ATOM      7  N   UNL d   1       5.217   2.914  -4.026  0.00  0.00    -0.732 N 
ATOM      8  C   UNL d   1       4.991   2.580  -2.636  0.00  0.00     0.284 C 
ATOM      9  H3  UNL d   1       5.271   2.107  -4.644  0.00  0.00     0.395 HD
ENDBRANCH   1   7
TORSDOF 1
ENDMDL
