MODEL 1
REMARK minimizedAffinity 1.13377869
REMARK minimizedRMSD -1
REMARK  1 active torsions:
REMARK  status: ('A' for Active; 'I' for Inactive)
REMARK    1  A    between atoms: N_2  and  C1_3 
ROOT
ATOM      1  C1  UNL d   1       3.892   4.954  -5.094  0.00  0.00     0.143 A 
ATOM      2  C2  UNL d   1       3.208   3.848  -4.579  0.00  0.00    -0.057 A 
ATOM      3  C3  UNL d   1       1.816   3.740  -4.688  0.00  0.00     0.033 A 
ATOM      4  C4  UNL d   1       1.079   4.754  -5.291  0.00  0.00    -0.042 A 
ATOM      5  C5  UNL d   1       1.736   5.874  -5.787  0.00  0.00     0.033 A 
ATOM      6  C6  UNL d   1       3.126   5.973  -5.682  0.00  0.00    -0.057 A 
ENDROOT
BRANCH   1   7
ATOM      7  N   UNL d   1       5.264   5.165  -4.930  0.00  0.00    -0.732 N 
ATOM      8  C   UNL d   1       5.999   5.990  -5.864  0.00  0.00     0.284 C 
ATOM      9  H3  UNL d   1       5.520   5.310  -3.956  0.00  0.00     0.395 HD
ENDBRANCH   1   7
TORSDOF 1
ENDMDL
