MODEL 1
REMARK minimizedAffinity 0.715058863
REMARK minimizedRMSD -1
REMARK  1 active torsions:
REMARK  status: ('A' for Active; 'I' for Inactive)
REMARK    1  A    between atoms: N_2  and  C1_3 
ROOT
ATOM      1  C1  UNL d   1       3.892   3.533  -4.769  0.00  0.00     0.143 A 
ATOM      2  C2  UNL d   1       4.894   4.354  -5.295  0.00  0.00    -0.057 A 
ATOM      3  C3  UNL d   1       4.587   5.583  -5.892  0.00  0.00     0.033 A 
ATOM      4  C4  UNL d   1       3.265   6.000  -5.999  0.00  0.00    -0.042 A 
ATOM      5  C5  UNL d   1       2.250   5.188  -5.506  0.00  0.00     0.033 A 
ATOM      6  C6  UNL d   1       2.563   3.965  -4.905  0.00  0.00    -0.057 A 
ENDROOT
BRANCH   1   7
ATOM      7  N   UNL d   1       4.124   2.256  -4.252  0.00  0.00    -0.732 N 
ATOM      8  C   UNL d   1       4.454   2.075  -2.854  0.00  0.00     0.284 C 
ATOM      9  H3  UNL d   1       3.474   1.564  -4.618  0.00  0.00     0.395 HD
ENDBRANCH   1   7
TORSDOF 1
ENDMDL
