MODEL 1
REMARK minimizedAffinity -0.294595927
REMARK minimizedRMSD -1
REMARK  1 active torsions:
REMARK  status: ('A' for Active; 'I' for Inactive)
REMARK    1  A    between atoms: N_2  and  C1_3 
ROOT
ATOM      1  C1  UNL d   1      -3.859   1.473   3.776  0.00  0.00     0.143 A 
ATOM      2  C2  UNL d   1      -2.766   2.282   3.445  0.00  0.00    -0.057 A 
ATOM      3  C3  UNL d   1      -1.644   1.754   2.795  0.00  0.00     0.033 A 
ATOM      4  C4  UNL d   1      -1.583   0.399   2.489  0.00  0.00    -0.042 A 
ATOM      5  C5  UNL d   1      -2.647  -0.428   2.832  0.00  0.00     0.033 A 
ATOM      6  C6  UNL d   1      -3.767   0.105   3.475  0.00  0.00    -0.057 A 
ENDROOT
BRANCH   1   7
ATOM      7  N   UNL d   1      -4.961   1.918   4.511  0.00  0.00    -0.732 N 
ATOM      8  C   UNL d   1      -4.823   2.269   5.908  0.00  0.00     0.284 C 
ATOM      9  H3  UNL d   1      -5.551   2.554   3.979  0.00  0.00     0.395 HD
ENDBRANCH   1   7
TORSDOF 1
ENDMDL
