MODEL 1
REMARK minimizedAffinity 4.98917627
REMARK minimizedRMSD -1
REMARK  1 active torsions:
REMARK  status: ('A' for Active; 'I' for Inactive)
REMARK    1  A    between atoms: N_2  and  C1_3 
ROOT
ATOM      1  C1  UNL d   1      -2.984  -3.854  -1.994  0.00  0.00     0.143 A 
ATOM      2  C2  UNL d   1      -2.865  -3.045  -3.129  0.00  0.00    -0.057 A 
ATOM      3  C3  UNL d   1      -2.942  -1.650  -3.038  0.00  0.00     0.033 A 
ATOM      4  C4  UNL d   1      -3.169  -1.039  -1.810  0.00  0.00    -0.042 A 
ATOM      5  C5  UNL d   1      -3.316  -1.824  -0.672  0.00  0.00     0.033 A 
ATOM      6  C6  UNL d   1      -3.231  -3.216  -0.768  0.00  0.00    -0.057 A 
ENDROOT
BRANCH   1   7
ATOM      7  N   UNL d   1      -3.015  -5.250  -2.033  0.00  0.00    -0.732 N 
ATOM      8  C   UNL d   1      -3.772  -5.999  -1.053  0.00  0.00     0.284 C 
ATOM      9  H3  UNL d   1      -3.092  -5.611  -2.981  0.00  0.00     0.395 HD
ENDBRANCH   1   7
TORSDOF 1
ENDMDL
