MODEL 1
REMARK minimizedAffinity -3.71155882
REMARK minimizedRMSD -1
REMARK  1 active torsions:
REMARK  status: ('A' for Active; 'I' for Inactive)
REMARK    1  A    between atoms: N_2  and  C1_3 
ROOT
ATOM      1  C1  UNL d   1      -0.254   1.065   1.558  0.00  0.00     0.143 A 
ATOM      2  C2  UNL d   1      -0.709  -0.253   1.440  0.00  0.00    -0.057 A 
ATOM      3  C3  UNL d   1      -1.944  -0.645   1.971  0.00  0.00     0.033 A 
ATOM      4  C4  UNL d   1      -2.734   0.270   2.658  0.00  0.00    -0.042 A 
ATOM      5  C5  UNL d   1      -2.291   1.579   2.809  0.00  0.00     0.033 A 
ATOM      6  C6  UNL d   1      -1.060   1.966   2.271  0.00  0.00    -0.057 A 
ENDROOT
BRANCH   1   7
ATOM      7  N   UNL d   1       1.008   1.493   1.138  0.00  0.00    -0.732 N 
ATOM      8  C   UNL d   1       1.822   0.657   0.281  0.00  0.00     0.284 C 
ATOM      9  H3  UNL d   1       1.021   2.479   0.890  0.00  0.00     0.395 HD
ENDBRANCH   1   7
TORSDOF 1
ENDMDL
