MODEL 1
REMARK minimizedAffinity 10.2159691
REMARK minimizedRMSD -1
REMARK  1 active torsions:
REMARK  status: ('A' for Active; 'I' for Inactive)
REMARK    1  A    between atoms: N_2  and  C1_3 
ROOT
ATOM      1  C1  UNL d   1       3.264   3.465  -4.483  0.00  0.00     0.143 A 
ATOM      2  C2  UNL d   1       3.267   4.481  -3.522  0.00  0.00    -0.057 A 
ATOM      3  C3  UNL d   1       3.815   5.740  -3.797  0.00  0.00     0.033 A 
ATOM      4  C4  UNL d   1       4.398   5.995  -5.034  0.00  0.00    -0.042 A 
ATOM      5  C5  UNL d   1       4.429   4.992  -5.996  0.00  0.00     0.033 A 
ATOM      6  C6  UNL d   1       3.874   3.739  -5.717  0.00  0.00    -0.057 A 
ENDROOT
BRANCH   1   7
ATOM      7  N   UNL d   1       2.823   2.162  -4.236  0.00  0.00    -0.732 N 
ATOM      8  C   UNL d   1       3.721   1.038  -4.392  0.00  0.00     0.284 C 
ATOM      9  H3  UNL d   1       2.222   2.104  -3.418  0.00  0.00     0.395 HD
ENDBRANCH   1   7
TORSDOF 1
ENDMDL
