MODEL 1
REMARK minimizedAffinity 0.421075761
REMARK minimizedRMSD -1
REMARK  1 active torsions:
REMARK  status: ('A' for Active; 'I' for Inactive)
REMARK    1  A    between atoms: N_2  and  C1_3 
ROOT
ATOM      1  C1  UNL d   1      -3.671   1.590   3.918  0.00  0.00     0.143 A 
ATOM      2  C2  UNL d   1      -3.570   0.207   3.736  0.00  0.00    -0.057 A 
ATOM      3  C3  UNL d   1      -2.496  -0.357   3.037  0.00  0.00     0.033 A 
ATOM      4  C4  UNL d   1      -1.515   0.458   2.480  0.00  0.00    -0.042 A 
ATOM      5  C5  UNL d   1      -1.609   1.837   2.627  0.00  0.00     0.033 A 
ATOM      6  C6  UNL d   1      -2.680   2.394   3.332  0.00  0.00    -0.057 A 
ENDROOT
BRANCH   1   7
ATOM      7  N   UNL d   1      -4.765   2.218   4.518  0.00  0.00    -0.732 N 
ATOM      8  C   UNL d   1      -4.840   2.352   5.957  0.00  0.00     0.284 C 
ATOM      9  H3  UNL d   1      -5.067   3.045   4.007  0.00  0.00     0.395 HD
ENDBRANCH   1   7
TORSDOF 1
ENDMDL
