MODEL 1
REMARK minimizedAffinity 3.80360532
REMARK minimizedRMSD -1
REMARK  1 active torsions:
REMARK  status: ('A' for Active; 'I' for Inactive)
REMARK    1  A    between atoms: N_2  and  C1_3 
ROOT
ATOM      1  C1  UNL d   1      -3.802   1.754   4.124  0.00  0.00     0.143 A 
ATOM      2  C2  UNL d   1      -2.972   2.815   3.742  0.00  0.00    -0.057 A 
ATOM      3  C3  UNL d   1      -1.864   2.608   2.912  0.00  0.00     0.033 A 
ATOM      4  C4  UNL d   1      -1.549   1.327   2.470  0.00  0.00    -0.042 A 
ATOM      5  C5  UNL d   1      -2.344   0.254   2.857  0.00  0.00     0.033 A 
ATOM      6  C6  UNL d   1      -3.453   0.469   3.681  0.00  0.00    -0.057 A 
ENDROOT
BRANCH   1   7
ATOM      7  N   UNL d   1      -4.860   1.881   5.027  0.00  0.00    -0.732 N 
ATOM      8  C   UNL d   1      -4.875   2.952   6.000  0.00  0.00     0.284 C 
ATOM      9  H3  UNL d   1      -5.763   1.699   4.595  0.00  0.00     0.395 HD
ENDBRANCH   1   7
TORSDOF 1
ENDMDL
