MODEL 1
REMARK minimizedAffinity 7.67923117
REMARK minimizedRMSD -1
REMARK  1 active torsions:
REMARK  status: ('A' for Active; 'I' for Inactive)
REMARK    1  A    between atoms: N_2  and  C1_3 
ROOT
ATOM      1  C1  UNL d   1       1.075   2.644   1.443  0.00  0.00     0.143 A 
ATOM      2  C2  UNL d   1      -0.171   3.277   1.486  0.00  0.00    -0.057 A 
ATOM      3  C3  UNL d   1      -1.236   2.735   2.215  0.00  0.00     0.033 A 
ATOM      4  C4  UNL d   1      -1.081   1.531   2.893  0.00  0.00    -0.042 A 
ATOM      5  C5  UNL d   1       0.142   0.871   2.844  0.00  0.00     0.033 A 
ATOM      6  C6  UNL d   1       1.204   1.421   2.119  0.00  0.00    -0.057 A 
ENDROOT
BRANCH   1   7
ATOM      7  N   UNL d   1       2.143   3.082   0.655  0.00  0.00    -0.732 N 
ATOM      8  C   UNL d   1       2.904   4.254   1.031  0.00  0.00     0.284 C 
ATOM      9  H3  UNL d   1       2.710   2.312   0.307  0.00  0.00     0.395 HD
ENDBRANCH   1   7
TORSDOF 1
ENDMDL
