MODEL 1
REMARK minimizedAffinity 1.66725791
REMARK minimizedRMSD -1
REMARK  1 active torsions:
REMARK  status: ('A' for Active; 'I' for Inactive)
REMARK    1  A    between atoms: N_2  and  C1_3 
ROOT
ATOM      1  C1  UNL d   1      -3.252   2.370   3.345  0.00  0.00     0.143 A 
ATOM      2  C2  UNL d   1      -1.982   1.791   3.440  0.00  0.00    -0.057 A 
ATOM      3  C3  UNL d   1      -0.954   2.148   2.559  0.00  0.00     0.033 A 
ATOM      4  C4  UNL d   1      -1.187   3.071   1.545  0.00  0.00    -0.042 A 
ATOM      5  C5  UNL d   1      -2.449   3.640   1.416  0.00  0.00     0.033 A 
ATOM      6  C6  UNL d   1      -3.470   3.286   2.303  0.00  0.00    -0.057 A 
ENDROOT
BRANCH   1   7
ATOM      7  N   UNL d   1      -4.343   1.986   4.128  0.00  0.00    -0.732 N 
ATOM      8  C   UNL d   1      -4.690   2.725   5.322  0.00  0.00     0.284 C 
ATOM      9  H3  UNL d   1      -5.143   1.702   3.567  0.00  0.00     0.395 HD
ENDBRANCH   1   7
TORSDOF 1
ENDMDL
