MODEL 1
REMARK minimizedAffinity 1.53030777
REMARK minimizedRMSD -1
REMARK  1 active torsions:
REMARK  status: ('A' for Active; 'I' for Inactive)
REMARK    1  A    between atoms: N_2  and  C1_3 
ROOT
ATOM      1  C1  UNL d   1      -0.029   0.426   2.752  0.00  0.00     0.143 A 
ATOM      2  C2  UNL d   1      -1.229  -0.282   2.874  0.00  0.00    -0.057 A 
ATOM      3  C3  UNL d   1      -2.467   0.356   2.727  0.00  0.00     0.033 A 
ATOM      4  C4  UNL d   1      -2.526   1.724   2.485  0.00  0.00    -0.042 A 
ATOM      5  C5  UNL d   1      -1.346   2.453   2.385  0.00  0.00     0.033 A 
ATOM      6  C6  UNL d   1      -0.113   1.808   2.525  0.00  0.00    -0.057 A 
ENDROOT
BRANCH   1   7
ATOM      7  N   UNL d   1       1.231  -0.133   2.984  0.00  0.00    -0.732 N 
ATOM      8  C   UNL d   1       2.224  -0.175   1.932  0.00  0.00     0.284 C 
ATOM      9  H3  UNL d   1       1.603   0.116   3.898  0.00  0.00     0.395 HD
ENDBRANCH   1   7
TORSDOF 1
ENDMDL
