MODEL 1
REMARK minimizedAffinity 2.83470845
REMARK minimizedRMSD -1
REMARK  1 active torsions:
REMARK  status: ('A' for Active; 'I' for Inactive)
REMARK    1  A    between atoms: N_2  and  C1_3 
ROOT
ATOM      1  C1  UNL d   1      -3.826   2.106   3.872  0.00  0.00     0.143 A 
ATOM      2  C2  UNL d   1      -3.481   0.805   3.492  0.00  0.00    -0.057 A 
ATOM      3  C3  UNL d   1      -2.348   0.554   2.707  0.00  0.00     0.033 A 
ATOM      4  C4  UNL d   1      -1.555   1.607   2.263  0.00  0.00    -0.042 A 
ATOM      5  C5  UNL d   1      -1.894   2.911   2.608  0.00  0.00     0.033 A 
ATOM      6  C6  UNL d   1      -3.022   3.154   3.397  0.00  0.00    -0.057 A 
ENDROOT
BRANCH   1   7
ATOM      7  N   UNL d   1      -4.994   2.429   4.568  0.00  0.00    -0.732 N 
ATOM      8  C   UNL d   1      -4.964   2.640   5.999  0.00  0.00     0.284 C 
ATOM      9  H3  UNL d   1      -5.577   3.091   4.062  0.00  0.00     0.395 HD
ENDBRANCH   1   7
TORSDOF 1
ENDMDL
