MODEL 1
REMARK minimizedAffinity 0.780342579
REMARK minimizedRMSD -1
REMARK  0 active torsions:
REMARK  status: ('A' for Active; 'I' for Inactive)
ROOT
ATOM      1  C   UNL d   1      -0.474  -0.561   0.651  0.00  0.00     0.023 A 
ATOM      2  C1  UNL d   1      -0.379   0.778   1.030  0.00  0.00     0.003 A 
ATOM      3  C2  UNL d   1      -0.421   1.784   0.061  0.00  0.00     0.048 A 
ATOM      4  C3  UNL d   1      -0.560   1.443  -1.284  0.00  0.00     0.023 A 
ATOM      5  C4  UNL d   1      -0.657   0.104  -1.667  0.00  0.00     0.048 A 
ATOM      6  C5  UNL d   1      -0.613  -0.898  -0.695  0.00  0.00     0.003 A 
ATOM      7  I   UNL d   1      -0.624   2.937  -2.727  0.00  0.00    -0.146 I 
ENDROOT
TORSDOF 0
ENDMDL
