MODEL 1
REMARK minimizedAffinity -2.93910551
REMARK minimizedRMSD -1
REMARK  0 active torsions:
REMARK  status: ('A' for Active; 'I' for Inactive)
ROOT
ATOM      1  C   UNL d   1      -1.193  -0.176   1.874  0.00  0.00     0.023 A 
ATOM      2  C1  UNL d   1      -0.056  -0.656   2.526  0.00  0.00     0.003 A 
ATOM      3  C2  UNL d   1       1.061  -1.048   1.786  0.00  0.00     0.048 A 
ATOM      4  C3  UNL d   1       1.036  -0.957   0.394  0.00  0.00     0.023 A 
ATOM      5  C4  UNL d   1      -0.099  -0.477  -0.262  0.00  0.00     0.048 A 
ATOM      6  C5  UNL d   1      -1.214  -0.087   0.482  0.00  0.00     0.003 A 
ATOM      7  I   UNL d   1       2.698  -1.540  -0.709  0.00  0.00    -0.146 I 
ENDROOT
TORSDOF 0
ENDMDL
