MODEL 1
REMARK minimizedAffinity 1.15816975
REMARK minimizedRMSD -1
REMARK  0 active torsions:
REMARK  status: ('A' for Active; 'I' for Inactive)
ROOT
ATOM      1  C   UNL d   1      -1.711   4.767  -2.890  0.00  0.00     0.023 A 
ATOM      2  C1  UNL d   1      -3.010   4.278  -2.747  0.00  0.00     0.003 A 
ATOM      3  C2  UNL d   1      -3.246   2.902  -2.771  0.00  0.00     0.048 A 
ATOM      4  C3  UNL d   1      -2.178   2.020  -2.937  0.00  0.00     0.023 A 
ATOM      5  C4  UNL d   1      -0.877   2.504  -3.079  0.00  0.00     0.048 A 
ATOM      6  C5  UNL d   1      -0.646   3.881  -3.056  0.00  0.00     0.003 A 
ATOM      7  I   UNL d   1      -2.527  -0.029  -2.972  0.00  0.00    -0.146 I 
ENDROOT
TORSDOF 0
ENDMDL
