MODEL 1
REMARK minimizedAffinity -2.49021459
REMARK minimizedRMSD -1
REMARK  0 active torsions:
REMARK  status: ('A' for Active; 'I' for Inactive)
ROOT
ATOM      1  C   UNL d   1       1.590  -1.853   2.725  0.00  0.00     0.023 A 
ATOM      2  C1  UNL d   1       2.422  -1.371   1.714  0.00  0.00     0.003 A 
ATOM      3  C2  UNL d   1       1.880  -0.664   0.639  0.00  0.00     0.048 A 
ATOM      4  C3  UNL d   1       0.504  -0.442   0.581  0.00  0.00     0.023 A 
ATOM      5  C4  UNL d   1      -0.332  -0.921   1.590  0.00  0.00     0.048 A 
ATOM      6  C5  UNL d   1       0.214  -1.628   2.663  0.00  0.00     0.003 A 
ATOM      7  I   UNL d   1      -0.305   0.610  -1.018  0.00  0.00    -0.146 I 
ENDROOT
TORSDOF 0
ENDMDL
