MODEL 1
REMARK minimizedAffinity -4.01221323
REMARK minimizedRMSD -1
REMARK  0 active torsions:
REMARK  status: ('A' for Active; 'I' for Inactive)
ROOT
ATOM      1  C   UNL d   1       1.973  -1.846   2.156  0.00  0.00     0.023 A 
ATOM      2  C1  UNL d   1       2.444  -1.656   0.857  0.00  0.00     0.003 A 
ATOM      3  C2  UNL d   1       1.679  -0.942  -0.067  0.00  0.00     0.048 A 
ATOM      4  C3  UNL d   1       0.444  -0.420   0.315  0.00  0.00     0.023 A 
ATOM      5  C4  UNL d   1      -0.031  -0.606   1.614  0.00  0.00     0.048 A 
ATOM      6  C5  UNL d   1       0.737  -1.322   2.534  0.00  0.00     0.003 A 
ATOM      7  I   UNL d   1      -0.698   0.644  -1.059  0.00  0.00    -0.146 I 
ENDROOT
TORSDOF 0
ENDMDL
