MODEL 1
REMARK minimizedAffinity -2.74305916
REMARK minimizedRMSD -1
REMARK  0 active torsions:
REMARK  status: ('A' for Active; 'I' for Inactive)
ROOT
ATOM      1  C   UNL d   1       1.054  -0.747   2.675  0.00  0.00     0.023 A 
ATOM      2  C1  UNL d   1      -0.323  -0.630   2.490  0.00  0.00     0.003 A 
ATOM      3  C2  UNL d   1      -0.827  -0.136   1.285  0.00  0.00     0.048 A 
ATOM      4  C3  UNL d   1       0.052   0.238   0.269  0.00  0.00     0.023 A 
ATOM      5  C4  UNL d   1       1.431   0.122   0.450  0.00  0.00     0.048 A 
ATOM      6  C5  UNL d   1       1.930  -0.371   1.657  0.00  0.00     0.003 A 
ATOM      7  I   UNL d   1      -0.696   0.972  -1.526  0.00  0.00    -0.146 I 
ENDROOT
TORSDOF 0
ENDMDL
