MODEL 1
REMARK minimizedAffinity 0.33550024
REMARK minimizedRMSD -1
REMARK  0 active torsions:
REMARK  status: ('A' for Active; 'I' for Inactive)
ROOT
ATOM      1  C   UNL d   1       0.724  -1.160   1.947  0.00  0.00     0.023 A 
ATOM      2  C1  UNL d   1      -0.656  -1.082   1.758  0.00  0.00     0.003 A 
ATOM      3  C2  UNL d   1      -1.175  -0.338   0.696  0.00  0.00     0.048 A 
ATOM      4  C3  UNL d   1      -0.309   0.324  -0.173  0.00  0.00     0.023 A 
ATOM      5  C4  UNL d   1       1.073   0.248   0.012  0.00  0.00     0.048 A 
ATOM      6  C5  UNL d   1       1.587  -0.496   1.076  0.00  0.00     0.003 A 
ATOM      7  I   UNL d   1      -1.079   1.431  -1.755  0.00  0.00    -0.146 I 
ENDROOT
TORSDOF 0
ENDMDL
