MODEL 1
REMARK minimizedAffinity 0.104100309
REMARK minimizedRMSD -1
REMARK  0 active torsions:
REMARK  status: ('A' for Active; 'I' for Inactive)
ROOT
ATOM      1  C   UNL d   1      -3.155   0.669  -0.013  0.00  0.00     0.077 C 
ATOM      2  C1  UNL d   1      -1.953   0.336   0.819  0.00  0.00    -0.074 A 
ATOM      3  C2  UNL d   1      -2.074   0.089   2.190  0.00  0.00    -0.005 A 
ATOM      4  C3  UNL d   1      -0.948  -0.229   2.950  0.00  0.00     0.006 A 
ATOM      5  C4  UNL d   1       0.308  -0.303   2.347  0.00  0.00    -0.005 A 
ATOM      6  C5  UNL d   1       0.449  -0.060   0.977  0.00  0.00    -0.074 A 
ATOM      7  C6  UNL d   1       1.790  -0.145   0.312  0.00  0.00     0.077 C 
ATOM      8  C7  UNL d   1      -0.688   0.252   0.219  0.00  0.00    -0.001 A 
ENDROOT
TORSDOF 0
ENDMDL
