MODEL 1
REMARK minimizedAffinity 3.43798351
REMARK minimizedRMSD -1
REMARK  0 active torsions:
REMARK  status: ('A' for Active; 'I' for Inactive)
ROOT
ATOM      1  C   UNL d   1       2.850  -1.908   5.436  0.00  0.00     0.077 C 
ATOM      2  C1  UNL d   1       1.640  -1.616   4.599  0.00  0.00    -0.074 A 
ATOM      3  C2  UNL d   1       0.356  -1.917   5.062  0.00  0.00    -0.005 A 
ATOM      4  C3  UNL d   1      -0.761  -1.631   4.276  0.00  0.00     0.006 A 
ATOM      5  C4  UNL d   1      -0.604  -1.043   3.021  0.00  0.00    -0.005 A 
ATOM      6  C5  UNL d   1       0.673  -0.734   2.541  0.00  0.00    -0.074 A 
ATOM      7  C6  UNL d   1       0.859  -0.092   1.198  0.00  0.00     0.077 C 
ATOM      8  C7  UNL d   1       1.789  -1.018   3.340  0.00  0.00    -0.001 A 
ENDROOT
TORSDOF 0
ENDMDL
