MODEL 1
REMARK minimizedAffinity 5.96370792
REMARK minimizedRMSD -1
REMARK  0 active torsions:
REMARK  status: ('A' for Active; 'I' for Inactive)
ROOT
ATOM      1  C   UNL d   1      -3.747  -0.727  -1.137  0.00  0.00     0.077 C 
ATOM      2  C1  UNL d   1      -2.690  -0.406  -0.123  0.00  0.00    -0.074 A 
ATOM      3  C2  UNL d   1      -3.035   0.017   1.165  0.00  0.00    -0.005 A 
ATOM      4  C3  UNL d   1      -2.041   0.303   2.101  0.00  0.00     0.006 A 
ATOM      5  C4  UNL d   1      -0.694   0.168   1.759  0.00  0.00    -0.005 A 
ATOM      6  C5  UNL d   1      -0.331  -0.255   0.477  0.00  0.00    -0.074 A 
ATOM      7  C6  UNL d   1       1.111  -0.415   0.096  0.00  0.00     0.077 C 
ATOM      8  C7  UNL d   1      -1.336  -0.547  -0.456  0.00  0.00    -0.001 A 
ENDROOT
TORSDOF 0
ENDMDL
