MODEL 1
REMARK minimizedAffinity 7.19064283
REMARK minimizedRMSD -1
REMARK  0 active torsions:
REMARK  status: ('A' for Active; 'I' for Inactive)
ROOT
ATOM      1  C   UNL d   1       1.406  -1.274   4.470  0.00  0.00     0.077 C 
ATOM      2  C1  UNL d   1       0.737  -0.732   3.242  0.00  0.00    -0.074 A 
ATOM      3  C2  UNL d   1       1.455  -0.541   2.057  0.00  0.00    -0.005 A 
ATOM      4  C3  UNL d   1       0.817  -0.045   0.920  0.00  0.00     0.006 A 
ATOM      5  C4  UNL d   1      -0.543   0.265   0.957  0.00  0.00    -0.005 A 
ATOM      6  C5  UNL d   1      -1.278   0.080   2.133  0.00  0.00    -0.074 A 
ATOM      7  C6  UNL d   1      -2.742   0.399   2.186  0.00  0.00     0.077 C 
ATOM      8  C7  UNL d   1      -0.631  -0.426   3.269  0.00  0.00    -0.001 A 
ENDROOT
TORSDOF 0
ENDMDL
