MODEL 1
REMARK minimizedAffinity 2.90942907
REMARK minimizedRMSD -1
REMARK  0 active torsions:
REMARK  status: ('A' for Active; 'I' for Inactive)
ROOT
ATOM      1  C   UNL d   1       0.778  -1.080   4.275  0.00  0.00     0.077 C 
ATOM      2  C1  UNL d   1       0.035  -0.655   3.043  0.00  0.00    -0.074 A 
ATOM      3  C2  UNL d   1       0.714  -0.395   1.848  0.00  0.00    -0.005 A 
ATOM      4  C3  UNL d   1       0.009  -0.010   0.708  0.00  0.00     0.006 A 
ATOM      5  C4  UNL d   1      -1.380   0.119   0.751  0.00  0.00    -0.005 A 
ATOM      6  C5  UNL d   1      -2.076  -0.138   1.936  0.00  0.00    -0.074 A 
ATOM      7  C6  UNL d   1      -3.570  -0.015   1.997  0.00  0.00     0.077 C 
ATOM      8  C7  UNL d   1      -1.361  -0.532   3.076  0.00  0.00    -0.001 A 
ENDROOT
TORSDOF 0
ENDMDL
