MODEL 1
REMARK minimizedAffinity -1.07193482
REMARK minimizedRMSD -1
REMARK  0 active torsions:
REMARK  status: ('A' for Active; 'I' for Inactive)
ROOT
ATOM      1  C   UNL d   1      -3.906  -1.435   3.770  0.00  0.00     0.077 C 
ATOM      2  C1  UNL d   1      -2.449  -1.188   3.518  0.00  0.00    -0.074 A 
ATOM      3  C2  UNL d   1      -1.488  -1.503   4.484  0.00  0.00    -0.005 A 
ATOM      4  C3  UNL d   1      -0.135  -1.275   4.232  0.00  0.00     0.006 A 
ATOM      5  C4  UNL d   1       0.270  -0.731   3.012  0.00  0.00    -0.005 A 
ATOM      6  C5  UNL d   1      -0.676  -0.411   2.034  0.00  0.00    -0.074 A 
ATOM      7  C6  UNL d   1      -0.257   0.166   0.714  0.00  0.00     0.077 C 
ATOM      8  C7  UNL d   1      -2.033  -0.649   2.292  0.00  0.00    -0.001 A 
ENDROOT
TORSDOF 0
ENDMDL
