MODEL 1
REMARK minimizedAffinity 1.72836018
REMARK minimizedRMSD -1
REMARK  0 active torsions:
REMARK  status: ('A' for Active; 'I' for Inactive)
ROOT
ATOM      1  C   UNL d   1      -0.298   1.154   2.102  0.00  0.00     0.124 A 
ATOM      2  C1  UNL d   1       0.861   0.939   1.369  0.00  0.00     0.062 A 
ATOM      3  C2  UNL d   1       0.794   0.347   0.111  0.00  0.00     0.162 A 
ATOM      4  C3  UNL d   1      -0.437  -0.033  -0.423  0.00  0.00    -0.034 A 
ATOM      5  C4  UNL d   1      -1.598   0.185   0.320  0.00  0.00     0.162 A 
ATOM      6  C5  UNL d   1      -1.526   0.777   1.577  0.00  0.00     0.062 A 
ATOM      7  F   UNL d   1      -2.647   0.984   2.283  0.00  0.00    -0.097 F 
ATOM      8  F1  UNL d   1      -2.798  -0.168  -0.164  0.00  0.00    -0.096 F 
ATOM      9  I   UNL d   1      -0.541  -0.918  -2.304  0.00  0.00    -0.060 I 
ATOM     10  F2  UNL d   1       1.930   0.152  -0.575  0.00  0.00    -0.096 F 
ATOM     11  F3  UNL d   1       2.049   1.302   1.874  0.00  0.00    -0.097 F 
ATOM     12  F4  UNL d   1      -0.231   1.723   3.312  0.00  0.00    -0.092 F 
ENDROOT
TORSDOF 0
ENDMDL
