MODEL 1
REMARK minimizedAffinity -3.1456821
REMARK minimizedRMSD -1
REMARK  0 active torsions:
REMARK  status: ('A' for Active; 'I' for Inactive)
ROOT
ATOM      1  C   UNL d   1       0.515   0.683   2.254  0.00  0.00     0.124 A 
ATOM      2  C1  UNL d   1      -0.525   1.170   1.475  0.00  0.00     0.062 A 
ATOM      3  C2  UNL d   1      -0.644   0.782   0.144  0.00  0.00     0.162 A 
ATOM      4  C3  UNL d   1       0.280  -0.099  -0.418  0.00  0.00    -0.034 A 
ATOM      5  C4  UNL d   1       1.324  -0.584   0.371  0.00  0.00     0.162 A 
ATOM      6  C5  UNL d   1       1.438  -0.194   1.702  0.00  0.00     0.062 A 
ATOM      7  F   UNL d   1       2.444  -0.666   2.452  0.00  0.00    -0.097 F 
ATOM      8  F1  UNL d   1       2.230  -1.433  -0.137  0.00  0.00    -0.096 F 
ATOM      9  I   UNL d   1       0.106  -0.681  -2.408  0.00  0.00    -0.060 I 
ATOM     10  F2  UNL d   1      -1.659   1.269  -0.585  0.00  0.00    -0.096 F 
ATOM     11  F3  UNL d   1      -1.418   2.018   2.006  0.00  0.00    -0.097 F 
ATOM     12  F4  UNL d   1       0.627   1.058   3.535  0.00  0.00    -0.092 F 
ENDROOT
TORSDOF 0
ENDMDL
