MODEL 1
REMARK minimizedAffinity -0.0923686847
REMARK minimizedRMSD -1
REMARK  0 active torsions:
REMARK  status: ('A' for Active; 'I' for Inactive)
ROOT
ATOM      1  C   UNL d   1      -0.184  -0.231  -4.728  0.00  0.00     0.124 A 
ATOM      2  C1  UNL d   1       0.980   0.441  -4.381  0.00  0.00     0.062 A 
ATOM      3  C2  UNL d   1       1.424   0.437  -3.062  0.00  0.00     0.162 A 
ATOM      4  C3  UNL d   1       0.705  -0.244  -2.080  0.00  0.00    -0.034 A 
ATOM      5  C4  UNL d   1      -0.465  -0.918  -2.436  0.00  0.00     0.162 A 
ATOM      6  C5  UNL d   1      -0.905  -0.910  -3.755  0.00  0.00     0.062 A 
ATOM      7  F   UNL d   1      -2.029  -1.560  -4.089  0.00  0.00    -0.097 F 
ATOM      8  F1  UNL d   1      -1.180  -1.582  -1.516  0.00  0.00    -0.096 F 
ATOM      9  I   UNL d   1       1.366  -0.253  -0.106  0.00  0.00    -0.060 I 
ATOM     10  F2  UNL d   1       2.552   1.095  -2.755  0.00  0.00    -0.096 F 
ATOM     11  F3  UNL d   1       1.678   1.098  -5.319  0.00  0.00    -0.097 F 
ATOM     12  F4  UNL d   1      -0.610  -0.225  -5.998  0.00  0.00    -0.092 F 
ENDROOT
TORSDOF 0
ENDMDL
