MODEL 1
REMARK minimizedAffinity -5.26922369
REMARK minimizedRMSD -1
REMARK  0 active torsions:
REMARK  status: ('A' for Active; 'I' for Inactive)
ROOT
ATOM      1  C   UNL d   1       0.081   1.016   3.447  0.00  0.00     0.124 A 
ATOM      2  C1  UNL d   1       1.176   0.252   3.068  0.00  0.00     0.062 A 
ATOM      3  C2  UNL d   1       1.262  -0.253   1.774  0.00  0.00     0.162 A 
ATOM      4  C3  UNL d   1       0.250   0.004   0.849  0.00  0.00    -0.034 A 
ATOM      5  C4  UNL d   1      -0.849   0.772   1.238  0.00  0.00     0.162 A 
ATOM      6  C5  UNL d   1      -0.930   1.275   2.533  0.00  0.00     0.062 A 
ATOM      7  F   UNL d   1      -1.989   2.012   2.898  0.00  0.00    -0.097 F 
ATOM      8  F1  UNL d   1      -1.840   1.038   0.375  0.00  0.00    -0.096 F 
ATOM      9  I   UNL d   1       0.375  -0.750  -1.087  0.00  0.00    -0.060 I 
ATOM     10  F2  UNL d   1       2.332  -0.988   1.434  0.00  0.00    -0.096 F 
ATOM     11  F3  UNL d   1       2.154  -0.000   3.950  0.00  0.00    -0.097 F 
ATOM     12  F4  UNL d   1      -0.000   1.500   4.693  0.00  0.00    -0.092 F 
ENDROOT
TORSDOF 0
ENDMDL
