MODEL 1
REMARK minimizedAffinity -4.67734671
REMARK minimizedRMSD -1
REMARK  0 active torsions:
REMARK  status: ('A' for Active; 'I' for Inactive)
ROOT
ATOM      1  C   UNL d   1       0.167   0.207   2.552  0.00  0.00     0.124 A 
ATOM      2  C1  UNL d   1      -0.713   0.800   1.657  0.00  0.00     0.062 A 
ATOM      3  C2  UNL d   1      -0.589   0.560   0.291  0.00  0.00     0.162 A 
ATOM      4  C3  UNL d   1       0.418  -0.277  -0.188  0.00  0.00    -0.034 A 
ATOM      5  C4  UNL d   1       1.300  -0.869   0.718  0.00  0.00     0.162 A 
ATOM      6  C5  UNL d   1       1.172  -0.627   2.082  0.00  0.00     0.062 A 
ATOM      7  F   UNL d   1       2.023  -1.201   2.945  0.00  0.00    -0.097 F 
ATOM      8  F1  UNL d   1       2.280  -1.680   0.291  0.00  0.00    -0.096 F 
ATOM      9  I   UNL d   1       0.607  -0.637  -2.229  0.00  0.00    -0.060 I 
ATOM     10  F2  UNL d   1      -1.453   1.147  -0.551  0.00  0.00    -0.096 F 
ATOM     11  F3  UNL d   1      -1.684   1.606   2.108  0.00  0.00    -0.097 F 
ATOM     12  F4  UNL d   1       0.046   0.439   3.865  0.00  0.00    -0.092 F 
ENDROOT
TORSDOF 0
ENDMDL
