MODEL 1
REMARK minimizedAffinity 3.91484094
REMARK minimizedRMSD -1
REMARK  0 active torsions:
REMARK  status: ('A' for Active; 'I' for Inactive)
ROOT
ATOM      1  C   UNL d   1       0.917  -1.158  -1.209  0.00  0.00     0.124 A 
ATOM      2  C1  UNL d   1      -0.111  -0.227  -1.275  0.00  0.00     0.062 A 
ATOM      3  C2  UNL d   1      -0.601   0.359  -0.112  0.00  0.00     0.162 A 
ATOM      4  C3  UNL d   1      -0.064   0.016   1.129  0.00  0.00    -0.034 A 
ATOM      5  C4  UNL d   1       0.969  -0.922   1.188  0.00  0.00     0.162 A 
ATOM      6  C5  UNL d   1       1.455  -1.505   0.022  0.00  0.00     0.062 A 
ATOM      7  F   UNL d   1       2.448  -2.404   0.088  0.00  0.00    -0.097 F 
ATOM      8  F1  UNL d   1       1.508  -1.275   2.364  0.00  0.00    -0.096 F 
ATOM      9  I   UNL d   1      -0.794   0.889   2.871  0.00  0.00    -0.060 I 
ATOM     10  F2  UNL d   1      -1.594   1.255  -0.206  0.00  0.00    -0.096 F 
ATOM     11  F3  UNL d   1      -0.633   0.109  -2.464  0.00  0.00    -0.097 F 
ATOM     12  F4  UNL d   1       1.386  -1.721  -2.330  0.00  0.00    -0.092 F 
ENDROOT
TORSDOF 0
ENDMDL
