MODEL 1
REMARK minimizedAffinity 2.77948761
REMARK minimizedRMSD -1
REMARK  0 active torsions:
REMARK  status: ('A' for Active; 'I' for Inactive)
ROOT
ATOM      1  C   UNL d   1      -0.711   0.446   1.865  0.00  0.00     0.124 A 
ATOM      2  C1  UNL d   1      -0.793  -0.600   0.957  0.00  0.00     0.062 A 
ATOM      3  C2  UNL d   1      -0.186  -0.494  -0.291  0.00  0.00     0.162 A 
ATOM      4  C3  UNL d   1       0.510   0.664  -0.639  0.00  0.00    -0.034 A 
ATOM      5  C4  UNL d   1       0.587   1.713   0.279  0.00  0.00     0.162 A 
ATOM      6  C5  UNL d   1      -0.021   1.601   1.525  0.00  0.00     0.062 A 
ATOM      7  F   UNL d   1       0.060   2.614   2.401  0.00  0.00    -0.097 F 
ATOM      8  F1  UNL d   1       1.248   2.840  -0.022  0.00  0.00    -0.096 F 
ATOM      9  I   UNL d   1       1.418   0.828  -2.504  0.00  0.00    -0.060 I 
ATOM     10  F2  UNL d   1      -0.282  -1.521  -1.149  0.00  0.00    -0.096 F 
ATOM     11  F3  UNL d   1      -1.460  -1.717   1.282  0.00  0.00    -0.097 F 
ATOM     12  F4  UNL d   1      -1.296   0.341   3.064  0.00  0.00    -0.092 F 
ENDROOT
TORSDOF 0
ENDMDL
