MODEL 1
REMARK minimizedAffinity -4.46024656
REMARK minimizedRMSD -1
REMARK  1 active torsions:
REMARK  status: ('A' for Active; 'I' for Inactive)
REMARK    1  A    between atoms: C3_4  and  O_7 
ROOT
ATOM      1  C   UNL d   1       0.953   0.184   0.500  0.00  0.00    -0.033 A 
ATOM      2  C1  UNL d   1       1.325  -1.028   1.085  0.00  0.00     0.039 A 
ATOM      3  C2  UNL d   1       0.403  -2.073   1.177  0.00  0.00    -0.080 A 
ATOM      4  C3  UNL d   1      -0.885  -1.893   0.678  0.00  0.00     0.150 A 
ATOM      5  C4  UNL d   1      -1.260  -0.690   0.090  0.00  0.00    -0.007 A 
ATOM      6  C5  UNL d   1      -0.338   0.352   0.001  0.00  0.00     0.039 A 
ENDROOT
BRANCH   4   7
ATOM      7  O   UNL d   1      -1.820  -2.882   0.749  0.00  0.00    -0.526 OA
ATOM      8  H5  UNL d   1      -1.428  -3.645   1.206  0.00  0.00     0.418 HD
ENDBRANCH   4   7
TORSDOF 1
ENDMDL
