MODEL 1
REMARK minimizedAffinity -3.45083547
REMARK minimizedRMSD -1
REMARK  1 active torsions:
REMARK  status: ('A' for Active; 'I' for Inactive)
REMARK    1  A    between atoms: C3_4  and  O_7 
ROOT
ATOM      1  C   UNL d   1      -0.494   0.827  -0.258  0.00  0.00    -0.033 A 
ATOM      2  C1  UNL d   1      -1.808   0.715   0.201  0.00  0.00     0.039 A 
ATOM      3  C2  UNL d   1      -2.284  -0.512   0.668  0.00  0.00    -0.080 A 
ATOM      4  C3  UNL d   1      -1.436  -1.617   0.671  0.00  0.00     0.150 A 
ATOM      5  C4  UNL d   1      -0.125  -1.511   0.219  0.00  0.00    -0.007 A 
ATOM      6  C5  UNL d   1       0.348  -0.285  -0.247  0.00  0.00     0.039 A 
ENDROOT
BRANCH   4   7
ATOM      7  O   UNL d   1      -1.857  -2.836   1.113  0.00  0.00    -0.526 OA
ATOM      8  H5  UNL d   1      -2.792  -2.766   1.367  0.00  0.00     0.418 HD
ENDBRANCH   4   7
TORSDOF 1
ENDMDL
