MODEL 1
REMARK minimizedAffinity -3.86282015
REMARK minimizedRMSD -1
REMARK  1 active torsions:
REMARK  status: ('A' for Active; 'I' for Inactive)
REMARK    1  A    between atoms: C3_4  and  O_7 
ROOT
ATOM      1  C   UNL d   1       0.555   0.468  -0.071  0.00  0.00    -0.033 A 
ATOM      2  C1  UNL d   1      -0.840   0.432  -0.098  0.00  0.00     0.039 A 
ATOM      3  C2  UNL d   1      -1.516  -0.753   0.202  0.00  0.00    -0.080 A 
ATOM      4  C3  UNL d   1      -0.786  -1.892   0.526  0.00  0.00     0.150 A 
ATOM      5  C4  UNL d   1       0.605  -1.863   0.558  0.00  0.00    -0.007 A 
ATOM      6  C5  UNL d   1       1.278  -0.679   0.258  0.00  0.00     0.039 A 
ENDROOT
BRANCH   4   7
ATOM      7  O   UNL d   1      -1.401  -3.073   0.821  0.00  0.00    -0.526 OA
ATOM      8  H5  UNL d   1      -2.360  -2.951   0.731  0.00  0.00     0.418 HD
ENDBRANCH   4   7
TORSDOF 1
ENDMDL
