MODEL 1
REMARK minimizedAffinity -2.55580497
REMARK minimizedRMSD -1
REMARK  1 active torsions:
REMARK  status: ('A' for Active; 'I' for Inactive)
REMARK    1  A    between atoms: C3_4  and  O_7 
ROOT
ATOM      1  C   UNL d   1      -0.861  -2.619   0.885  0.00  0.00    -0.033 A 
ATOM      2  C1  UNL d   1      -1.656  -1.505   1.162  0.00  0.00     0.039 A 
ATOM      3  C2  UNL d   1      -1.224  -0.229   0.795  0.00  0.00    -0.080 A 
ATOM      4  C3  UNL d   1       0.003  -0.081   0.154  0.00  0.00     0.150 A 
ATOM      5  C4  UNL d   1       0.798  -1.187  -0.128  0.00  0.00    -0.007 A 
ATOM      6  C5  UNL d   1       0.365  -2.460   0.239  0.00  0.00     0.039 A 
ENDROOT
BRANCH   4   7
ATOM      7  O   UNL d   1       0.469   1.145  -0.219  0.00  0.00    -0.526 OA
ATOM      8  H5  UNL d   1      -0.172   1.818   0.066  0.00  0.00     0.418 HD
ENDBRANCH   4   7
TORSDOF 1
ENDMDL
