MODEL 1
REMARK minimizedAffinity -2.5406692
REMARK minimizedRMSD -1
REMARK  1 active torsions:
REMARK  status: ('A' for Active; 'I' for Inactive)
REMARK    1  A    between atoms: C3_4  and  O_7 
ROOT
ATOM      1  C   UNL d   1       3.280   2.389  -2.972  0.00  0.00    -0.033 A 
ATOM      2  C1  UNL d   1       2.705   1.749  -4.072  0.00  0.00     0.039 A 
ATOM      3  C2  UNL d   1       1.327   1.524  -4.109  0.00  0.00    -0.080 A 
ATOM      4  C3  UNL d   1       0.537   1.943  -3.042  0.00  0.00     0.150 A 
ATOM      5  C4  UNL d   1       1.103   2.584  -1.945  0.00  0.00    -0.007 A 
ATOM      6  C5  UNL d   1       2.479   2.807  -1.909  0.00  0.00     0.039 A 
ENDROOT
BRANCH   4   7
ATOM      7  O   UNL d   1      -0.811   1.741  -3.031  0.00  0.00    -0.526 OA
ATOM      8  H5  UNL d   1      -1.057   1.261  -3.840  0.00  0.00     0.418 HD
ENDBRANCH   4   7
TORSDOF 1
ENDMDL
