MODEL 1
REMARK minimizedAffinity -3.73760438
REMARK minimizedRMSD -1
REMARK  1 active torsions:
REMARK  status: ('A' for Active; 'I' for Inactive)
REMARK    1  A    between atoms: C3_4  and  O_7 
ROOT
ATOM      1  C   UNL d   1       0.775   3.019  -2.344  0.00  0.00    -0.033 A 
ATOM      2  C1  UNL d   1      -0.217   2.776  -1.392  0.00  0.00     0.039 A 
ATOM      3  C2  UNL d   1      -0.084   1.713  -0.497  0.00  0.00    -0.080 A 
ATOM      4  C3  UNL d   1       1.045   0.902  -0.563  0.00  0.00     0.150 A 
ATOM      5  C4  UNL d   1       2.039   1.139  -1.506  0.00  0.00    -0.007 A 
ATOM      6  C5  UNL d   1       1.904   2.201  -2.400  0.00  0.00     0.039 A 
ENDROOT
BRANCH   4   7
ATOM      7  O   UNL d   1       1.217  -0.151   0.286  0.00  0.00    -0.526 OA
ATOM      8  H5  UNL d   1       0.437  -0.211   0.863  0.00  0.00     0.418 HD
ENDBRANCH   4   7
TORSDOF 1
ENDMDL
