MODEL 1
REMARK minimizedAffinity -5.01915407
REMARK minimizedRMSD -1
REMARK  1 active torsions:
REMARK  status: ('A' for Active; 'I' for Inactive)
REMARK    1  A    between atoms: C3_4  and  O_7 
ROOT
ATOM      1  C   UNL d   1      -1.901  -2.149   1.078  0.00  0.00    -0.033 A 
ATOM      2  C1  UNL d   1      -0.743  -2.549   0.409  0.00  0.00     0.039 A 
ATOM      3  C2  UNL d   1       0.166  -1.594  -0.050  0.00  0.00    -0.080 A 
ATOM      4  C3  UNL d   1      -0.094  -0.244   0.166  0.00  0.00     0.150 A 
ATOM      5  C4  UNL d   1      -1.244   0.162   0.835  0.00  0.00    -0.007 A 
ATOM      6  C5  UNL d   1      -2.151  -0.793   1.293  0.00  0.00     0.039 A 
ENDROOT
BRANCH   4   7
ATOM      7  O   UNL d   1       0.761   0.725  -0.268  0.00  0.00    -0.526 OA
ATOM      8  H5  UNL d   1       1.496   0.299  -0.738  0.00  0.00     0.418 HD
ENDBRANCH   4   7
TORSDOF 1
ENDMDL
