MODEL 1
REMARK minimizedAffinity -3.59920526
REMARK minimizedRMSD -1
REMARK  1 active torsions:
REMARK  status: ('A' for Active; 'I' for Inactive)
REMARK    1  A    between atoms: C3_4  and  O_7 
ROOT
ATOM      1  C   UNL d   1       0.474  -0.190  -0.350  0.00  0.00    -0.033 A 
ATOM      2  C1  UNL d   1       0.685   1.175  -0.143  0.00  0.00     0.039 A 
ATOM      3  C2  UNL d   1      -0.259   1.931   0.554  0.00  0.00    -0.080 A 
ATOM      4  C3  UNL d   1      -1.408   1.312   1.038  0.00  0.00     0.150 A 
ATOM      5  C4  UNL d   1      -1.623  -0.047   0.839  0.00  0.00    -0.007 A 
ATOM      6  C5  UNL d   1      -0.679  -0.801   0.142  0.00  0.00     0.039 A 
ENDROOT
BRANCH   4   7
ATOM      7  O   UNL d   1      -2.360   2.011   1.720  0.00  0.00    -0.526 OA
ATOM      8  H5  UNL d   1      -2.090   2.944   1.756  0.00  0.00     0.418 HD
ENDBRANCH   4   7
TORSDOF 1
ENDMDL
