MODEL 1
REMARK minimizedAffinity -3.55269098
REMARK minimizedRMSD -1
REMARK  1 active torsions:
REMARK  status: ('A' for Active; 'I' for Inactive)
REMARK    1  A    between atoms: C3_4  and  O_7 
ROOT
ATOM      1  C   UNL d   1      -0.430  -2.044   0.976  0.00  0.00    -0.033 A 
ATOM      2  C1  UNL d   1       0.948  -1.840   0.892  0.00  0.00     0.039 A 
ATOM      3  C2  UNL d   1       1.452  -0.745   0.186  0.00  0.00    -0.080 A 
ATOM      4  C3  UNL d   1       0.567   0.136  -0.430  0.00  0.00     0.150 A 
ATOM      5  C4  UNL d   1      -0.808  -0.059  -0.346  0.00  0.00    -0.007 A 
ATOM      6  C5  UNL d   1      -1.308  -1.153   0.358  0.00  0.00     0.039 A 
ENDROOT
BRANCH   4   7
ATOM      7  O   UNL d   1       1.011   1.216  -1.133  0.00  0.00    -0.526 OA
ATOM      8  H5  UNL d   1       1.983   1.207  -1.130  0.00  0.00     0.418 HD
ENDBRANCH   4   7
TORSDOF 1
ENDMDL
