MODEL 1
REMARK minimizedAffinity -4.77641773
REMARK minimizedRMSD -1
REMARK  1 active torsions:
REMARK  status: ('A' for Active; 'I' for Inactive)
REMARK    1  A    between atoms: C3_4  and  O_7 
ROOT
ATOM      1  C   UNL d   1       0.631   0.199   0.135  0.00  0.00    -0.033 A 
ATOM      2  C1  UNL d   1      -0.759   0.320   0.186  0.00  0.00     0.039 A 
ATOM      3  C2  UNL d   1      -1.549  -0.797   0.464  0.00  0.00    -0.080 A 
ATOM      4  C3  UNL d   1      -0.938  -2.027   0.689  0.00  0.00     0.150 A 
ATOM      5  C4  UNL d   1       0.446  -2.154   0.644  0.00  0.00    -0.007 A 
ATOM      6  C5  UNL d   1       1.234  -1.038   0.365  0.00  0.00     0.039 A 
ENDROOT
BRANCH   4   7
ATOM      7  O   UNL d   1      -1.668  -3.147   0.959  0.00  0.00    -0.526 OA
ATOM      8  H5  UNL d   1      -2.611  -2.914   0.930  0.00  0.00     0.418 HD
ENDBRANCH   4   7
TORSDOF 1
ENDMDL
