MODEL 1
REMARK minimizedAffinity -5.27579927
REMARK minimizedRMSD -1
REMARK  1 active torsions:
REMARK  status: ('A' for Active; 'I' for Inactive)
REMARK    1  A    between atoms: C3_4  and  O_7 
ROOT
ATOM      1  C   UNL d   1      -1.432  -2.330   1.279  0.00  0.00    -0.033 A 
ATOM      2  C1  UNL d   1      -2.179  -1.215   0.894  0.00  0.00     0.039 A 
ATOM      3  C2  UNL d   1      -1.533  -0.060   0.446  0.00  0.00    -0.080 A 
ATOM      4  C3  UNL d   1      -0.143  -0.034   0.388  0.00  0.00     0.150 A 
ATOM      5  C4  UNL d   1       0.608  -1.143   0.767  0.00  0.00    -0.007 A 
ATOM      6  C5  UNL d   1      -0.039  -2.294   1.214  0.00  0.00     0.039 A 
ENDROOT
BRANCH   4   7
ATOM      7  O   UNL d   1       0.532   1.071  -0.037  0.00  0.00    -0.526 OA
ATOM      8  H5  UNL d   1      -0.115   1.768  -0.239  0.00  0.00     0.418 HD
ENDBRANCH   4   7
TORSDOF 1
ENDMDL
