MODEL 1
REMARK minimizedAffinity -5.42387915
REMARK minimizedRMSD -1
REMARK  1 active torsions:
REMARK  status: ('A' for Active; 'I' for Inactive)
REMARK    1  A    between atoms: C3_4  and  O_7 
ROOT
ATOM      1  C   UNL d   1       0.184  -0.936   0.325  0.00  0.00    -0.033 A 
ATOM      2  C1  UNL d   1      -1.129  -1.019   0.793  0.00  0.00     0.039 A 
ATOM      3  C2  UNL d   1      -1.816   0.139   1.160  0.00  0.00    -0.080 A 
ATOM      4  C3  UNL d   1      -1.180   1.373   1.055  0.00  0.00     0.150 A 
ATOM      5  C4  UNL d   1       0.127   1.464   0.587  0.00  0.00    -0.007 A 
ATOM      6  C5  UNL d   1       0.812   0.306   0.221  0.00  0.00     0.039 A 
ENDROOT
BRANCH   4   7
ATOM      7  O   UNL d   1      -1.808   2.531   1.407  0.00  0.00    -0.526 OA
ATOM      8  H5  UNL d   1      -2.694   2.311   1.739  0.00  0.00     0.418 HD
ENDBRANCH   4   7
TORSDOF 1
ENDMDL
