MODEL 1
REMARK minimizedAffinity 5.62047911
REMARK minimizedRMSD -1
REMARK  0 active torsions:
REMARK  status: ('A' for Active; 'I' for Inactive)
ROOT
ATOM      1  C2' OXE d   1       4.098  -2.444   3.132  0.00  0.00     0.078 C 
ATOM      2  C1' OXE d   1       1.918  -0.690   2.907  0.00  0.00     0.078 C 
ATOM      3  C1  OXE d   1       2.304  -1.493   1.690  0.00  0.00    -0.078 A 
ATOM      4  C2  OXE d   1       3.400  -2.314   1.796  0.00  0.00    -0.078 A 
ATOM      5  C3  OXE d   1       3.766  -3.118   0.720  0.00  0.00     0.003 A 
ATOM      6  C4  OXE d   1       3.121  -2.985  -0.516  0.00  0.00    -0.002 A 
ATOM      7  C5  OXE d   1       2.027  -2.125  -0.657  0.00  0.00    -0.002 A 
ATOM      8  C6  OXE d   1       1.580  -1.406   0.446  0.00  0.00     0.003 A 
ENDROOT
TORSDOF 0
ENDMDL
