MODEL 1
REMARK minimizedAffinity 5.21994448
REMARK minimizedRMSD -1
REMARK  0 active torsions:
REMARK  status: ('A' for Active; 'I' for Inactive)
ROOT
ATOM      1  C2' OXE d   1       0.552  -0.734  -0.986  0.00  0.00     0.078 C 
ATOM      2  C1' OXE d   1      -1.111  -1.428   1.167  0.00  0.00     0.078 C 
ATOM      3  C1  OXE d   1       0.381  -1.488   1.382  0.00  0.00    -0.078 A 
ATOM      4  C2  OXE d   1       1.187  -1.191   0.310  0.00  0.00    -0.078 A 
ATOM      5  C3  OXE d   1       2.570  -1.178   0.469  0.00  0.00     0.003 A 
ATOM      6  C4  OXE d   1       3.149  -1.612   1.668  0.00  0.00    -0.002 A 
ATOM      7  C5  OXE d   1       2.346  -1.956   2.760  0.00  0.00    -0.002 A 
ATOM      8  C6  OXE d   1       0.964  -1.859   2.648  0.00  0.00     0.003 A 
ENDROOT
TORSDOF 0
ENDMDL
