MODEL 1
REMARK minimizedAffinity -3.73820591
REMARK minimizedRMSD -1
REMARK  0 active torsions:
REMARK  status: ('A' for Active; 'I' for Inactive)
ROOT
ATOM      1  C2' OXE d   1       4.149  -5.077   2.469  0.00  0.00     0.078 C 
ATOM      2  C1' OXE d   1       4.244  -3.214   4.567  0.00  0.00     0.078 C 
ATOM      3  C1  OXE d   1       3.239  -2.983   3.466  0.00  0.00    -0.078 A 
ATOM      4  C2  OXE d   1       3.231  -3.875   2.420  0.00  0.00    -0.078 A 
ATOM      5  C3  OXE d   1       2.287  -3.739   1.406  0.00  0.00     0.003 A 
ATOM      6  C4  OXE d   1       1.449  -2.619   1.363  0.00  0.00    -0.002 A 
ATOM      7  C5  OXE d   1       1.468  -1.678   2.398  0.00  0.00    -0.002 A 
ATOM      8  C6  OXE d   1       2.325  -1.868   3.476  0.00  0.00     0.003 A 
ENDROOT
TORSDOF 0
ENDMDL
