MODEL 1
REMARK minimizedAffinity -1.02387273
REMARK minimizedRMSD -1
REMARK  0 active torsions:
REMARK  status: ('A' for Active; 'I' for Inactive)
ROOT
ATOM      1  C2' OXE d   1      -1.119  -0.356  -0.830  0.00  0.00     0.078 C 
ATOM      2  C1' OXE d   1       1.406  -1.450  -0.275  0.00  0.00     0.078 C 
ATOM      3  C1  OXE d   1       0.556  -1.014   0.893  0.00  0.00    -0.078 A 
ATOM      4  C2  OXE d   1      -0.659  -0.437   0.610  0.00  0.00    -0.078 A 
ATOM      5  C3  OXE d   1      -1.505  -0.067   1.651  0.00  0.00     0.003 A 
ATOM      6  C4  OXE d   1      -1.068  -0.136   2.979  0.00  0.00    -0.002 A 
ATOM      7  C5  OXE d   1       0.182  -0.684   3.287  0.00  0.00    -0.002 A 
ATOM      8  C6  OXE d   1       0.987  -1.166   2.260  0.00  0.00     0.003 A 
ENDROOT
TORSDOF 0
ENDMDL
