MODEL 1
REMARK minimizedAffinity 11.8715305
REMARK minimizedRMSD -1
REMARK  0 active torsions:
REMARK  status: ('A' for Active; 'I' for Inactive)
ROOT
ATOM      1  C2' OXE d   1      -4.590   0.165  -6.000  0.00  0.00     0.078 C 
ATOM      2  C1' OXE d   1      -2.332   0.767  -4.444  0.00  0.00     0.078 C 
ATOM      3  C1  OXE d   1      -3.609   1.515  -4.150  0.00  0.00    -0.078 A 
ATOM      4  C2  OXE d   1      -4.696   1.247  -4.947  0.00  0.00    -0.078 A 
ATOM      5  C3  OXE d   1      -5.913   1.869  -4.684  0.00  0.00     0.003 A 
ATOM      6  C4  OXE d   1      -6.000   2.876  -3.715  0.00  0.00    -0.002 A 
ATOM      7  C5  OXE d   1      -4.894   3.192  -2.919  0.00  0.00    -0.002 A 
ATOM      8  C6  OXE d   1      -3.705   2.492  -3.094  0.00  0.00     0.003 A 
ENDROOT
TORSDOF 0
ENDMDL
