MODEL 1
REMARK minimizedAffinity 7.03467989
REMARK minimizedRMSD -1
REMARK  0 active torsions:
REMARK  status: ('A' for Active; 'I' for Inactive)
ROOT
ATOM      1  C2' OXE d   1       3.408   1.580   0.011  0.00  0.00     0.078 C 
ATOM      2  C1' OXE d   1       5.759   1.301   1.519  0.00  0.00     0.078 C 
ATOM      3  C1  OXE d   1       5.295   2.698   1.191  0.00  0.00    -0.078 A 
ATOM      4  C2  OXE d   1       4.170   2.825   0.413  0.00  0.00    -0.078 A 
ATOM      5  C3  OXE d   1       3.668   4.091   0.126  0.00  0.00     0.003 A 
ATOM      6  C4  OXE d   1       4.385   5.237   0.493  0.00  0.00    -0.002 A 
ATOM      7  C5  OXE d   1       5.555   5.130   1.251  0.00  0.00    -0.002 A 
ATOM      8  C6  OXE d   1       6.000   3.872   1.644  0.00  0.00     0.003 A 
ENDROOT
TORSDOF 0
ENDMDL
