MODEL 1
REMARK minimizedAffinity -2.52037311
REMARK minimizedRMSD -1
REMARK  0 active torsions:
REMARK  status: ('A' for Active; 'I' for Inactive)
ROOT
ATOM      1  C2' OXE d   1       1.874  -2.979   1.409  0.00  0.00     0.078 C 
ATOM      2  C1' OXE d   1       1.249  -1.437  -0.852  0.00  0.00     0.078 C 
ATOM      3  C1  OXE d   1       0.496  -1.153   0.423  0.00  0.00    -0.078 A 
ATOM      4  C2  OXE d   1       0.775  -1.944   1.512  0.00  0.00    -0.078 A 
ATOM      5  C3  OXE d   1       0.148  -1.688   2.728  0.00  0.00     0.003 A 
ATOM      6  C4  OXE d   1      -0.874  -0.735   2.812  0.00  0.00    -0.002 A 
ATOM      7  C5  OXE d   1      -1.202   0.054   1.705  0.00  0.00    -0.002 A 
ATOM      8  C6  OXE d   1      -0.498  -0.113   0.517  0.00  0.00     0.003 A 
ENDROOT
TORSDOF 0
ENDMDL
