MODEL 1
REMARK minimizedAffinity 1.76071119
REMARK minimizedRMSD -1
REMARK  0 active torsions:
REMARK  status: ('A' for Active; 'I' for Inactive)
ROOT
ATOM      1  C2' OXE d   1      -1.601  -0.381   3.004  0.00  0.00     0.078 C 
ATOM      2  C1' OXE d   1      -0.622   1.327   1.002  0.00  0.00     0.078 C 
ATOM      3  C1  OXE d   1      -0.047  -0.065   1.082  0.00  0.00    -0.078 A 
ATOM      4  C2  OXE d   1      -0.499  -0.879   2.094  0.00  0.00    -0.078 A 
ATOM      5  C3  OXE d   1      -0.042  -2.191   2.179  0.00  0.00     0.003 A 
ATOM      6  C4  OXE d   1       0.985  -2.640   1.340  0.00  0.00    -0.002 A 
ATOM      7  C5  OXE d   1       1.487  -1.815   0.328  0.00  0.00    -0.002 A 
ATOM      8  C6  OXE d   1       0.953  -0.542   0.159  0.00  0.00     0.003 A 
ENDROOT
TORSDOF 0
ENDMDL
