MODEL 1
REMARK minimizedAffinity 6.58771372
REMARK minimizedRMSD -1
REMARK  0 active torsions:
REMARK  status: ('A' for Active; 'I' for Inactive)
ROOT
ATOM      1  C2' OXE d   1       2.666  -0.610  -0.377  0.00  0.00     0.078 C 
ATOM      2  C1' OXE d   1       5.161  -1.624   0.414  0.00  0.00     0.078 C 
ATOM      3  C1  OXE d   1       4.967  -0.129   0.448  0.00  0.00    -0.078 A 
ATOM      4  C2  OXE d   1       3.759   0.362   0.015  0.00  0.00    -0.078 A 
ATOM      5  C3  OXE d   1       3.508   1.729   0.078  0.00  0.00     0.003 A 
ATOM      6  C4  OXE d   1       4.527   2.622   0.433  0.00  0.00    -0.002 A 
ATOM      7  C5  OXE d   1       5.778   2.145   0.840  0.00  0.00    -0.002 A 
ATOM      8  C6  OXE d   1       6.000   0.774   0.893  0.00  0.00     0.003 A 
ENDROOT
TORSDOF 0
ENDMDL
