MODEL 1
REMARK minimizedAffinity -3.97358394
REMARK minimizedRMSD -1
REMARK  0 active torsions:
REMARK  status: ('A' for Active; 'I' for Inactive)
ROOT
ATOM      1  C2' OXE d   1       5.994   1.066  -4.697  0.00  0.00     0.078 C 
ATOM      2  C1' OXE d   1       3.340   0.537  -5.443  0.00  0.00     0.078 C 
ATOM      3  C1  OXE d   1       3.824   1.963  -5.529  0.00  0.00    -0.078 A 
ATOM      4  C2  OXE d   1       5.110   2.220  -5.117  0.00  0.00    -0.078 A 
ATOM      5  C3  OXE d   1       5.625   3.509  -5.227  0.00  0.00     0.003 A 
ATOM      6  C4  OXE d   1       4.797   4.572  -5.607  0.00  0.00    -0.002 A 
ATOM      7  C5  OXE d   1       3.473   4.339  -5.993  0.00  0.00    -0.002 A 
ATOM      8  C6  OXE d   1       2.985   3.037  -6.000  0.00  0.00     0.003 A 
ENDROOT
TORSDOF 0
ENDMDL
