MODEL 1
REMARK minimizedAffinity 10.5182629
REMARK minimizedRMSD -1
REMARK  0 active torsions:
REMARK  status: ('A' for Active; 'I' for Inactive)
ROOT
ATOM      1  C2' OXE d   1       4.581  -5.645   1.646  0.00  0.00     0.078 C 
ATOM      2  C1' OXE d   1       4.387  -3.822   3.772  0.00  0.00     0.078 C 
ATOM      3  C1  OXE d   1       3.526  -3.581   2.558  0.00  0.00    -0.078 A 
ATOM      4  C2  OXE d   1       3.661  -4.452   1.503  0.00  0.00    -0.078 A 
ATOM      5  C3  OXE d   1       2.851  -4.307   0.381  0.00  0.00     0.003 A 
ATOM      6  C4  OXE d   1       2.010  -3.194   0.253  0.00  0.00    -0.002 A 
ATOM      7  C5  OXE d   1       1.886  -2.274   1.299  0.00  0.00    -0.002 A 
ATOM      8  C6  OXE d   1       2.604  -2.475   2.472  0.00  0.00     0.003 A 
ENDROOT
TORSDOF 0
ENDMDL
