MODEL 1
REMARK minimizedAffinity 21.9584427
REMARK minimizedRMSD -1
REMARK  0 active torsions:
REMARK  status: ('A' for Active; 'I' for Inactive)
ROOT
ATOM      1  C   UNL d   1       5.053  -5.065   1.674  0.00  0.00     0.124 A 
ATOM      2  C1  UNL d   1       4.815  -4.142   2.683  0.00  0.00     0.062 A 
ATOM      3  C2  UNL d   1       3.833  -3.169   2.524  0.00  0.00     0.162 A 
ATOM      4  C3  UNL d   1       3.079  -3.115   1.352  0.00  0.00    -0.034 A 
ATOM      5  C4  UNL d   1       3.325  -4.046   0.341  0.00  0.00     0.162 A 
ATOM      6  C5  UNL d   1       4.308  -5.016   0.504  0.00  0.00     0.062 A 
ATOM      7  F   UNL d   1       4.537  -5.907  -0.472  0.00  0.00    -0.097 F 
ATOM      8  F1  UNL d   1       2.619  -4.022  -0.800  0.00  0.00    -0.096 F 
ATOM      9  I   UNL d   1       1.609  -1.661   1.110  0.00  0.00    -0.060 I 
ATOM     10  F2  UNL d   1       3.624  -2.291   3.516  0.00  0.00    -0.096 F 
ATOM     11  F3  UNL d   1       5.534  -4.187   3.814  0.00  0.00    -0.097 F 
ATOM     12  F4  UNL d   1       6.000  -6.000   1.829  0.00  0.00    -0.092 F 
ENDROOT
TORSDOF 0
ENDMDL
