MODEL 1
REMARK minimizedAffinity 1.32111096
REMARK minimizedRMSD -1
REMARK  0 active torsions:
REMARK  status: ('A' for Active; 'I' for Inactive)
ROOT
ATOM      1  C   UNL d   1       0.514  -0.514  -1.515  0.00  0.00     0.124 A 
ATOM      2  C1  UNL d   1      -0.463  -0.054  -0.642  0.00  0.00     0.062 A 
ATOM      3  C2  UNL d   1      -0.403  -0.379   0.710  0.00  0.00     0.162 A 
ATOM      4  C3  UNL d   1       0.639  -1.168   1.199  0.00  0.00    -0.034 A 
ATOM      5  C4  UNL d   1       1.616  -1.628   0.315  0.00  0.00     0.162 A 
ATOM      6  C5  UNL d   1       1.552  -1.300  -1.036  0.00  0.00     0.062 A 
ATOM      7  F   UNL d   1       2.496  -1.746  -1.877  0.00  0.00    -0.097 F 
ATOM      8  F1  UNL d   1       2.632  -2.388   0.751  0.00  0.00    -0.096 F 
ATOM      9  I   UNL d   1       0.732  -1.656   3.220  0.00  0.00    -0.060 I 
ATOM     10  F2  UNL d   1      -1.360   0.080   1.530  0.00  0.00    -0.096 F 
ATOM     11  F3  UNL d   1      -1.468   0.705  -1.103  0.00  0.00    -0.097 F 
ATOM     12  F4  UNL d   1       0.453  -0.201  -2.815  0.00  0.00    -0.092 F 
ENDROOT
TORSDOF 0
ENDMDL
