MODEL 1
REMARK minimizedAffinity 2.50163388
REMARK minimizedRMSD -1
REMARK  0 active torsions:
REMARK  status: ('A' for Active; 'I' for Inactive)
ROOT
ATOM      1  C   UNL d   1       4.023   1.996  -5.999  0.00  0.00     0.124 A 
ATOM      2  C1  UNL d   1       4.612   3.253  -5.998  0.00  0.00     0.062 A 
ATOM      3  C2  UNL d   1       3.820   4.397  -5.998  0.00  0.00     0.162 A 
ATOM      4  C3  UNL d   1       2.429   4.290  -5.998  0.00  0.00    -0.034 A 
ATOM      5  C4  UNL d   1       1.844   3.023  -5.999  0.00  0.00     0.162 A 
ATOM      6  C5  UNL d   1       2.640   1.882  -5.999  0.00  0.00     0.062 A 
ATOM      7  F   UNL d   1       2.069   0.669  -6.000  0.00  0.00    -0.097 F 
ATOM      8  F1  UNL d   1       0.510   2.884  -5.999  0.00  0.00    -0.096 F 
ATOM      9  I   UNL d   1       1.241   5.999  -5.998  0.00  0.00    -0.060 I 
ATOM     10  F2  UNL d   1       4.416   5.599  -5.998  0.00  0.00    -0.096 F 
ATOM     11  F3  UNL d   1       5.948   3.365  -5.999  0.00  0.00    -0.097 F 
ATOM     12  F4  UNL d   1       4.788   0.896  -5.999  0.00  0.00    -0.092 F 
ENDROOT
TORSDOF 0
ENDMDL
