MODEL 1
REMARK minimizedAffinity 15.481245
REMARK minimizedRMSD -1
REMARK  0 active torsions:
REMARK  status: ('A' for Active; 'I' for Inactive)
ROOT
ATOM      1  C   UNL d   1      -2.368  -0.431   1.455  0.00  0.00     0.124 A 
ATOM      2  C1  UNL d   1      -1.399  -0.476   2.449  0.00  0.00     0.062 A 
ATOM      3  C2  UNL d   1      -0.051  -0.551   2.109  0.00  0.00     0.162 A 
ATOM      4  C3  UNL d   1       0.336  -0.579   0.770  0.00  0.00    -0.034 A 
ATOM      5  C4  UNL d   1      -0.643  -0.534  -0.224  0.00  0.00     0.162 A 
ATOM      6  C5  UNL d   1      -1.989  -0.459   0.121  0.00  0.00     0.062 A 
ATOM      7  F   UNL d   1      -2.923  -0.415  -0.840  0.00  0.00    -0.097 F 
ATOM      8  F1  UNL d   1      -0.305  -0.560  -1.521  0.00  0.00    -0.096 F 
ATOM      9  I   UNL d   1       2.351  -0.691   0.258  0.00  0.00    -0.060 I 
ATOM     10  F2  UNL d   1       0.863  -0.594   3.090  0.00  0.00    -0.096 F 
ATOM     11  F3  UNL d   1      -1.763  -0.449   3.739  0.00  0.00    -0.097 F 
ATOM     12  F4  UNL d   1      -3.664  -0.360   1.785  0.00  0.00    -0.092 F 
ENDROOT
TORSDOF 0
ENDMDL
