MODEL 1
REMARK minimizedAffinity 18.1822033
REMARK minimizedRMSD -1
REMARK  0 active torsions:
REMARK  status: ('A' for Active; 'I' for Inactive)
ROOT
ATOM      1  C   UNL d   1      -1.761  -0.325   0.492  0.00  0.00     0.124 A 
ATOM      2  C1  UNL d   1      -1.200  -0.121  -0.761  0.00  0.00     0.062 A 
ATOM      3  C2  UNL d   1       0.183  -0.120  -0.916  0.00  0.00     0.162 A 
ATOM      4  C3  UNL d   1       1.015  -0.324   0.184  0.00  0.00    -0.034 A 
ATOM      5  C4  UNL d   1       0.444  -0.528   1.441  0.00  0.00     0.162 A 
ATOM      6  C5  UNL d   1      -0.939  -0.528   1.592  0.00  0.00     0.062 A 
ATOM      7  F   UNL d   1      -1.480  -0.726   2.803  0.00  0.00    -0.097 F 
ATOM      8  F1  UNL d   1       1.215  -0.728   2.521  0.00  0.00    -0.096 F 
ATOM      9  I   UNL d   1       3.084  -0.323  -0.045  0.00  0.00    -0.060 I 
ATOM     10  F2  UNL d   1       0.698   0.080  -2.139  0.00  0.00    -0.096 F 
ATOM     11  F3  UNL d   1      -1.992   0.077  -1.824  0.00  0.00    -0.097 F 
ATOM     12  F4  UNL d   1      -3.092  -0.325   0.640  0.00  0.00    -0.092 F 
ENDROOT
TORSDOF 0
ENDMDL
