MODEL 1
REMARK minimizedAffinity 23.3421078
REMARK minimizedRMSD -1
REMARK  0 active torsions:
REMARK  status: ('A' for Active; 'I' for Inactive)
ROOT
ATOM      1  C   UNL d   1      -0.644  -1.103   1.990  0.00  0.00     0.124 A 
ATOM      2  C1  UNL d   1       0.742  -1.079   1.912  0.00  0.00     0.062 A 
ATOM      3  C2  UNL d   1       1.371  -0.727   0.721  0.00  0.00     0.162 A 
ATOM      4  C3  UNL d   1       0.614  -0.396  -0.403  0.00  0.00    -0.034 A 
ATOM      5  C4  UNL d   1      -0.779  -0.423  -0.318  0.00  0.00     0.162 A 
ATOM      6  C5  UNL d   1      -1.403  -0.776   0.875  0.00  0.00     0.062 A 
ATOM      7  F   UNL d   1      -2.742  -0.799   0.948  0.00  0.00    -0.097 F 
ATOM      8  F1  UNL d   1      -1.537  -0.110  -1.379  0.00  0.00    -0.096 F 
ATOM      9  I   UNL d   1       1.550   0.131  -2.185  0.00  0.00    -0.060 I 
ATOM     10  F2  UNL d   1       2.711  -0.712   0.676  0.00  0.00    -0.096 F 
ATOM     11  F3  UNL d   1       1.478  -1.396   2.988  0.00  0.00    -0.097 F 
ATOM     12  F4  UNL d   1      -1.246  -1.443   3.136  0.00  0.00    -0.092 F 
ENDROOT
TORSDOF 0
ENDMDL
