MODEL 1
REMARK minimizedAffinity 22.6308784
REMARK minimizedRMSD -1
REMARK  0 active torsions:
REMARK  status: ('A' for Active; 'I' for Inactive)
ROOT
ATOM      1  C   UNL d   1       1.349  -1.347   1.725  0.00  0.00     0.124 A 
ATOM      2  C1  UNL d   1       0.026  -1.247   2.133  0.00  0.00     0.062 A 
ATOM      3  C2  UNL d   1      -0.961  -0.878   1.223  0.00  0.00     0.162 A 
ATOM      4  C3  UNL d   1      -0.629  -0.607  -0.105  0.00  0.00    -0.034 A 
ATOM      5  C4  UNL d   1       0.704  -0.709  -0.507  0.00  0.00     0.162 A 
ATOM      6  C5  UNL d   1       1.687  -1.078   0.406  0.00  0.00     0.062 A 
ATOM      7  F   UNL d   1       2.965  -1.174   0.010  0.00  0.00    -0.097 F 
ATOM      8  F1  UNL d   1       1.059  -0.456  -1.776  0.00  0.00    -0.096 F 
ATOM      9  I   UNL d   1      -2.101  -0.056  -1.468  0.00  0.00    -0.060 I 
ATOM     10  F2  UNL d   1      -2.231  -0.789   1.644  0.00  0.00    -0.096 F 
ATOM     11  F3  UNL d   1      -0.303  -1.505   3.407  0.00  0.00    -0.097 F 
ATOM     12  F4  UNL d   1       2.296  -1.701   2.603  0.00  0.00    -0.092 F 
ENDROOT
TORSDOF 0
ENDMDL
