MODEL 1
REMARK minimizedAffinity 1.47639108
REMARK minimizedRMSD -1
REMARK  0 active torsions:
REMARK  status: ('A' for Active; 'I' for Inactive)
ROOT
ATOM      1  C   UNL d   1       4.499   1.466  -2.632  0.00  0.00     0.172 C 
ATOM      2  N   UNL d   1       4.659   1.893  -4.002  0.00  0.00    -0.070 N 
ATOM      3  C1  UNL d   1       3.715   2.540  -4.752  0.00  0.00    -0.004 A 
ATOM      4  C2  UNL d   1       4.252   2.772  -6.000  0.00  0.00    -0.047 A 
ATOM      5  C3  UNL d   1       5.566   2.245  -5.999  0.00  0.00    -0.047 A 
ATOM      6  C4  UNL d   1       5.792   1.706  -4.750  0.00  0.00    -0.004 A 
ENDROOT
TORSDOF 0
ENDMDL
