MODEL 1
REMARK minimizedAffinity 6.18537712
REMARK minimizedRMSD -1
REMARK  0 active torsions:
REMARK  status: ('A' for Active; 'I' for Inactive)
ROOT
ATOM      1  C   UNL d   1       1.499   5.995   4.802  0.00  0.00     0.172 C 
ATOM      2  N   UNL d   1       2.223   5.385   3.712  0.00  0.00    -0.070 N 
ATOM      3  C1  UNL d   1       2.566   6.000   2.538  0.00  0.00    -0.004 A 
ATOM      4  C2  UNL d   1       3.246   5.084   1.764  0.00  0.00    -0.047 A 
ATOM      5  C3  UNL d   1       3.314   3.877   2.499  0.00  0.00    -0.047 A 
ATOM      6  C4  UNL d   1       2.673   4.091   3.701  0.00  0.00    -0.004 A 
ENDROOT
TORSDOF 0
ENDMDL
