MODEL 1
REMARK minimizedAffinity 2.48914599
REMARK minimizedRMSD -1
REMARK  0 active torsions:
REMARK  status: ('A' for Active; 'I' for Inactive)
ROOT
ATOM      1  C   UNL d   1       5.196  -4.596  -3.907  0.00  0.00     0.172 C 
ATOM      2  N   UNL d   1       4.012  -5.166  -4.507  0.00  0.00    -0.070 N 
ATOM      3  C1  UNL d   1       3.861  -5.481  -5.831  0.00  0.00    -0.004 A 
ATOM      4  C2  UNL d   1       2.595  -6.000  -6.000  0.00  0.00    -0.047 A 
ATOM      5  C3  UNL d   1       1.964  -5.995  -4.734  0.00  0.00    -0.047 A 
ATOM      6  C4  UNL d   1       2.863  -5.474  -3.828  0.00  0.00    -0.004 A 
ENDROOT
TORSDOF 0
ENDMDL
