MODEL 1
REMARK minimizedAffinity 2.71884227
REMARK minimizedRMSD -1
REMARK  0 active torsions:
REMARK  status: ('A' for Active; 'I' for Inactive)
ROOT
ATOM      1  C   UNL d   1       1.502  -5.991  -4.226  0.00  0.00     0.172 C 
ATOM      2  N   UNL d   1       2.934  -5.992  -4.414  0.00  0.00    -0.070 N 
ATOM      3  C1  UNL d   1       3.869  -5.992  -3.414  0.00  0.00    -0.004 A 
ATOM      4  C2  UNL d   1       5.116  -5.994  -4.002  0.00  0.00    -0.047 A 
ATOM      5  C3  UNL d   1       4.922  -5.995  -5.404  0.00  0.00    -0.047 A 
ATOM      6  C4  UNL d   1       3.562  -5.994  -5.631  0.00  0.00    -0.004 A 
ENDROOT
TORSDOF 0
ENDMDL
