MODEL 1
REMARK minimizedAffinity 0.715187907
REMARK minimizedRMSD -1
REMARK  0 active torsions:
REMARK  status: ('A' for Active; 'I' for Inactive)
ROOT
ATOM      1  C   UNL d   1      -4.493   2.372  -5.995  0.00  0.00     0.172 C 
ATOM      2  N   UNL d   1      -4.273   3.799  -5.996  0.00  0.00    -0.070 N 
ATOM      3  C1  UNL d   1      -5.251   4.758  -6.000  0.00  0.00    -0.004 A 
ATOM      4  C2  UNL d   1      -4.634   5.990  -6.000  0.00  0.00    -0.047 A 
ATOM      5  C3  UNL d   1      -3.237   5.764  -5.997  0.00  0.00    -0.047 A 
ATOM      6  C4  UNL d   1      -3.042   4.399  -5.995  0.00  0.00    -0.004 A 
ENDROOT
TORSDOF 0
ENDMDL
