MODEL 1
REMARK minimizedAffinity 3.0313518
REMARK minimizedRMSD -1
REMARK  0 active torsions:
REMARK  status: ('A' for Active; 'I' for Inactive)
ROOT
ATOM      1  C   UNL d   1       2.595  -2.117   0.316  0.00  0.00     0.172 C 
ATOM      2  N   UNL d   1       2.853  -0.746  -0.056  0.00  0.00    -0.070 N 
ATOM      3  C1  UNL d   1       3.535  -0.336  -1.170  0.00  0.00    -0.004 A 
ATOM      4  C2  UNL d   1       3.564   1.042  -1.165  0.00  0.00    -0.047 A 
ATOM      5  C3  UNL d   1       2.876   1.475  -0.007  0.00  0.00    -0.047 A 
ATOM      6  C4  UNL d   1       2.446   0.348   0.661  0.00  0.00    -0.004 A 
ENDROOT
TORSDOF 0
ENDMDL
