MODEL 1
REMARK minimizedAffinity 2.2248342
REMARK minimizedRMSD -1
REMARK  0 active torsions:
REMARK  status: ('A' for Active; 'I' for Inactive)
ROOT
ATOM      1  C   UNL d   1       1.591   5.901   5.722  0.00  0.00     0.172 C 
ATOM      2  N   UNL d   1       2.943   5.740   5.241  0.00  0.00    -0.070 N 
ATOM      3  C1  UNL d   1       3.373   5.999   3.967  0.00  0.00    -0.004 A 
ATOM      4  C2  UNL d   1       4.722   5.721   3.912  0.00  0.00    -0.047 A 
ATOM      5  C3  UNL d   1       5.116   5.279   5.197  0.00  0.00    -0.047 A 
ATOM      6  C4  UNL d   1       3.995   5.300   6.000  0.00  0.00    -0.004 A 
ENDROOT
TORSDOF 0
ENDMDL
