MODEL 1
REMARK minimizedAffinity 7.58823824
REMARK minimizedRMSD -1
REMARK  0 active torsions:
REMARK  status: ('A' for Active; 'I' for Inactive)
ROOT
ATOM      1  C   UNL d   1       3.756   1.573   2.399  0.00  0.00     0.172 C 
ATOM      2  N   UNL d   1       3.082   1.962   1.182  0.00  0.00    -0.070 N 
ATOM      3  C1  UNL d   1       2.041   1.293   0.597  0.00  0.00    -0.004 A 
ATOM      4  C2  UNL d   1       1.682   1.982  -0.541  0.00  0.00    -0.047 A 
ATOM      5  C3  UNL d   1       2.539   3.105  -0.644  0.00  0.00    -0.047 A 
ATOM      6  C4  UNL d   1       3.395   3.068   0.436  0.00  0.00    -0.004 A 
ENDROOT
TORSDOF 0
ENDMDL
