MODEL 1
REMARK minimizedAffinity 1.97813487
REMARK minimizedRMSD -1
REMARK  0 active torsions:
REMARK  status: ('A' for Active; 'I' for Inactive)
ROOT
ATOM      1  C   UNL d   1       3.250   2.140   2.564  0.00  0.00     0.172 C 
ATOM      2  N   UNL d   1       2.409   1.966   1.403  0.00  0.00    -0.070 N 
ATOM      3  C1  UNL d   1       2.543   2.631   0.214  0.00  0.00    -0.004 A 
ATOM      4  C2  UNL d   1       1.552   2.184  -0.633  0.00  0.00    -0.047 A 
ATOM      5  C3  UNL d   1       0.796   1.218   0.072  0.00  0.00    -0.047 A 
ATOM      6  C4  UNL d   1       1.348   1.103   1.330  0.00  0.00    -0.004 A 
ENDROOT
TORSDOF 0
ENDMDL
