MODEL 1
REMARK minimizedAffinity 3.99232841
REMARK minimizedRMSD -1
REMARK  0 active torsions:
REMARK  status: ('A' for Active; 'I' for Inactive)
ROOT
ATOM      1  C   UNL d   1      -5.665   5.964  -5.976  0.00  0.00     0.172 C 
ATOM      2  N   UNL d   1      -5.000   4.682  -5.985  0.00  0.00    -0.070 N 
ATOM      3  C1  UNL d   1      -5.620   3.461  -5.990  0.00  0.00    -0.004 A 
ATOM      4  C2  UNL d   1      -4.642   2.490  -6.000  0.00  0.00    -0.047 A 
ATOM      5  C3  UNL d   1      -3.390   3.151  -5.999  0.00  0.00    -0.047 A 
ATOM      6  C4  UNL d   1      -3.641   4.506  -5.990  0.00  0.00    -0.004 A 
ENDROOT
TORSDOF 0
ENDMDL
