MODEL 1
REMARK minimizedAffinity 9.14531898
REMARK minimizedRMSD -1
REMARK  0 active torsions:
REMARK  status: ('A' for Active; 'I' for Inactive)
ROOT
ATOM      1  C   UNL d   1      -4.599   5.874  -5.902  0.00  0.00     0.172 C 
ATOM      2  N   UNL d   1      -4.197   4.487  -5.922  0.00  0.00    -0.070 N 
ATOM      3  C1  UNL d   1      -5.041   3.412  -5.999  0.00  0.00    -0.004 A 
ATOM      4  C2  UNL d   1      -4.271   2.269  -5.993  0.00  0.00    -0.047 A 
ATOM      5  C3  UNL d   1      -2.917   2.671  -5.908  0.00  0.00    -0.047 A 
ATOM      6  C4  UNL d   1      -2.900   4.049  -5.865  0.00  0.00    -0.004 A 
ENDROOT
TORSDOF 0
ENDMDL
