MODEL 1
REMARK minimizedAffinity 10.1439381
REMARK minimizedRMSD -1
REMARK  0 active torsions:
REMARK  status: ('A' for Active; 'I' for Inactive)
ROOT
ATOM      1  C   UNL d   1      -4.873  -4.037   5.622  0.00  0.00     0.172 C 
ATOM      2  N   UNL d   1      -4.874  -2.979   4.639  0.00  0.00    -0.070 N 
ATOM      3  C1  UNL d   1      -3.762  -2.379   4.111  0.00  0.00    -0.004 A 
ATOM      4  C2  UNL d   1      -4.184  -1.424   3.212  0.00  0.00    -0.047 A 
ATOM      5  C3  UNL d   1      -5.599  -1.450   3.199  0.00  0.00    -0.047 A 
ATOM      6  C4  UNL d   1      -5.999  -2.422   4.092  0.00  0.00    -0.004 A 
ENDROOT
TORSDOF 0
ENDMDL
