MODEL 1
REMARK minimizedAffinity 8.85794449
REMARK minimizedRMSD -1
REMARK  0 active torsions:
REMARK  status: ('A' for Active; 'I' for Inactive)
ROOT
ATOM      1  C   UNL d   1       5.982   3.734  -2.431  0.00  0.00     0.172 C 
ATOM      2  N   UNL d   1       5.975   3.785  -3.874  0.00  0.00    -0.070 N 
ATOM      3  C1  UNL d   1       5.941   4.925  -4.632  0.00  0.00    -0.004 A 
ATOM      4  C2  UNL d   1       5.946   4.550  -5.958  0.00  0.00    -0.047 A 
ATOM      5  C3  UNL d   1       5.983   3.136  -5.998  0.00  0.00    -0.047 A 
ATOM      6  C4  UNL d   1       6.000   2.688  -4.694  0.00  0.00    -0.004 A 
ENDROOT
TORSDOF 0
ENDMDL
