MODEL 1
REMARK minimizedAffinity -0.640697062
REMARK minimizedRMSD -1
REMARK  0 active torsions:
REMARK  status: ('A' for Active; 'I' for Inactive)
ROOT
ATOM      1  C   UNL d   1       1.569  -0.988   2.046  0.00  0.00     0.020 A 
ATOM      2  C1  UNL d   1       1.957  -1.067   0.709  0.00  0.00     0.020 A 
ATOM      3  C2  UNL d   1       1.010  -0.904  -0.304  0.00  0.00     0.034 A 
ATOM      4  C3  UNL d   1      -0.330  -0.659   0.018  0.00  0.00     0.017 A 
ATOM      5  C4  UNL d   1      -0.719  -0.579   1.360  0.00  0.00     0.017 A 
ATOM      6  C5  UNL d   1       0.234  -0.744   2.371  0.00  0.00     0.034 A 
ATOM      7 Cl   UNL d   1      -2.353  -0.280   1.835  0.00  0.00    -0.070 Cl
ATOM      8 Cl1  UNL d   1      -1.447  -0.467  -1.286  0.00  0.00    -0.070 Cl
ENDROOT
TORSDOF 0
ENDMDL
