MODEL 1
REMARK minimizedAffinity 1.54633737
REMARK minimizedRMSD -1
REMARK  0 active torsions:
REMARK  status: ('A' for Active; 'I' for Inactive)
ROOT
ATOM      1  C   UNL d   1       0.421   5.293   4.857  0.00  0.00     0.020 A 
ATOM      2  C1  UNL d   1       1.068   5.789   5.988  0.00  0.00     0.020 A 
ATOM      3  C2  UNL d   1       2.449   6.000   5.966  0.00  0.00     0.034 A 
ATOM      4  C3  UNL d   1       3.186   5.715   4.811  0.00  0.00     0.017 A 
ATOM      5  C4  UNL d   1       2.535   5.217   3.676  0.00  0.00     0.017 A 
ATOM      6  C5  UNL d   1       1.153   5.007   3.704  0.00  0.00     0.034 A 
ATOM      7 Cl   UNL d   1       3.378   4.841   2.215  0.00  0.00    -0.070 Cl
ATOM      8 Cl1  UNL d   1       4.890   6.000   4.855  0.00  0.00    -0.070 Cl
ENDROOT
TORSDOF 0
ENDMDL
