MODEL 1
REMARK minimizedAffinity -0.0202824213
REMARK minimizedRMSD -1
REMARK  0 active torsions:
REMARK  status: ('A' for Active; 'I' for Inactive)
ROOT
ATOM      1  C   UNL d   1       1.441   5.994   4.259  0.00  0.00     0.020 A 
ATOM      2  C1  UNL d   1       2.285   5.994   5.369  0.00  0.00     0.020 A 
ATOM      3  C2  UNL d   1       3.670   5.995   5.193  0.00  0.00     0.034 A 
ATOM      4  C3  UNL d   1       4.216   5.997   3.904  0.00  0.00     0.017 A 
ATOM      5  C4  UNL d   1       3.368   5.997   2.791  0.00  0.00     0.017 A 
ATOM      6  C5  UNL d   1       1.982   5.996   2.973  0.00  0.00     0.034 A 
ATOM      7 Cl   UNL d   1       3.967   5.999   1.169  0.00  0.00    -0.070 Cl
ATOM      8 Cl1  UNL d   1       5.938   5.998   3.760  0.00  0.00    -0.070 Cl
ENDROOT
TORSDOF 0
ENDMDL
