MODEL 1
REMARK minimizedAffinity 7.88433027
REMARK minimizedRMSD -1
REMARK  0 active torsions:
REMARK  status: ('A' for Active; 'I' for Inactive)
ROOT
ATOM      1  C   UNL d   1       0.413  -0.128   0.905  0.00  0.00     0.020 A 
ATOM      2  C1  UNL d   1       1.082  -0.811   1.920  0.00  0.00     0.020 A 
ATOM      3  C2  UNL d   1       0.369  -1.623   2.804  0.00  0.00     0.034 A 
ATOM      4  C3  UNL d   1      -1.019  -1.756   2.674  0.00  0.00     0.017 A 
ATOM      5  C4  UNL d   1      -1.690  -1.071   1.654  0.00  0.00     0.017 A 
ATOM      6  C5  UNL d   1      -0.970  -0.258   0.773  0.00  0.00     0.034 A 
ATOM      7 Cl   UNL d   1      -3.400  -1.185   1.431  0.00  0.00    -0.070 Cl
ATOM      8 Cl1  UNL d   1      -1.837  -2.778   3.801  0.00  0.00    -0.070 Cl
ENDROOT
TORSDOF 0
ENDMDL
