MODEL 1
REMARK minimizedAffinity 4.15888023
REMARK minimizedRMSD -1
REMARK  0 active torsions:
REMARK  status: ('A' for Active; 'I' for Inactive)
ROOT
ATOM      1  C   UNL d   1       1.871   5.401   5.699  0.00  0.00     0.020 A 
ATOM      2  C1  UNL d   1       1.060   6.000   4.736  0.00  0.00     0.020 A 
ATOM      3  C2  UNL d   1       1.423   5.952   3.389  0.00  0.00     0.034 A 
ATOM      4  C3  UNL d   1       2.601   5.305   3.000  0.00  0.00     0.017 A 
ATOM      5  C4  UNL d   1       3.415   4.704   3.967  0.00  0.00     0.017 A 
ATOM      6  C5  UNL d   1       3.047   4.754   5.315  0.00  0.00     0.034 A 
ATOM      7 Cl   UNL d   1       4.884   3.886   3.564  0.00  0.00    -0.070 Cl
ATOM      8 Cl1  UNL d   1       2.989   5.284   1.316  0.00  0.00    -0.070 Cl
ENDROOT
TORSDOF 0
ENDMDL
