MODEL 1
REMARK minimizedAffinity -0.348994136
REMARK minimizedRMSD -1
REMARK  0 active torsions:
REMARK  status: ('A' for Active; 'I' for Inactive)
ROOT
ATOM      1  C   UNL d   1       3.130   6.000   1.512  0.00  0.00     0.020 A 
ATOM      2  C1  UNL d   1       4.407   6.000   2.072  0.00  0.00     0.020 A 
ATOM      3  C2  UNL d   1       4.561   6.000   3.460  0.00  0.00     0.034 A 
ATOM      4  C3  UNL d   1       3.436   6.000   4.292  0.00  0.00     0.017 A 
ATOM      5  C4  UNL d   1       2.155   6.000   3.729  0.00  0.00     0.017 A 
ATOM      6  C5  UNL d   1       2.007   6.000   2.339  0.00  0.00     0.034 A 
ATOM      7 Cl   UNL d   1       0.719   5.999   4.692  0.00  0.00    -0.070 Cl
ATOM      8 Cl1  UNL d   1       3.701   5.999   6.000  0.00  0.00    -0.070 Cl
ENDROOT
TORSDOF 0
ENDMDL
