MODEL 1
REMARK minimizedAffinity 3.59066033
REMARK minimizedRMSD -1
REMARK  0 active torsions:
REMARK  status: ('A' for Active; 'I' for Inactive)
ROOT
ATOM      1  C   UNL d   1       1.456  -1.825   0.777  0.00  0.00     0.020 A 
ATOM      2  C1  UNL d   1       0.914  -0.954  -0.167  0.00  0.00     0.020 A 
ATOM      3  C2  UNL d   1      -0.262  -0.257   0.120  0.00  0.00     0.034 A 
ATOM      4  C3  UNL d   1      -0.899  -0.430   1.354  0.00  0.00     0.017 A 
ATOM      5  C4  UNL d   1      -0.354  -1.305   2.301  0.00  0.00     0.017 A 
ATOM      6  C5  UNL d   1       0.823  -2.000   2.009  0.00  0.00     0.034 A 
ATOM      7 Cl   UNL d   1      -1.083  -1.570   3.846  0.00  0.00    -0.070 Cl
ATOM      8 Cl1  UNL d   1      -2.349   0.464   1.642  0.00  0.00    -0.070 Cl
ENDROOT
TORSDOF 0
ENDMDL
