MODEL 1
REMARK minimizedAffinity -4.22126245
REMARK minimizedRMSD -1
REMARK  0 active torsions:
REMARK  status: ('A' for Active; 'I' for Inactive)
ROOT
ATOM      1  C   UNL d   1       1.870  -0.357   2.787  0.00  0.00     0.077 C 
ATOM      2  C1  UNL d   1       1.019  -0.558   1.568  0.00  0.00    -0.074 A 
ATOM      3  C2  UNL d   1       1.600  -0.784   0.316  0.00  0.00    -0.005 A 
ATOM      4  C3  UNL d   1       0.796  -0.979  -0.807  0.00  0.00     0.006 A 
ATOM      5  C4  UNL d   1      -0.594  -0.949  -0.690  0.00  0.00    -0.005 A 
ATOM      6  C5  UNL d   1      -1.192  -0.726   0.554  0.00  0.00    -0.074 A 
ATOM      7  C6  UNL d   1      -2.685  -0.701   0.699  0.00  0.00     0.077 C 
ATOM      8  C7  UNL d   1      -0.378  -0.538   1.679  0.00  0.00    -0.001 A 
ENDROOT
TORSDOF 0
ENDMDL
