MODEL 1
REMARK minimizedAffinity -5.30969238
REMARK minimizedRMSD -1
REMARK  0 active torsions:
REMARK  status: ('A' for Active; 'I' for Inactive)
ROOT
ATOM      1  C   UNL d   1       1.774  -1.276  -1.698  0.00  0.00     0.077 C 
ATOM      2  C1  UNL d   1       0.915  -0.812  -0.560  0.00  0.00    -0.074 A 
ATOM      3  C2  UNL d   1      -0.397  -0.380  -0.779  0.00  0.00    -0.005 A 
ATOM      4  C3  UNL d   1      -1.187   0.040   0.291  0.00  0.00     0.006 A 
ATOM      5  C4  UNL d   1      -0.674   0.032   1.589  0.00  0.00    -0.005 A 
ATOM      6  C5  UNL d   1       0.635  -0.396   1.827  0.00  0.00    -0.074 A 
ATOM      7  C6  UNL d   1       1.199  -0.420   3.217  0.00  0.00     0.077 C 
ATOM      8  C7  UNL d   1       1.421  -0.823   0.748  0.00  0.00    -0.001 A 
ENDROOT
TORSDOF 0
ENDMDL
