MODEL 1
REMARK minimizedAffinity -3.01901174
REMARK minimizedRMSD -1
REMARK  0 active torsions:
REMARK  status: ('A' for Active; 'I' for Inactive)
ROOT
ATOM      1  C   UNL d   1       1.529   0.018   2.533  0.00  0.00     0.077 C 
ATOM      2  C1  UNL d   1       0.591   0.069   1.363  0.00  0.00    -0.074 A 
ATOM      3  C2  UNL d   1      -0.621  -0.630   1.383  0.00  0.00    -0.005 A 
ATOM      4  C3  UNL d   1      -1.487  -0.566   0.291  0.00  0.00     0.006 A 
ATOM      5  C4  UNL d   1      -1.151   0.195  -0.829  0.00  0.00    -0.005 A 
ATOM      6  C5  UNL d   1       0.056   0.901  -0.866  0.00  0.00    -0.074 A 
ATOM      7  C6  UNL d   1       0.427   1.732  -2.058  0.00  0.00     0.077 C 
ATOM      8  C7  UNL d   1       0.918   0.838   0.237  0.00  0.00    -0.001 A 
ENDROOT
TORSDOF 0
ENDMDL
