MODEL 1
REMARK minimizedAffinity -4.50464344
REMARK minimizedRMSD -1
REMARK  0 active torsions:
REMARK  status: ('A' for Active; 'I' for Inactive)
ROOT
ATOM      1  C   UNL d   1       1.953  -0.241   2.976  0.00  0.00     0.077 C 
ATOM      2  C1  UNL d   1       0.750  -0.215   2.081  0.00  0.00    -0.074 A 
ATOM      3  C2  UNL d   1      -0.495  -0.660   2.536  0.00  0.00    -0.005 A 
ATOM      4  C3  UNL d   1      -1.607  -0.621   1.695  0.00  0.00     0.006 A 
ATOM      5  C4  UNL d   1      -1.486  -0.138   0.392  0.00  0.00    -0.005 A 
ATOM      6  C5  UNL d   1      -0.249   0.313  -0.081  0.00  0.00    -0.074 A 
ATOM      7  C6  UNL d   1      -0.103   0.845  -1.476  0.00  0.00     0.077 C 
ATOM      8  C7  UNL d   1       0.862   0.277   0.773  0.00  0.00    -0.001 A 
ENDROOT
TORSDOF 0
ENDMDL
