MODEL 1
REMARK minimizedAffinity -3.69037533
REMARK minimizedRMSD -1
REMARK  0 active torsions:
REMARK  status: ('A' for Active; 'I' for Inactive)
ROOT
ATOM      1  C   UNL d   1       1.935  -0.518   2.935  0.00  0.00     0.077 C 
ATOM      2  C1  UNL d   1       0.935  -0.236   1.854  0.00  0.00    -0.074 A 
ATOM      3  C2  UNL d   1       1.329  -0.148   0.515  0.00  0.00    -0.005 A 
ATOM      4  C3  UNL d   1       0.386   0.106  -0.481  0.00  0.00     0.006 A 
ATOM      5  C4  UNL d   1      -0.958   0.275  -0.149  0.00  0.00    -0.005 A 
ATOM      6  C5  UNL d   1      -1.371   0.190   1.185  0.00  0.00    -0.074 A 
ATOM      7  C6  UNL d   1      -2.814   0.360   1.558  0.00  0.00     0.077 C 
ATOM      8  C7  UNL d   1      -0.419  -0.072   2.179  0.00  0.00    -0.001 A 
ENDROOT
TORSDOF 0
ENDMDL
