MODEL 1
REMARK minimizedAffinity -4.08799839
REMARK minimizedRMSD -1
REMARK  2 active torsions:
REMARK  status: ('A' for Active; 'I' for Inactive)
REMARK    1  A    between atoms: C1_2  and  C2_3 
REMARK    2  A    between atoms: C2_3  and  C3_4 
ROOT
ATOM      1  C3  UNL d   1      -0.393  -0.037   1.008  0.00  0.00    -0.075 A 
ATOM      2  C4  UNL d   1       0.824   0.107   1.690  0.00  0.00     0.002 A 
ATOM      3  C5  UNL d   1       1.944  -0.632   1.306  0.00  0.00     0.002 A 
ATOM      4  C6  UNL d   1       1.859  -1.530   0.245  0.00  0.00    -0.004 A 
ATOM      5  C7  UNL d   1       0.650  -1.694  -0.429  0.00  0.00     0.002 A 
ATOM      6  C8  UNL d   1      -0.470  -0.953  -0.050  0.00  0.00     0.002 A 
ENDROOT
BRANCH   1   7
ATOM      7  C2  UNL d   1      -1.600   0.781   1.400  0.00  0.00     0.056 C 
BRANCH   7   8
ATOM      8  C1  UNL d   1      -2.730   0.759   0.366  0.00  0.00     0.007 C 
ATOM      9  C   UNL d   1      -3.393   2.116   0.172  0.00  0.00     0.009 C 
ENDBRANCH   7   8
ENDBRANCH   1   7
TORSDOF 2
ENDMDL
