MODEL 1
REMARK minimizedAffinity 10.54249
REMARK minimizedRMSD -1
REMARK  2 active torsions:
REMARK  status: ('A' for Active; 'I' for Inactive)
REMARK    1  A    between atoms: C1_2  and  C2_3 
REMARK    2  A    between atoms: C2_3  and  C3_4 
ROOT
ATOM      1  C3  UNL d   1       1.197  -1.550   1.302  0.00  0.00    -0.075 A 
ATOM      2  C4  UNL d   1      -0.089  -1.113   0.954  0.00  0.00     0.002 A 
ATOM      3  C5  UNL d   1      -0.927  -1.921   0.185  0.00  0.00     0.002 A 
ATOM      4  C6  UNL d   1      -0.488  -3.168  -0.254  0.00  0.00    -0.004 A 
ATOM      5  C7  UNL d   1       0.794  -3.605   0.072  0.00  0.00     0.002 A 
ATOM      6  C8  UNL d   1       1.634  -2.800   0.845  0.00  0.00     0.002 A 
ENDROOT
BRANCH   1   7
ATOM      7  C2  UNL d   1       2.098  -0.693   2.159  0.00  0.00     0.056 C 
BRANCH   7   8
ATOM      8  C1  UNL d   1       1.516  -0.358   3.536  0.00  0.00     0.007 C 
ATOM      9  C   UNL d   1       1.290  -1.586   4.408  0.00  0.00     0.009 C 
ENDBRANCH   7   8
ENDBRANCH   1   7
TORSDOF 2
ENDMDL
