MODEL 1
REMARK minimizedAffinity 1.64854646
REMARK minimizedRMSD -1
REMARK  2 active torsions:
REMARK  status: ('A' for Active; 'I' for Inactive)
REMARK    1  A    between atoms: C1_2  and  C2_3 
REMARK    2  A    between atoms: C2_3  and  C3_4 
ROOT
ATOM      1  C3  UNL d   1      -1.109  -1.238   0.857  0.00  0.00    -0.075 A 
ATOM      2  C4  UNL d   1      -2.192  -0.566   0.273  0.00  0.00     0.002 A 
ATOM      3  C5  UNL d   1      -2.550   0.711   0.705  0.00  0.00     0.002 A 
ATOM      4  C6  UNL d   1      -1.837   1.328   1.731  0.00  0.00    -0.004 A 
ATOM      5  C7  UNL d   1      -0.769   0.663   2.330  0.00  0.00     0.002 A 
ATOM      6  C8  UNL d   1      -0.406  -0.614   1.896  0.00  0.00     0.002 A 
ENDROOT
BRANCH   1   7
ATOM      7  C2  UNL d   1      -0.698  -2.608   0.373  0.00  0.00     0.056 C 
BRANCH   7   8
ATOM      8  C1  UNL d   1       0.755  -2.692  -0.106  0.00  0.00     0.007 C 
ATOM      9  C   UNL d   1       1.056  -3.961  -0.891  0.00  0.00     0.009 C 
ENDBRANCH   7   8
ENDBRANCH   1   7
TORSDOF 2
ENDMDL
