MODEL 1
REMARK minimizedAffinity 1.21948135
REMARK minimizedRMSD -1
REMARK  2 active torsions:
REMARK  status: ('A' for Active; 'I' for Inactive)
REMARK    1  A    between atoms: C1_2  and  C2_3 
REMARK    2  A    between atoms: C2_3  and  C3_4 
ROOT
ATOM      1  C3  UNL d   1       2.865  -2.875  -0.047  0.00  0.00    -0.075 A 
ATOM      2  C4  UNL d   1       2.982  -1.570   0.454  0.00  0.00     0.002 A 
ATOM      3  C5  UNL d   1       1.848  -0.858   0.847  0.00  0.00     0.002 A 
ATOM      4  C6  UNL d   1       0.585  -1.436   0.735  0.00  0.00    -0.004 A 
ATOM      5  C7  UNL d   1       0.456  -2.725   0.222  0.00  0.00     0.002 A 
ATOM      6  C8  UNL d   1       1.589  -3.441  -0.168  0.00  0.00     0.002 A 
ENDROOT
BRANCH   1   7
ATOM      7  C2  UNL d   1       4.090  -3.662  -0.447  0.00  0.00     0.056 C 
BRANCH   7   8
ATOM      8  C1  UNL d   1       4.081  -5.117   0.033  0.00  0.00     0.007 C 
ATOM      9  C   UNL d   1       5.430  -5.583   0.564  0.00  0.00     0.009 C 
ENDBRANCH   7   8
ENDBRANCH   1   7
TORSDOF 2
ENDMDL
