MODEL 1
REMARK minimizedAffinity 1.84966934
REMARK minimizedRMSD -1
REMARK  2 active torsions:
REMARK  status: ('A' for Active; 'I' for Inactive)
REMARK    1  A    between atoms: C1_2  and  C2_3 
REMARK    2  A    between atoms: C2_3  and  C3_4 
ROOT
ATOM      1  C3  UNL d   1       0.232  -0.430   1.164  0.00  0.00    -0.075 A 
ATOM      2  C4  UNL d   1      -0.826  -1.291   0.835  0.00  0.00     0.002 A 
ATOM      3  C5  UNL d   1      -0.605  -2.408   0.030  0.00  0.00     0.002 A 
ATOM      4  C6  UNL d   1       0.671  -2.674  -0.463  0.00  0.00    -0.004 A 
ATOM      5  C7  UNL d   1       1.725  -1.817  -0.156  0.00  0.00     0.002 A 
ATOM      6  C8  UNL d   1       1.508  -0.700   0.652  0.00  0.00     0.002 A 
ENDROOT
BRANCH   1   7
ATOM      7  C2  UNL d   1       0.005   0.765   2.059  0.00  0.00     0.056 C 
BRANCH   7   8
ATOM      8  C1  UNL d   1      -1.467   1.166   2.203  0.00  0.00     0.007 C 
ATOM      9  C   UNL d   1      -1.926   1.255   3.653  0.00  0.00     0.009 C 
ENDBRANCH   7   8
ENDBRANCH   1   7
TORSDOF 2
ENDMDL
