MODEL 1
REMARK minimizedAffinity 3.33889842
REMARK minimizedRMSD -1
REMARK  2 active torsions:
REMARK  status: ('A' for Active; 'I' for Inactive)
REMARK    1  A    between atoms: C1_2  and  C2_3 
REMARK    2  A    between atoms: C2_3  and  C3_4 
ROOT
ATOM      1  C3  UNL d   1       2.094  -1.169   0.444  0.00  0.00    -0.075 A 
ATOM      2  C4  UNL d   1       1.213  -1.954  -0.313  0.00  0.00     0.002 A 
ATOM      3  C5  UNL d   1      -0.158  -1.933  -0.052  0.00  0.00     0.002 A 
ATOM      4  C6  UNL d   1      -0.662  -1.137   0.974  0.00  0.00    -0.004 A 
ATOM      5  C7  UNL d   1       0.207  -0.366   1.744  0.00  0.00     0.002 A 
ATOM      6  C8  UNL d   1       1.578  -0.382   1.482  0.00  0.00     0.002 A 
ENDROOT
BRANCH   1   7
ATOM      7  C2  UNL d   1       3.575  -1.165   0.147  0.00  0.00     0.056 C 
BRANCH   7   8
ATOM      8  C1  UNL d   1       4.461  -1.095   1.395  0.00  0.00     0.007 C 
ATOM      9  C   UNL d   1       5.928  -1.383   1.106  0.00  0.00     0.009 C 
ENDBRANCH   7   8
ENDBRANCH   1   7
TORSDOF 2
ENDMDL
