MODEL 1
REMARK minimizedAffinity 4.16077852
REMARK minimizedRMSD -1
REMARK  2 active torsions:
REMARK  status: ('A' for Active; 'I' for Inactive)
REMARK    1  A    between atoms: C1_2  and  C2_3 
REMARK    2  A    between atoms: C2_3  and  C3_4 
ROOT
ATOM      1  C3  UNL d   1       0.539  -1.653  -0.147  0.00  0.00    -0.075 A 
ATOM      2  C4  UNL d   1       1.470  -0.749   0.386  0.00  0.00     0.002 A 
ATOM      3  C5  UNL d   1       1.105   0.119   1.415  0.00  0.00     0.002 A 
ATOM      4  C6  UNL d   1      -0.195   0.102   1.917  0.00  0.00    -0.004 A 
ATOM      5  C7  UNL d   1      -1.132  -0.780   1.383  0.00  0.00     0.002 A 
ATOM      6  C8  UNL d   1      -0.768  -1.653   0.356  0.00  0.00     0.002 A 
ENDROOT
BRANCH   1   7
ATOM      7  C2  UNL d   1       0.937  -2.616  -1.241  0.00  0.00     0.056 C 
BRANCH   7   8
ATOM      8  C1  UNL d   1       0.398  -2.243  -2.626  0.00  0.00     0.007 C 
ATOM      9  C   UNL d   1       0.763  -3.254  -3.704  0.00  0.00     0.009 C 
ENDBRANCH   7   8
ENDBRANCH   1   7
TORSDOF 2
ENDMDL
