MODEL 1
REMARK minimizedAffinity 0.913520634
REMARK minimizedRMSD -1
REMARK  2 active torsions:
REMARK  status: ('A' for Active; 'I' for Inactive)
REMARK    1  A    between atoms: C1_2  and  C2_3 
REMARK    2  A    between atoms: C2_3  and  C3_4 
ROOT
ATOM      1  C3  UNL d   1       0.805  -2.011   0.003  0.00  0.00    -0.075 A 
ATOM      2  C4  UNL d   1       0.786  -3.366  -0.358  0.00  0.00     0.002 A 
ATOM      3  C5  UNL d   1       1.963  -4.016  -0.732  0.00  0.00     0.002 A 
ATOM      4  C6  UNL d   1       3.169  -3.319  -0.759  0.00  0.00    -0.004 A 
ATOM      5  C7  UNL d   1       3.197  -1.969  -0.419  0.00  0.00     0.002 A 
ATOM      6  C8  UNL d   1       2.022  -1.317  -0.041  0.00  0.00     0.002 A 
ENDROOT
BRANCH   1   7
ATOM      7  C2  UNL d   1      -0.459  -1.309   0.437  0.00  0.00     0.056 C 
BRANCH   7   8
ATOM      8  C1  UNL d   1      -0.233  -0.195   1.464  0.00  0.00     0.007 C 
ATOM      9  C   UNL d   1       1.103  -0.306   2.186  0.00  0.00     0.009 C 
ENDBRANCH   7   8
ENDBRANCH   1   7
TORSDOF 2
ENDMDL
