MODEL 1
REMARK minimizedAffinity 6.38138533
REMARK minimizedRMSD -1
REMARK  2 active torsions:
REMARK  status: ('A' for Active; 'I' for Inactive)
REMARK    1  A    between atoms: C1_2  and  C2_3 
REMARK    2  A    between atoms: C2_3  and  C3_4 
ROOT
ATOM      1  C3  UNL d   1       1.077  -2.752   0.081  0.00  0.00    -0.075 A 
ATOM      2  C4  UNL d   1       1.948  -1.926   0.807  0.00  0.00     0.002 A 
ATOM      3  C5  UNL d   1       1.459  -0.825   1.510  0.00  0.00     0.002 A 
ATOM      4  C6  UNL d   1       0.097  -0.528   1.486  0.00  0.00    -0.004 A 
ATOM      5  C7  UNL d   1      -0.774  -1.332   0.755  0.00  0.00     0.002 A 
ATOM      6  C8  UNL d   1      -0.288  -2.437   0.055  0.00  0.00     0.002 A 
ENDROOT
BRANCH   1   7
ATOM      7  C2  UNL d   1       1.596  -3.963  -0.657  0.00  0.00     0.056 C 
BRANCH   7   8
ATOM      8  C1  UNL d   1       3.122  -4.106  -0.626  0.00  0.00     0.007 C 
ATOM      9  C   UNL d   1       3.598  -5.524  -0.910  0.00  0.00     0.009 C 
ENDBRANCH   7   8
ENDBRANCH   1   7
TORSDOF 2
ENDMDL
