MODEL 1
REMARK minimizedAffinity -5.03957558
REMARK minimizedRMSD -1
REMARK  2 active torsions:
REMARK  status: ('A' for Active; 'I' for Inactive)
REMARK    1  A    between atoms: C1_2  and  C2_3 
REMARK    2  A    between atoms: C2_3  and  C3_4 
ROOT
ATOM      1  C3  UNL d   1      -1.361  -0.805   1.478  0.00  0.00    -0.075 A 
ATOM      2  C4  UNL d   1      -2.134  -1.602   0.622  0.00  0.00     0.002 A 
ATOM      3  C5  UNL d   1      -1.584  -2.734   0.019  0.00  0.00     0.002 A 
ATOM      4  C6  UNL d   1      -0.255  -3.077   0.256  0.00  0.00    -0.004 A 
ATOM      5  C7  UNL d   1       0.527  -2.283   1.092  0.00  0.00     0.002 A 
ATOM      6  C8  UNL d   1      -0.021  -1.152   1.700  0.00  0.00     0.002 A 
ENDROOT
BRANCH   1   7
ATOM      7  C2  UNL d   1      -1.958   0.404   2.157  0.00  0.00     0.056 C 
BRANCH   7   8
ATOM      8  C1  UNL d   1      -2.228   1.580   1.212  0.00  0.00     0.007 C 
ATOM      9  C   UNL d   1      -3.390   1.330   0.259  0.00  0.00     0.009 C 
ENDBRANCH   7   8
ENDBRANCH   1   7
TORSDOF 2
ENDMDL
