MODEL 1
REMARK minimizedAffinity -2.74844527
REMARK minimizedRMSD -1
REMARK  2 active torsions:
REMARK  status: ('A' for Active; 'I' for Inactive)
REMARK    1  A    between atoms: C1_2  and  C2_3 
REMARK    2  A    between atoms: C2_3  and  C3_4 
ROOT
ATOM      1  C3  UNL d   1      -0.640  -1.549   0.553  0.00  0.00    -0.075 A 
ATOM      2  C4  UNL d   1      -0.448  -2.750  -0.146  0.00  0.00     0.002 A 
ATOM      3  C5  UNL d   1       0.839  -3.192  -0.455  0.00  0.00     0.002 A 
ATOM      4  C6  UNL d   1       1.947  -2.436  -0.079  0.00  0.00    -0.004 A 
ATOM      5  C7  UNL d   1       1.768  -1.234   0.602  0.00  0.00     0.002 A 
ATOM      6  C8  UNL d   1       0.482  -0.792   0.917  0.00  0.00     0.002 A 
ENDROOT
BRANCH   1   7
ATOM      7  C2  UNL d   1      -2.028  -1.080   0.917  0.00  0.00     0.056 C 
BRANCH   7   8
ATOM      8  C1  UNL d   1      -2.128   0.426   1.183  0.00  0.00     0.007 C 
ATOM      9  C   UNL d   1      -3.356   1.067   0.550  0.00  0.00     0.009 C 
ENDBRANCH   7   8
ENDBRANCH   1   7
TORSDOF 2
ENDMDL
