MODEL 1
REMARK minimizedAffinity 4.3493228
REMARK minimizedRMSD -1
REMARK  0 active torsions:
REMARK  status: ('A' for Active; 'I' for Inactive)
ROOT
ATOM      1  O1  BZF d   1       0.813   2.927   0.269  0.00  0.00    -0.204 OA
ATOM      2  C2  BZF d   1       0.346   3.398  -0.943  0.00  0.00     0.174 A 
ATOM      3  C3  BZF d   1       0.488   2.465  -1.906  0.00  0.00    -0.012 A 
ATOM      4  C3A BZF d   1       0.996   1.307  -1.236  0.00  0.00    -0.107 A 
ATOM      5  C4  BZF d   1       1.327   0.050  -1.655  0.00  0.00     0.055 A 
ATOM      6  C5  BZF d   1       1.863  -0.823  -0.763  0.00  0.00    -0.016 A 
ATOM      7  C6  BZF d   1       2.087  -0.472   0.552  0.00  0.00     0.022 A 
ATOM      8  C7  BZF d   1       1.769   0.761   1.016  0.00  0.00     0.029 A 
ATOM      9  C7A BZF d   1       1.197   1.635   0.124  0.00  0.00     0.058 A 
ENDROOT
TORSDOF 0
ENDMDL
