MODEL 1
REMARK minimizedAffinity 5.57287502
REMARK minimizedRMSD -1
REMARK  0 active torsions:
REMARK  status: ('A' for Active; 'I' for Inactive)
ROOT
ATOM      1  O1  BZF d   1      -3.004   5.150   1.902  0.00  0.00    -0.204 OA
ATOM      2  C2  BZF d   1      -2.352   5.513   3.065  0.00  0.00     0.174 A 
ATOM      3  C3  BZF d   1      -2.367   4.502   3.957  0.00  0.00    -0.012 A 
ATOM      4  C3A BZF d   1      -2.992   3.409   3.278  0.00  0.00    -0.107 A 
ATOM      5  C4  BZF d   1      -3.283   2.123   3.635  0.00  0.00     0.055 A 
ATOM      6  C5  BZF d   1      -3.964   1.333   2.765  0.00  0.00    -0.016 A 
ATOM      7  C6  BZF d   1      -4.375   1.797   1.532  0.00  0.00     0.022 A 
ATOM      8  C7  BZF d   1      -4.105   3.063   1.131  0.00  0.00     0.029 A 
ATOM      9  C7A BZF d   1      -3.388   3.854   1.995  0.00  0.00     0.058 A 
ENDROOT
TORSDOF 0
ENDMDL
