MODEL 1
REMARK minimizedAffinity -4.66743708
REMARK minimizedRMSD -1
REMARK  0 active torsions:
REMARK  status: ('A' for Active; 'I' for Inactive)
ROOT
ATOM      1  O1  BZF d   1       0.901   2.576  -2.980  0.00  0.00    -0.204 OA
ATOM      2  C2  BZF d   1       0.148   3.720  -2.795  0.00  0.00     0.174 A 
ATOM      3  C3  BZF d   1      -0.167   3.879  -1.493  0.00  0.00    -0.012 A 
ATOM      4  C3A BZF d   1       0.504   2.816  -0.811  0.00  0.00    -0.107 A 
ATOM      5  C4  BZF d   1       0.589   2.449   0.502  0.00  0.00     0.055 A 
ATOM      6  C5  BZF d   1       1.265   1.316   0.829  0.00  0.00    -0.016 A 
ATOM      7  C6  BZF d   1       1.863   0.525  -0.130  0.00  0.00     0.022 A 
ATOM      8  C7  BZF d   1       1.810   0.851  -1.445  0.00  0.00     0.029 A 
ATOM      9  C7A BZF d   1       1.155   2.012  -1.775  0.00  0.00     0.058 A 
ENDROOT
TORSDOF 0
ENDMDL
