MODEL 1
REMARK minimizedAffinity 1.06954002
REMARK minimizedRMSD -1
REMARK  0 active torsions:
REMARK  status: ('A' for Active; 'I' for Inactive)
ROOT
ATOM      1  O1  BZF d   1       1.626  -1.835   0.478  0.00  0.00    -0.204 OA
ATOM      2  C2  BZF d   1       1.253  -2.735  -0.501  0.00  0.00     0.174 A 
ATOM      3  C3  BZF d   1       0.679  -2.098  -1.543  0.00  0.00    -0.012 A 
ATOM      4  C3A BZF d   1       0.778  -0.705  -1.233  0.00  0.00    -0.107 A 
ATOM      5  C4  BZF d   1       0.400   0.432  -1.888  0.00  0.00     0.055 A 
ATOM      6  C5  BZF d   1       0.574   1.634  -1.279  0.00  0.00    -0.016 A 
ATOM      7  C6  BZF d   1       1.117   1.736  -0.015  0.00  0.00     0.022 A 
ATOM      8  C7  BZF d   1       1.512   0.637   0.672  0.00  0.00     0.029 A 
ATOM      9  C7A BZF d   1       1.368  -0.577   0.046  0.00  0.00     0.058 A 
ENDROOT
TORSDOF 0
ENDMDL
