MODEL 1
REMARK minimizedAffinity -2.79739571
REMARK minimizedRMSD -1
REMARK  0 active torsions:
REMARK  status: ('A' for Active; 'I' for Inactive)
ROOT
ATOM      1  O1  BZF d   1       0.997  -0.267  -2.374  0.00  0.00    -0.204 OA
ATOM      2  C2  BZF d   1       0.956  -1.466  -1.689  0.00  0.00     0.174 A 
ATOM      3  C3  BZF d   1       1.076  -1.263  -0.361  0.00  0.00    -0.012 A 
ATOM      4  C3A BZF d   1       1.108   0.158  -0.199  0.00  0.00    -0.107 A 
ATOM      5  C4  BZF d   1       1.200   0.977   0.890  0.00  0.00     0.055 A 
ATOM      6  C5  BZF d   1       1.280   2.321   0.701  0.00  0.00    -0.016 A 
ATOM      7  C6  BZF d   1       1.275   2.878  -0.561  0.00  0.00     0.022 A 
ATOM      8  C7  BZF d   1       1.181   2.106  -1.671  0.00  0.00     0.029 A 
ATOM      9  C7A BZF d   1       1.067   0.751  -1.482  0.00  0.00     0.058 A 
ENDROOT
TORSDOF 0
ENDMDL
