MODEL 1
REMARK minimizedAffinity 1.81407905
REMARK minimizedRMSD -1
REMARK  0 active torsions:
REMARK  status: ('A' for Active; 'I' for Inactive)
ROOT
ATOM      1  O1  BZF d   1       1.600  -1.428   0.363  0.00  0.00    -0.204 OA
ATOM      2  C2  BZF d   1       1.216  -2.228  -0.695  0.00  0.00     0.174 A 
ATOM      3  C3  BZF d   1       0.728  -1.482  -1.707  0.00  0.00    -0.012 A 
ATOM      4  C3A BZF d   1       0.899  -0.124  -1.289  0.00  0.00    -0.107 A 
ATOM      5  C4  BZF d   1       0.621   1.079  -1.872  0.00  0.00     0.055 A 
ATOM      6  C5  BZF d   1       0.842   2.220  -1.168  0.00  0.00    -0.016 A 
ATOM      7  C6  BZF d   1       1.335   2.195   0.120  0.00  0.00     0.022 A 
ATOM      8  C7  BZF d   1       1.631   1.025   0.738  0.00  0.00     0.029 A 
ATOM      9  C7A BZF d   1       1.439  -0.128   0.018  0.00  0.00     0.058 A 
ENDROOT
TORSDOF 0
ENDMDL
