MODEL 1
REMARK minimizedAffinity 9.43933105
REMARK minimizedRMSD -1
REMARK  0 active torsions:
REMARK  status: ('A' for Active; 'I' for Inactive)
ROOT
ATOM      1  O1  BZF d   1       2.386   1.282   1.654  0.00  0.00    -0.204 OA
ATOM      2  C2  BZF d   1       2.043   2.531   2.134  0.00  0.00     0.174 A 
ATOM      3  C3  BZF d   1       1.518   3.293   1.153  0.00  0.00    -0.012 A 
ATOM      4  C3A BZF d   1       1.449   2.437   0.009  0.00  0.00    -0.107 A 
ATOM      5  C4  BZF d   1       1.003   2.614  -1.270  0.00  0.00     0.055 A 
ATOM      6  C5  BZF d   1       1.143   1.601  -2.164  0.00  0.00    -0.016 A 
ATOM      7  C6  BZF d   1       1.728   0.401  -1.816  0.00  0.00     0.022 A 
ATOM      8  C7  BZF d   1       2.181   0.177  -0.559  0.00  0.00     0.029 A 
ATOM      9  C7A BZF d   1       2.011   1.187   0.356  0.00  0.00     0.058 A 
ENDROOT
TORSDOF 0
ENDMDL
