MODEL 1
REMARK minimizedAffinity 4.57359743
REMARK minimizedRMSD -1
REMARK  0 active torsions:
REMARK  status: ('A' for Active; 'I' for Inactive)
ROOT
ATOM      1  O1  BZF d   1       0.795   0.692  -2.473  0.00  0.00    -0.204 OA
ATOM      2  C2  BZF d   1       0.817   2.063  -2.643  0.00  0.00     0.174 A 
ATOM      3  C3  BZF d   1       0.921   2.692  -1.454  0.00  0.00    -0.012 A 
ATOM      4  C3A BZF d   1       1.060   1.647  -0.487  0.00  0.00    -0.107 A 
ATOM      5  C4  BZF d   1       1.219   1.638   0.869  0.00  0.00     0.055 A 
ATOM      6  C5  BZF d   1       1.250   0.447   1.523  0.00  0.00    -0.016 A 
ATOM      7  C6  BZF d   1       1.120  -0.753   0.853  0.00  0.00     0.022 A 
ATOM      8  C7  BZF d   1       0.965  -0.795  -0.493  0.00  0.00     0.029 A 
ATOM      9  C7A BZF d   1       0.967   0.406  -1.160  0.00  0.00     0.058 A 
ENDROOT
TORSDOF 0
ENDMDL
