MODEL 1
REMARK minimizedAffinity 4.46452188
REMARK minimizedRMSD -1
REMARK  0 active torsions:
REMARK  status: ('A' for Active; 'I' for Inactive)
ROOT
ATOM      1  O1  BZF d   1       1.324   2.137  -2.751  0.00  0.00    -0.204 OA
ATOM      2  C2  BZF d   1       0.849   3.372  -2.355  0.00  0.00     0.174 A 
ATOM      3  C3  BZF d   1       0.402   3.327  -1.084  0.00  0.00    -0.012 A 
ATOM      4  C3A BZF d   1       0.695   2.003  -0.628  0.00  0.00    -0.107 A 
ATOM      5  C4  BZF d   1       0.504   1.355   0.559  0.00  0.00     0.055 A 
ATOM      6  C5  BZF d   1       0.836   0.041   0.655  0.00  0.00    -0.016 A 
ATOM      7  C6  BZF d   1       1.355  -0.657  -0.416  0.00  0.00     0.022 A 
ATOM      8  C7  BZF d   1       1.567  -0.055  -1.612  0.00  0.00     0.029 A 
ATOM      9  C7A BZF d   1       1.264   1.281  -1.702  0.00  0.00     0.058 A 
ENDROOT
TORSDOF 0
ENDMDL
