MODEL 1
REMARK minimizedAffinity -1.07029819
REMARK minimizedRMSD -1
REMARK  0 active torsions:
REMARK  status: ('A' for Active; 'I' for Inactive)
ROOT
ATOM      1  O1  BZF d   1       1.121   3.795  -0.240  0.00  0.00    -0.204 OA
ATOM      2  C2  BZF d   1       1.221   4.113  -1.581  0.00  0.00     0.174 A 
ATOM      3  C3  BZF d   1       1.283   2.996  -2.334  0.00  0.00    -0.012 A 
ATOM      4  C3A BZF d   1       1.124   1.912  -1.414  0.00  0.00    -0.107 A 
ATOM      5  C4  BZF d   1       1.082   0.555  -1.560  0.00  0.00     0.055 A 
ATOM      6  C5  BZF d   1       0.990  -0.226  -0.451  0.00  0.00    -0.016 A 
ATOM      7  C6  BZF d   1       0.942   0.315   0.816  0.00  0.00     0.022 A 
ATOM      8  C7  BZF d   1       0.975   1.656   1.011  0.00  0.00     0.029 A 
ATOM      9  C7A BZF d   1       1.035   2.449  -0.109  0.00  0.00     0.058 A 
ENDROOT
TORSDOF 0
ENDMDL
