MODEL 1
REMARK minimizedAffinity -1.99169171
REMARK minimizedRMSD -1
REMARK  0 active torsions:
REMARK  status: ('A' for Active; 'I' for Inactive)
ROOT
ATOM      1  O1  BZF d   1       1.303   2.843   1.520  0.00  0.00    -0.204 OA
ATOM      2  C2  BZF d   1       1.435   2.018   2.620  0.00  0.00     0.174 A 
ATOM      3  C3  BZF d   1       1.268   0.726   2.272  0.00  0.00    -0.012 A 
ATOM      4  C3A BZF d   1       1.107   0.737   0.850  0.00  0.00    -0.107 A 
ATOM      5  C4  BZF d   1       0.920  -0.243  -0.082  0.00  0.00     0.055 A 
ATOM      6  C5  BZF d   1       0.726   0.107  -1.380  0.00  0.00    -0.016 A 
ATOM      7  C6  BZF d   1       0.709   1.427  -1.781  0.00  0.00     0.022 A 
ATOM      8  C7  BZF d   1       0.896   2.435  -0.894  0.00  0.00     0.029 A 
ATOM      9  C7A BZF d   1       1.124   2.082   0.414  0.00  0.00     0.058 A 
ENDROOT
TORSDOF 0
ENDMDL
