MODEL 1
REMARK minimizedAffinity 2.99922824
REMARK minimizedRMSD -1
REMARK  0 active torsions:
REMARK  status: ('A' for Active; 'I' for Inactive)
ROOT
ATOM      1  O1  BZF d   1       0.784   1.248  -2.638  0.00  0.00    -0.204 OA
ATOM      2  C2  BZF d   1       0.914   2.283  -1.732  0.00  0.00     0.174 A 
ATOM      3  C3  BZF d   1       1.291   1.817  -0.524  0.00  0.00    -0.012 A 
ATOM      4  C3A BZF d   1       1.494   0.413  -0.709  0.00  0.00    -0.107 A 
ATOM      5  C4  BZF d   1       1.890  -0.596   0.122  0.00  0.00     0.055 A 
ATOM      6  C5  BZF d   1       1.916  -1.869  -0.351  0.00  0.00    -0.016 A 
ATOM      7  C6  BZF d   1       1.547  -2.171  -1.645  0.00  0.00     0.022 A 
ATOM      8  C7  BZF d   1       1.152  -1.203  -2.508  0.00  0.00     0.029 A 
ATOM      9  C7A BZF d   1       1.157   0.089  -2.043  0.00  0.00     0.058 A 
ENDROOT
TORSDOF 0
ENDMDL
