MODEL 1
REMARK minimizedAffinity 3.31611395
REMARK minimizedRMSD -1
REMARK  0 active torsions:
REMARK  status: ('A' for Active; 'I' for Inactive)
ROOT
ATOM      1  O1  BZF d   1      -2.060  -4.516   0.852  0.00  0.00    -0.204 OA
ATOM      2  C2  BZF d   1      -1.723  -4.659   2.184  0.00  0.00     0.174 A 
ATOM      3  C3  BZF d   1      -0.476  -4.200   2.414  0.00  0.00    -0.012 A 
ATOM      4  C3A BZF d   1      -0.039  -3.657   1.165  0.00  0.00    -0.107 A 
ATOM      5  C4  BZF d   1       1.110  -3.039   0.760  0.00  0.00     0.055 A 
ATOM      6  C5  BZF d   1       1.249  -2.694  -0.547  0.00  0.00    -0.016 A 
ATOM      7  C6  BZF d   1       0.263  -2.955  -1.476  0.00  0.00     0.022 A 
ATOM      8  C7  BZF d   1      -0.896  -3.561  -1.121  0.00  0.00     0.029 A 
ATOM      9  C7A BZF d   1      -1.054  -3.881   0.206  0.00  0.00     0.058 A 
ENDROOT
TORSDOF 0
ENDMDL
