MODEL 1
REMARK minimizedAffinity -3.78469896
REMARK minimizedRMSD -1
REMARK  0 active torsions:
REMARK  status: ('A' for Active; 'I' for Inactive)
ROOT
ATOM      1  O1  BZF d   1       1.239   2.908  -1.975  0.00  0.00    -0.204 OA
ATOM      2  C2  BZF d   1       1.498   4.015  -1.190  0.00  0.00     0.174 A 
ATOM      3  C3  BZF d   1       1.378   3.712   0.119  0.00  0.00    -0.012 A 
ATOM      4  C3A BZF d   1       1.114   2.307   0.157  0.00  0.00    -0.107 A 
ATOM      5  C4  BZF d   1       0.914   1.416   1.173  0.00  0.00     0.055 A 
ATOM      6  C5  BZF d   1       0.606   0.127   0.871  0.00  0.00    -0.016 A 
ATOM      7  C6  BZF d   1       0.486  -0.303  -0.434  0.00  0.00     0.022 A 
ATOM      8  C7  BZF d   1       0.680   0.542  -1.476  0.00  0.00     0.029 A 
ATOM      9  C7A BZF d   1       1.023   1.837  -1.174  0.00  0.00     0.058 A 
ENDROOT
TORSDOF 0
ENDMDL
