MODEL 1
REMARK minimizedAffinity 3.82057834
REMARK minimizedRMSD -1
REMARK  0 active torsions:
REMARK  status: ('A' for Active; 'I' for Inactive)
ROOT
ATOM      1  O1  BZF d   1       2.400   0.430   2.172  0.00  0.00    -0.204 OA
ATOM      2  C2  BZF d   1       2.388   1.702   2.711  0.00  0.00     0.174 A 
ATOM      3  C3  BZF d   1       1.829   2.580   1.854  0.00  0.00    -0.012 A 
ATOM      4  C3A BZF d   1       1.386   1.793   0.744  0.00  0.00    -0.107 A 
ATOM      5  C4  BZF d   1       0.740   2.092  -0.421  0.00  0.00     0.055 A 
ATOM      6  C5  BZF d   1       0.519   1.104  -1.327  0.00  0.00    -0.016 A 
ATOM      7  C6  BZF d   1       0.934  -0.193  -1.102  0.00  0.00     0.022 A 
ATOM      8  C7  BZF d   1       1.574  -0.539   0.041  0.00  0.00     0.029 A 
ATOM      9  C7A BZF d   1       1.769   0.451   0.973  0.00  0.00     0.058 A 
ENDROOT
TORSDOF 0
ENDMDL
