MODEL 1
REMARK minimizedAffinity 10.2236195
REMARK minimizedRMSD -1
REMARK  0 active torsions:
REMARK  status: ('A' for Active; 'I' for Inactive)
ROOT
ATOM      1  O1  BZF d   1       1.310   4.903   0.140  0.00  0.00    -0.204 OA
ATOM      2  C2  BZF d   1       1.726   5.999  -0.591  0.00  0.00     0.174 A 
ATOM      3  C3  BZF d   1       1.886   5.674  -1.891  0.00  0.00    -0.012 A 
ATOM      4  C3A BZF d   1       1.460   4.312  -1.994  0.00  0.00    -0.107 A 
ATOM      5  C4  BZF d   1       1.369   3.433  -3.035  0.00  0.00     0.055 A 
ATOM      6  C5  BZF d   1       0.984   2.154  -2.787  0.00  0.00    -0.016 A 
ATOM      7  C6  BZF d   1       0.688   1.719  -1.512  0.00  0.00     0.022 A 
ATOM      8  C7  BZF d   1       0.759   2.555  -0.448  0.00  0.00     0.029 A 
ATOM      9  C7A BZF d   1       1.116   3.857  -0.700  0.00  0.00     0.058 A 
ENDROOT
TORSDOF 0
ENDMDL
