MODEL 1
REMARK minimizedAffinity -1.37055707
REMARK minimizedRMSD -1
REMARK  0 active torsions:
REMARK  status: ('A' for Active; 'I' for Inactive)
ROOT
ATOM      1  O1  BZF d   1       0.249   2.060  -2.210  0.00  0.00    -0.204 OA
ATOM      2  C2  BZF d   1       0.495   3.198  -1.467  0.00  0.00     0.174 A 
ATOM      3  C3  BZF d   1       1.054   2.883  -0.280  0.00  0.00    -0.012 A 
ATOM      4  C3A BZF d   1       1.247   1.466  -0.320  0.00  0.00    -0.107 A 
ATOM      5  C4  BZF d   1       1.777   0.566   0.560  0.00  0.00     0.055 A 
ATOM      6  C5  BZF d   1       1.752  -0.756   0.247  0.00  0.00    -0.016 A 
ATOM      7  C6  BZF d   1       1.201  -1.213  -0.932  0.00  0.00     0.022 A 
ATOM      8  C7  BZF d   1       0.668  -0.358  -1.838  0.00  0.00     0.029 A 
ATOM      9  C7A BZF d   1       0.722   0.982  -1.540  0.00  0.00     0.058 A 
ENDROOT
TORSDOF 0
ENDMDL
