MODEL 1
REMARK minimizedAffinity -4.99727631
REMARK minimizedRMSD -1
REMARK  1 active torsions:
REMARK  status: ('A' for Active; 'I' for Inactive)
REMARK    1  A    between atoms: N_2  and  C1_3 
ROOT
ATOM      1  C1  UNL d   1       4.634   4.942  -3.454  0.00  0.00     0.143 A 
ATOM      2  C2  UNL d   1       5.692   4.305  -4.111  0.00  0.00    -0.057 A 
ATOM      3  C3  UNL d   1       5.459   3.307  -5.065  0.00  0.00     0.033 A 
ATOM      4  C4  UNL d   1       4.159   2.907  -5.358  0.00  0.00    -0.042 A 
ATOM      5  C5  UNL d   1       3.093   3.508  -4.699  0.00  0.00     0.033 A 
ATOM      6  C6  UNL d   1       3.332   4.509  -3.752  0.00  0.00    -0.057 A 
ENDROOT
BRANCH   1   7
ATOM      7  N   UNL d   1       4.805   5.871  -2.425  0.00  0.00    -0.732 N 
ATOM      8  C   UNL d   1       5.998   5.854  -1.607  0.00  0.00     0.284 C 
ATOM      9  H3  UNL d   1       4.494   6.804  -2.689  0.00  0.00     0.395 HD
ENDBRANCH   1   7
TORSDOF 1
ENDMDL
