MODEL 1
REMARK minimizedAffinity -4.43410397
REMARK minimizedRMSD -1
REMARK  1 active torsions:
REMARK  status: ('A' for Active; 'I' for Inactive)
REMARK    1  A    between atoms: N_2  and  C1_3 
ROOT
ATOM      1  C1  UNL d   1       4.823   4.641  -4.830  0.00  0.00     0.143 A 
ATOM      2  C2  UNL d   1       3.692   5.326  -4.373  0.00  0.00    -0.057 A 
ATOM      3  C3  UNL d   1       3.697   5.997  -3.144  0.00  0.00     0.033 A 
ATOM      4  C4  UNL d   1       4.828   5.970  -2.335  0.00  0.00    -0.042 A 
ATOM      5  C5  UNL d   1       5.955   5.275  -2.758  0.00  0.00     0.033 A 
ATOM      6  C6  UNL d   1       5.946   4.612  -3.989  0.00  0.00    -0.057 A 
ENDROOT
BRANCH   1   7
ATOM      7  N   UNL d   1       4.848   3.873  -5.997  0.00  0.00    -0.732 N 
ATOM      8  C   UNL d   1       5.438   2.551  -5.997  0.00  0.00     0.284 C 
ATOM      9  H3  UNL d   1       3.981   3.941  -6.526  0.00  0.00     0.395 HD
ENDBRANCH   1   7
TORSDOF 1
ENDMDL
