MODEL 1
REMARK minimizedAffinity 0.502731442
REMARK minimizedRMSD -1
REMARK  1 active torsions:
REMARK  status: ('A' for Active; 'I' for Inactive)
REMARK    1  A    between atoms: N_2  and  C1_3 
ROOT
ATOM      1  C1  UNL d   1       4.213  -3.042  -3.657  0.00  0.00     0.143 A 
ATOM      2  C2  UNL d   1       4.074  -2.199  -2.549  0.00  0.00    -0.057 A 
ATOM      3  C3  UNL d   1       4.898  -2.334  -1.425  0.00  0.00     0.033 A 
ATOM      4  C4  UNL d   1       5.859  -3.339  -1.377  0.00  0.00    -0.042 A 
ATOM      5  C5  UNL d   1       5.999  -4.204  -2.456  0.00  0.00     0.033 A 
ATOM      6  C6  UNL d   1       5.178  -4.059  -3.578  0.00  0.00    -0.057 A 
ENDROOT
BRANCH   1   7
ATOM      7  N   UNL d   1       3.360  -3.021  -4.763  0.00  0.00    -0.732 N 
ATOM      8  C   UNL d   1       2.106  -3.742  -4.740  0.00  0.00     0.284 C 
ATOM      9  H3  UNL d   1       3.303  -2.100  -5.191  0.00  0.00     0.395 HD
ENDBRANCH   1   7
TORSDOF 1
ENDMDL
