MODEL 1
REMARK minimizedAffinity -0.683592677
REMARK minimizedRMSD -1
REMARK  1 active torsions:
REMARK  status: ('A' for Active; 'I' for Inactive)
REMARK    1  A    between atoms: N_2  and  C1_3 
ROOT
ATOM      1  C1  UNL d   1       4.349  -3.410  -3.063  0.00  0.00     0.143 A 
ATOM      2  C2  UNL d   1       5.163  -4.481  -2.678  0.00  0.00    -0.057 A 
ATOM      3  C3  UNL d   1       5.970  -4.405  -1.537  0.00  0.00     0.033 A 
ATOM      4  C4  UNL d   1       5.999  -3.243  -0.774  0.00  0.00    -0.042 A 
ATOM      5  C5  UNL d   1       5.217  -2.157  -1.152  0.00  0.00     0.033 A 
ATOM      6  C6  UNL d   1       4.408  -2.241  -2.289  0.00  0.00    -0.057 A 
ENDROOT
BRANCH   1   7
ATOM      7  N   UNL d   1       3.599  -3.388  -4.242  0.00  0.00    -0.732 N 
ATOM      8  C   UNL d   1       3.716  -2.283  -5.169  0.00  0.00     0.284 C 
ATOM      9  H3  UNL d   1       3.549  -4.301  -4.688  0.00  0.00     0.395 HD
ENDBRANCH   1   7
TORSDOF 1
ENDMDL
