MODEL 1
REMARK minimizedAffinity 7.36184168
REMARK minimizedRMSD -1
REMARK  1 active torsions:
REMARK  status: ('A' for Active; 'I' for Inactive)
REMARK    1  A    between atoms: N_2  and  C1_3 
ROOT
ATOM      1  C1  UNL d   1       0.885  -3.378  -3.560  0.00  0.00     0.143 A 
ATOM      2  C2  UNL d   1      -0.394  -3.342  -4.127  0.00  0.00    -0.057 A 
ATOM      3  C3  UNL d   1      -1.451  -2.679  -3.492  0.00  0.00     0.033 A 
ATOM      4  C4  UNL d   1      -1.254  -2.061  -2.262  0.00  0.00    -0.042 A 
ATOM      5  C5  UNL d   1       0.002  -2.106  -1.668  0.00  0.00     0.033 A 
ATOM      6  C6  UNL d   1       1.056  -2.764  -2.309  0.00  0.00    -0.057 A 
ENDROOT
BRANCH   1   7
ATOM      7  N   UNL d   1       1.952  -4.105  -4.093  0.00  0.00    -0.732 N 
ATOM      8  C   UNL d   1       2.273  -4.017  -5.502  0.00  0.00     0.284 C 
ATOM      9  H3  UNL d   1       2.764  -4.108  -3.481  0.00  0.00     0.395 HD
ENDBRANCH   1   7
TORSDOF 1
ENDMDL
