MODEL 1
REMARK minimizedAffinity 5.55379343
REMARK minimizedRMSD -1
REMARK  1 active torsions:
REMARK  status: ('A' for Active; 'I' for Inactive)
REMARK    1  A    between atoms: N_2  and  C1_3 
ROOT
ATOM      1  C1  UNL d   1       4.818   4.429  -2.423  0.00  0.00     0.143 A 
ATOM      2  C2  UNL d   1       3.705   5.255  -2.618  0.00  0.00    -0.057 A 
ATOM      3  C3  UNL d   1       2.589   4.810  -3.337  0.00  0.00     0.033 A 
ATOM      4  C4  UNL d   1       2.578   3.539  -3.901  0.00  0.00    -0.042 A 
ATOM      5  C5  UNL d   1       3.683   2.710  -3.741  0.00  0.00     0.033 A 
ATOM      6  C6  UNL d   1       4.792   3.157  -3.016  0.00  0.00    -0.057 A 
ENDROOT
BRANCH   1   7
ATOM      7  N   UNL d   1       5.997   4.848  -1.802  0.00  0.00    -0.732 N 
ATOM      8  C   UNL d   1       6.000   5.999  -0.925  0.00  0.00     0.284 C 
ATOM      9  H3  UNL d   1       6.557   4.068  -1.467  0.00  0.00     0.395 HD
ENDBRANCH   1   7
TORSDOF 1
ENDMDL
