MODEL 1
REMARK minimizedAffinity 7.35050774
REMARK minimizedRMSD -1
REMARK  1 active torsions:
REMARK  status: ('A' for Active; 'I' for Inactive)
REMARK    1  A    between atoms: N_2  and  C1_3 
ROOT
ATOM      1  C1  UNL d   1       0.139  -3.099  -3.829  0.00  0.00     0.143 A 
ATOM      2  C2  UNL d   1      -0.389  -3.560  -5.039  0.00  0.00    -0.057 A 
ATOM      3  C3  UNL d   1       0.424  -4.174  -6.000  0.00  0.00     0.033 A 
ATOM      4  C4  UNL d   1       1.790  -4.311  -5.778  0.00  0.00    -0.042 A 
ATOM      5  C5  UNL d   1       2.341  -3.837  -4.593  0.00  0.00     0.033 A 
ATOM      6  C6  UNL d   1       1.523  -3.231  -3.635  0.00  0.00    -0.057 A 
ENDROOT
BRANCH   1   7
ATOM      7  N   UNL d   1      -0.600  -2.392  -2.877  0.00  0.00    -0.732 N 
ATOM      8  C   UNL d   1      -0.161  -2.332  -1.499  0.00  0.00     0.284 C 
ATOM      9  H3  UNL d   1      -0.957  -1.511  -3.238  0.00  0.00     0.395 HD
ENDBRANCH   1   7
TORSDOF 1
ENDMDL
