MODEL 1
REMARK minimizedAffinity 1.92495739
REMARK minimizedRMSD -1
REMARK  1 active torsions:
REMARK  status: ('A' for Active; 'I' for Inactive)
REMARK    1  A    between atoms: N_2  and  C1_3 
ROOT
ATOM      1  C1  UNL d   1       3.285  -2.774  -3.803  0.00  0.00     0.143 A 
ATOM      2  C2  UNL d   1       4.016  -3.743  -3.107  0.00  0.00    -0.057 A 
ATOM      3  C3  UNL d   1       5.357  -3.531  -2.762  0.00  0.00     0.033 A 
ATOM      4  C4  UNL d   1       6.000  -2.356  -3.135  0.00  0.00    -0.042 A 
ATOM      5  C5  UNL d   1       5.300  -1.390  -3.849  0.00  0.00     0.033 A 
ATOM      6  C6  UNL d   1       3.959  -1.604  -4.184  0.00  0.00    -0.057 A 
ENDROOT
BRANCH   1   7
ATOM      7  N   UNL d   1       1.978  -2.966  -4.260  0.00  0.00    -0.732 N 
ATOM      8  C   UNL d   1       1.725  -3.316  -5.641  0.00  0.00     0.284 C 
ATOM      9  H3  UNL d   1       1.403  -3.471  -3.590  0.00  0.00     0.395 HD
ENDBRANCH   1   7
TORSDOF 1
ENDMDL
