MODEL 1
REMARK minimizedAffinity 0.798875391
REMARK minimizedRMSD -1
REMARK  1 active torsions:
REMARK  status: ('A' for Active; 'I' for Inactive)
REMARK    1  A    between atoms: N_2  and  C1_3 
ROOT
ATOM      1  C1  UNL d   1       0.472  -1.487  -1.930  0.00  0.00     0.143 A 
ATOM      2  C2  UNL d   1       1.788  -1.961  -1.911  0.00  0.00    -0.057 A 
ATOM      3  C3  UNL d   1       2.841  -1.162  -1.449  0.00  0.00     0.033 A 
ATOM      4  C4  UNL d   1       2.599   0.140  -1.023  0.00  0.00    -0.042 A 
ATOM      5  C5  UNL d   1       1.303   0.641  -1.057  0.00  0.00     0.033 A 
ATOM      6  C6  UNL d   1       0.255  -0.164  -1.513  0.00  0.00    -0.057 A 
ENDROOT
BRANCH   1   7
ATOM      7  N   UNL d   1      -0.603  -2.197  -2.470  0.00  0.00    -0.732 N 
ATOM      8  C   UNL d   1      -0.634  -3.643  -2.413  0.00  0.00     0.284 C 
ATOM      9  H3  UNL d   1      -1.498  -1.754  -2.276  0.00  0.00     0.395 HD
ENDBRANCH   1   7
TORSDOF 1
ENDMDL
