MODEL 1
REMARK minimizedAffinity -2.214674
REMARK minimizedRMSD -1
REMARK  1 active torsions:
REMARK  status: ('A' for Active; 'I' for Inactive)
REMARK    1  A    between atoms: N_2  and  C1_3 
ROOT
ATOM      1  C1  UNL d   1       4.718   4.020  -4.631  0.00  0.00     0.143 A 
ATOM      2  C2  UNL d   1       5.915   4.615  -4.217  0.00  0.00    -0.057 A 
ATOM      3  C3  UNL d   1       5.995   5.317  -3.008  0.00  0.00     0.033 A 
ATOM      4  C4  UNL d   1       4.870   5.462  -2.204  0.00  0.00    -0.042 A 
ATOM      5  C5  UNL d   1       3.664   4.900  -2.608  0.00  0.00     0.033 A 
ATOM      6  C6  UNL d   1       3.591   4.194  -3.813  0.00  0.00    -0.057 A 
ENDROOT
BRANCH   1   7
ATOM      7  N   UNL d   1       4.550   3.393  -5.868  0.00  0.00    -0.732 N 
ATOM      8  C   UNL d   1       4.629   1.952  -5.982  0.00  0.00     0.284 C 
ATOM      9  H3  UNL d   1       3.803   3.812  -6.418  0.00  0.00     0.395 HD
ENDBRANCH   1   7
TORSDOF 1
ENDMDL
