MODEL 1
REMARK minimizedAffinity 2.19074965
REMARK minimizedRMSD -1
REMARK  1 active torsions:
REMARK  status: ('A' for Active; 'I' for Inactive)
REMARK    1  A    between atoms: N_2  and  C1_3 
ROOT
ATOM      1  C1  UNL d   1       3.814   4.909  -2.617  0.00  0.00     0.143 A 
ATOM      2  C2  UNL d   1       3.842   4.758  -1.226  0.00  0.00    -0.057 A 
ATOM      3  C3  UNL d   1       4.913   5.241  -0.465  0.00  0.00     0.033 A 
ATOM      4  C4  UNL d   1       5.992   5.860  -1.085  0.00  0.00    -0.042 A 
ATOM      5  C5  UNL d   1       5.998   5.999  -2.469  0.00  0.00     0.033 A 
ATOM      6  C6  UNL d   1       4.923   5.521  -3.224  0.00  0.00    -0.057 A 
ENDROOT
BRANCH   1   7
ATOM      7  N   UNL d   1       2.826   4.364  -3.439  0.00  0.00    -0.732 N 
ATOM      8  C   UNL d   1       2.214   5.158  -4.483  0.00  0.00     0.284 C 
ATOM      9  H3  UNL d   1       3.033   3.406  -3.713  0.00  0.00     0.395 HD
ENDBRANCH   1   7
TORSDOF 1
ENDMDL
