MODEL 1
REMARK minimizedAffinity 6.41768789
REMARK minimizedRMSD -1
REMARK  1 active torsions:
REMARK  status: ('A' for Active; 'I' for Inactive)
REMARK    1  A    between atoms: N_2  and  C1_3 
ROOT
ATOM      1  C1  UNL d   1       4.282  -1.145  -4.035  0.00  0.00     0.143 A 
ATOM      2  C2  UNL d   1       5.616  -0.727  -3.984  0.00  0.00    -0.057 A 
ATOM      3  C3  UNL d   1       5.996   0.545  -4.427  0.00  0.00     0.033 A 
ATOM      4  C4  UNL d   1       5.049   1.415  -4.958  0.00  0.00    -0.042 A 
ATOM      5  C5  UNL d   1       3.722   1.011  -5.042  0.00  0.00     0.033 A 
ATOM      6  C6  UNL d   1       3.347  -0.258  -4.592  0.00  0.00    -0.057 A 
ENDROOT
BRANCH   1   7
ATOM      7  N   UNL d   1       3.857  -2.433  -3.702  0.00  0.00    -0.732 N 
ATOM      8  C   UNL d   1       2.459  -2.705  -3.446  0.00  0.00     0.284 C 
ATOM      9  H3  UNL d   1       4.327  -3.151  -4.248  0.00  0.00     0.395 HD
ENDBRANCH   1   7
TORSDOF 1
ENDMDL
