MODEL 1
REMARK minimizedAffinity 9.78959656
REMARK minimizedRMSD -1
REMARK  1 active torsions:
REMARK  status: ('A' for Active; 'I' for Inactive)
REMARK    1  A    between atoms: N_2  and  C1_3 
ROOT
ATOM      1  C1  UNL d   1      -2.654   0.356   5.342  0.00  0.00     0.143 A 
ATOM      2  C2  UNL d   1      -2.014  -0.702   5.996  0.00  0.00    -0.057 A 
ATOM      3  C3  UNL d   1      -1.356  -1.708   5.278  0.00  0.00     0.033 A 
ATOM      4  C4  UNL d   1      -1.351  -1.688   3.887  0.00  0.00    -0.042 A 
ATOM      5  C5  UNL d   1      -2.001  -0.659   3.216  0.00  0.00     0.033 A 
ATOM      6  C6  UNL d   1      -2.651   0.346   3.939  0.00  0.00    -0.057 A 
ENDROOT
BRANCH   1   7
ATOM      7  N   UNL d   1      -3.409   1.332   5.997  0.00  0.00    -0.732 N 
ATOM      8  C   UNL d   1      -4.852   1.342   5.891  0.00  0.00     0.284 C 
ATOM      9  H3  UNL d   1      -3.060   1.531   6.932  0.00  0.00     0.395 HD
ENDBRANCH   1   7
TORSDOF 1
ENDMDL
