MODEL 1
REMARK minimizedAffinity 5.48181152
REMARK minimizedRMSD -1
REMARK  1 active torsions:
REMARK  status: ('A' for Active; 'I' for Inactive)
REMARK    1  A    between atoms: N_2  and  C1_3 
ROOT
ATOM      1  C1  UNL d   1       5.271   3.869  -3.069  0.00  0.00     0.143 A 
ATOM      2  C2  UNL d   1       3.887   3.866  -2.868  0.00  0.00    -0.057 A 
ATOM      3  C3  UNL d   1       3.247   4.920  -2.205  0.00  0.00     0.033 A 
ATOM      4  C4  UNL d   1       3.986   5.987  -1.705  0.00  0.00    -0.042 A 
ATOM      5  C5  UNL d   1       5.367   5.999  -1.872  0.00  0.00     0.033 A 
ATOM      6  C6  UNL d   1       5.999   4.947  -2.540  0.00  0.00    -0.057 A 
ENDROOT
BRANCH   1   7
ATOM      7  N   UNL d   1       5.978   2.804  -3.633  0.00  0.00    -0.732 N 
ATOM      8  C   UNL d   1       6.000   2.611  -5.067  0.00  0.00     0.284 C 
ATOM      9  H3  UNL d   1       6.875   2.650  -3.179  0.00  0.00     0.395 HD
ENDBRANCH   1   7
TORSDOF 1
ENDMDL
