MODEL 1
REMARK minimizedAffinity 6.10717297
REMARK minimizedRMSD -1
REMARK  1 active torsions:
REMARK  status: ('A' for Active; 'I' for Inactive)
REMARK    1  A    between atoms: N_2  and  C1_3 
ROOT
ATOM      1  C1  UNL d   1       2.385   4.391  -0.568  0.00  0.00     0.143 A 
ATOM      2  C2  UNL d   1       3.756   4.639  -0.449  0.00  0.00    -0.057 A 
ATOM      3  C3  UNL d   1       4.501   5.135  -1.526  0.00  0.00     0.033 A 
ATOM      4  C4  UNL d   1       3.890   5.364  -2.755  0.00  0.00    -0.042 A 
ATOM      5  C5  UNL d   1       2.533   5.101  -2.903  0.00  0.00     0.033 A 
ATOM      6  C6  UNL d   1       1.793   4.612  -1.822  0.00  0.00    -0.057 A 
ENDROOT
BRANCH   1   7
ATOM      7  N   UNL d   1       1.610   3.805   0.436  0.00  0.00    -0.732 N 
ATOM      8  C   UNL d   1       0.607   4.577   1.138  0.00  0.00     0.284 C 
ATOM      9  H3  UNL d   1       1.317   2.860   0.199  0.00  0.00     0.395 HD
ENDBRANCH   1   7
TORSDOF 1
ENDMDL
