MODEL 1
REMARK minimizedAffinity 16.0843449
REMARK minimizedRMSD -1
REMARK  3 active torsions:
REMARK  status: ('A' for Active; 'I' for Inactive)
REMARK    1  A    between atoms: C3'_2  and  C2'_3 
REMARK    2  A    between atoms: C2'_3  and  C1'_4 
REMARK    3  A    between atoms: C1'_4  and  C1_5 
ROOT
ATOM      1  C1  N4B d   1       2.786  -2.167   2.805  0.00  0.00    -0.075 A 
ATOM      2  C2  N4B d   1       3.258  -1.334   1.766  0.00  0.00     0.002 A 
ATOM      3  C3  N4B d   1       2.665  -0.117   1.540  0.00  0.00     0.002 A 
ATOM      4  C4  N4B d   1       1.591   0.280   2.323  0.00  0.00    -0.004 A 
ATOM      5  C5  N4B d   1       1.158  -0.519   3.341  0.00  0.00     0.002 A 
ATOM      6  C6  N4B d   1       1.748  -1.743   3.583  0.00  0.00     0.002 A 
ENDROOT
BRANCH   1   7
ATOM      7  C1' N4B d   1       3.347  -3.544   3.036  0.00  0.00     0.057 C 
BRANCH   7   8
ATOM      8  C2' N4B d   1       3.719  -3.692   4.508  0.00  0.00     0.009 C 
BRANCH   8   9
ATOM      9  C3' N4B d   1       4.856  -2.766   4.904  0.00  0.00     0.004 C 
ATOM     10  C4' N4B d   1       6.000  -2.805   3.934  0.00  0.00     0.003 C 
ENDBRANCH   8   9
ENDBRANCH   7   8
ENDBRANCH   1   7
TORSDOF 3
ENDMDL
