MODEL 1
REMARK minimizedAffinity 8.84190559
REMARK minimizedRMSD -1
REMARK  3 active torsions:
REMARK  status: ('A' for Active; 'I' for Inactive)
REMARK    1  A    between atoms: C3'_2  and  C2'_3 
REMARK    2  A    between atoms: C2'_3  and  C1'_4 
REMARK    3  A    between atoms: C1'_4  and  C1_5 
ROOT
ATOM      1  C1  N4B d   1       2.314  -3.053   2.310  0.00  0.00    -0.075 A 
ATOM      2  C2  N4B d   1       2.683  -1.879   1.617  0.00  0.00     0.002 A 
ATOM      3  C3  N4B d   1       2.103  -0.678   1.943  0.00  0.00     0.002 A 
ATOM      4  C4  N4B d   1       1.142  -0.629   2.942  0.00  0.00    -0.004 A 
ATOM      5  C5  N4B d   1       0.810  -1.763   3.625  0.00  0.00     0.002 A 
ATOM      6  C6  N4B d   1       1.387  -2.976   3.310  0.00  0.00     0.002 A 
ENDROOT
BRANCH   1   7
ATOM      7  C1' N4B d   1       2.857  -4.403   1.931  0.00  0.00     0.057 C 
BRANCH   7   8
ATOM      8  C2' N4B d   1       2.277  -4.816   0.581  0.00  0.00     0.009 C 
BRANCH   8   9
ATOM      9  C3' N4B d   1       3.355  -5.275  -0.384  0.00  0.00     0.004 C 
ATOM     10  C4' N4B d   1       2.826  -5.543  -1.762  0.00  0.00     0.003 C 
ENDBRANCH   8   9
ENDBRANCH   7   8
ENDBRANCH   1   7
TORSDOF 3
ENDMDL
