MODEL 1
REMARK minimizedAffinity -0.298246145
REMARK minimizedRMSD -1
REMARK  3 active torsions:
REMARK  status: ('A' for Active; 'I' for Inactive)
REMARK    1  A    between atoms: C3'_2  and  C2'_3 
REMARK    2  A    between atoms: C2'_3  and  C1'_4 
REMARK    3  A    between atoms: C1'_4  and  C1_5 
ROOT
ATOM      1  C1  N4B d   1       2.278  -3.241   3.645  0.00  0.00    -0.075 A 
ATOM      2  C2  N4B d   1       2.921  -3.049   2.403  0.00  0.00     0.002 A 
ATOM      3  C3  N4B d   1       2.791  -1.854   1.739  0.00  0.00     0.002 A 
ATOM      4  C4  N4B d   1       2.011  -0.847   2.287  0.00  0.00    -0.004 A 
ATOM      5  C5  N4B d   1       1.413  -1.031   3.499  0.00  0.00     0.002 A 
ATOM      6  C6  N4B d   1       1.539  -2.225   4.179  0.00  0.00     0.002 A 
ENDROOT
BRANCH   1   7
ATOM      7  C1' N4B d   1       2.321  -4.560   4.366  0.00  0.00     0.057 C 
BRANCH   7   8
ATOM      8  C2' N4B d   1       1.434  -4.482   5.606  0.00  0.00     0.009 C 
BRANCH   8   9
ATOM      9  C3' N4B d   1       0.876  -5.841   5.992  0.00  0.00     0.004 C 
ATOM     10  C4' N4B d   1      -0.623  -5.874   5.998  0.00  0.00     0.003 C 
ENDBRANCH   8   9
ENDBRANCH   7   8
ENDBRANCH   1   7
TORSDOF 3
ENDMDL
