MODEL 1
REMARK minimizedAffinity -3.57367539
REMARK minimizedRMSD -1
REMARK  2 active torsions:
REMARK  status: ('A' for Active; 'I' for Inactive)
REMARK    1  A    between atoms: C1_2  and  C2_3 
REMARK    2  A    between atoms: C2_3  and  C3_4 
ROOT
ATOM      1  C3  UNL d   1      -0.179   0.074   2.972  0.00  0.00    -0.075 A 
ATOM      2  C4  UNL d   1       0.214   1.308   3.511  0.00  0.00     0.002 A 
ATOM      3  C5  UNL d   1       0.496   2.389   2.675  0.00  0.00     0.002 A 
ATOM      4  C6  UNL d   1       0.399   2.248   1.293  0.00  0.00    -0.004 A 
ATOM      5  C7  UNL d   1       0.025   1.022   0.746  0.00  0.00     0.002 A 
ATOM      6  C8  UNL d   1      -0.262  -0.059   1.580  0.00  0.00     0.002 A 
ENDROOT
BRANCH   1   7
ATOM      7  C2  UNL d   1      -0.515  -1.091   3.872  0.00  0.00     0.056 C 
BRANCH   7   8
ATOM      8  C1  UNL d   1       0.711  -1.792   4.468  0.00  0.00     0.007 C 
ATOM      9  C   UNL d   1       0.731  -1.776   5.990  0.00  0.00     0.009 C 
ENDBRANCH   7   8
ENDBRANCH   1   7
TORSDOF 2
ENDMDL
