MODEL 1
REMARK minimizedAffinity 2.17981791
REMARK minimizedRMSD -1
REMARK  2 active torsions:
REMARK  status: ('A' for Active; 'I' for Inactive)
REMARK    1  A    between atoms: C1_2  and  C2_3 
REMARK    2  A    between atoms: C2_3  and  C3_4 
ROOT
ATOM      1  C3  UNL d   1      -0.583  -0.257   2.739  0.00  0.00    -0.075 A 
ATOM      2  C4  UNL d   1      -1.890   0.158   2.449  0.00  0.00     0.002 A 
ATOM      3  C5  UNL d   1      -2.371   0.122   1.140  0.00  0.00     0.002 A 
ATOM      4  C6  UNL d   1      -1.549  -0.319   0.105  0.00  0.00    -0.004 A 
ATOM      5  C7  UNL d   1      -0.243  -0.719   0.379  0.00  0.00     0.002 A 
ATOM      6  C8  UNL d   1       0.239  -0.688   1.689  0.00  0.00     0.002 A 
ENDROOT
BRANCH   1   7
ATOM      7  C2  UNL d   1      -0.066  -0.249   4.158  0.00  0.00     0.056 C 
BRANCH   7   8
ATOM      8  C1  UNL d   1       0.649  -1.540   4.570  0.00  0.00     0.007 C 
ATOM      9  C   UNL d   1       1.410  -1.413   5.882  0.00  0.00     0.009 C 
ENDBRANCH   7   8
ENDBRANCH   1   7
TORSDOF 2
ENDMDL
