MODEL 1
REMARK minimizedAffinity -1.6963098
REMARK minimizedRMSD -1
REMARK  2 active torsions:
REMARK  status: ('A' for Active; 'I' for Inactive)
REMARK    1  A    between atoms: C1_2  and  C2_3 
REMARK    2  A    between atoms: C2_3  and  C3_4 
ROOT
ATOM      1  C3  UNL d   1       3.781   1.466  -0.300  0.00  0.00    -0.075 A 
ATOM      2  C4  UNL d   1       3.997   2.599  -1.097  0.00  0.00     0.002 A 
ATOM      3  C5  UNL d   1       4.223   2.468  -2.468  0.00  0.00     0.002 A 
ATOM      4  C6  UNL d   1       4.245   1.206  -3.056  0.00  0.00    -0.004 A 
ATOM      5  C7  UNL d   1       4.047   0.072  -2.271  0.00  0.00     0.002 A 
ATOM      6  C8  UNL d   1       3.817   0.200  -0.900  0.00  0.00     0.002 A 
ENDROOT
BRANCH   1   7
ATOM      7  C2  UNL d   1       3.507   1.602   1.179  0.00  0.00     0.056 C 
BRANCH   7   8
ATOM      8  C1  UNL d   1       2.345   2.543   1.514  0.00  0.00     0.007 C 
ATOM      9  C   UNL d   1       0.982   1.870   1.425  0.00  0.00     0.009 C 
ENDBRANCH   7   8
ENDBRANCH   1   7
TORSDOF 2
ENDMDL
