MODEL 1
REMARK minimizedAffinity 10.6862354
REMARK minimizedRMSD -1
REMARK  1 active torsions:
REMARK  status: ('A' for Active; 'I' for Inactive)
REMARK    1  A    between atoms: C3_4  and  O_7 
ROOT
ATOM      1  C   UNL d   1       2.753  -5.991  -1.816  0.00  0.00    -0.033 A 
ATOM      2  C1  UNL d   1       1.416  -5.997  -1.413  0.00  0.00     0.039 A 
ATOM      3  C2  UNL d   1       0.397  -6.000  -2.368  0.00  0.00    -0.080 A 
ATOM      4  C3  UNL d   1       0.728  -5.999  -3.720  0.00  0.00     0.150 A 
ATOM      5  C4  UNL d   1       2.057  -5.997  -4.129  0.00  0.00    -0.007 A 
ATOM      6  C5  UNL d   1       3.073  -5.993  -3.174  0.00  0.00     0.039 A 
ENDROOT
BRANCH   4   7
ATOM      7  O   UNL d   1      -0.232  -5.997  -4.688  0.00  0.00    -0.526 OA
ATOM      8  H5  UNL d   1      -1.103  -5.969  -4.258  0.00  0.00     0.418 HD
ENDBRANCH   4   7
TORSDOF 1
ENDMDL
