MODEL 1
REMARK minimizedAffinity 5.23512077
REMARK minimizedRMSD -1
REMARK  1 active torsions:
REMARK  status: ('A' for Active; 'I' for Inactive)
REMARK    1  A    between atoms: C3_4  and  O_7 
ROOT
ATOM      1  C   UNL d   1       0.291   4.138   0.381  0.00  0.00    -0.033 A 
ATOM      2  C1  UNL d   1       1.520   4.794   0.464  0.00  0.00     0.039 A 
ATOM      3  C2  UNL d   1       2.333   4.619   1.586  0.00  0.00    -0.080 A 
ATOM      4  C3  UNL d   1       1.906   3.785   2.615  0.00  0.00     0.150 A 
ATOM      5  C4  UNL d   1       0.684   3.125   2.537  0.00  0.00    -0.007 A 
ATOM      6  C5  UNL d   1      -0.127   3.302   1.417  0.00  0.00     0.039 A 
ENDROOT
BRANCH   4   7
ATOM      7  O   UNL d   1       2.662   3.586   3.732  0.00  0.00    -0.526 OA
ATOM      8  H5  UNL d   1       3.465   4.128   3.660  0.00  0.00     0.418 HD
ENDBRANCH   4   7
TORSDOF 1
ENDMDL
