MODEL 1
REMARK minimizedAffinity 8.56546402
REMARK minimizedRMSD -1
REMARK  1 active torsions:
REMARK  status: ('A' for Active; 'I' for Inactive)
REMARK    1  A    between atoms: C3_4  and  O_7 
ROOT
ATOM      1  C   UNL d   1       5.947  -2.585   6.000  0.00  0.00    -0.033 A 
ATOM      2  C1  UNL d   1       5.358  -3.719   5.437  0.00  0.00     0.039 A 
ATOM      3  C2  UNL d   1       4.081  -3.639   4.877  0.00  0.00    -0.080 A 
ATOM      4  C3  UNL d   1       3.406  -2.422   4.884  0.00  0.00     0.150 A 
ATOM      5  C4  UNL d   1       3.989  -1.287   5.439  0.00  0.00    -0.007 A 
ATOM      6  C5  UNL d   1       5.263  -1.369   5.999  0.00  0.00     0.039 A 
ENDROOT
BRANCH   4   7
ATOM      7  O   UNL d   1       2.157  -2.296   4.353  0.00  0.00    -0.526 OA
ATOM      8  H5  UNL d   1       1.870  -3.168   4.032  0.00  0.00     0.418 HD
ENDBRANCH   4   7
TORSDOF 1
ENDMDL
