MODEL 1
REMARK minimizedAffinity 5.12117481
REMARK minimizedRMSD -1
REMARK  1 active torsions:
REMARK  status: ('A' for Active; 'I' for Inactive)
REMARK    1  A    between atoms: C3_4  and  O_7 
ROOT
ATOM      1  C   UNL d   1       1.237   3.222   2.954  0.00  0.00    -0.033 A 
ATOM      2  C1  UNL d   1       2.242   4.101   2.545  0.00  0.00     0.039 A 
ATOM      3  C2  UNL d   1       2.158   4.729   1.301  0.00  0.00    -0.080 A 
ATOM      4  C3  UNL d   1       1.066   4.471   0.477  0.00  0.00     0.150 A 
ATOM      5  C4  UNL d   1       0.060   3.600   0.880  0.00  0.00    -0.007 A 
ATOM      6  C5  UNL d   1       0.145   2.973   2.122  0.00  0.00     0.039 A 
ENDROOT
BRANCH   4   7
ATOM      7  O   UNL d   1       0.943   5.057  -0.748  0.00  0.00    -0.526 OA
ATOM      8  H5  UNL d   1       1.726   5.611  -0.904  0.00  0.00     0.418 HD
ENDBRANCH   4   7
TORSDOF 1
ENDMDL
