MODEL 1
REMARK minimizedAffinity 5.41977072
REMARK minimizedRMSD -1
REMARK  1 active torsions:
REMARK  status: ('A' for Active; 'I' for Inactive)
REMARK    1  A    between atoms: C3_4  and  O_7 
ROOT
ATOM      1  C   UNL d   1      -0.305   5.727  -0.993  0.00  0.00    -0.033 A 
ATOM      2  C1  UNL d   1      -0.561   5.992   0.354  0.00  0.00     0.039 A 
ATOM      3  C2  UNL d   1      -0.294   5.021   1.321  0.00  0.00    -0.080 A 
ATOM      4  C3  UNL d   1       0.229   3.792   0.929  0.00  0.00     0.150 A 
ATOM      5  C4  UNL d   1       0.490   3.523  -0.410  0.00  0.00    -0.007 A 
ATOM      6  C5  UNL d   1       0.222   4.493  -1.375  0.00  0.00     0.039 A 
ENDROOT
BRANCH   4   7
ATOM      7  O   UNL d   1       0.501   2.812   1.837  0.00  0.00    -0.526 OA
ATOM      8  H5  UNL d   1       0.244   3.129   2.719  0.00  0.00     0.418 HD
ENDBRANCH   4   7
TORSDOF 1
ENDMDL
