MODEL 1
REMARK minimizedAffinity 8.96689034
REMARK minimizedRMSD -1
REMARK  1 active torsions:
REMARK  status: ('A' for Active; 'I' for Inactive)
REMARK    1  A    between atoms: C3_4  and  O_7 
ROOT
ATOM      1  C   UNL d   1       0.216   4.698   1.205  0.00  0.00    -0.033 A 
ATOM      2  C1  UNL d   1       0.245   3.533   1.975  0.00  0.00     0.039 A 
ATOM      3  C2  UNL d   1       0.306   2.284   1.353  0.00  0.00    -0.080 A 
ATOM      4  C3  UNL d   1       0.339   2.214  -0.037  0.00  0.00     0.150 A 
ATOM      5  C4  UNL d   1       0.314   3.371  -0.810  0.00  0.00    -0.007 A 
ATOM      6  C5  UNL d   1       0.252   4.616  -0.187  0.00  0.00     0.039 A 
ENDROOT
BRANCH   4   7
ATOM      7  O   UNL d   1       0.394   1.018  -0.689  0.00  0.00    -0.526 OA
ATOM      8  H5  UNL d   1       0.376   0.306  -0.028  0.00  0.00     0.418 HD
ENDBRANCH   4   7
TORSDOF 1
ENDMDL
