MODEL 1
REMARK minimizedAffinity 4.49962282
REMARK minimizedRMSD -1
REMARK  1 active torsions:
REMARK  status: ('A' for Active; 'I' for Inactive)
REMARK    1  A    between atoms: C3_4  and  O_7 
ROOT
ATOM      1  C   UNL d   1       0.004   4.320   1.232  0.00  0.00    -0.033 A 
ATOM      2  C1  UNL d   1       0.334   3.752   0.000  0.00  0.00     0.039 A 
ATOM      3  C2  UNL d   1      -0.164   4.306  -1.181  0.00  0.00    -0.080 A 
ATOM      4  C3  UNL d   1      -0.987   5.427  -1.117  0.00  0.00     0.150 A 
ATOM      5  C4  UNL d   1      -1.316   6.000   0.107  0.00  0.00    -0.007 A 
ATOM      6  C5  UNL d   1      -0.819   5.445   1.286  0.00  0.00     0.039 A 
ENDROOT
BRANCH   4   7
ATOM      7  O   UNL d   1      -1.500   6.000  -2.242  0.00  0.00    -0.526 OA
ATOM      8  H5  UNL d   1      -1.212   5.480  -3.011  0.00  0.00     0.418 HD
ENDBRANCH   4   7
TORSDOF 1
ENDMDL
