MODEL 1
REMARK minimizedAffinity -4.95369673
REMARK minimizedRMSD -1
REMARK  0 active torsions:
REMARK  status: ('A' for Active; 'I' for Inactive)
ROOT
ATOM      1  C1  DEN d   1       0.387   0.401  -1.037  0.00  0.00     0.130 A 
ATOM      2  C2  DEN d   1      -0.996   0.436  -1.505  0.00  0.00    -0.031 A 
ATOM      3  C3  DEN d   1      -1.878   0.214  -0.342  0.00  0.00     0.027 A 
ATOM      4  C4  DEN d   1      -1.240  -0.174   2.127  0.00  0.00     0.027 A 
ATOM      5  C5  DEN d   1      -0.188  -0.299   3.008  0.00  0.00    -0.003 A 
ATOM      6  C6  DEN d   1       1.118  -0.235   2.601  0.00  0.00     0.001 A 
ATOM      7  C7  DEN d   1       1.407   0.006   1.284  0.00  0.00     0.017 A 
ATOM      8  C8  DEN d   1       0.352   0.126   0.388  0.00  0.00    -0.094 A 
ATOM      9  C9  DEN d   1      -0.961   0.070   0.821  0.00  0.00    -0.072 A 
ENDROOT
TORSDOF 0
ENDMDL
