MODEL 1
REMARK minimizedAffinity -5.00246811
REMARK minimizedRMSD -1
REMARK  0 active torsions:
REMARK  status: ('A' for Active; 'I' for Inactive)
ROOT
ATOM      1  C1  DEN d   1      -0.029   0.364  -1.145  0.00  0.00     0.130 A 
ATOM      2  C2  DEN d   1       0.982   1.418  -1.161  0.00  0.00    -0.031 A 
ATOM      3  C3  DEN d   1       1.535   1.542   0.202  0.00  0.00     0.027 A 
ATOM      4  C4  DEN d   1       0.932   0.207   2.325  0.00  0.00     0.027 A 
ATOM      5  C5  DEN d   1       0.124  -0.784   2.836  0.00  0.00    -0.003 A 
ATOM      6  C6  DEN d   1      -0.808  -1.434   2.070  0.00  0.00     0.001 A 
ATOM      7  C7  DEN d   1      -0.923  -1.131   0.739  0.00  0.00     0.017 A 
ATOM      8  C8  DEN d   1      -0.117  -0.127   0.219  0.00  0.00    -0.094 A 
ATOM      9  C9  DEN d   1       0.827   0.510   1.006  0.00  0.00    -0.072 A 
ENDROOT
TORSDOF 0
ENDMDL
