MODEL 1
REMARK minimizedAffinity 2.04290915
REMARK minimizedRMSD -1
REMARK  0 active torsions:
REMARK  status: ('A' for Active; 'I' for Inactive)
ROOT
ATOM      1  C1  DEN d   1       0.506   0.750  -1.683  0.00  0.00     0.130 A 
ATOM      2  C2  DEN d   1       1.426   1.225  -0.654  0.00  0.00    -0.031 A 
ATOM      3  C3  DEN d   1       0.887   0.824   0.661  0.00  0.00     0.027 A 
ATOM      4  C4  DEN d   1      -1.270  -0.483   1.201  0.00  0.00     0.027 A 
ATOM      5  C5  DEN d   1      -2.382  -1.088   0.657  0.00  0.00    -0.003 A 
ATOM      6  C6  DEN d   1      -2.624  -1.093  -0.691  0.00  0.00     0.001 A 
ATOM      7  C7  DEN d   1      -1.719  -0.521  -1.546  0.00  0.00     0.017 A 
ATOM      8  C8  DEN d   1      -0.600   0.098  -1.005  0.00  0.00    -0.094 A 
ATOM      9  C9  DEN d   1      -0.367   0.082   0.360  0.00  0.00    -0.072 A 
ENDROOT
TORSDOF 0
ENDMDL
