MODEL 1
REMARK minimizedAffinity -6.12404823
REMARK minimizedRMSD -1
REMARK  0 active torsions:
REMARK  status: ('A' for Active; 'I' for Inactive)
ROOT
ATOM      1  C1  DEN d   1      -1.654  -0.006   3.079  0.00  0.00     0.130 A 
ATOM      2  C2  DEN d   1      -2.912   0.191   2.365  0.00  0.00    -0.031 A 
ATOM      3  C3  DEN d   1      -2.603   0.343   0.929  0.00  0.00     0.027 A 
ATOM      4  C4  DEN d   1      -0.310   0.288  -0.252  0.00  0.00     0.027 A 
ATOM      5  C5  DEN d   1       1.048   0.158  -0.061  0.00  0.00    -0.003 A 
ATOM      6  C6  DEN d   1       1.599   0.001   1.183  0.00  0.00     0.001 A 
ATOM      7  C7  DEN d   1       0.784  -0.077   2.281  0.00  0.00     0.017 A 
ATOM      8  C8  DEN d   1      -0.586   0.060   2.098  0.00  0.00    -0.094 A 
ATOM      9  C9  DEN d   1      -1.125   0.206   0.831  0.00  0.00    -0.072 A 
ENDROOT
TORSDOF 0
ENDMDL
