MODEL 1
REMARK minimizedAffinity -2.79418373
REMARK minimizedRMSD -1
REMARK  0 active torsions:
REMARK  status: ('A' for Active; 'I' for Inactive)
ROOT
ATOM      1  C1  DEN d   1      -1.995  -0.601   1.318  0.00  0.00     0.130 A 
ATOM      2  C2  DEN d   1      -1.655  -0.789   2.725  0.00  0.00    -0.031 A 
ATOM      3  C3  DEN d   1      -0.302  -0.239   2.945  0.00  0.00     0.027 A 
ATOM      4  C4  DEN d   1       1.288   0.883   1.253  0.00  0.00     0.027 A 
ATOM      5  C5  DEN d   1       1.443   1.258  -0.063  0.00  0.00    -0.003 A 
ATOM      6  C6  DEN d   1       0.486   1.011  -1.011  0.00  0.00     0.001 A 
ATOM      7  C7  DEN d   1      -0.691   0.412  -0.646  0.00  0.00     0.017 A 
ATOM      8  C8  DEN d   1      -0.852   0.024   0.678  0.00  0.00    -0.094 A 
ATOM      9  C9  DEN d   1       0.123   0.294   1.623  0.00  0.00    -0.072 A 
ENDROOT
TORSDOF 0
ENDMDL
