MODEL 1
REMARK minimizedAffinity -4.42064953
REMARK minimizedRMSD -1
REMARK  0 active torsions:
REMARK  status: ('A' for Active; 'I' for Inactive)
ROOT
ATOM      1  C1  DEN d   1      -1.608  -0.704   2.052  0.00  0.00     0.130 A 
ATOM      2  C2  DEN d   1      -0.978  -0.294   3.304  0.00  0.00    -0.031 A 
ATOM      3  C3  DEN d   1       0.211   0.516   2.973  0.00  0.00     0.027 A 
ATOM      4  C4  DEN d   1       1.131   1.174   0.655  0.00  0.00     0.027 A 
ATOM      5  C5  DEN d   1       0.943   1.051  -0.704  0.00  0.00    -0.003 A 
ATOM      6  C6  DEN d   1      -0.081   0.313  -1.235  0.00  0.00     0.001 A 
ATOM      7  C7  DEN d   1      -0.983  -0.295  -0.402  0.00  0.00     0.017 A 
ATOM      8  C8  DEN d   1      -0.795  -0.182   0.969  0.00  0.00    -0.094 A 
ATOM      9  C9  DEN d   1       0.239   0.580   1.486  0.00  0.00    -0.072 A 
ENDROOT
TORSDOF 0
ENDMDL
