MODEL 1
REMARK minimizedAffinity -5.49890041
REMARK minimizedRMSD -1
REMARK  0 active torsions:
REMARK  status: ('A' for Active; 'I' for Inactive)
ROOT
ATOM      1  C1  DEN d   1       1.411   0.020  -0.535  0.00  0.00     0.130 A 
ATOM      2  C2  DEN d   1       0.140  -0.137  -1.238  0.00  0.00    -0.031 A 
ATOM      3  C3  DEN d   1      -0.906  -0.414  -0.233  0.00  0.00     0.027 A 
ATOM      4  C4  DEN d   1      -0.684  -0.609   2.329  0.00  0.00     0.027 A 
ATOM      5  C5  DEN d   1       0.198  -0.564   3.386  0.00  0.00    -0.003 A 
ATOM      6  C6  DEN d   1       1.540  -0.357   3.209  0.00  0.00     0.001 A 
ATOM      7  C7  DEN d   1       2.033  -0.142   1.949  0.00  0.00     0.017 A 
ATOM      8  C8  DEN d   1       1.151  -0.193   0.878  0.00  0.00    -0.094 A 
ATOM      9  C9  DEN d   1      -0.204  -0.391   1.079  0.00  0.00    -0.072 A 
ENDROOT
TORSDOF 0
ENDMDL
