MODEL 1
REMARK minimizedAffinity -4.31924248
REMARK minimizedRMSD -1
REMARK  0 active torsions:
REMARK  status: ('A' for Active; 'I' for Inactive)
ROOT
ATOM      1  C1  DEN d   1      -1.664  -0.555   1.944  0.00  0.00     0.130 A 
ATOM      2  C2  DEN d   1      -0.778  -0.517   3.104  0.00  0.00    -0.031 A 
ATOM      3  C3  DEN d   1       0.561  -0.099   2.642  0.00  0.00     0.027 A 
ATOM      4  C4  DEN d   1       1.342   0.497   0.257  0.00  0.00     0.027 A 
ATOM      5  C5  DEN d   1       0.950   0.601  -1.059  0.00  0.00    -0.003 A 
ATOM      6  C6  DEN d   1      -0.321   0.297  -1.469  0.00  0.00     0.001 A 
ATOM      7  C7  DEN d   1      -1.259  -0.083  -0.546  0.00  0.00     0.017 A 
ATOM      8  C8  DEN d   1      -0.870  -0.197   0.782  0.00  0.00    -0.094 A 
ATOM      9  C9  DEN d   1       0.417   0.127   1.178  0.00  0.00    -0.072 A 
ENDROOT
TORSDOF 0
ENDMDL
