MODEL 1
REMARK minimizedAffinity -4.52963638
REMARK minimizedRMSD -1
REMARK  0 active torsions:
REMARK  status: ('A' for Active; 'I' for Inactive)
ROOT
ATOM      1  C1  DEN d   1      -2.075   0.174   0.775  0.00  0.00     0.130 A 
ATOM      2  C2  DEN d   1      -1.989   0.458  -0.655  0.00  0.00    -0.031 A 
ATOM      3  C3  DEN d   1      -0.565   0.655  -0.996  0.00  0.00     0.027 A 
ATOM      4  C4  DEN d   1       1.502   0.542   0.542  0.00  0.00     0.027 A 
ATOM      5  C5  DEN d   1       1.929   0.342   1.837  0.00  0.00    -0.003 A 
ATOM      6  C6  DEN d   1       1.055   0.107   2.865  0.00  0.00     0.001 A 
ATOM      7  C7  DEN d   1      -0.288   0.022   2.609  0.00  0.00     0.017 A 
ATOM      8  C8  DEN d   1      -0.726   0.230   1.308  0.00  0.00    -0.094 A 
ATOM      9  C9  DEN d   1       0.174   0.454   0.280  0.00  0.00    -0.072 A 
ENDROOT
TORSDOF 0
ENDMDL
