MODEL 1
REMARK minimizedAffinity -3.26946402
REMARK minimizedRMSD -1
REMARK  0 active torsions:
REMARK  status: ('A' for Active; 'I' for Inactive)
ROOT
ATOM      1  C1  DEN d   1      -1.043  -0.844  -0.893  0.00  0.00     0.130 A 
ATOM      2  C2  DEN d   1      -0.214  -0.354  -1.991  0.00  0.00    -0.031 A 
ATOM      3  C3  DEN d   1       0.934   0.369  -1.409  0.00  0.00     0.027 A 
ATOM      4  C4  DEN d   1       1.509   0.772   1.073  0.00  0.00     0.027 A 
ATOM      5  C5  DEN d   1       1.096   0.558   2.370  0.00  0.00    -0.003 A 
ATOM      6  C6  DEN d   1      -0.065  -0.104   2.667  0.00  0.00     0.001 A 
ATOM      7  C7  DEN d   1      -0.833  -0.615   1.654  0.00  0.00     0.017 A 
ATOM      8  C8  DEN d   1      -0.428  -0.396   0.344  0.00  0.00    -0.094 A 
ATOM      9  C9  DEN d   1       0.756   0.265   0.065  0.00  0.00    -0.072 A 
ENDROOT
TORSDOF 0
ENDMDL
