MODEL 1
REMARK minimizedAffinity 5.53600073
REMARK minimizedRMSD -1
REMARK  1 active torsions:
REMARK  status: ('A' for Active; 'I' for Inactive)
REMARK    1  A    between atoms: C1_2  and  C2_3 
ROOT
ATOM      1  C2  UNL d   1       4.425  -5.708   3.634  0.00  0.00    -0.076 A 
ATOM      2  C3  UNL d   1       3.119  -5.997   4.066  0.00  0.00     0.004 A 
ATOM      3  C4  UNL d   1       2.021  -5.763   3.239  0.00  0.00    -0.003 A 
ATOM      4  C5  UNL d   1       2.212  -5.237   1.966  0.00  0.00     0.000 A 
ATOM      5  C6  UNL d   1       3.502  -4.960   1.515  0.00  0.00     0.000 A 
ATOM      6  C7  UNL d   1       4.621  -5.205   2.330  0.00  0.00    -0.073 A 
ATOM      7  C8  UNL d   1       5.989  -4.883   1.794  0.00  0.00     0.078 C 
ENDROOT
BRANCH   1   8
ATOM      8  C1  UNL d   1       5.574  -5.957   4.584  0.00  0.00     0.053 C 
ATOM      9  C   UNL d   1       5.278  -5.473   5.996  0.00  0.00     0.018 C 
ENDBRANCH   1   8
TORSDOF 1
ENDMDL
