MODEL 1
REMARK minimizedAffinity 4.83725834
REMARK minimizedRMSD -1
REMARK  1 active torsions:
REMARK  status: ('A' for Active; 'I' for Inactive)
REMARK    1  A    between atoms: C1_2  and  C2_3 
ROOT
ATOM      1  C2  UNL d   1      -3.290  -2.594  -5.975  0.00  0.00    -0.076 A 
ATOM      2  C3  UNL d   1      -1.956  -3.037  -5.997  0.00  0.00     0.004 A 
ATOM      3  C4  UNL d   1      -1.651  -4.397  -5.990  0.00  0.00    -0.003 A 
ATOM      4  C5  UNL d   1      -2.675  -5.336  -5.961  0.00  0.00     0.000 A 
ATOM      5  C6  UNL d   1      -4.005  -4.915  -5.956  0.00  0.00     0.000 A 
ATOM      6  C7  UNL d   1      -4.329  -3.548  -5.979  0.00  0.00    -0.073 A 
ATOM      7  C8  UNL d   1      -5.780  -3.150  -5.967  0.00  0.00     0.078 C 
ENDROOT
BRANCH   1   8
ATOM      8  C1  UNL d   1      -3.559  -1.106  -5.956  0.00  0.00     0.053 C 
ATOM      9  C   UNL d   1      -2.281  -0.284  -5.886  0.00  0.00     0.018 C 
ENDBRANCH   1   8
TORSDOF 1
ENDMDL
