MODEL 1
REMARK minimizedAffinity 1.32236755
REMARK minimizedRMSD -1
REMARK  1 active torsions:
REMARK  status: ('A' for Active; 'I' for Inactive)
REMARK    1  A    between atoms: C1_2  and  C2_3 
ROOT
ATOM      1  C2  UNL d   1      -1.228   1.031   2.824  0.00  0.00    -0.076 A 
ATOM      2  C3  UNL d   1      -1.592  -0.139   2.134  0.00  0.00     0.004 A 
ATOM      3  C4  UNL d   1      -2.859  -0.274   1.569  0.00  0.00    -0.003 A 
ATOM      4  C5  UNL d   1      -3.782   0.759   1.683  0.00  0.00     0.000 A 
ATOM      5  C6  UNL d   1      -3.432   1.934   2.348  0.00  0.00     0.000 A 
ATOM      6  C7  UNL d   1      -2.154   2.093   2.910  0.00  0.00    -0.073 A 
ATOM      7  C8  UNL d   1      -1.832   3.378   3.621  0.00  0.00     0.078 C 
ENDROOT
BRANCH   1   8
ATOM      8  C1  UNL d   1       0.151   1.109   3.440  0.00  0.00     0.053 C 
ATOM      9  C   UNL d   1       0.819  -0.253   3.547  0.00  0.00     0.018 C 
ENDBRANCH   1   8
TORSDOF 1
ENDMDL
