MODEL 1
REMARK minimizedAffinity 8.29683113
REMARK minimizedRMSD -1
REMARK  1 active torsions:
REMARK  status: ('A' for Active; 'I' for Inactive)
REMARK    1  A    between atoms: C1_2  and  C2_3 
ROOT
ATOM      1  C2  UNL d   1      -2.653   0.380   2.270  0.00  0.00    -0.076 A 
ATOM      2  C3  UNL d   1      -2.760   0.570   0.881  0.00  0.00     0.004 A 
ATOM      3  C4  UNL d   1      -4.005   0.693   0.268  0.00  0.00    -0.003 A 
ATOM      4  C5  UNL d   1      -5.165   0.628   1.033  0.00  0.00     0.000 A 
ATOM      5  C6  UNL d   1      -5.077   0.457   2.414  0.00  0.00     0.000 A 
ATOM      6  C7  UNL d   1      -3.829   0.348   3.050  0.00  0.00    -0.073 A 
ATOM      7  C8  UNL d   1      -3.794   0.158   4.542  0.00  0.00     0.078 C 
ENDROOT
BRANCH   1   8
ATOM      8  C1  UNL d   1      -1.277   0.225   2.876  0.00  0.00     0.053 C 
ATOM      9  C   UNL d   1      -0.165   0.505   1.877  0.00  0.00     0.018 C 
ENDBRANCH   1   8
TORSDOF 1
ENDMDL
