MODEL 1
REMARK minimizedAffinity 7.15189791
REMARK minimizedRMSD -1
REMARK  1 active torsions:
REMARK  status: ('A' for Active; 'I' for Inactive)
REMARK    1  A    between atoms: C1_2  and  C2_3 
ROOT
ATOM      1  C2  UNL d   1      -0.300  -4.758   1.368  0.00  0.00    -0.076 A 
ATOM      2  C3  UNL d   1      -0.970  -5.974   1.151  0.00  0.00     0.004 A 
ATOM      3  C4  UNL d   1      -2.245  -6.000   0.589  0.00  0.00    -0.003 A 
ATOM      4  C5  UNL d   1      -2.871  -4.809   0.236  0.00  0.00     0.000 A 
ATOM      5  C6  UNL d   1      -2.214  -3.595   0.428  0.00  0.00     0.000 A 
ATOM      6  C7  UNL d   1      -0.921  -3.553   0.978  0.00  0.00    -0.073 A 
ATOM      7  C8  UNL d   1      -0.261  -2.215   1.169  0.00  0.00     0.078 C 
ENDROOT
BRANCH   1   8
ATOM      8  C1  UNL d   1       1.071  -4.791   2.006  0.00  0.00     0.053 C 
ATOM      9  C   UNL d   1       1.886  -6.000   1.573  0.00  0.00     0.018 C 
ENDBRANCH   1   8
TORSDOF 1
ENDMDL
