MODEL 1
REMARK minimizedAffinity 2.87726927
REMARK minimizedRMSD -1
REMARK  1 active torsions:
REMARK  status: ('A' for Active; 'I' for Inactive)
REMARK    1  A    between atoms: C1_2  and  C2_3 
ROOT
ATOM      1  C2  UNL d   1       1.452  -5.973   2.249  0.00  0.00    -0.076 A 
ATOM      2  C3  UNL d   1       2.100  -5.990   1.002  0.00  0.00     0.004 A 
ATOM      3  C4  UNL d   1       3.491  -6.000   0.916  0.00  0.00    -0.003 A 
ATOM      4  C5  UNL d   1       4.257  -5.993   2.077  0.00  0.00     0.000 A 
ATOM      5  C6  UNL d   1       3.631  -5.993   3.323  0.00  0.00     0.000 A 
ATOM      6  C7  UNL d   1       2.229  -6.000   3.426  0.00  0.00    -0.073 A 
ATOM      7  C8  UNL d   1       1.606  -5.994   4.796  0.00  0.00     0.078 C 
ENDROOT
BRANCH   1   8
ATOM      8  C1  UNL d   1      -0.059  -5.935   2.279  0.00  0.00     0.053 C 
ATOM      9  C   UNL d   1      -0.650  -5.255   1.054  0.00  0.00     0.018 C 
ENDBRANCH   1   8
TORSDOF 1
ENDMDL
