MODEL 1
REMARK minimizedAffinity 9.62682343
REMARK minimizedRMSD -1
REMARK  1 active torsions:
REMARK  status: ('A' for Active; 'I' for Inactive)
REMARK    1  A    between atoms: C1_2  and  C2_3 
ROOT
ATOM      1  C2  UNL d   1      -5.245  -0.894   3.667  0.00  0.00    -0.076 A 
ATOM      2  C3  UNL d   1      -5.270  -2.299   3.695  0.00  0.00     0.004 A 
ATOM      3  C4  UNL d   1      -4.933  -3.000   4.851  0.00  0.00    -0.003 A 
ATOM      4  C5  UNL d   1      -4.567  -2.306   6.000  0.00  0.00     0.000 A 
ATOM      5  C6  UNL d   1      -4.555  -0.912   5.996  0.00  0.00     0.000 A 
ATOM      6  C7  UNL d   1      -4.907  -0.190   4.843  0.00  0.00    -0.073 A 
ATOM      7  C8  UNL d   1      -4.871   1.313   4.893  0.00  0.00     0.078 C 
ENDROOT
BRANCH   1   8
ATOM      8  C1  UNL d   1      -5.594  -0.188   2.376  0.00  0.00     0.053 C 
ATOM      9  C   UNL d   1      -4.373   0.079   1.510  0.00  0.00     0.018 C 
ENDBRANCH   1   8
TORSDOF 1
ENDMDL
