MODEL 1
REMARK minimizedAffinity 5.56979513
REMARK minimizedRMSD -1
REMARK  1 active torsions:
REMARK  status: ('A' for Active; 'I' for Inactive)
REMARK    1  A    between atoms: C1_2  and  C2_3 
ROOT
ATOM      1  C2  UNL d   1      -2.568   0.411   1.620  0.00  0.00    -0.076 A 
ATOM      2  C3  UNL d   1      -1.352   0.561   0.931  0.00  0.00     0.004 A 
ATOM      3  C4  UNL d   1      -0.135   0.543   1.610  0.00  0.00    -0.003 A 
ATOM      4  C5  UNL d   1      -0.114   0.373   2.990  0.00  0.00     0.000 A 
ATOM      5  C6  UNL d   1      -1.310   0.206   3.688  0.00  0.00     0.000 A 
ATOM      6  C7  UNL d   1      -2.544   0.205   3.016  0.00  0.00    -0.073 A 
ATOM      7  C8  UNL d   1      -3.803   0.026   3.820  0.00  0.00     0.078 C 
ENDROOT
BRANCH   1   8
ATOM      8  C1  UNL d   1      -3.858   0.466   0.834  0.00  0.00     0.053 C 
ATOM      9  C   UNL d   1      -4.306  -0.905   0.352  0.00  0.00     0.018 C 
ENDBRANCH   1   8
TORSDOF 1
ENDMDL
