MODEL 1
REMARK minimizedAffinity 9.11515713
REMARK minimizedRMSD -1
REMARK  1 active torsions:
REMARK  status: ('A' for Active; 'I' for Inactive)
REMARK    1  A    between atoms: C1_2  and  C2_3 
ROOT
ATOM      1  C2  UNL d   1      -3.454   0.844   2.202  0.00  0.00    -0.076 A 
ATOM      2  C3  UNL d   1      -2.200   1.382   2.542  0.00  0.00     0.004 A 
ATOM      3  C4  UNL d   1      -1.054   1.037   1.827  0.00  0.00    -0.003 A 
ATOM      4  C5  UNL d   1      -1.143   0.148   0.761  0.00  0.00     0.000 A 
ATOM      5  C6  UNL d   1      -2.382  -0.382   0.400  0.00  0.00     0.000 A 
ATOM      6  C7  UNL d   1      -3.549  -0.031   1.099  0.00  0.00    -0.073 A 
ATOM      7  C8  UNL d   1      -4.857  -0.638   0.670  0.00  0.00     0.078 C 
ENDROOT
BRANCH   1   8
ATOM      8  C1  UNL d   1      -4.658   1.233   3.030  0.00  0.00     0.053 C 
ATOM      9  C   UNL d   1      -4.657   0.579   4.403  0.00  0.00     0.018 C 
ENDBRANCH   1   8
TORSDOF 1
ENDMDL
