MODEL 1
REMARK minimizedAffinity 5.84513044
REMARK minimizedRMSD -1
REMARK  1 active torsions:
REMARK  status: ('A' for Active; 'I' for Inactive)
REMARK    1  A    between atoms: C1_2  and  C2_3 
ROOT
ATOM      1  C2  UNL d   1      -2.472   0.654   1.584  0.00  0.00    -0.076 A 
ATOM      2  C3  UNL d   1      -1.208   0.777   0.982  0.00  0.00     0.004 A 
ATOM      3  C4  UNL d   1      -0.111   1.241   1.707  0.00  0.00    -0.003 A 
ATOM      4  C5  UNL d   1      -0.261   1.588   3.045  0.00  0.00     0.000 A 
ATOM      5  C6  UNL d   1      -1.504   1.455   3.662  0.00  0.00     0.000 A 
ATOM      6  C7  UNL d   1      -2.616   0.974   2.951  0.00  0.00    -0.073 A 
ATOM      7  C8  UNL d   1      -3.935   0.857   3.665  0.00  0.00     0.078 C 
ENDROOT
BRANCH   1   8
ATOM      8  C1  UNL d   1      -3.631   0.171   0.741  0.00  0.00     0.053 C 
ATOM      9  C   UNL d   1      -3.713  -1.346   0.677  0.00  0.00     0.018 C 
ENDBRANCH   1   8
TORSDOF 1
ENDMDL
