MODEL 1
REMARK minimizedAffinity 10.0700006
REMARK minimizedRMSD -1
REMARK  0 active torsions:
REMARK  status: ('A' for Active; 'I' for Inactive)
ROOT
ATOM      1  O1  BZF d   1       4.844  -5.990  -4.832  0.00  0.00    -0.204 OA
ATOM      2  C2  BZF d   1       4.119  -5.794  -5.992  0.00  0.00     0.174 A 
ATOM      3  C3  BZF d   1       2.814  -5.597  -5.713  0.00  0.00    -0.012 A 
ATOM      4  C3A BZF d   1       2.733  -5.584  -4.285  0.00  0.00    -0.107 A 
ATOM      5  C4  BZF d   1       1.702  -5.413  -3.405  0.00  0.00     0.055 A 
ATOM      6  C5  BZF d   1       1.945  -5.530  -2.073  0.00  0.00    -0.016 A 
ATOM      7  C6  BZF d   1       3.203  -5.820  -1.587  0.00  0.00     0.022 A 
ATOM      8  C7  BZF d   1       4.257  -5.993  -2.420  0.00  0.00     0.029 A 
ATOM      9  C7A BZF d   1       4.022  -5.844  -3.765  0.00  0.00     0.058 A 
ENDROOT
TORSDOF 0
ENDMDL
