MODEL 1
REMARK minimizedAffinity 3.21907854
REMARK minimizedRMSD -1
REMARK  0 active torsions:
REMARK  status: ('A' for Active; 'I' for Inactive)
ROOT
ATOM      1  O1  BZF d   1       1.890  -5.995  -4.721  0.00  0.00    -0.204 OA
ATOM      2  C2  BZF d   1       2.427  -5.990  -5.994  0.00  0.00     0.174 A 
ATOM      3  C3  BZF d   1       3.643  -5.408  -5.998  0.00  0.00    -0.012 A 
ATOM      4  C3A BZF d   1       3.921  -5.108  -4.626  0.00  0.00    -0.107 A 
ATOM      5  C4  BZF d   1       4.984  -4.538  -3.987  0.00  0.00     0.055 A 
ATOM      6  C5  BZF d   1       4.911  -4.322  -2.647  0.00  0.00    -0.016 A 
ATOM      7  C6  BZF d   1       3.789  -4.658  -1.918  0.00  0.00     0.022 A 
ATOM      8  C7  BZF d   1       2.712  -5.231  -2.507  0.00  0.00     0.029 A 
ATOM      9  C7A BZF d   1       2.796  -5.481  -3.855  0.00  0.00     0.058 A 
ENDROOT
TORSDOF 0
ENDMDL
