MODEL 1
REMARK minimizedAffinity 3.54226613
REMARK minimizedRMSD -1
REMARK  0 active torsions:
REMARK  status: ('A' for Active; 'I' for Inactive)
ROOT
ATOM      1  O1  BZF d   1       1.832   5.382  -0.001  0.00  0.00    -0.204 OA
ATOM      2  C2  BZF d   1       3.008   6.000   0.381  0.00  0.00     0.174 A 
ATOM      3  C3  BZF d   1       3.793   5.148   1.072  0.00  0.00    -0.012 A 
ATOM      4  C3A BZF d   1       3.103   3.895   1.046  0.00  0.00    -0.107 A 
ATOM      5  C4  BZF d   1       3.387   2.657   1.548  0.00  0.00     0.055 A 
ATOM      6  C5  BZF d   1       2.469   1.664   1.413  0.00  0.00    -0.016 A 
ATOM      7  C6  BZF d   1       1.258   1.874   0.787  0.00  0.00     0.022 A 
ATOM      8  C7  BZF d   1       0.934   3.084   0.268  0.00  0.00     0.029 A 
ATOM      9  C7A BZF d   1       1.873   4.081   0.374  0.00  0.00     0.058 A 
ENDROOT
TORSDOF 0
ENDMDL
