MODEL 1
REMARK minimizedAffinity 1.76429486
REMARK minimizedRMSD -1
REMARK  0 active torsions:
REMARK  status: ('A' for Active; 'I' for Inactive)
ROOT
ATOM      1  O1  BZF d   1       3.913  -5.097  -2.175  0.00  0.00    -0.204 OA
ATOM      2  C2  BZF d   1       2.633  -5.613  -2.231  0.00  0.00     0.174 A 
ATOM      3  C3  BZF d   1       2.325  -5.995  -3.487  0.00  0.00    -0.012 A 
ATOM      4  C3A BZF d   1       3.519  -5.786  -4.247  0.00  0.00    -0.107 A 
ATOM      5  C4  BZF d   1       3.847  -5.993  -5.556  0.00  0.00     0.055 A 
ATOM      6  C5  BZF d   1       5.075  -5.615  -5.998  0.00  0.00    -0.016 A 
ATOM      7  C6  BZF d   1       5.997  -5.022  -5.160  0.00  0.00     0.022 A 
ATOM      8  C7  BZF d   1       5.719  -4.801  -3.852  0.00  0.00     0.029 A 
ATOM      9  C7A BZF d   1       4.491  -5.212  -3.395  0.00  0.00     0.058 A 
ENDROOT
TORSDOF 0
ENDMDL
