MODEL 1
REMARK minimizedAffinity 1.5230155
REMARK minimizedRMSD -1
REMARK  0 active torsions:
REMARK  status: ('A' for Active; 'I' for Inactive)
ROOT
ATOM      1  O1  BZF d   1      -5.200   2.106  -4.681  0.00  0.00    -0.204 OA
ATOM      2  C2  BZF d   1      -5.976   2.985  -5.412  0.00  0.00     0.174 A 
ATOM      3  C3  BZF d   1      -5.209   3.926  -6.000  0.00  0.00    -0.012 A 
ATOM      4  C3A BZF d   1      -3.861   3.562  -5.686  0.00  0.00    -0.107 A 
ATOM      5  C4  BZF d   1      -2.646   4.100  -6.000  0.00  0.00     0.055 A 
ATOM      6  C5  BZF d   1      -1.522   3.545  -5.475  0.00  0.00    -0.016 A 
ATOM      7  C6  BZF d   1      -1.577   2.456  -4.631  0.00  0.00     0.022 A 
ATOM      8  C7  BZF d   1      -2.759   1.883  -4.295  0.00  0.00     0.029 A 
ATOM      9  C7A BZF d   1      -3.894   2.422  -4.850  0.00  0.00     0.058 A 
ENDROOT
TORSDOF 0
ENDMDL
