MODEL 1
REMARK minimizedAffinity -0.3352516
REMARK minimizedRMSD -1
REMARK  0 active torsions:
REMARK  status: ('A' for Active; 'I' for Inactive)
ROOT
ATOM      1  O1  BZF d   1       2.533   2.418   2.887  0.00  0.00    -0.204 OA
ATOM      2  C2  BZF d   1       3.286   1.969   1.819  0.00  0.00     0.174 A 
ATOM      3  C3  BZF d   1       2.528   1.868   0.708  0.00  0.00    -0.012 A 
ATOM      4  C3A BZF d   1       1.241   2.366   1.085  0.00  0.00    -0.107 A 
ATOM      5  C4  BZF d   1       0.066   2.535   0.410  0.00  0.00     0.055 A 
ATOM      6  C5  BZF d   1      -1.027   2.978   1.086  0.00  0.00    -0.016 A 
ATOM      7  C6  BZF d   1      -0.981   3.256   2.437  0.00  0.00     0.022 A 
ATOM      8  C7  BZF d   1       0.164   3.109   3.148  0.00  0.00     0.029 A 
ATOM      9  C7A BZF d   1       1.278   2.693   2.460  0.00  0.00     0.058 A 
ENDROOT
TORSDOF 0
ENDMDL
