MODEL 1
REMARK minimizedAffinity 0.384867787
REMARK minimizedRMSD -1
REMARK  0 active torsions:
REMARK  status: ('A' for Active; 'I' for Inactive)
ROOT
ATOM      1  O1  BZF d   1       2.537  -5.933  -5.967  0.00  0.00    -0.204 OA
ATOM      2  C2  BZF d   1       1.524  -5.976  -5.028  0.00  0.00     0.174 A 
ATOM      3  C3  BZF d   1       2.026  -5.894  -3.779  0.00  0.00    -0.012 A 
ATOM      4  C3A BZF d   1       3.434  -5.700  -3.951  0.00  0.00    -0.107 A 
ATOM      5  C4  BZF d   1       4.472  -5.532  -3.080  0.00  0.00     0.055 A 
ATOM      6  C5  BZF d   1       5.736  -5.442  -3.569  0.00  0.00    -0.016 A 
ATOM      7  C6  BZF d   1       5.999  -5.520  -4.921  0.00  0.00     0.022 A 
ATOM      8  C7  BZF d   1       5.002  -5.681  -5.824  0.00  0.00     0.029 A 
ATOM      9  C7A BZF d   1       3.719  -5.740  -5.335  0.00  0.00     0.058 A 
ENDROOT
TORSDOF 0
ENDMDL
