MODEL 1
REMARK minimizedAffinity 3.93256664
REMARK minimizedRMSD -1
REMARK  0 active torsions:
REMARK  status: ('A' for Active; 'I' for Inactive)
ROOT
ATOM      1  O1  BZF d   1       4.127   5.884   3.623  0.00  0.00    -0.204 OA
ATOM      2  C2  BZF d   1       5.195   5.831   4.499  0.00  0.00     0.174 A 
ATOM      3  C3  BZF d   1       5.999   4.788   4.211  0.00  0.00    -0.012 A 
ATOM      4  C3A BZF d   1       5.446   4.203   3.027  0.00  0.00    -0.107 A 
ATOM      5  C4  BZF d   1       5.809   3.143   2.246  0.00  0.00     0.055 A 
ATOM      6  C5  BZF d   1       5.014   2.789   1.202  0.00  0.00    -0.016 A 
ATOM      7  C6  BZF d   1       3.849   3.468   0.914  0.00  0.00     0.022 A 
ATOM      8  C7  BZF d   1       3.450   4.529   1.657  0.00  0.00     0.029 A 
ATOM      9  C7A BZF d   1       4.268   4.910   2.693  0.00  0.00     0.058 A 
ENDROOT
TORSDOF 0
ENDMDL
