MODEL 1
REMARK minimizedAffinity 11.4263687
REMARK minimizedRMSD -1
REMARK  0 active torsions:
REMARK  status: ('A' for Active; 'I' for Inactive)
ROOT
ATOM      1  O1  BZF d   1       4.250  -4.629  -2.297  0.00  0.00    -0.204 OA
ATOM      2  C2  BZF d   1       3.380  -5.383  -1.533  0.00  0.00     0.174 A 
ATOM      3  C3  BZF d   1       2.464  -5.992  -2.313  0.00  0.00    -0.012 A 
ATOM      4  C3A BZF d   1       2.837  -5.668  -3.655  0.00  0.00    -0.107 A 
ATOM      5  C4  BZF d   1       2.322  -5.994  -4.878  0.00  0.00     0.055 A 
ATOM      6  C5  BZF d   1       2.879  -5.454  -5.994  0.00  0.00    -0.016 A 
ATOM      7  C6  BZF d   1       3.946  -4.583  -5.924  0.00  0.00     0.022 A 
ATOM      8  C7  BZF d   1       4.495  -4.234  -4.735  0.00  0.00     0.029 A 
ATOM      9  C7A BZF d   1       3.955  -4.804  -3.607  0.00  0.00     0.058 A 
ENDROOT
TORSDOF 0
ENDMDL
