MODEL 1
REMARK minimizedAffinity -2.45025945
REMARK minimizedRMSD -1
REMARK  0 active torsions:
REMARK  status: ('A' for Active; 'I' for Inactive)
ROOT
ATOM      1  O1  BZF d   1       0.487   1.388   0.772  0.00  0.00    -0.204 OA
ATOM      2  C2  BZF d   1      -0.469   2.290   1.199  0.00  0.00     0.174 A 
ATOM      3  C3  BZF d   1       0.110   3.386   1.730  0.00  0.00    -0.012 A 
ATOM      4  C3A BZF d   1       1.516   3.195   1.544  0.00  0.00    -0.107 A 
ATOM      5  C4  BZF d   1       2.614   3.948   1.850  0.00  0.00     0.055 A 
ATOM      6  C5  BZF d   1       3.851   3.443   1.602  0.00  0.00    -0.016 A 
ATOM      7  C6  BZF d   1       4.027   2.189   1.055  0.00  0.00     0.022 A 
ATOM      8  C7  BZF d   1       2.968   1.407   0.731  0.00  0.00     0.029 A 
ATOM      9  C7A BZF d   1       1.716   1.928   0.950  0.00  0.00     0.058 A 
ENDROOT
TORSDOF 0
ENDMDL
