MODEL 1
REMARK minimizedAffinity 0.157141343
REMARK minimizedRMSD -1
REMARK  0 active torsions:
REMARK  status: ('A' for Active; 'I' for Inactive)
ROOT
ATOM      1  O1  BZF d   1       4.595  -5.246  -2.490  0.00  0.00    -0.204 OA
ATOM      2  C2  BZF d   1       5.912  -5.249  -2.905  0.00  0.00     0.174 A 
ATOM      3  C3  BZF d   1       5.999  -5.540  -4.219  0.00  0.00    -0.012 A 
ATOM      4  C3A BZF d   1       4.646  -5.641  -4.673  0.00  0.00    -0.107 A 
ATOM      5  C4  BZF d   1       4.080  -5.895  -5.889  0.00  0.00     0.055 A 
ATOM      6  C5  BZF d   1       2.728  -5.997  -5.981  0.00  0.00    -0.016 A 
ATOM      7  C6  BZF d   1       1.913  -5.855  -4.876  0.00  0.00     0.022 A 
ATOM      8  C7  BZF d   1       2.428  -5.596  -3.650  0.00  0.00     0.029 A 
ATOM      9  C7A BZF d   1       3.792  -5.461  -3.560  0.00  0.00     0.058 A 
ENDROOT
TORSDOF 0
ENDMDL
