MODEL 1
REMARK minimizedAffinity 2.57722616
REMARK minimizedRMSD -1
REMARK  0 active torsions:
REMARK  status: ('A' for Active; 'I' for Inactive)
ROOT
ATOM      1  O1  BZF d   1       4.693  -5.869  -6.000  0.00  0.00    -0.204 OA
ATOM      2  C2  BZF d   1       5.988  -5.746  -5.536  0.00  0.00     0.174 A 
ATOM      3  C3  BZF d   1       6.000  -5.511  -4.208  0.00  0.00    -0.012 A 
ATOM      4  C3A BZF d   1       4.630  -5.576  -3.802  0.00  0.00    -0.107 A 
ATOM      5  C4  BZF d   1       4.000  -5.441  -2.598  0.00  0.00     0.055 A 
ATOM      6  C5  BZF d   1       2.642  -5.488  -2.553  0.00  0.00    -0.016 A 
ATOM      7  C6  BZF d   1       1.884  -5.663  -3.693  0.00  0.00     0.022 A 
ATOM      8  C7  BZF d   1       2.464  -5.806  -4.909  0.00  0.00     0.029 A 
ATOM      9  C7A BZF d   1       3.837  -5.792  -4.953  0.00  0.00     0.058 A 
ENDROOT
TORSDOF 0
ENDMDL
