MODEL 1
REMARK minimizedAffinity 5.48047352
REMARK minimizedRMSD -1
REMARK  0 active torsions:
REMARK  status: ('A' for Active; 'I' for Inactive)
ROOT
ATOM      1  O1  BZF d   1       5.293   4.878   0.220  0.00  0.00    -0.204 OA
ATOM      2  C2  BZF d   1       4.503   6.000   0.375  0.00  0.00     0.174 A 
ATOM      3  C3  BZF d   1       3.239   5.654   0.696  0.00  0.00    -0.012 A 
ATOM      4  C3A BZF d   1       3.262   4.230   0.835  0.00  0.00    -0.107 A 
ATOM      5  C4  BZF d   1       2.313   3.303   1.158  0.00  0.00     0.055 A 
ATOM      6  C5  BZF d   1       2.643   1.985   1.135  0.00  0.00    -0.016 A 
ATOM      7  C6  BZF d   1       3.909   1.559   0.788  0.00  0.00     0.022 A 
ATOM      8  C7  BZF d   1       4.885   2.442   0.465  0.00  0.00     0.029 A 
ATOM      9  C7A BZF d   1       4.564   3.776   0.519  0.00  0.00     0.058 A 
ENDROOT
TORSDOF 0
ENDMDL
