MODEL 1
REMARK minimizedAffinity 0.76860863
REMARK minimizedRMSD -1
REMARK  0 active torsions:
REMARK  status: ('A' for Active; 'I' for Inactive)
ROOT
ATOM      1  O1  BZF d   1       4.617  -4.570  -2.695  0.00  0.00    -0.204 OA
ATOM      2  C2  BZF d   1       5.901  -4.390  -3.172  0.00  0.00     0.174 A 
ATOM      3  C3  BZF d   1       5.998  -4.800  -4.453  0.00  0.00    -0.012 A 
ATOM      4  C3A BZF d   1       4.670  -5.180  -4.828  0.00  0.00    -0.107 A 
ATOM      5  C4  BZF d   1       4.121  -5.657  -5.984  0.00  0.00     0.055 A 
ATOM      6  C5  BZF d   1       2.806  -6.000  -5.998  0.00  0.00    -0.016 A 
ATOM      7  C6  BZF d   1       2.013  -5.884  -4.875  0.00  0.00     0.022 A 
ATOM      8  C7  BZF d   1       2.512  -5.411  -3.707  0.00  0.00     0.029 A 
ATOM      9  C7A BZF d   1       3.832  -5.033  -3.698  0.00  0.00     0.058 A 
ENDROOT
TORSDOF 0
ENDMDL
