MODEL 1
REMARK minimizedAffinity -1.60355389
REMARK minimizedRMSD -1
REMARK  0 active torsions:
REMARK  status: ('A' for Active; 'I' for Inactive)
ROOT
ATOM      1  O1  BZF d   1       4.764  -5.374  -2.598  0.00  0.00    -0.204 OA
ATOM      2  C2  BZF d   1       5.997  -5.023  -3.114  0.00  0.00     0.174 A 
ATOM      3  C3  BZF d   1       5.963  -5.004  -4.462  0.00  0.00    -0.012 A 
ATOM      4  C3A BZF d   1       4.602  -5.277  -4.809  0.00  0.00    -0.107 A 
ATOM      5  C4  BZF d   1       3.938  -5.376  -5.998  0.00  0.00     0.055 A 
ATOM      6  C5  BZF d   1       2.625  -5.726  -5.993  0.00  0.00    -0.016 A 
ATOM      7  C6  BZF d   1       1.948  -5.990  -4.821  0.00  0.00     0.022 A 
ATOM      8  C7  BZF d   1       2.563  -5.900  -3.617  0.00  0.00     0.029 A 
ATOM      9  C7A BZF d   1       3.881  -5.514  -3.615  0.00  0.00     0.058 A 
ENDROOT
TORSDOF 0
ENDMDL
