MODEL 1
REMARK minimizedAffinity 3.80098295
REMARK minimizedRMSD -1
REMARK  0 active torsions:
REMARK  status: ('A' for Active; 'I' for Inactive)
ROOT
ATOM      1  O1  BZF d   1       3.788  -5.787  -5.478  0.00  0.00    -0.204 OA
ATOM      2  C2  BZF d   1       5.066  -5.844  -6.000  0.00  0.00     0.174 A 
ATOM      3  C3  BZF d   1       5.985  -5.878  -5.014  0.00  0.00    -0.012 A 
ATOM      4  C3A BZF d   1       5.231  -5.933  -3.799  0.00  0.00    -0.107 A 
ATOM      5  C4  BZF d   1       5.579  -6.000  -2.480  0.00  0.00     0.055 A 
ATOM      6  C5  BZF d   1       4.602  -5.966  -1.536  0.00  0.00    -0.016 A 
ATOM      7  C6  BZF d   1       3.269  -5.861  -1.875  0.00  0.00     0.022 A 
ATOM      8  C7  BZF d   1       2.874  -5.797  -3.170  0.00  0.00     0.029 A 
ATOM      9  C7A BZF d   1       3.857  -5.864  -4.127  0.00  0.00     0.058 A 
ENDROOT
TORSDOF 0
ENDMDL
