MODEL 1
REMARK minimizedAffinity -0.243275627
REMARK minimizedRMSD -1
REMARK  0 active torsions:
REMARK  status: ('A' for Active; 'I' for Inactive)
ROOT
ATOM      1  O1  BZF d   1       2.659  -5.773  -4.738  0.00  0.00    -0.204 OA
ATOM      2  C2  BZF d   1       3.203  -5.929  -5.998  0.00  0.00     0.174 A 
ATOM      3  C3  BZF d   1       4.509  -5.591  -6.000  0.00  0.00    -0.012 A 
ATOM      4  C3A BZF d   1       4.821  -5.288  -4.637  0.00  0.00    -0.107 A 
ATOM      5  C4  BZF d   1       5.966  -4.903  -3.999  0.00  0.00     0.055 A 
ATOM      6  C5  BZF d   1       5.918  -4.616  -2.672  0.00  0.00    -0.016 A 
ATOM      7  C6  BZF d   1       4.743  -4.698  -1.953  0.00  0.00     0.022 A 
ATOM      8  C7  BZF d   1       3.583  -5.080  -2.541  0.00  0.00     0.029 A 
ATOM      9  C7A BZF d   1       3.635  -5.402  -3.875  0.00  0.00     0.058 A 
ENDROOT
TORSDOF 0
ENDMDL
