MODEL 1
REMARK minimizedAffinity 1.40595663
REMARK minimizedRMSD -1
REMARK  0 active torsions:
REMARK  status: ('A' for Active; 'I' for Inactive)
ROOT
ATOM      1  O1  BZF d   1       1.630  -5.947  -4.727  0.00  0.00    -0.204 OA
ATOM      2  C2  BZF d   1       2.164  -6.000  -6.000  0.00  0.00     0.174 A 
ATOM      3  C3  BZF d   1       3.450  -5.594  -5.997  0.00  0.00    -0.012 A 
ATOM      4  C3A BZF d   1       3.766  -5.355  -4.622  0.00  0.00    -0.107 A 
ATOM      5  C4  BZF d   1       4.898  -4.948  -3.976  0.00  0.00     0.055 A 
ATOM      6  C5  BZF d   1       4.854  -4.742  -2.633  0.00  0.00    -0.016 A 
ATOM      7  C6  BZF d   1       3.696  -4.928  -1.907  0.00  0.00     0.022 A 
ATOM      8  C7  BZF d   1       2.549  -5.336  -2.503  0.00  0.00     0.029 A 
ATOM      9  C7A BZF d   1       2.599  -5.577  -3.855  0.00  0.00     0.058 A 
ENDROOT
TORSDOF 0
ENDMDL
