MODEL 1
REMARK minimizedAffinity 2.33751631
REMARK minimizedRMSD -1
REMARK  3 active torsions:
REMARK  status: ('A' for Active; 'I' for Inactive)
REMARK    1  A    between atoms: C3'_2  and  C2'_3 
REMARK    2  A    between atoms: C2'_3  and  C1'_4 
REMARK    3  A    between atoms: C1'_4  and  C1_5 
ROOT
ATOM      1  C1  N4B d   1       0.056  -3.334  -4.765  0.00  0.00    -0.075 A 
ATOM      2  C2  N4B d   1      -0.221  -2.496  -5.868  0.00  0.00     0.002 A 
ATOM      3  C3  N4B d   1      -0.483  -1.163  -5.668  0.00  0.00     0.002 A 
ATOM      4  C4  N4B d   1      -0.494  -0.652  -4.378  0.00  0.00    -0.004 A 
ATOM      5  C5  N4B d   1      -0.201  -1.463  -3.321  0.00  0.00     0.002 A 
ATOM      6  C6  N4B d   1       0.069  -2.804  -3.508  0.00  0.00     0.002 A 
ENDROOT
BRANCH   1   7
ATOM      7  C1' N4B d   1       0.264  -4.815  -4.926  0.00  0.00     0.057 C 
BRANCH   7   8
ATOM      8  C2' N4B d   1      -1.060  -5.468  -5.313  0.00  0.00     0.009 C 
BRANCH   8   9
ATOM      9  C3' N4B d   1      -2.222  -4.918  -4.504  0.00  0.00     0.004 C 
ATOM     10  C4' N4B d   1      -3.388  -4.519  -5.360  0.00  0.00     0.003 C 
ENDBRANCH   8   9
ENDBRANCH   7   8
ENDBRANCH   1   7
TORSDOF 3
ENDMDL
