MODEL 1
REMARK minimizedAffinity 3.64329529
REMARK minimizedRMSD -1
REMARK  3 active torsions:
REMARK  status: ('A' for Active; 'I' for Inactive)
REMARK    1  A    between atoms: C3'_2  and  C2'_3 
REMARK    2  A    between atoms: C2'_3  and  C1'_4 
REMARK    3  A    between atoms: C1'_4  and  C1_5 
ROOT
ATOM      1  C1  N4B d   1      -2.884   0.586   0.673  0.00  0.00    -0.075 A 
ATOM      2  C2  N4B d   1      -2.554   1.107   1.943  0.00  0.00     0.002 A 
ATOM      3  C3  N4B d   1      -2.093   0.271   2.930  0.00  0.00     0.002 A 
ATOM      4  C4  N4B d   1      -1.973  -1.088   2.676  0.00  0.00    -0.004 A 
ATOM      5  C5  N4B d   1      -2.270  -1.579   1.439  0.00  0.00     0.002 A 
ATOM      6  C6  N4B d   1      -2.730  -0.749   0.436  0.00  0.00     0.002 A 
ENDROOT
BRANCH   1   7
ATOM      7  C1' N4B d   1      -3.473   1.448  -0.410  0.00  0.00     0.057 C 
BRANCH   7   8
ATOM      8  C2' N4B d   1      -4.307   0.577  -1.345  0.00  0.00     0.009 C 
BRANCH   8   9
ATOM      9  C3' N4B d   1      -5.757   1.028  -1.400  0.00  0.00     0.004 C 
ATOM     10  C4' N4B d   1      -5.999   2.297  -0.639  0.00  0.00     0.003 C 
ENDBRANCH   8   9
ENDBRANCH   7   8
ENDBRANCH   1   7
TORSDOF 3
ENDMDL
