MODEL 1
REMARK minimizedAffinity 1.59810817
REMARK minimizedRMSD -1
REMARK  0 active torsions:
REMARK  status: ('A' for Active; 'I' for Inactive)
ROOT
ATOM      1  C1  BNZ d   1       3.737   5.247  -4.458  0.00  0.00     0.000 A 
ATOM      2  C2  BNZ d   1       3.775   5.255  -3.089  0.00  0.00     0.000 A 
ATOM      3  C3  BNZ d   1       4.900   5.651  -2.422  0.00  0.00     0.000 A 
ATOM      4  C4  BNZ d   1       5.998   6.000  -3.123  0.00  0.00     0.000 A 
ATOM      5  C5  BNZ d   1       5.979   5.987  -4.504  0.00  0.00     0.000 A 
ATOM      6  C6  BNZ d   1       4.832   5.626  -5.172  0.00  0.00     0.000 A 
ENDROOT
TORSDOF 0
ENDMDL
