MODEL 1
REMARK minimizedAffinity 1.117311
REMARK minimizedRMSD -1
REMARK  0 active torsions:
REMARK  status: ('A' for Active; 'I' for Inactive)
ROOT
ATOM      1  C1  BNZ d   1      -3.796  -5.256  -4.879  0.00  0.00     0.000 A 
ATOM      2  C2  BNZ d   1      -4.811  -5.991  -5.432  0.00  0.00     0.000 A 
ATOM      3  C3  BNZ d   1      -5.892  -5.375  -5.998  0.00  0.00     0.000 A 
ATOM      4  C4  BNZ d   1      -5.977  -4.029  -5.974  0.00  0.00     0.000 A 
ATOM      5  C5  BNZ d   1      -4.966  -3.275  -5.412  0.00  0.00     0.000 A 
ATOM      6  C6  BNZ d   1      -3.860  -3.897  -4.878  0.00  0.00     0.000 A 
ENDROOT
TORSDOF 0
ENDMDL
