MODEL 1
REMARK minimizedAffinity 0.625910282
REMARK minimizedRMSD -1
REMARK  0 active torsions:
REMARK  status: ('A' for Active; 'I' for Inactive)
ROOT
ATOM      1  C1  BNZ d   1       4.147  -0.370  -4.004  0.00  0.00     0.000 A 
ATOM      2  C2  BNZ d   1       5.041  -1.407  -4.025  0.00  0.00     0.000 A 
ATOM      3  C3  BNZ d   1       5.981  -1.501  -5.013  0.00  0.00     0.000 A 
ATOM      4  C4  BNZ d   1       6.000  -0.582  -6.000  0.00  0.00     0.000 A 
ATOM      5  C5  BNZ d   1       5.099   0.464  -5.998  0.00  0.00     0.000 A 
ATOM      6  C6  BNZ d   1       4.179   0.577  -4.981  0.00  0.00     0.000 A 
ENDROOT
TORSDOF 0
ENDMDL
