MODEL 1
REMARK minimizedAffinity 0.389229149
REMARK minimizedRMSD -1
REMARK  0 active torsions:
REMARK  status: ('A' for Active; 'I' for Inactive)
ROOT
ATOM      1  C1  BNZ d   1      -5.168  -3.222  -3.774  0.00  0.00     0.000 A 
ATOM      2  C2  BNZ d   1      -4.869  -4.559  -3.788  0.00  0.00     0.000 A 
ATOM      3  C3  BNZ d   1      -5.081  -5.311  -4.909  0.00  0.00     0.000 A 
ATOM      4  C4  BNZ d   1      -5.628  -4.737  -6.000  0.00  0.00     0.000 A 
ATOM      5  C5  BNZ d   1      -5.944  -3.393  -5.998  0.00  0.00     0.000 A 
ATOM      6  C6  BNZ d   1      -5.693  -2.630  -4.881  0.00  0.00     0.000 A 
ENDROOT
TORSDOF 0
ENDMDL
