MODEL 1
REMARK minimizedAffinity -1.72386289
REMARK minimizedRMSD -1
REMARK  0 active torsions:
REMARK  status: ('A' for Active; 'I' for Inactive)
ROOT
ATOM      1  C1  BNZ d   1       3.307   2.225  -0.351  0.00  0.00     0.000 A 
ATOM      2  C2  BNZ d   1       3.807   1.250   0.471  0.00  0.00     0.000 A 
ATOM      3  C3  BNZ d   1       2.969   0.446   1.192  0.00  0.00     0.000 A 
ATOM      4  C4  BNZ d   1       1.637   0.643   1.122  0.00  0.00     0.000 A 
ATOM      5  C5  BNZ d   1       1.118   1.629   0.305  0.00  0.00     0.000 A 
ATOM      6  C6  BNZ d   1       1.963   2.411  -0.449  0.00  0.00     0.000 A 
ENDROOT
TORSDOF 0
ENDMDL
