MODEL 1
REMARK minimizedAffinity -0.193648726
REMARK minimizedRMSD -1
REMARK  0 active torsions:
REMARK  status: ('A' for Active; 'I' for Inactive)
ROOT
ATOM      1  C1  BNZ d   1       0.077   0.024   1.134  0.00  0.00     0.000 A 
ATOM      2  C2  BNZ d   1       0.538   1.242   0.710  0.00  0.00     0.000 A 
ATOM      3  C3  BNZ d   1       1.879   1.498   0.639  0.00  0.00     0.000 A 
ATOM      4  C4  BNZ d   1       2.756   0.550   1.030  0.00  0.00     0.000 A 
ATOM      5  C5  BNZ d   1       2.307  -0.680   1.468  0.00  0.00     0.000 A 
ATOM      6  C6  BNZ d   1       0.957  -0.947   1.501  0.00  0.00     0.000 A 
ENDROOT
TORSDOF 0
ENDMDL
