MODEL 1
REMARK minimizedAffinity -1.75475466
REMARK minimizedRMSD -1
REMARK  0 active torsions:
REMARK  status: ('A' for Active; 'I' for Inactive)
ROOT
ATOM      1  C1  BNZ d   1      -4.537  -3.773  -4.146  0.00  0.00     0.000 A 
ATOM      2  C2  BNZ d   1      -4.539  -5.142  -4.134  0.00  0.00     0.000 A 
ATOM      3  C3  BNZ d   1      -5.247  -5.849  -5.065  0.00  0.00     0.000 A 
ATOM      4  C4  BNZ d   1      -5.984  -5.187  -5.981  0.00  0.00     0.000 A 
ATOM      5  C5  BNZ d   1      -6.000  -3.807  -6.000  0.00  0.00     0.000 A 
ATOM      6  C6  BNZ d   1      -5.255  -3.098  -5.085  0.00  0.00     0.000 A 
ENDROOT
TORSDOF 0
ENDMDL
