MODEL 1
REMARK minimizedAffinity -4.12947178
REMARK minimizedRMSD -1
REMARK  0 active torsions:
REMARK  status: ('A' for Active; 'I' for Inactive)
ROOT
ATOM      1  C1  BNZ d   1      -4.569  -4.562  -1.754  0.00  0.00     0.000 A 
ATOM      2  C2  BNZ d   1      -4.951  -3.493  -2.519  0.00  0.00     0.000 A 
ATOM      3  C3  BNZ d   1      -5.253  -3.652  -3.843  0.00  0.00     0.000 A 
ATOM      4  C4  BNZ d   1      -5.134  -4.871  -4.408  0.00  0.00     0.000 A 
ATOM      5  C5  BNZ d   1      -4.740  -5.957  -3.651  0.00  0.00     0.000 A 
ATOM      6  C6  BNZ d   1      -4.475  -5.800  -2.310  0.00  0.00     0.000 A 
ENDROOT
TORSDOF 0
ENDMDL
