MODEL 1
REMARK minimizedAffinity 4.65169954
REMARK minimizedRMSD -1
REMARK  0 active torsions:
REMARK  status: ('A' for Active; 'I' for Inactive)
ROOT
ATOM      1  C4' PXY d   1      -2.444   0.911   3.300  0.00  0.00     0.077 C 
ATOM      2  C1' PXY d   1       1.813  -1.284   0.063  0.00  0.00     0.077 C 
ATOM      3  C1  PXY d   1       0.698  -0.719   0.920  0.00  0.00    -0.082 A 
ATOM      4  C2  PXY d   1      -0.159   0.141   0.394  0.00  0.00     0.003 A 
ATOM      5  C3  PXY d   1      -1.155   0.687   1.163  0.00  0.00     0.003 A 
ATOM      6  C4  PXY d   1      -1.307   0.308   2.470  0.00  0.00    -0.082 A 
ATOM      7  C5  PXY d   1      -0.443  -0.577   3.011  0.00  0.00     0.003 A 
ATOM      8  C6  PXY d   1       0.585  -1.088   2.225  0.00  0.00     0.003 A 
ENDROOT
TORSDOF 0
ENDMDL
