MODEL 1
REMARK minimizedAffinity -1.34628499
REMARK minimizedRMSD -1
REMARK  0 active torsions:
REMARK  status: ('A' for Active; 'I' for Inactive)
ROOT
ATOM      1  C4' PXY d   1      -2.183   0.386   0.782  0.00  0.00     0.077 C 
ATOM      2  C1' PXY d   1       2.958  -1.249  -1.292  0.00  0.00     0.077 C 
ATOM      3  C1  PXY d   1       1.607  -0.815  -0.760  0.00  0.00    -0.082 A 
ATOM      4  C2  PXY d   1       1.441  -0.645   0.542  0.00  0.00     0.003 A 
ATOM      5  C3  PXY d   1       0.217  -0.284   1.043  0.00  0.00     0.003 A 
ATOM      6  C4  PXY d   1      -0.834  -0.042   0.199  0.00  0.00    -0.082 A 
ATOM      7  C5  PXY d   1      -0.669  -0.203  -1.131  0.00  0.00     0.003 A 
ATOM      8  C6  PXY d   1       0.570  -0.610  -1.616  0.00  0.00     0.003 A 
ENDROOT
TORSDOF 0
ENDMDL
