MODEL 1
REMARK minimizedAffinity -4.8943491
REMARK minimizedRMSD -1
REMARK  0 active torsions:
REMARK  status: ('A' for Active; 'I' for Inactive)
ROOT
ATOM      1  C4' PXY d   1      -1.142   1.099  -1.986  0.00  0.00     0.077 C 
ATOM      2  C1' PXY d   1       1.138  -1.118   2.841  0.00  0.00     0.077 C 
ATOM      3  C1  PXY d   1       0.552  -0.533   1.571  0.00  0.00    -0.082 A 
ATOM      4  C2  PXY d   1      -0.708  -0.131   1.557  0.00  0.00     0.003 A 
ATOM      5  C3  PXY d   1      -1.263   0.371   0.408  0.00  0.00     0.003 A 
ATOM      6  C4  PXY d   1      -0.506   0.511  -0.724  0.00  0.00    -0.082 A 
ATOM      7  C5  PXY d   1       0.784   0.112  -0.715  0.00  0.00     0.003 A 
ATOM      8  C6  PXY d   1       1.317  -0.432   0.450  0.00  0.00     0.003 A 
ENDROOT
TORSDOF 0
ENDMDL
