MODEL 1
REMARK minimizedAffinity -3.68431568
REMARK minimizedRMSD -1
REMARK  0 active torsions:
REMARK  status: ('A' for Active; 'I' for Inactive)
ROOT
ATOM      1  C4' PXY d   1      -0.765   0.936  -1.794  0.00  0.00     0.077 C 
ATOM      2  C1' PXY d   1       0.981  -1.463   3.167  0.00  0.00     0.077 C 
ATOM      3  C1  PXY d   1       0.512  -0.840   1.866  0.00  0.00    -0.082 A 
ATOM      4  C2  PXY d   1       1.403  -0.392   0.997  0.00  0.00     0.003 A 
ATOM      5  C3  PXY d   1       0.995   0.203  -0.170  0.00  0.00     0.003 A 
ATOM      6  C4  PXY d   1      -0.337   0.292  -0.473  0.00  0.00    -0.082 A 
ATOM      7  C5  PXY d   1      -1.252  -0.173   0.404  0.00  0.00     0.003 A 
ATOM      8  C6  PXY d   1      -0.818  -0.736   1.601  0.00  0.00     0.003 A 
ENDROOT
TORSDOF 0
ENDMDL
