MODEL 1
REMARK minimizedAffinity -4.27932549
REMARK minimizedRMSD -1
REMARK  0 active torsions:
REMARK  status: ('A' for Active; 'I' for Inactive)
ROOT
ATOM      1  C4' PXY d   1       2.843  -1.408  -0.638  0.00  0.00     0.077 C 
ATOM      2  C1' PXY d   1      -2.055   0.101   2.035  0.00  0.00     0.077 C 
ATOM      3  C1  PXY d   1      -0.778  -0.298   1.323  0.00  0.00    -0.082 A 
ATOM      4  C2  PXY d   1       0.293  -0.619   2.032  0.00  0.00     0.003 A 
ATOM      5  C3  PXY d   1       1.465  -0.952   1.404  0.00  0.00     0.003 A 
ATOM      6  C4  PXY d   1       1.528  -1.008   0.038  0.00  0.00    -0.082 A 
ATOM      7  C5  PXY d   1       0.438  -0.692  -0.692  0.00  0.00     0.003 A 
ATOM      8  C6  PXY d   1      -0.732  -0.317  -0.036  0.00  0.00     0.003 A 
ENDROOT
TORSDOF 0
ENDMDL
