MODEL 1
REMARK minimizedAffinity -3.98028517
REMARK minimizedRMSD -1
REMARK  0 active torsions:
REMARK  status: ('A' for Active; 'I' for Inactive)
ROOT
ATOM      1  C4' PXY d   1      -0.367   0.809  -2.056  0.00  0.00     0.077 C 
ATOM      2  C1' PXY d   1       1.767  -1.971   2.541  0.00  0.00     0.077 C 
ATOM      3  C1  PXY d   1       1.219  -1.242   1.330  0.00  0.00    -0.082 A 
ATOM      4  C2  PXY d   1       0.117  -0.519   1.445  0.00  0.00     0.003 A 
ATOM      5  C3  PXY d   1      -0.410   0.121   0.353  0.00  0.00     0.003 A 
ATOM      6  C4  PXY d   1       0.227   0.064  -0.858  0.00  0.00    -0.082 A 
ATOM      7  C5  PXY d   1       1.358  -0.664  -0.981  0.00  0.00     0.003 A 
ATOM      8  C6  PXY d   1       1.854  -1.339   0.130  0.00  0.00     0.003 A 
ENDROOT
TORSDOF 0
ENDMDL
