MODEL 1
REMARK minimizedAffinity 0.478914857
REMARK minimizedRMSD -1
REMARK  0 active torsions:
REMARK  status: ('A' for Active; 'I' for Inactive)
ROOT
ATOM      1  C4' PXY d   1      -3.336   0.082  -3.393  0.00  0.00     0.077 C 
ATOM      2  C1' PXY d   1      -0.607   5.129  -2.684  0.00  0.00     0.077 C 
ATOM      3  C1  PXY d   1      -1.332   3.809  -2.862  0.00  0.00    -0.082 A 
ATOM      4  C2  PXY d   1      -0.648   2.726  -3.190  0.00  0.00     0.003 A 
ATOM      5  C3  PXY d   1      -1.292   1.531  -3.387  0.00  0.00     0.003 A 
ATOM      6  C4  PXY d   1      -2.644   1.433  -3.193  0.00  0.00    -0.082 A 
ATOM      7  C5  PXY d   1      -3.348   2.532  -2.848  0.00  0.00     0.003 A 
ATOM      8  C6  PXY d   1      -2.681   3.744  -2.693  0.00  0.00     0.003 A 
ENDROOT
TORSDOF 0
ENDMDL
