MODEL 1
REMARK minimizedAffinity -2.56971645
REMARK minimizedRMSD -1
REMARK  0 active torsions:
REMARK  status: ('A' for Active; 'I' for Inactive)
ROOT
ATOM      1  C4' PXY d   1      -1.242   2.700  -2.985  0.00  0.00     0.077 C 
ATOM      2  C1' PXY d   1       0.457  -0.680   1.385  0.00  0.00     0.077 C 
ATOM      3  C1  PXY d   1       0.018   0.198   0.231  0.00  0.00    -0.082 A 
ATOM      4  C2  PXY d   1      -0.265   1.472   0.449  0.00  0.00     0.003 A 
ATOM      5  C3  PXY d   1      -0.695   2.273  -0.578  0.00  0.00     0.003 A 
ATOM      6  C4  PXY d   1      -0.786   1.778  -1.851  0.00  0.00    -0.082 A 
ATOM      7  C5  PXY d   1      -0.489   0.482  -2.084  0.00  0.00     0.003 A 
ATOM      8  C6  PXY d   1      -0.094  -0.325  -1.020  0.00  0.00     0.003 A 
ENDROOT
TORSDOF 0
ENDMDL
