MODEL 1
REMARK minimizedAffinity -3.69368148
REMARK minimizedRMSD -1
REMARK  0 active torsions:
REMARK  status: ('A' for Active; 'I' for Inactive)
ROOT
ATOM      1  C4' PXY d   1      -1.626   1.846  -2.593  0.00  0.00     0.077 C 
ATOM      2  C1' PXY d   1       1.977  -1.061   0.869  0.00  0.00     0.077 C 
ATOM      3  C1  PXY d   1       1.039  -0.302  -0.049  0.00  0.00    -0.082 A 
ATOM      4  C2  PXY d   1       0.307   0.687   0.436  0.00  0.00     0.003 A 
ATOM      5  C3  PXY d   1      -0.570   1.362  -0.373  0.00  0.00     0.003 A 
ATOM      6  C4  PXY d   1      -0.659   1.058  -1.705  0.00  0.00    -0.082 A 
ATOM      7  C5  PXY d   1       0.093   0.057  -2.210  0.00  0.00     0.003 A 
ATOM      8  C6  PXY d   1       0.947  -0.644  -1.363  0.00  0.00     0.003 A 
ENDROOT
TORSDOF 0
ENDMDL
