MODEL 1
REMARK minimizedAffinity -5.19939566
REMARK minimizedRMSD -1
REMARK  0 active torsions:
REMARK  status: ('A' for Active; 'I' for Inactive)
ROOT
ATOM      1  C4' PXY d   1      -0.772   1.673  -1.908  0.00  0.00     0.077 C 
ATOM      2  C1' PXY d   1       1.294  -0.731   2.926  0.00  0.00     0.077 C 
ATOM      3  C1  PXY d   1       0.741  -0.107   1.660  0.00  0.00    -0.082 A 
ATOM      4  C2  PXY d   1       1.569   0.256   0.694  0.00  0.00     0.003 A 
ATOM      5  C3  PXY d   1       1.088   0.852  -0.444  0.00  0.00     0.003 A 
ATOM      6  C4  PXY d   1      -0.258   1.030  -0.617  0.00  0.00    -0.082 A 
ATOM      7  C5  PXY d   1      -1.110   0.653   0.360  0.00  0.00     0.003 A 
ATOM      8  C6  PXY d   1      -0.599   0.088   1.525  0.00  0.00     0.003 A 
ENDROOT
TORSDOF 0
ENDMDL
