MODEL 1
REMARK minimizedAffinity -3.57261086
REMARK minimizedRMSD -1
REMARK  0 active torsions:
REMARK  status: ('A' for Active; 'I' for Inactive)
ROOT
ATOM      1  C4' PXY d   1      -0.997   0.704  -1.736  0.00  0.00     0.077 C 
ATOM      2  C1' PXY d   1       1.676  -0.811   3.160  0.00  0.00     0.077 C 
ATOM      3  C1  PXY d   1       0.964  -0.418   1.881  0.00  0.00    -0.082 A 
ATOM      4  C2  PXY d   1       1.645  -0.344   0.749  0.00  0.00     0.003 A 
ATOM      5  C3  PXY d   1       1.023   0.041  -0.411  0.00  0.00     0.003 A 
ATOM      6  C4  PXY d   1      -0.321   0.302  -0.423  0.00  0.00    -0.082 A 
ATOM      7  C5  PXY d   1      -1.025   0.218   0.726  0.00  0.00     0.003 A 
ATOM      8  C6  PXY d   1      -0.367  -0.135   1.901  0.00  0.00     0.003 A 
ENDROOT
TORSDOF 0
ENDMDL
