MODEL 1
REMARK minimizedAffinity -4.64662838
REMARK minimizedRMSD -1
REMARK  0 active torsions:
REMARK  status: ('A' for Active; 'I' for Inactive)
ROOT
ATOM      1  C4' PXY d   1      -0.433   0.994  -1.841  0.00  0.00     0.077 C 
ATOM      2  C1' PXY d   1       1.104  -1.212   3.276  0.00  0.00     0.077 C 
ATOM      3  C1  PXY d   1       0.688  -0.636   1.937  0.00  0.00    -0.082 A 
ATOM      4  C2  PXY d   1       1.577  -0.543   0.961  0.00  0.00     0.003 A 
ATOM      5  C3  PXY d   1       1.226   0.004  -0.246  0.00  0.00     0.003 A 
ATOM      6  C4  PXY d   1      -0.061   0.411  -0.475  0.00  0.00    -0.082 A 
ATOM      7  C5  PXY d   1      -0.976   0.309   0.512  0.00  0.00     0.003 A 
ATOM      8  C6  PXY d   1      -0.590  -0.211   1.744  0.00  0.00     0.003 A 
ENDROOT
TORSDOF 0
ENDMDL
