MODEL 1
REMARK minimizedAffinity 9.69379044
REMARK minimizedRMSD -1
REMARK  0 active torsions:
REMARK  status: ('A' for Active; 'I' for Inactive)
ROOT
ATOM      1  C   UNL d   1       1.129  -1.308   2.019  0.00  0.00     0.020 A 
ATOM      2  C1  UNL d   1       1.653  -2.220   2.934  0.00  0.00     0.020 A 
ATOM      3  C2  UNL d   1       3.016  -2.522   2.916  0.00  0.00     0.034 A 
ATOM      4  C3  UNL d   1       3.860  -1.912   1.981  0.00  0.00     0.017 A 
ATOM      5  C4  UNL d   1       3.333  -0.996   1.063  0.00  0.00     0.017 A 
ATOM      6  C5  UNL d   1       1.968  -0.697   1.086  0.00  0.00     0.034 A 
ATOM      7 Cl   UNL d   1       4.312  -0.202  -0.120  0.00  0.00    -0.070 Cl
ATOM      8 Cl1  UNL d   1       5.536  -2.332   2.017  0.00  0.00    -0.070 Cl
ENDROOT
TORSDOF 0
ENDMDL
