MODEL 1
REMARK minimizedAffinity 4.0977354
REMARK minimizedRMSD -1
REMARK  0 active torsions:
REMARK  status: ('A' for Active; 'I' for Inactive)
ROOT
ATOM      1  C   UNL d   1       2.014  -6.000   2.219  0.00  0.00     0.020 A 
ATOM      2  C1  UNL d   1       1.554  -5.432   1.031  0.00  0.00     0.020 A 
ATOM      3  C2  UNL d   1       1.109  -4.108   1.017  0.00  0.00     0.034 A 
ATOM      4  C3  UNL d   1       1.123  -3.348   2.192  0.00  0.00     0.017 A 
ATOM      5  C4  UNL d   1       1.586  -3.919   3.383  0.00  0.00     0.017 A 
ATOM      6  C5  UNL d   1       2.030  -5.245   3.392  0.00  0.00     0.034 A 
ATOM      7 Cl   UNL d   1       1.634  -3.044   4.873  0.00  0.00    -0.070 Cl
ATOM      8 Cl1  UNL d   1       0.559  -1.717   2.101  0.00  0.00    -0.070 Cl
ENDROOT
TORSDOF 0
ENDMDL
