MODEL 1
REMARK minimizedAffinity 7.50752687
REMARK minimizedRMSD -1
REMARK  0 active torsions:
REMARK  status: ('A' for Active; 'I' for Inactive)
ROOT
ATOM      1  C   UNL d   1       1.810  -1.835   1.674  0.00  0.00     0.020 A 
ATOM      2  C1  UNL d   1       1.767  -0.471   1.392  0.00  0.00     0.020 A 
ATOM      3  C2  UNL d   1       1.498   0.445   2.411  0.00  0.00     0.034 A 
ATOM      4  C3  UNL d   1       1.269  -0.002   3.717  0.00  0.00     0.017 A 
ATOM      5  C4  UNL d   1       1.312  -1.372   4.000  0.00  0.00     0.017 A 
ATOM      6  C5  UNL d   1       1.583  -2.285   2.975  0.00  0.00     0.034 A 
ATOM      7 Cl   UNL d   1       1.040  -2.000   5.587  0.00  0.00    -0.070 Cl
ATOM      8 Cl1  UNL d   1       0.941   1.186   4.928  0.00  0.00    -0.070 Cl
ENDROOT
TORSDOF 0
ENDMDL
