MODEL 1
REMARK minimizedAffinity 7.70376396
REMARK minimizedRMSD -1
REMARK  0 active torsions:
REMARK  status: ('A' for Active; 'I' for Inactive)
ROOT
ATOM      1  C   UNL d   1      -2.172   3.221   1.873  0.00  0.00     0.020 A 
ATOM      2  C1  UNL d   1      -2.356   3.104   0.496  0.00  0.00     0.020 A 
ATOM      3  C2  UNL d   1      -3.541   3.553  -0.091  0.00  0.00     0.034 A 
ATOM      4  C3  UNL d   1      -4.547   4.121   0.700  0.00  0.00     0.017 A 
ATOM      5  C4  UNL d   1      -4.361   4.238   2.082  0.00  0.00     0.017 A 
ATOM      6  C5  UNL d   1      -3.173   3.786   2.664  0.00  0.00     0.034 A 
ATOM      7 Cl   UNL d   1      -5.556   4.927   3.123  0.00  0.00    -0.070 Cl
ATOM      8 Cl1  UNL d   1      -5.987   4.655  -0.092  0.00  0.00    -0.070 Cl
ENDROOT
TORSDOF 0
ENDMDL
