MODEL 1
REMARK minimizedAffinity 15.2902727
REMARK minimizedRMSD -1
REMARK  0 active torsions:
REMARK  status: ('A' for Active; 'I' for Inactive)
ROOT
ATOM      1  C   UNL d   1       2.791  -5.632   0.741  0.00  0.00     0.020 A 
ATOM      2  C1  UNL d   1       2.235  -5.150   1.925  0.00  0.00     0.020 A 
ATOM      3  C2  UNL d   1       0.860  -4.924   2.010  0.00  0.00     0.034 A 
ATOM      4  C3  UNL d   1       0.036  -5.178   0.907  0.00  0.00     0.017 A 
ATOM      5  C4  UNL d   1       0.595  -5.662  -0.281  0.00  0.00     0.017 A 
ATOM      6  C5  UNL d   1       1.973  -5.887  -0.360  0.00  0.00     0.034 A 
ATOM      7 Cl   UNL d   1      -0.358  -5.999  -1.683  0.00  0.00    -0.070 Cl
ATOM      8 Cl1  UNL d   1      -1.656  -4.876   1.082  0.00  0.00    -0.070 Cl
ENDROOT
TORSDOF 0
ENDMDL
