MODEL 1
REMARK minimizedAffinity 14.0008993
REMARK minimizedRMSD -1
REMARK  0 active torsions:
REMARK  status: ('A' for Active; 'I' for Inactive)
ROOT
ATOM      1  C   UNL d   1      -1.994   1.068  -0.182  0.00  0.00     0.020 A 
ATOM      2  C1  UNL d   1      -2.294   2.415  -0.389  0.00  0.00     0.020 A 
ATOM      3  C2  UNL d   1      -2.954   2.812  -1.553  0.00  0.00     0.034 A 
ATOM      4  C3  UNL d   1      -3.316   1.863  -2.516  0.00  0.00     0.017 A 
ATOM      5  C4  UNL d   1      -3.015   0.513  -2.308  0.00  0.00     0.017 A 
ATOM      6  C5  UNL d   1      -2.354   0.120  -1.140  0.00  0.00     0.034 A 
ATOM      7 Cl   UNL d   1      -3.430  -0.716  -3.451  0.00  0.00    -0.070 Cl
ATOM      8 Cl1  UNL d   1      -4.130   2.426  -3.933  0.00  0.00    -0.070 Cl
ENDROOT
TORSDOF 0
ENDMDL
