MODEL 1
REMARK minimizedAffinity 8.500494
REMARK minimizedRMSD -1
REMARK  0 active torsions:
REMARK  status: ('A' for Active; 'I' for Inactive)
ROOT
ATOM      1  C   UNL d   1       0.824  -1.187   1.509  0.00  0.00     0.020 A 
ATOM      2  C1  UNL d   1       1.883  -0.299   1.327  0.00  0.00     0.020 A 
ATOM      3  C2  UNL d   1       3.200  -0.764   1.365  0.00  0.00     0.034 A 
ATOM      4  C3  UNL d   1       3.460  -2.121   1.585  0.00  0.00     0.017 A 
ATOM      5  C4  UNL d   1       2.396  -3.012   1.768  0.00  0.00     0.017 A 
ATOM      6  C5  UNL d   1       1.080  -2.541   1.729  0.00  0.00     0.034 A 
ATOM      7 Cl   UNL d   1       2.639  -4.701   2.044  0.00  0.00    -0.070 Cl
ATOM      8 Cl1  UNL d   1       5.112  -2.627   1.619  0.00  0.00    -0.070 Cl
ENDROOT
TORSDOF 0
ENDMDL
