MODEL 1
REMARK minimizedAffinity 12.9741974
REMARK minimizedRMSD -1
REMARK  0 active torsions:
REMARK  status: ('A' for Active; 'I' for Inactive)
ROOT
ATOM      1  C   UNL d   1       2.551  -0.169   1.918  0.00  0.00     0.020 A 
ATOM      2  C1  UNL d   1       1.527  -1.084   2.162  0.00  0.00     0.020 A 
ATOM      3  C2  UNL d   1       1.148  -1.989   1.169  0.00  0.00     0.034 A 
ATOM      4  C3  UNL d   1       1.792  -1.982  -0.073  0.00  0.00     0.017 A 
ATOM      5  C4  UNL d   1       2.820  -1.063  -0.318  0.00  0.00     0.017 A 
ATOM      6  C5  UNL d   1       3.196  -0.159   0.681  0.00  0.00     0.034 A 
ATOM      7 Cl   UNL d   1       3.662  -0.994  -1.825  0.00  0.00    -0.070 Cl
ATOM      8 Cl1  UNL d   1       1.272  -3.130  -1.255  0.00  0.00    -0.070 Cl
ENDROOT
TORSDOF 0
ENDMDL
