MODEL 1
REMARK minimizedAffinity 6.2899189
REMARK minimizedRMSD -1
REMARK  0 active torsions:
REMARK  status: ('A' for Active; 'I' for Inactive)
ROOT
ATOM      1  C   UNL d   1       0.496  -2.989   3.811  0.00  0.00     0.020 A 
ATOM      2  C1  UNL d   1       1.151  -3.381   2.644  0.00  0.00     0.020 A 
ATOM      3  C2  UNL d   1       1.829  -2.434   1.873  0.00  0.00     0.034 A 
ATOM      4  C3  UNL d   1       1.852  -1.091   2.267  0.00  0.00     0.017 A 
ATOM      5  C4  UNL d   1       1.193  -0.699   3.438  0.00  0.00     0.017 A 
ATOM      6  C5  UNL d   1       0.517  -1.652   4.207  0.00  0.00     0.034 A 
ATOM      7 Cl   UNL d   1       1.178   0.939   3.989  0.00  0.00    -0.070 Cl
ATOM      8 Cl1  UNL d   1       2.709   0.026   1.266  0.00  0.00    -0.070 Cl
ENDROOT
TORSDOF 0
ENDMDL
