MODEL 1
REMARK minimizedAffinity 3.51367307
REMARK minimizedRMSD -1
REMARK  0 active torsions:
REMARK  status: ('A' for Active; 'I' for Inactive)
ROOT
ATOM      1  C   UNL d   1       2.333   0.985   1.608  0.00  0.00     0.020 A 
ATOM      2  C1  UNL d   1       3.319   0.286   0.913  0.00  0.00     0.020 A 
ATOM      3  C2  UNL d   1       3.581  -1.049   1.227  0.00  0.00     0.034 A 
ATOM      4  C3  UNL d   1       2.856  -1.689   2.239  0.00  0.00     0.017 A 
ATOM      5  C4  UNL d   1       1.867  -0.986   2.936  0.00  0.00     0.017 A 
ATOM      6  C5  UNL d   1       1.609   0.351   2.617  0.00  0.00     0.034 A 
ATOM      7 Cl   UNL d   1       0.932  -1.708   4.198  0.00  0.00    -0.070 Cl
ATOM      8 Cl1  UNL d   1       3.233  -3.342   2.575  0.00  0.00    -0.070 Cl
ENDROOT
TORSDOF 0
ENDMDL
