MODEL 1
REMARK minimizedAffinity -5.41451502
REMARK minimizedRMSD -1
REMARK  1 active torsions:
REMARK  status: ('A' for Active; 'I' for Inactive)
REMARK    1  A    between atoms: C1_2  and  C2_3 
ROOT
ATOM      1  C2  UNL d   1      -0.095   0.589   0.202  0.00  0.00    -0.077 A 
ATOM      2  C3  UNL d   1      -0.237   0.973   1.543  0.00  0.00     0.002 A 
ATOM      3  C4  UNL d   1       0.769   1.703   2.179  0.00  0.00     0.002 A 
ATOM      4  C5  UNL d   1       1.922   2.057   1.481  0.00  0.00    -0.004 A 
ATOM      5  C6  UNL d   1       2.074   1.678   0.148  0.00  0.00     0.002 A 
ATOM      6  C7  UNL d   1       1.069   0.948  -0.489  0.00  0.00     0.002 A 
ENDROOT
BRANCH   1   7
ATOM      7  C1  UNL d   1      -1.201  -0.155  -0.500  0.00  0.00     0.055 C 
ATOM      8  C   UNL d   1      -0.663  -0.977  -1.663  0.00  0.00     0.019 C 
ENDBRANCH   1   7
TORSDOF 1
ENDMDL
