MODEL 1
REMARK minimizedAffinity -4.58698797
REMARK minimizedRMSD -1
REMARK  1 active torsions:
REMARK  status: ('A' for Active; 'I' for Inactive)
REMARK    1  A    between atoms: C1_2  and  C2_3 
ROOT
ATOM      1  C2  UNL d   1       0.809   0.534   0.859  0.00  0.00    -0.077 A 
ATOM      2  C3  UNL d   1       1.634   0.708  -0.260  0.00  0.00     0.002 A 
ATOM      3  C4  UNL d   1       2.689   1.623  -0.225  0.00  0.00     0.002 A 
ATOM      4  C5  UNL d   1       2.929   2.367   0.928  0.00  0.00    -0.004 A 
ATOM      5  C6  UNL d   1       2.113   2.202   2.046  0.00  0.00     0.002 A 
ATOM      6  C7  UNL d   1       1.058   1.289   2.012  0.00  0.00     0.002 A 
ENDROOT
BRANCH   1   7
ATOM      7  C1  UNL d   1      -0.298  -0.488   0.840  0.00  0.00     0.055 C 
ATOM      8  C   UNL d   1      -0.566  -0.988  -0.572  0.00  0.00     0.019 C 
ENDBRANCH   1   7
TORSDOF 1
ENDMDL
