MODEL 1
REMARK minimizedAffinity -3.92398024
REMARK minimizedRMSD -1
REMARK  1 active torsions:
REMARK  status: ('A' for Active; 'I' for Inactive)
REMARK    1  A    between atoms: C1_2  and  C2_3 
ROOT
ATOM      1  C2  UNL d   1       0.005  -0.055   0.114  0.00  0.00    -0.077 A 
ATOM      2  C3  UNL d   1       1.162   0.735   0.093  0.00  0.00     0.002 A 
ATOM      3  C4  UNL d   1       1.292   1.820   0.962  0.00  0.00     0.002 A 
ATOM      4  C5  UNL d   1       0.271   2.122   1.861  0.00  0.00    -0.004 A 
ATOM      5  C6  UNL d   1      -0.885   1.343   1.888  0.00  0.00     0.002 A 
ATOM      6  C7  UNL d   1      -1.017   0.259   1.019  0.00  0.00     0.002 A 
ENDROOT
BRANCH   1   7
ATOM      7  C1  UNL d   1      -0.117  -1.255  -0.788  0.00  0.00     0.055 C 
ATOM      8  C   UNL d   1      -1.389  -1.195  -1.621  0.00  0.00     0.019 C 
ENDBRANCH   1   7
TORSDOF 1
ENDMDL
