MODEL 1
REMARK minimizedAffinity -3.50409245
REMARK minimizedRMSD -1
REMARK  1 active torsions:
REMARK  status: ('A' for Active; 'I' for Inactive)
REMARK    1  A    between atoms: C1_2  and  C2_3 
ROOT
ATOM      1  C2  UNL d   1      -0.169  -0.343  -0.122  0.00  0.00    -0.077 A 
ATOM      2  C3  UNL d   1      -1.073  -0.044   0.908  0.00  0.00     0.002 A 
ATOM      3  C4  UNL d   1      -1.012   1.186   1.566  0.00  0.00     0.002 A 
ATOM      4  C5  UNL d   1      -0.053   2.127   1.199  0.00  0.00    -0.004 A 
ATOM      5  C6  UNL d   1       0.851   1.839   0.177  0.00  0.00     0.002 A 
ATOM      6  C7  UNL d   1       0.792   0.610  -0.481  0.00  0.00     0.002 A 
ENDROOT
BRANCH   1   7
ATOM      7  C1  UNL d   1      -0.265  -1.650  -0.866  0.00  0.00     0.055 C 
ATOM      8  C   UNL d   1      -1.328  -1.591  -1.953  0.00  0.00     0.019 C 
ENDBRANCH   1   7
TORSDOF 1
ENDMDL
