MODEL 1
REMARK minimizedAffinity -2.21613526
REMARK minimizedRMSD -1
REMARK  1 active torsions:
REMARK  status: ('A' for Active; 'I' for Inactive)
REMARK    1  A    between atoms: C1_2  and  C2_3 
ROOT
ATOM      1  C2  UNL d   1       0.663  -0.277  -0.245  0.00  0.00    -0.077 A 
ATOM      2  C3  UNL d   1       0.826   0.915   0.475  0.00  0.00     0.002 A 
ATOM      3  C4  UNL d   1      -0.165   1.350   1.357  0.00  0.00     0.002 A 
ATOM      4  C5  UNL d   1      -1.325   0.596   1.530  0.00  0.00    -0.004 A 
ATOM      5  C6  UNL d   1      -1.498  -0.589   0.817  0.00  0.00     0.002 A 
ATOM      6  C7  UNL d   1      -0.508  -1.024  -0.066  0.00  0.00     0.002 A 
ENDROOT
BRANCH   1   7
ATOM      7  C1  UNL d   1       1.753  -0.772  -1.159  0.00  0.00     0.055 C 
ATOM      8  C   UNL d   1       3.027   0.043  -0.993  0.00  0.00     0.019 C 
ENDBRANCH   1   7
TORSDOF 1
ENDMDL
