MODEL 1
REMARK minimizedAffinity -3.9551208
REMARK minimizedRMSD -1
REMARK  1 active torsions:
REMARK  status: ('A' for Active; 'I' for Inactive)
REMARK    1  A    between atoms: C1_2  and  C2_3 
ROOT
ATOM      1  C2  UNL d   1      -3.570  -2.380  -2.758  0.00  0.00    -0.077 A 
ATOM      2  C3  UNL d   1      -3.327  -1.111  -2.214  0.00  0.00     0.002 A 
ATOM      3  C4  UNL d   1      -2.490  -0.209  -2.873  0.00  0.00     0.002 A 
ATOM      4  C5  UNL d   1      -1.894  -0.564  -4.081  0.00  0.00    -0.004 A 
ATOM      5  C6  UNL d   1      -2.128  -1.824  -4.630  0.00  0.00     0.002 A 
ATOM      6  C7  UNL d   1      -2.963  -2.728  -3.971  0.00  0.00     0.002 A 
ENDROOT
BRANCH   1   7
ATOM      7  C1  UNL d   1      -4.512  -3.337  -2.073  0.00  0.00     0.055 C 
ATOM      8  C   UNL d   1      -3.873  -3.952  -0.837  0.00  0.00     0.019 C 
ENDBRANCH   1   7
TORSDOF 1
ENDMDL
