MODEL 1
REMARK minimizedAffinity -5.62816
REMARK minimizedRMSD -1
REMARK  1 active torsions:
REMARK  status: ('A' for Active; 'I' for Inactive)
REMARK    1  A    between atoms: C1_2  and  C2_3 
ROOT
ATOM      1  C2  UNL d   1       0.704   0.292   0.048  0.00  0.00    -0.077 A 
ATOM      2  C3  UNL d   1       1.963   0.849  -0.217  0.00  0.00     0.002 A 
ATOM      3  C4  UNL d   1       2.390   1.987   0.470  0.00  0.00     0.002 A 
ATOM      4  C5  UNL d   1       1.568   2.574   1.428  0.00  0.00    -0.004 A 
ATOM      5  C6  UNL d   1       0.313   2.029   1.698  0.00  0.00     0.002 A 
ATOM      6  C7  UNL d   1      -0.117   0.893   1.012  0.00  0.00     0.002 A 
ENDROOT
BRANCH   1   7
ATOM      7  C1  UNL d   1       0.261  -0.964  -0.656  0.00  0.00     0.055 C 
ATOM      8  C   UNL d   1      -1.213  -1.248  -0.407  0.00  0.00     0.019 C 
ENDBRANCH   1   7
TORSDOF 1
ENDMDL
