MODEL 1
REMARK minimizedAffinity -3.31221533
REMARK minimizedRMSD -1
REMARK  1 active torsions:
REMARK  status: ('A' for Active; 'I' for Inactive)
REMARK    1  A    between atoms: C1_2  and  C2_3 
ROOT
ATOM      1  C2  UNL d   1      -0.263  -0.151  -0.102  0.00  0.00    -0.077 A 
ATOM      2  C3  UNL d   1       0.827   0.637  -0.496  0.00  0.00     0.002 A 
ATOM      3  C4  UNL d   1       1.161   1.789   0.219  0.00  0.00     0.002 A 
ATOM      4  C5  UNL d   1       0.413   2.160   1.334  0.00  0.00    -0.004 A 
ATOM      5  C6  UNL d   1      -0.674   1.384   1.733  0.00  0.00     0.002 A 
ATOM      6  C7  UNL d   1      -1.010   0.233   1.019  0.00  0.00     0.002 A 
ENDROOT
BRANCH   1   7
ATOM      7  C1  UNL d   1      -0.595  -1.420  -0.842  0.00  0.00     0.055 C 
ATOM      8  C   UNL d   1      -1.668  -1.182  -1.896  0.00  0.00     0.019 C 
ENDBRANCH   1   7
TORSDOF 1
ENDMDL
