MODEL 1
REMARK minimizedAffinity -4.90145779
REMARK minimizedRMSD -1
REMARK  1 active torsions:
REMARK  status: ('A' for Active; 'I' for Inactive)
REMARK    1  A    between atoms: C1_2  and  C2_3 
ROOT
ATOM      1  C2  UNL d   1       1.336   1.587   0.801  0.00  0.00    -0.077 A 
ATOM      2  C3  UNL d   1       0.240   1.971   1.587  0.00  0.00     0.002 A 
ATOM      3  C4  UNL d   1      -0.990   1.327   1.445  0.00  0.00     0.002 A 
ATOM      4  C5  UNL d   1      -1.135   0.292   0.524  0.00  0.00    -0.004 A 
ATOM      5  C6  UNL d   1      -0.052  -0.096  -0.264  0.00  0.00     0.002 A 
ATOM      6  C7  UNL d   1       1.179   0.548  -0.125  0.00  0.00     0.002 A 
ENDROOT
BRANCH   1   7
ATOM      7  C1  UNL d   1       2.677   2.248   0.986  0.00  0.00     0.055 C 
ATOM      8  C   UNL d   1       3.807   1.355   0.495  0.00  0.00     0.019 C 
ENDBRANCH   1   7
TORSDOF 1
ENDMDL
