MODEL 1
REMARK minimizedAffinity -5.38513613
REMARK minimizedRMSD -1
REMARK  1 active torsions:
REMARK  status: ('A' for Active; 'I' for Inactive)
REMARK    1  A    between atoms: C1_2  and  C2_3 
ROOT
ATOM      1  C2  UNL d   1       0.058  -0.545  -0.025  0.00  0.00    -0.077 A 
ATOM      2  C3  UNL d   1       1.430  -0.389  -0.267  0.00  0.00     0.002 A 
ATOM      3  C4  UNL d   1       2.166   0.569   0.432  0.00  0.00     0.002 A 
ATOM      4  C5  UNL d   1       1.541   1.376   1.380  0.00  0.00    -0.004 A 
ATOM      5  C6  UNL d   1       0.176   1.230   1.627  0.00  0.00     0.002 A 
ATOM      6  C7  UNL d   1      -0.562   0.274   0.928  0.00  0.00     0.002 A 
ENDROOT
BRANCH   1   7
ATOM      7  C1  UNL d   1      -0.728  -1.611  -0.743  0.00  0.00     0.055 C 
ATOM      8  C   UNL d   1      -1.441  -1.046  -1.963  0.00  0.00     0.019 C 
ENDBRANCH   1   7
TORSDOF 1
ENDMDL
