MODEL 1
REMARK minimizedAffinity -5.53124619
REMARK minimizedRMSD -1
REMARK  1 active torsions:
REMARK  status: ('A' for Active; 'I' for Inactive)
REMARK    1  A    between atoms: C1_2  and  C2_3 
ROOT
ATOM      1  C2  UNL d   1       0.655   1.135   0.607  0.00  0.00    -0.077 A 
ATOM      2  C3  UNL d   1      -0.340   0.148   0.662  0.00  0.00     0.002 A 
ATOM      3  C4  UNL d   1      -0.425  -0.824  -0.336  0.00  0.00     0.002 A 
ATOM      4  C5  UNL d   1       0.483  -0.823  -1.393  0.00  0.00    -0.004 A 
ATOM      5  C6  UNL d   1       1.474   0.156  -1.457  0.00  0.00     0.002 A 
ATOM      6  C7  UNL d   1       1.560   1.130  -0.462  0.00  0.00     0.002 A 
ENDROOT
BRANCH   1   7
ATOM      7  C1  UNL d   1       0.780   2.155   1.708  0.00  0.00     0.055 C 
ATOM      8  C   UNL d   1       1.371   3.459   1.191  0.00  0.00     0.019 C 
ENDBRANCH   1   7
TORSDOF 1
ENDMDL
