MODEL 1
REMARK minimizedAffinity -2.09157515
REMARK minimizedRMSD -1
REMARK  0 active torsions:
REMARK  status: ('A' for Active; 'I' for Inactive)
ROOT
ATOM      1  C   UNL d   1       2.801   0.055  -0.500  0.00  0.00     0.124 A 
ATOM      2  C1  UNL d   1       2.163   1.285  -0.425  0.00  0.00     0.062 A 
ATOM      3  C2  UNL d   1       0.797   1.351  -0.166  0.00  0.00     0.162 A 
ATOM      4  C3  UNL d   1       0.060   0.182   0.023  0.00  0.00    -0.034 A 
ATOM      5  C4  UNL d   1       0.708  -1.052  -0.055  0.00  0.00     0.162 A 
ATOM      6  C5  UNL d   1       2.073  -1.112  -0.315  0.00  0.00     0.062 A 
ATOM      7  F   UNL d   1       2.688  -2.302  -0.386  0.00  0.00    -0.097 F 
ATOM      8  F1  UNL d   1       0.029  -2.196   0.121  0.00  0.00    -0.096 F 
ATOM      9  I   UNL d   1      -1.983   0.275   0.411  0.00  0.00    -0.060 I 
ATOM     10  F2  UNL d   1       0.206   2.553  -0.099  0.00  0.00    -0.096 F 
ATOM     11  F3  UNL d   1       2.863   2.414  -0.605  0.00  0.00    -0.097 F 
ATOM     12  F4  UNL d   1       4.115  -0.005  -0.751  0.00  0.00    -0.092 F 
ENDROOT
TORSDOF 0
ENDMDL
