MODEL 1
REMARK minimizedAffinity -3.11761332
REMARK minimizedRMSD -1
REMARK  0 active torsions:
REMARK  status: ('A' for Active; 'I' for Inactive)
ROOT
ATOM      1  C   UNL d   1       2.349  -0.283   0.581  0.00  0.00     0.124 A 
ATOM      2  C1  UNL d   1       1.749   0.959   0.423  0.00  0.00     0.062 A 
ATOM      3  C2  UNL d   1       0.648   1.102  -0.417  0.00  0.00     0.162 A 
ATOM      4  C3  UNL d   1       0.140   0.000  -1.105  0.00  0.00    -0.034 A 
ATOM      5  C4  UNL d   1       0.750  -1.245  -0.942  0.00  0.00     0.162 A 
ATOM      6  C5  UNL d   1       1.850  -1.383  -0.102  0.00  0.00     0.062 A 
ATOM      7  F   UNL d   1       2.429  -2.583   0.050  0.00  0.00    -0.097 F 
ATOM      8  F1  UNL d   1       0.287  -2.325  -1.589  0.00  0.00    -0.096 F 
ATOM      9  I   UNL d   1      -1.505   0.211  -2.362  0.00  0.00    -0.060 I 
ATOM     10  F2  UNL d   1       0.088   2.313  -0.551  0.00  0.00    -0.096 F 
ATOM     11  F3  UNL d   1       2.230   2.023   1.081  0.00  0.00    -0.097 F 
ATOM     12  F4  UNL d   1       3.409  -0.417   1.389  0.00  0.00    -0.092 F 
ENDROOT
TORSDOF 0
ENDMDL
