MODEL 1
REMARK minimizedAffinity -1.3230077
REMARK minimizedRMSD -1
REMARK  0 active torsions:
REMARK  status: ('A' for Active; 'I' for Inactive)
ROOT
ATOM      1  C   UNL d   1       4.274  -0.635  -2.510  0.00  0.00     0.124 A 
ATOM      2  C1  UNL d   1       3.511  -1.753  -2.201  0.00  0.00     0.062 A 
ATOM      3  C2  UNL d   1       2.803  -1.807  -1.004  0.00  0.00     0.162 A 
ATOM      4  C3  UNL d   1       2.852  -0.739  -0.108  0.00  0.00    -0.034 A 
ATOM      5  C4  UNL d   1       3.623   0.381  -0.425  0.00  0.00     0.162 A 
ATOM      6  C5  UNL d   1       4.329   0.430  -1.622  0.00  0.00     0.062 A 
ATOM      7  F   UNL d   1       5.066   1.511  -1.919  0.00  0.00    -0.097 F 
ATOM      8  F1  UNL d   1       3.693   1.425   0.414  0.00  0.00    -0.096 F 
ATOM      9  I   UNL d   1       1.794  -0.817   1.683  0.00  0.00    -0.060 I 
ATOM     10  F2  UNL d   1       2.073  -2.899  -0.731  0.00  0.00    -0.096 F 
ATOM     11  F3  UNL d   1       3.458  -2.784  -3.056  0.00  0.00    -0.097 F 
ATOM     12  F4  UNL d   1       4.956  -0.586  -3.662  0.00  0.00    -0.092 F 
ENDROOT
TORSDOF 0
ENDMDL
