MODEL 1
REMARK minimizedAffinity 0.394231528
REMARK minimizedRMSD -1
REMARK  0 active torsions:
REMARK  status: ('A' for Active; 'I' for Inactive)
ROOT
ATOM      1  C   UNL d   1       2.696  -1.062  -0.127  0.00  0.00     0.124 A 
ATOM      2  C1  UNL d   1       1.933  -1.890  -0.938  0.00  0.00     0.062 A 
ATOM      3  C2  UNL d   1       0.560  -1.690  -1.047  0.00  0.00     0.162 A 
ATOM      4  C3  UNL d   1      -0.059  -0.657  -0.343  0.00  0.00    -0.034 A 
ATOM      5  C4  UNL d   1       0.715   0.170   0.472  0.00  0.00     0.162 A 
ATOM      6  C5  UNL d   1       2.087  -0.033   0.577  0.00  0.00     0.062 A 
ATOM      7  F   UNL d   1       2.823   0.768   1.362  0.00  0.00    -0.097 F 
ATOM      8  F1  UNL d   1       0.152   1.173   1.163  0.00  0.00    -0.096 F 
ATOM      9  I   UNL d   1      -2.112  -0.356  -0.503  0.00  0.00    -0.060 I 
ATOM     10  F2  UNL d   1      -0.153  -2.505  -1.839  0.00  0.00    -0.096 F 
ATOM     11  F3  UNL d   1       2.519  -2.885  -1.619  0.00  0.00    -0.097 F 
ATOM     12  F4  UNL d   1       4.017  -1.257  -0.023  0.00  0.00    -0.092 F 
ENDROOT
TORSDOF 0
ENDMDL
