MODEL 1
REMARK minimizedAffinity 0.0209027082
REMARK minimizedRMSD -1
REMARK  0 active torsions:
REMARK  status: ('A' for Active; 'I' for Inactive)
ROOT
ATOM      1  C   UNL d   1       1.223   1.261   0.156  0.00  0.00     0.124 A 
ATOM      2  C1  UNL d   1       0.821  -0.049   0.376  0.00  0.00     0.062 A 
ATOM      3  C2  UNL d   1      -0.520  -0.341   0.607  0.00  0.00     0.162 A 
ATOM      4  C3  UNL d   1      -1.471   0.680   0.617  0.00  0.00    -0.034 A 
ATOM      5  C4  UNL d   1      -1.059   1.995   0.396  0.00  0.00     0.162 A 
ATOM      6  C5  UNL d   1       0.283   2.282   0.166  0.00  0.00     0.062 A 
ATOM      7  F   UNL d   1       0.668   3.548  -0.047  0.00  0.00    -0.097 F 
ATOM      8  F1  UNL d   1      -1.947   3.001   0.399  0.00  0.00    -0.096 F 
ATOM      9  I   UNL d   1      -3.477   0.247   0.962  0.00  0.00    -0.060 I 
ATOM     10  F2  UNL d   1      -0.879  -1.616   0.817  0.00  0.00    -0.096 F 
ATOM     11  F3  UNL d   1       1.728  -1.037   0.368  0.00  0.00    -0.097 F 
ATOM     12  F4  UNL d   1       2.514   1.539  -0.065  0.00  0.00    -0.092 F 
ENDROOT
TORSDOF 0
ENDMDL
