MODEL 1
REMARK minimizedAffinity 8.77469826
REMARK minimizedRMSD -1
REMARK  2 active torsions:
REMARK  status: ('A' for Active; 'I' for Inactive)
REMARK    1  A    between atoms: C2'_3  and  C1'_4 
REMARK    2  A    between atoms: C1'_4  and  C1_5 
ROOT
ATOM      1  C1  I4B d   1      -5.369   2.575  -5.185  0.00  0.00    -0.075 A 
ATOM      2  C2  I4B d   1      -5.953   3.543  -5.964  0.00  0.00     0.003 A 
ATOM      3  C3  I4B d   1      -5.413   4.852  -5.997  0.00  0.00     0.002 A 
ATOM      4  C4  I4B d   1      -4.328   5.160  -5.203  0.00  0.00    -0.004 A 
ATOM      5  C5  I4B d   1      -3.723   4.171  -4.432  0.00  0.00     0.002 A 
ATOM      6  C6  I4B d   1      -4.239   2.867  -4.432  0.00  0.00     0.003 A 
ENDROOT
BRANCH   1   7
ATOM      7  C1' I4B d   1      -5.984   1.212  -5.148  0.00  0.00     0.060 C 
BRANCH   7   8
ATOM      8  C2' I4B d   1      -5.140   0.343  -4.238  0.00  0.00    -0.013 C 
ATOM      9  C4' I4B d   1      -5.993  -0.634  -3.472  0.00  0.00     0.013 C 
ATOM     10  C3' I4B d   1      -4.128  -0.369  -5.085  0.00  0.00     0.013 C 
ENDBRANCH   7   8
ENDBRANCH   1   7
TORSDOF 2
ENDMDL
