MODEL 1
REMARK minimizedAffinity 11.3091679
REMARK minimizedRMSD -1
REMARK  2 active torsions:
REMARK  status: ('A' for Active; 'I' for Inactive)
REMARK    1  A    between atoms: C2'_3  and  C1'_4 
REMARK    2  A    between atoms: C1'_4  and  C1_5 
ROOT
ATOM      1  C1  I4B d   1       0.177   1.193  -1.500  0.00  0.00    -0.075 A 
ATOM      2  C2  I4B d   1      -0.111   2.204  -0.617  0.00  0.00     0.003 A 
ATOM      3  C3  I4B d   1      -0.024   1.978   0.778  0.00  0.00     0.002 A 
ATOM      4  C4  I4B d   1       0.304   0.721   1.244  0.00  0.00    -0.004 A 
ATOM      5  C5  I4B d   1       0.618  -0.296   0.347  0.00  0.00     0.002 A 
ATOM      6  C6  I4B d   1       0.567  -0.055  -1.033  0.00  0.00     0.003 A 
ENDROOT
BRANCH   1   7
ATOM      7  C1' I4B d   1       0.042   1.457  -2.966  0.00  0.00     0.060 C 
BRANCH   7   8
ATOM      8  C2' I4B d   1       1.050   0.588  -3.691  0.00  0.00    -0.013 C 
ATOM      9  C4' I4B d   1       0.418  -0.688  -4.180  0.00  0.00     0.013 C 
ATOM     10  C3' I4B d   1       1.613   1.385  -4.830  0.00  0.00     0.013 C 
ENDBRANCH   7   8
ENDBRANCH   1   7
TORSDOF 2
ENDMDL
