MODEL 1
REMARK minimizedAffinity 13.0182991
REMARK minimizedRMSD -1
REMARK  2 active torsions:
REMARK  status: ('A' for Active; 'I' for Inactive)
REMARK    1  A    between atoms: C2'_3  and  C1'_4 
REMARK    2  A    between atoms: C1'_4  and  C1_5 
ROOT
ATOM      1  C1  I4B d   1       0.069   1.756   0.559  0.00  0.00    -0.075 A 
ATOM      2  C2  I4B d   1       0.345   2.882  -0.176  0.00  0.00     0.003 A 
ATOM      3  C3  I4B d   1       0.770   4.069   0.470  0.00  0.00     0.002 A 
ATOM      4  C4  I4B d   1       0.856   4.099   1.847  0.00  0.00    -0.004 A 
ATOM      5  C5  I4B d   1       0.597   2.950   2.589  0.00  0.00     0.002 A 
ATOM      6  C6  I4B d   1       0.213   1.768   1.940  0.00  0.00     0.003 A 
ENDROOT
BRANCH   1   7
ATOM      7  C1' I4B d   1      -0.409   0.531  -0.152  0.00  0.00     0.060 C 
BRANCH   7   8
ATOM      8  C2' I4B d   1       0.366  -0.654   0.386  0.00  0.00    -0.013 C 
ATOM      9  C4' I4B d   1      -0.072  -1.937  -0.270  0.00  0.00     0.013 C 
ATOM     10  C3' I4B d   1       1.825  -0.397   0.153  0.00  0.00     0.013 C 
ENDBRANCH   7   8
ENDBRANCH   1   7
TORSDOF 2
ENDMDL
