MODEL 1
REMARK minimizedAffinity 3.74834561
REMARK minimizedRMSD -1
REMARK  2 active torsions:
REMARK  status: ('A' for Active; 'I' for Inactive)
REMARK    1  A    between atoms: C2'_3  and  C1'_4 
REMARK    2  A    between atoms: C1'_4  and  C1_5 
ROOT
ATOM      1  C1  I4B d   1      -3.973   3.034  -4.105  0.00  0.00    -0.075 A 
ATOM      2  C2  I4B d   1      -4.609   4.152  -4.586  0.00  0.00     0.003 A 
ATOM      3  C3  I4B d   1      -5.657   4.025  -5.529  0.00  0.00     0.002 A 
ATOM      4  C4  I4B d   1      -6.000   2.774  -6.000  0.00  0.00    -0.004 A 
ATOM      5  C5  I4B d   1      -5.370   1.640  -5.495  0.00  0.00     0.002 A 
ATOM      6  C6  I4B d   1      -4.358   1.770  -4.532  0.00  0.00     0.003 A 
ENDROOT
BRANCH   1   7
ATOM      7  C1' I4B d   1      -2.848   3.207  -3.134  0.00  0.00     0.060 C 
BRANCH   7   8
ATOM      8  C2' I4B d   1      -2.615   1.876  -2.448  0.00  0.00    -0.013 C 
ATOM      9  C4' I4B d   1      -1.150   1.644  -2.192  0.00  0.00     0.013 C 
ATOM     10  C3' I4B d   1      -3.396   1.872  -1.168  0.00  0.00     0.013 C 
ENDBRANCH   7   8
ENDBRANCH   1   7
TORSDOF 2
ENDMDL
