MODEL 1
REMARK minimizedAffinity 6.80506611
REMARK minimizedRMSD -1
REMARK  2 active torsions:
REMARK  status: ('A' for Active; 'I' for Inactive)
REMARK    1  A    between atoms: C2'_3  and  C1'_4 
REMARK    2  A    between atoms: C1'_4  and  C1_5 
ROOT
ATOM      1  C1  I4B d   1       0.045   2.195   0.766  0.00  0.00    -0.075 A 
ATOM      2  C2  I4B d   1      -0.828   2.323  -0.285  0.00  0.00     0.003 A 
ATOM      3  C3  I4B d   1      -0.863   1.342  -1.306  0.00  0.00     0.002 A 
ATOM      4  C4  I4B d   1       0.022   0.284  -1.262  0.00  0.00    -0.004 A 
ATOM      5  C5  I4B d   1       0.890   0.144  -0.184  0.00  0.00     0.002 A 
ATOM      6  C6  I4B d   1       0.894   1.099   0.844  0.00  0.00     0.003 A 
ENDROOT
BRANCH   1   7
ATOM      7  C1' I4B d   1       0.079   3.266   1.810  0.00  0.00     0.060 C 
BRANCH   7   8
ATOM      8  C2' I4B d   1       1.464   3.879   1.806  0.00  0.00    -0.013 C 
ATOM      9  C4' I4B d   1       1.559   5.006   0.811  0.00  0.00     0.013 C 
ATOM     10  C3' I4B d   1       1.764   4.357   3.195  0.00  0.00     0.013 C 
ENDBRANCH   7   8
ENDBRANCH   1   7
TORSDOF 2
ENDMDL
