MODEL 1
REMARK minimizedAffinity -2.27698517
REMARK minimizedRMSD -1
REMARK  2 active torsions:
REMARK  status: ('A' for Active; 'I' for Inactive)
REMARK    1  A    between atoms: C2'_3  and  C1'_4 
REMARK    2  A    between atoms: C1'_4  and  C1_5 
ROOT
ATOM      1  C1  I4B d   1      -4.859   3.183  -4.630  0.00  0.00    -0.075 A 
ATOM      2  C2  I4B d   1      -5.098   4.160  -5.564  0.00  0.00     0.003 A 
ATOM      3  C3  I4B d   1      -4.048   5.007  -5.994  0.00  0.00     0.002 A 
ATOM      4  C4  I4B d   1      -2.795   4.875  -5.432  0.00  0.00    -0.004 A 
ATOM      5  C5  I4B d   1      -2.549   3.869  -4.503  0.00  0.00     0.002 A 
ATOM      6  C6  I4B d   1      -3.584   3.009  -4.108  0.00  0.00     0.003 A 
ENDROOT
BRANCH   1   7
ATOM      7  C1' I4B d   1      -5.998   2.328  -4.174  0.00  0.00     0.060 C 
BRANCH   7   8
ATOM      8  C2' I4B d   1      -5.999   1.065  -5.010  0.00  0.00    -0.013 C 
ATOM      9  C4' I4B d   1      -4.811   1.024  -5.936  0.00  0.00     0.013 C 
ATOM     10  C3' I4B d   1      -6.000  -0.109  -4.077  0.00  0.00     0.013 C 
ENDBRANCH   7   8
ENDBRANCH   1   7
TORSDOF 2
ENDMDL
