MODEL 1
REMARK minimizedAffinity 3.38708544
REMARK minimizedRMSD -1
REMARK  1 active torsions:
REMARK  status: ('A' for Active; 'I' for Inactive)
REMARK    1  A    between atoms: C1_2  and  C2_3 
ROOT
ATOM      1  C2  UNL d   1       0.776   3.109   1.219  0.00  0.00    -0.073 A 
ATOM      2  C3  UNL d   1      -0.503   3.012   1.780  0.00  0.00    -0.002 A 
ATOM      3  C4  UNL d   1      -1.626   3.397   1.047  0.00  0.00     0.004 A 
ATOM      4  C5  UNL d   1      -1.483   3.876  -0.255  0.00  0.00    -0.004 A 
ATOM      5  C6  UNL d   1      -0.215   3.970  -0.838  0.00  0.00    -0.075 A 
ATOM      6  C7  UNL d   1      -0.044   4.486  -2.236  0.00  0.00     0.076 C 
ATOM      7  C8  UNL d   1       0.908   3.584  -0.094  0.00  0.00     0.001 A 
ENDROOT
BRANCH   1   8
ATOM      8  C1  UNL d   1       1.991   2.689   2.005  0.00  0.00     0.053 C 
ATOM      9  C   UNL d   1       2.029   3.332   3.382  0.00  0.00     0.018 C 
ENDBRANCH   1   8
TORSDOF 1
ENDMDL
