MODEL 1
REMARK minimizedAffinity -0.994313717
REMARK minimizedRMSD -1
REMARK  1 active torsions:
REMARK  status: ('A' for Active; 'I' for Inactive)
REMARK    1  A    between atoms: C1_2  and  C2_3 
ROOT
ATOM      1  C2  UNL d   1      -5.371   3.489  -2.911  0.00  0.00    -0.073 A 
ATOM      2  C3  UNL d   1      -4.267   2.737  -3.325  0.00  0.00    -0.002 A 
ATOM      3  C4  UNL d   1      -3.731   2.914  -4.602  0.00  0.00     0.004 A 
ATOM      4  C5  UNL d   1      -4.290   3.850  -5.473  0.00  0.00    -0.004 A 
ATOM      5  C6  UNL d   1      -5.386   4.620  -5.073  0.00  0.00    -0.075 A 
ATOM      6  C7  UNL d   1      -6.000   5.628  -5.999  0.00  0.00     0.076 C 
ATOM      7  C8  UNL d   1      -5.920   4.433  -3.790  0.00  0.00     0.001 A 
ENDROOT
BRANCH   1   8
ATOM      8  C1  UNL d   1      -5.949   3.306  -1.531  0.00  0.00     0.053 C 
ATOM      9  C   UNL d   1      -5.870   1.859  -1.068  0.00  0.00     0.018 C 
ENDBRANCH   1   8
TORSDOF 1
ENDMDL
