MODEL 1
REMARK minimizedAffinity -2.62024212
REMARK minimizedRMSD -1
REMARK  1 active torsions:
REMARK  status: ('A' for Active; 'I' for Inactive)
REMARK    1  A    between atoms: C1_2  and  C2_3 
ROOT
ATOM      1  C2  UNL d   1      -5.680   3.186  -2.542  0.00  0.00    -0.073 A 
ATOM      2  C3  UNL d   1      -5.109   4.241  -1.821  0.00  0.00    -0.002 A 
ATOM      3  C4  UNL d   1      -4.819   5.451  -2.452  0.00  0.00     0.004 A 
ATOM      4  C5  UNL d   1      -5.104   5.622  -3.807  0.00  0.00    -0.004 A 
ATOM      5  C6  UNL d   1      -5.687   4.584  -4.542  0.00  0.00    -0.075 A 
ATOM      6  C7  UNL d   1      -5.997   4.751  -6.000  0.00  0.00     0.076 C 
ATOM      7  C8  UNL d   1      -5.971   3.371  -3.901  0.00  0.00     0.001 A 
ENDROOT
BRANCH   1   8
ATOM      8  C1  UNL d   1      -6.000   1.880  -1.863  0.00  0.00     0.053 C 
ATOM      9  C   UNL d   1      -5.602   1.888  -0.395  0.00  0.00     0.018 C 
ENDBRANCH   1   8
TORSDOF 1
ENDMDL
