MODEL 1
REMARK minimizedAffinity -4.21139956
REMARK minimizedRMSD -1
REMARK  1 active torsions:
REMARK  status: ('A' for Active; 'I' for Inactive)
REMARK    1  A    between atoms: C1_2  and  C2_3 
ROOT
ATOM      1  C2  UNL d   1      -4.903   3.644  -3.845  0.00  0.00    -0.073 A 
ATOM      2  C3  UNL d   1      -5.626   4.724  -3.328  0.00  0.00    -0.002 A 
ATOM      3  C4  UNL d   1      -5.999   4.743  -1.983  0.00  0.00     0.004 A 
ATOM      4  C5  UNL d   1      -5.647   3.688  -1.142  0.00  0.00    -0.004 A 
ATOM      5  C6  UNL d   1      -4.914   2.604  -1.638  0.00  0.00    -0.075 A 
ATOM      6  C7  UNL d   1      -4.530   1.460  -0.746  0.00  0.00     0.076 C 
ATOM      7  C8  UNL d   1      -4.546   2.591  -2.990  0.00  0.00     0.001 A 
ENDROOT
BRANCH   1   8
ATOM      8  C1  UNL d   1      -4.492   3.622  -5.295  0.00  0.00     0.053 C 
ATOM      9  C   UNL d   1      -4.818   4.929  -6.000  0.00  0.00     0.018 C 
ENDBRANCH   1   8
TORSDOF 1
ENDMDL
