MODEL 1
REMARK minimizedAffinity 5.14239216
REMARK minimizedRMSD -1
REMARK  1 active torsions:
REMARK  status: ('A' for Active; 'I' for Inactive)
REMARK    1  A    between atoms: C1_2  and  C2_3 
ROOT
ATOM      1  C2  UNL d   1      -5.805   2.859  -2.453  0.00  0.00    -0.073 A 
ATOM      2  C3  UNL d   1      -5.993   4.009  -1.678  0.00  0.00    -0.002 A 
ATOM      3  C4  UNL d   1      -5.994   5.270  -2.275  0.00  0.00     0.004 A 
ATOM      4  C5  UNL d   1      -5.814   5.394  -3.653  0.00  0.00    -0.004 A 
ATOM      5  C6  UNL d   1      -5.636   4.256  -4.446  0.00  0.00    -0.075 A 
ATOM      6  C7  UNL d   1      -5.439   4.373  -5.929  0.00  0.00     0.076 C 
ATOM      7  C8  UNL d   1      -5.634   2.993  -3.839  0.00  0.00     0.001 A 
ENDROOT
BRANCH   1   8
ATOM      8  C1  UNL d   1      -5.809   1.495  -1.813  0.00  0.00     0.053 C 
ATOM      9  C   UNL d   1      -4.866   0.532  -2.516  0.00  0.00     0.018 C 
ENDBRANCH   1   8
TORSDOF 1
ENDMDL
