MODEL 1
REMARK minimizedAffinity -1.56594503
REMARK minimizedRMSD -1
REMARK  1 active torsions:
REMARK  status: ('A' for Active; 'I' for Inactive)
REMARK    1  A    between atoms: C1_2  and  C2_3 
ROOT
ATOM      1  C2  UNL d   1      -5.309   4.574  -3.985  0.00  0.00    -0.073 A 
ATOM      2  C3  UNL d   1      -4.576   3.782  -4.876  0.00  0.00    -0.002 A 
ATOM      3  C4  UNL d   1      -3.948   2.618  -4.431  0.00  0.00     0.004 A 
ATOM      4  C5  UNL d   1      -4.053   2.230  -3.095  0.00  0.00    -0.004 A 
ATOM      5  C6  UNL d   1      -4.791   3.002  -2.193  0.00  0.00    -0.075 A 
ATOM      6  C7  UNL d   1      -4.912   2.600  -0.752  0.00  0.00     0.076 C 
ATOM      7  C8  UNL d   1      -5.416   4.171  -2.646  0.00  0.00     0.001 A 
ENDROOT
BRANCH   1   8
ATOM      8  C1  UNL d   1      -5.994   5.829  -4.462  0.00  0.00     0.053 C 
ATOM      9  C   UNL d   1      -5.996   5.936  -5.979  0.00  0.00     0.018 C 
ENDBRANCH   1   8
TORSDOF 1
ENDMDL
