MODEL 1
REMARK minimizedAffinity -2.45427275
REMARK minimizedRMSD -1
REMARK  1 active torsions:
REMARK  status: ('A' for Active; 'I' for Inactive)
REMARK    1  A    between atoms: C1_2  and  C2_3 
ROOT
ATOM      1  C2  UNL d   1      -4.880   2.610  -2.326  0.00  0.00    -0.073 A 
ATOM      2  C3  UNL d   1      -4.853   3.856  -1.689  0.00  0.00    -0.002 A 
ATOM      3  C4  UNL d   1      -5.020   5.029  -2.428  0.00  0.00     0.004 A 
ATOM      4  C5  UNL d   1      -5.221   4.967  -3.806  0.00  0.00    -0.004 A 
ATOM      5  C6  UNL d   1      -5.263   3.731  -4.459  0.00  0.00    -0.075 A 
ATOM      6  C7  UNL d   1      -5.476   3.648  -5.942  0.00  0.00     0.076 C 
ATOM      7  C8  UNL d   1      -5.092   2.558  -3.711  0.00  0.00     0.001 A 
ENDROOT
BRANCH   1   8
ATOM      8  C1  UNL d   1      -4.707   1.341  -1.532  0.00  0.00     0.053 C 
ATOM      9  C   UNL d   1      -5.277   1.465  -0.128  0.00  0.00     0.018 C 
ENDBRANCH   1   8
TORSDOF 1
ENDMDL
