MODEL 1
REMARK minimizedAffinity 1.4798789
REMARK minimizedRMSD -1
REMARK  1 active torsions:
REMARK  status: ('A' for Active; 'I' for Inactive)
REMARK    1  A    between atoms: C1_2  and  C2_3 
ROOT
ATOM      1  C2  UNL d   1      -5.872   4.236  -3.832  0.00  0.00    -0.073 A 
ATOM      2  C3  UNL d   1      -5.940   3.283  -4.855  0.00  0.00    -0.002 A 
ATOM      3  C4  UNL d   1      -5.994   1.923  -4.549  0.00  0.00     0.004 A 
ATOM      4  C5  UNL d   1      -5.989   1.502  -3.219  0.00  0.00    -0.004 A 
ATOM      5  C6  UNL d   1      -5.935   2.439  -2.183  0.00  0.00    -0.075 A 
ATOM      6  C7  UNL d   1      -5.926   2.002  -0.747  0.00  0.00     0.076 C 
ATOM      7  C8  UNL d   1      -5.877   3.803  -2.498  0.00  0.00     0.001 A 
ENDROOT
BRANCH   1   8
ATOM      8  C1  UNL d   1      -5.820   5.706  -4.157  0.00  0.00     0.053 C 
ATOM      9  C   UNL d   1      -5.991   5.967  -5.646  0.00  0.00     0.018 C 
ENDBRANCH   1   8
TORSDOF 1
ENDMDL
