MODEL 1
REMARK minimizedAffinity -5.07389688
REMARK minimizedRMSD -1
REMARK  1 active torsions:
REMARK  status: ('A' for Active; 'I' for Inactive)
REMARK    1  A    between atoms: C1_2  and  C2_3 
ROOT
ATOM      1  C2  UNL d   1      -4.165   2.567  -5.077  0.00  0.00    -0.073 A 
ATOM      2  C3  UNL d   1      -4.268   3.924  -5.404  0.00  0.00    -0.002 A 
ATOM      3  C4  UNL d   1      -4.926   4.807  -4.546  0.00  0.00     0.004 A 
ATOM      4  C5  UNL d   1      -5.480   4.345  -3.353  0.00  0.00    -0.004 A 
ATOM      5  C6  UNL d   1      -5.376   2.994  -3.003  0.00  0.00    -0.075 A 
ATOM      6  C7  UNL d   1      -5.969   2.481  -1.724  0.00  0.00     0.076 C 
ATOM      7  C8  UNL d   1      -4.717   2.113  -3.871  0.00  0.00     0.001 A 
ENDROOT
BRANCH   1   8
ATOM      8  C1  UNL d   1      -3.450   1.611  -5.997  0.00  0.00     0.053 C 
ATOM      9  C   UNL d   1      -4.009   0.200  -5.898  0.00  0.00     0.018 C 
ENDBRANCH   1   8
TORSDOF 1
ENDMDL
