MODEL 1
REMARK minimizedAffinity 20.3589554
REMARK minimizedRMSD -1
REMARK  1 active torsions:
REMARK  status: ('A' for Active; 'I' for Inactive)
REMARK    1  A    between atoms: C1_2  and  C2_3 
ROOT
ATOM      1  C2  UNL d   1       1.496   2.538   1.575  0.00  0.00    -0.081 A 
ATOM      2  C3  UNL d   1       0.568   2.856   2.573  0.00  0.00     0.006 A 
ATOM      3  C4  UNL d   1       0.090   1.867   3.437  0.00  0.00     0.002 A 
ATOM      4  C5  UNL d   1       0.539   0.547   3.323  0.00  0.00    -0.080 A 
ATOM      5  C6  UNL d   1       0.058  -0.518   4.263  0.00  0.00     0.076 C 
ATOM      6  C7  UNL d   1       1.454   0.226   2.314  0.00  0.00     0.002 A 
ATOM      7  C8  UNL d   1       1.931   1.214   1.450  0.00  0.00     0.006 A 
ENDROOT
BRANCH   1   8
ATOM      8  C1  UNL d   1       2.062   3.614   0.684  0.00  0.00     0.054 C 
ATOM      9  C   UNL d   1       2.457   4.846   1.486  0.00  0.00     0.018 C 
ENDBRANCH   1   8
TORSDOF 1
ENDMDL
