MODEL 1
REMARK minimizedAffinity 17.7976685
REMARK minimizedRMSD -1
REMARK  1 active torsions:
REMARK  status: ('A' for Active; 'I' for Inactive)
REMARK    1  A    between atoms: C1_2  and  C2_3 
ROOT
ATOM      1  C2  UNL d   1      -3.379  -2.826  -1.826  0.00  0.00    -0.081 A 
ATOM      2  C3  UNL d   1      -4.488  -2.540  -2.632  0.00  0.00     0.006 A 
ATOM      3  C4  UNL d   1      -5.331  -3.566  -3.067  0.00  0.00     0.002 A 
ATOM      4  C5  UNL d   1      -5.083  -4.892  -2.697  0.00  0.00    -0.080 A 
ATOM      5  C6  UNL d   1      -5.997  -5.999  -3.132  0.00  0.00     0.076 C 
ATOM      6  C7  UNL d   1      -3.966  -5.180  -1.906  0.00  0.00     0.002 A 
ATOM      7  C8  UNL d   1      -3.123  -4.155  -1.472  0.00  0.00     0.006 A 
ENDROOT
BRANCH   1   8
ATOM      8  C1  UNL d   1      -2.506  -1.714  -1.302  0.00  0.00     0.054 C 
ATOM      9  C   UNL d   1      -2.165  -1.924   0.166  0.00  0.00     0.018 C 
ENDBRANCH   1   8
TORSDOF 1
ENDMDL
