MODEL 1
REMARK minimizedAffinity 16.0031109
REMARK minimizedRMSD -1
REMARK  1 active torsions:
REMARK  status: ('A' for Active; 'I' for Inactive)
REMARK    1  A    between atoms: C1_2  and  C2_3 
ROOT
ATOM      1  C2  UNL d   1      -5.034   3.507   5.196  0.00  0.00    -0.081 A 
ATOM      2  C3  UNL d   1      -5.785   2.372   5.526  0.00  0.00     0.006 A 
ATOM      3  C4  UNL d   1      -5.616   1.180   4.819  0.00  0.00     0.002 A 
ATOM      4  C5  UNL d   1      -4.687   1.100   3.775  0.00  0.00    -0.080 A 
ATOM      5  C6  UNL d   1      -4.474  -0.183   3.027  0.00  0.00     0.076 C 
ATOM      6  C7  UNL d   1      -3.949   2.238   3.434  0.00  0.00     0.002 A 
ATOM      7  C8  UNL d   1      -4.118   3.430   4.141  0.00  0.00     0.006 A 
ENDROOT
BRANCH   1   8
ATOM      8  C1  UNL d   1      -5.167   4.775   6.000  0.00  0.00     0.054 C 
ATOM      9  C   UNL d   1      -5.214   6.000   5.097  0.00  0.00     0.018 C 
ENDBRANCH   1   8
TORSDOF 1
ENDMDL
