MODEL 1
REMARK minimizedAffinity 6.35203457
REMARK minimizedRMSD -1
REMARK  1 active torsions:
REMARK  status: ('A' for Active; 'I' for Inactive)
REMARK    1  A    between atoms: C1_2  and  C2_3 
ROOT
ATOM      1  C2  UNL d   1      -5.544   2.344   5.009  0.00  0.00    -0.081 A 
ATOM      2  C3  UNL d   1      -5.999   1.060   5.334  0.00  0.00     0.006 A 
ATOM      3  C4  UNL d   1      -5.817  -0.002   4.445  0.00  0.00     0.002 A 
ATOM      4  C5  UNL d   1      -5.172   0.200   3.220  0.00  0.00    -0.080 A 
ATOM      5  C6  UNL d   1      -4.944  -0.937   2.270  0.00  0.00     0.076 C 
ATOM      6  C7  UNL d   1      -4.733   1.487   2.888  0.00  0.00     0.002 A 
ATOM      7  C8  UNL d   1      -4.915   2.549   3.777  0.00  0.00     0.006 A 
ENDROOT
BRANCH   1   8
ATOM      8  C1  UNL d   1      -5.681   3.477   5.994  0.00  0.00     0.054 C 
ATOM      9  C   UNL d   1      -5.545   4.828   5.305  0.00  0.00     0.018 C 
ENDBRANCH   1   8
TORSDOF 1
ENDMDL
