MODEL 1
REMARK minimizedAffinity 18.3873425
REMARK minimizedRMSD -1
REMARK  1 active torsions:
REMARK  status: ('A' for Active; 'I' for Inactive)
REMARK    1  A    between atoms: C1_2  and  C2_3 
ROOT
ATOM      1  C2  UNL d   1      -2.461  -4.828   0.948  0.00  0.00    -0.081 A 
ATOM      2  C3  UNL d   1      -1.474  -4.821   1.941  0.00  0.00     0.006 A 
ATOM      3  C4  UNL d   1      -0.645  -3.709   2.107  0.00  0.00     0.002 A 
ATOM      4  C5  UNL d   1      -0.793  -2.584   1.289  0.00  0.00    -0.080 A 
ATOM      5  C6  UNL d   1       0.071  -1.373   1.476  0.00  0.00     0.076 C 
ATOM      6  C7  UNL d   1      -1.767  -2.599   0.285  0.00  0.00     0.002 A 
ATOM      7  C8  UNL d   1      -2.596  -3.710   0.118  0.00  0.00     0.006 A 
ENDROOT
BRANCH   1   8
ATOM      8  C1  UNL d   1      -3.400  -6.000   0.809  0.00  0.00     0.054 C 
ATOM      9  C   UNL d   1      -4.458  -5.994   1.902  0.00  0.00     0.018 C 
ENDBRANCH   1   8
TORSDOF 1
ENDMDL
