MODEL 1
REMARK minimizedAffinity 23.0399628
REMARK minimizedRMSD -1
REMARK  1 active torsions:
REMARK  status: ('A' for Active; 'I' for Inactive)
REMARK    1  A    between atoms: C1_2  and  C2_3 
ROOT
ATOM      1  C2  UNL d   1      -3.136  -3.167  -1.404  0.00  0.00    -0.081 A 
ATOM      2  C3  UNL d   1      -3.799  -2.798  -2.580  0.00  0.00     0.006 A 
ATOM      3  C4  UNL d   1      -4.611  -3.714  -3.253  0.00  0.00     0.002 A 
ATOM      4  C5  UNL d   1      -4.781  -5.011  -2.757  0.00  0.00    -0.080 A 
ATOM      5  C6  UNL d   1      -5.674  -5.994  -3.453  0.00  0.00     0.076 C 
ATOM      6  C7  UNL d   1      -4.105  -5.385  -1.591  0.00  0.00     0.002 A 
ATOM      7  C8  UNL d   1      -3.292  -4.470  -0.918  0.00  0.00     0.006 A 
ENDROOT
BRANCH   1   8
ATOM      8  C1  UNL d   1      -2.311  -2.163  -0.641  0.00  0.00     0.054 C 
ATOM      9  C   UNL d   1      -2.050  -2.629   0.784  0.00  0.00     0.018 C 
ENDBRANCH   1   8
TORSDOF 1
ENDMDL
