MODEL 1
REMARK minimizedAffinity 11.9900055
REMARK minimizedRMSD -1
REMARK  1 active torsions:
REMARK  status: ('A' for Active; 'I' for Inactive)
REMARK    1  A    between atoms: C1_2  and  C2_3 
ROOT
ATOM      1  C2  UNL d   1       2.337   3.759  -4.899  0.00  0.00    -0.081 A 
ATOM      2  C3  UNL d   1       2.321   2.819  -5.937  0.00  0.00     0.006 A 
ATOM      3  C4  UNL d   1       3.017   1.615  -5.812  0.00  0.00     0.002 A 
ATOM      4  C5  UNL d   1       3.733   1.326  -4.646  0.00  0.00    -0.080 A 
ATOM      5  C6  UNL d   1       4.460   0.024  -4.487  0.00  0.00     0.076 C 
ATOM      6  C7  UNL d   1       3.764   2.272  -3.616  0.00  0.00     0.002 A 
ATOM      7  C8  UNL d   1       3.069   3.477  -3.740  0.00  0.00     0.006 A 
ENDROOT
BRANCH   1   8
ATOM      8  C1  UNL d   1       1.535   5.031  -5.004  0.00  0.00     0.054 C 
ATOM      9  C   UNL d   1       2.161   5.999  -5.998  0.00  0.00     0.018 C 
ENDBRANCH   1   8
TORSDOF 1
ENDMDL
