MODEL 1
REMARK minimizedAffinity 11.4227886
REMARK minimizedRMSD -1
REMARK  1 active torsions:
REMARK  status: ('A' for Active; 'I' for Inactive)
REMARK    1  A    between atoms: C1_2  and  C2_3 
ROOT
ATOM      1  C2  UNL d   1      -0.249  -0.335   2.218  0.00  0.00    -0.081 A 
ATOM      2  C3  UNL d   1      -0.568  -0.985   3.416  0.00  0.00     0.006 A 
ATOM      3  C4  UNL d   1      -1.183  -2.238   3.400  0.00  0.00     0.002 A 
ATOM      4  C5  UNL d   1      -1.482  -2.866   2.186  0.00  0.00    -0.080 A 
ATOM      5  C6  UNL d   1      -2.115  -4.226   2.155  0.00  0.00     0.076 C 
ATOM      6  C7  UNL d   1      -1.180  -2.210   0.989  0.00  0.00     0.002 A 
ATOM      7  C8  UNL d   1      -0.565  -0.956   1.004  0.00  0.00     0.006 A 
ENDROOT
BRANCH   1   8
ATOM      8  C1  UNL d   1       0.473   0.988   2.232  0.00  0.00     0.054 C 
ATOM      9  C   UNL d   1       1.765   0.923   1.429  0.00  0.00     0.018 C 
ENDBRANCH   1   8
TORSDOF 1
ENDMDL
