MODEL 1
REMARK minimizedAffinity 13.4936457
REMARK minimizedRMSD -1
REMARK  1 active torsions:
REMARK  status: ('A' for Active; 'I' for Inactive)
REMARK    1  A    between atoms: C1_2  and  C2_3 
ROOT
ATOM      1  C2  UNL d   1       3.187   1.174  -0.989  0.00  0.00    -0.081 A 
ATOM      2  C3  UNL d   1       2.246   2.041  -0.420  0.00  0.00     0.006 A 
ATOM      3  C4  UNL d   1       1.628   1.719   0.791  0.00  0.00     0.002 A 
ATOM      4  C5  UNL d   1       1.946   0.530   1.456  0.00  0.00    -0.080 A 
ATOM      5  C6  UNL d   1       1.312   0.186   2.771  0.00  0.00     0.076 C 
ATOM      6  C7  UNL d   1       2.873  -0.345   0.879  0.00  0.00     0.002 A 
ATOM      7  C8  UNL d   1       3.491  -0.023  -0.332  0.00  0.00     0.006 A 
ENDROOT
BRANCH   1   8
ATOM      8  C1  UNL d   1       3.903   1.549  -2.261  0.00  0.00     0.054 C 
ATOM      9  C   UNL d   1       2.986   2.309  -3.209  0.00  0.00     0.018 C 
ENDBRANCH   1   8
TORSDOF 1
ENDMDL
