MODEL 1
REMARK minimizedAffinity 16.3932934
REMARK minimizedRMSD -1
REMARK  1 active torsions:
REMARK  status: ('A' for Active; 'I' for Inactive)
REMARK    1  A    between atoms: C1_2  and  C2_3 
ROOT
ATOM      1  C2  UNL d   1      -3.737   3.238   2.624  0.00  0.00    -0.081 A 
ATOM      2  C3  UNL d   1      -4.873   3.653   1.918  0.00  0.00     0.006 A 
ATOM      3  C4  UNL d   1      -4.744   4.327   0.701  0.00  0.00     0.002 A 
ATOM      4  C5  UNL d   1      -3.479   4.589   0.166  0.00  0.00    -0.080 A 
ATOM      5  C6  UNL d   1      -3.327   5.285  -1.154  0.00  0.00     0.076 C 
ATOM      6  C7  UNL d   1      -2.343   4.190   0.880  0.00  0.00     0.002 A 
ATOM      7  C8  UNL d   1      -2.472   3.517   2.097  0.00  0.00     0.006 A 
ENDROOT
BRANCH   1   8
ATOM      8  C1  UNL d   1      -3.874   2.455   3.904  0.00  0.00     0.054 C 
ATOM      9  C   UNL d   1      -4.136   0.981   3.626  0.00  0.00     0.018 C 
ENDBRANCH   1   8
TORSDOF 1
ENDMDL
