MODEL 1
REMARK minimizedAffinity 18.2636642
REMARK minimizedRMSD -1
REMARK  1 active torsions:
REMARK  status: ('A' for Active; 'I' for Inactive)
REMARK    1  A    between atoms: C1_2  and  C2_3 
ROOT
ATOM      1  C2  UNL d   1      -2.842  -4.895   1.531  0.00  0.00    -0.081 A 
ATOM      2  C3  UNL d   1      -1.845  -5.144   2.482  0.00  0.00     0.006 A 
ATOM      3  C4  UNL d   1      -1.025  -4.108   2.936  0.00  0.00     0.002 A 
ATOM      4  C5  UNL d   1      -1.194  -2.806   2.454  0.00  0.00    -0.080 A 
ATOM      5  C6  UNL d   1      -0.341  -1.678   2.955  0.00  0.00     0.076 C 
ATOM      6  C7  UNL d   1      -2.179  -2.560   1.491  0.00  0.00     0.002 A 
ATOM      7  C8  UNL d   1      -2.999  -3.596   1.036  0.00  0.00     0.006 A 
ENDROOT
BRANCH   1   8
ATOM      8  C1  UNL d   1      -3.770  -5.997   1.087  0.00  0.00     0.054 C 
ATOM      9  C   UNL d   1      -5.056  -5.999   1.901  0.00  0.00     0.018 C 
ENDBRANCH   1   8
TORSDOF 1
ENDMDL
