MODEL 1
REMARK minimizedAffinity 13.5978422
REMARK minimizedRMSD -1
REMARK  1 active torsions:
REMARK  status: ('A' for Active; 'I' for Inactive)
REMARK    1  A    between atoms: C1_2  and  C2_3 
ROOT
ATOM      1  C2  UNL d   1       4.133   2.794  -3.568  0.00  0.00    -0.081 A 
ATOM      2  C3  UNL d   1       2.794   2.854  -3.162  0.00  0.00     0.006 A 
ATOM      3  C4  UNL d   1       1.854   3.556  -3.920  0.00  0.00     0.002 A 
ATOM      4  C5  UNL d   1       2.235   4.202  -5.101  0.00  0.00    -0.080 A 
ATOM      5  C6  UNL d   1       1.230   4.934  -5.940  0.00  0.00     0.076 C 
ATOM      6  C7  UNL d   1       3.576   4.157  -5.498  0.00  0.00     0.002 A 
ATOM      7  C8  UNL d   1       4.516   3.456  -4.740  0.00  0.00     0.006 A 
ENDROOT
BRANCH   1   8
ATOM      8  C1  UNL d   1       5.136   1.984  -2.787  0.00  0.00     0.054 C 
ATOM      9  C   UNL d   1       5.999   1.134  -3.709  0.00  0.00     0.018 C 
ENDBRANCH   1   8
TORSDOF 1
ENDMDL
