MODEL 1
REMARK minimizedAffinity 9.89378738
REMARK minimizedRMSD -1
REMARK  1 active torsions:
REMARK  status: ('A' for Active; 'I' for Inactive)
REMARK    1  A    between atoms: C1_2  and  C2_3 
ROOT
ATOM      1  C2  UNL d   1       1.088   1.327   1.880  0.00  0.00    -0.081 A 
ATOM      2  C3  UNL d   1       1.483   2.508   1.240  0.00  0.00     0.006 A 
ATOM      3  C4  UNL d   1       2.277   2.459   0.091  0.00  0.00     0.002 A 
ATOM      4  C5  UNL d   1       2.682   1.230  -0.440  0.00  0.00    -0.080 A 
ATOM      5  C6  UNL d   1       3.509   1.163  -1.690  0.00  0.00     0.076 C 
ATOM      6  C7  UNL d   1       2.302   0.051   0.209  0.00  0.00     0.002 A 
ATOM      7  C8  UNL d   1       1.509   0.099   1.358  0.00  0.00     0.006 A 
ENDROOT
BRANCH   1   8
ATOM      8  C1  UNL d   1       0.179   1.374   3.081  0.00  0.00     0.054 C 
ATOM      9  C   UNL d   1      -0.440   0.011   3.360  0.00  0.00     0.018 C 
ENDBRANCH   1   8
TORSDOF 1
ENDMDL
