MODEL 1
REMARK minimizedAffinity 3.32464027
REMARK minimizedRMSD -1
REMARK  1 active torsions:
REMARK  status: ('A' for Active; 'I' for Inactive)
REMARK    1  A    between atoms: C1_2  and  C2_3 
ROOT
ATOM      1  C2  UNL d   1       4.744   3.178  -4.966  0.00  0.00    -0.081 A 
ATOM      2  C3  UNL d   1       4.816   4.497  -5.430  0.00  0.00     0.006 A 
ATOM      3  C4  UNL d   1       3.655   5.191  -5.776  0.00  0.00     0.002 A 
ATOM      4  C5  UNL d   1       2.401   4.581  -5.657  0.00  0.00    -0.080 A 
ATOM      5  C6  UNL d   1       1.144   5.326  -5.997  0.00  0.00     0.076 C 
ATOM      6  C7  UNL d   1       2.330   3.258  -5.211  0.00  0.00     0.002 A 
ATOM      7  C8  UNL d   1       3.491   2.563  -4.865  0.00  0.00     0.006 A 
ENDROOT
BRANCH   1   8
ATOM      8  C1  UNL d   1       5.989   2.449  -4.530  0.00  0.00     0.054 C 
ATOM      9  C   UNL d   1       5.990   2.206  -3.028  0.00  0.00     0.018 C 
ENDBRANCH   1   8
TORSDOF 1
ENDMDL
