MODEL 1
REMARK minimizedAffinity -1.95341396
REMARK minimizedRMSD -1
REMARK  0 active torsions:
REMARK  status: ('A' for Active; 'I' for Inactive)
ROOT
ATOM      1  C   UNL d   1       4.696   2.087   2.701  0.00  0.00     0.077 C 
ATOM      2  C1  UNL d   1       4.864   1.136   3.849  0.00  0.00    -0.074 A 
ATOM      3  C2  UNL d   1       5.858   1.340   4.812  0.00  0.00    -0.005 A 
ATOM      4  C3  UNL d   1       5.996   0.453   5.879  0.00  0.00     0.006 A 
ATOM      5  C4  UNL d   1       5.142  -0.645   5.995  0.00  0.00    -0.005 A 
ATOM      6  C5  UNL d   1       4.142  -0.865   5.043  0.00  0.00    -0.074 A 
ATOM      7  C6  UNL d   1       3.210  -2.034   5.158  0.00  0.00     0.077 C 
ATOM      8  C7  UNL d   1       4.005   0.035   3.977  0.00  0.00    -0.001 A 
ENDROOT
TORSDOF 0
ENDMDL
