MODEL 1
REMARK minimizedAffinity 4.10718203
REMARK minimizedRMSD -1
REMARK  0 active torsions:
REMARK  status: ('A' for Active; 'I' for Inactive)
ROOT
ATOM      1  C   UNL d   1       3.803   3.177   1.929  0.00  0.00     0.077 C 
ATOM      2  C1  UNL d   1       4.571   2.416   2.968  0.00  0.00    -0.074 A 
ATOM      3  C2  UNL d   1       5.216   3.081   4.016  0.00  0.00    -0.005 A 
ATOM      4  C3  UNL d   1       5.919   2.359   4.981  0.00  0.00     0.006 A 
ATOM      5  C4  UNL d   1       5.984   0.967   4.907  0.00  0.00    -0.005 A 
ATOM      6  C5  UNL d   1       5.345   0.285   3.867  0.00  0.00    -0.074 A 
ATOM      7  C6  UNL d   1       5.397  -1.211   3.779  0.00  0.00     0.077 C 
ATOM      8  C7  UNL d   1       4.635   1.017   2.906  0.00  0.00    -0.001 A 
ENDROOT
TORSDOF 0
ENDMDL
