MODEL 1
REMARK minimizedAffinity 4.4623847
REMARK minimizedRMSD -1
REMARK  0 active torsions:
REMARK  status: ('A' for Active; 'I' for Inactive)
ROOT
ATOM      1  C   UNL d   1       2.246  -1.426   4.848  0.00  0.00     0.077 C 
ATOM      2  C1  UNL d   1       3.554  -0.691   4.869  0.00  0.00    -0.074 A 
ATOM      3  C2  UNL d   1       4.388  -0.741   5.990  0.00  0.00    -0.005 A 
ATOM      4  C3  UNL d   1       5.606  -0.060   5.992  0.00  0.00     0.006 A 
ATOM      5  C4  UNL d   1       6.000   0.677   4.874  0.00  0.00    -0.005 A 
ATOM      6  C5  UNL d   1       5.178   0.738   3.744  0.00  0.00    -0.074 A 
ATOM      7  C6  UNL d   1       5.591   1.517   2.531  0.00  0.00     0.077 C 
ATOM      8  C7  UNL d   1       3.960   0.045   3.748  0.00  0.00    -0.001 A 
ENDROOT
TORSDOF 0
ENDMDL
