MODEL 1
REMARK minimizedAffinity 2.71157742
REMARK minimizedRMSD -1
REMARK  0 active torsions:
REMARK  status: ('A' for Active; 'I' for Inactive)
ROOT
ATOM      1  C   UNL d   1       3.747   0.129   1.945  0.00  0.00     0.077 C 
ATOM      2  C1  UNL d   1       4.527   0.810   3.030  0.00  0.00    -0.074 A 
ATOM      3  C2  UNL d   1       4.916   0.115   4.180  0.00  0.00    -0.005 A 
ATOM      4  C3  UNL d   1       5.649   0.758   5.177  0.00  0.00     0.006 A 
ATOM      5  C4  UNL d   1       6.000   2.101   5.035  0.00  0.00    -0.005 A 
ATOM      6  C5  UNL d   1       5.621   2.812   3.892  0.00  0.00    -0.074 A 
ATOM      7  C6  UNL d   1       5.998   4.254   3.719  0.00  0.00     0.077 C 
ATOM      8  C7  UNL d   1       4.890   2.157   2.892  0.00  0.00    -0.001 A 
ENDROOT
TORSDOF 0
ENDMDL
