MODEL 1
REMARK minimizedAffinity 4.674685
REMARK minimizedRMSD -1
REMARK  0 active torsions:
REMARK  status: ('A' for Active; 'I' for Inactive)
ROOT
ATOM      1  C   UNL d   1       2.838   4.692  -3.461  0.00  0.00     0.077 C 
ATOM      2  C1  UNL d   1       1.843   3.910  -2.656  0.00  0.00    -0.074 A 
ATOM      3  C2  UNL d   1       1.177   2.811  -3.207  0.00  0.00    -0.005 A 
ATOM      4  C3  UNL d   1       0.261   2.088  -2.443  0.00  0.00     0.006 A 
ATOM      5  C4  UNL d   1       0.001   2.456  -1.123  0.00  0.00    -0.005 A 
ATOM      6  C5  UNL d   1       0.658   3.552  -0.554  0.00  0.00    -0.074 A 
ATOM      7  C6  UNL d   1       0.399   3.956   0.867  0.00  0.00     0.077 C 
ATOM      8  C7  UNL d   1       1.583   4.269  -1.326  0.00  0.00    -0.001 A 
ENDROOT
TORSDOF 0
ENDMDL
