MODEL 1
REMARK minimizedAffinity 6.53155136
REMARK minimizedRMSD -1
REMARK  0 active torsions:
REMARK  status: ('A' for Active; 'I' for Inactive)
ROOT
ATOM      1  C   UNL d   1       1.500   5.254  -5.989  0.00  0.00     0.077 C 
ATOM      2  C1  UNL d   1       2.775   4.883  -5.291  0.00  0.00    -0.074 A 
ATOM      3  C2  UNL d   1       3.050   5.349  -4.001  0.00  0.00    -0.005 A 
ATOM      4  C3  UNL d   1       4.236   4.988  -3.361  0.00  0.00     0.006 A 
ATOM      5  C4  UNL d   1       5.157   4.159  -4.004  0.00  0.00    -0.005 A 
ATOM      6  C5  UNL d   1       4.898   3.683  -5.293  0.00  0.00    -0.074 A 
ATOM      7  C6  UNL d   1       5.873   2.783  -5.993  0.00  0.00     0.077 C 
ATOM      8  C7  UNL d   1       3.702   4.044  -5.926  0.00  0.00    -0.001 A 
ENDROOT
TORSDOF 0
ENDMDL
