MODEL 1
REMARK minimizedAffinity 4.36500168
REMARK minimizedRMSD -1
REMARK  0 active torsions:
REMARK  status: ('A' for Active; 'I' for Inactive)
ROOT
ATOM      1  C   UNL d   1       6.000   1.906  -5.263  0.00  0.00     0.077 C 
ATOM      2  C1  UNL d   1       4.670   2.599  -5.280  0.00  0.00    -0.074 A 
ATOM      3  C2  UNL d   1       3.593   2.071  -6.000  0.00  0.00    -0.005 A 
ATOM      4  C3  UNL d   1       2.360   2.721  -5.999  0.00  0.00     0.006 A 
ATOM      5  C4  UNL d   1       2.190   3.905  -5.279  0.00  0.00    -0.005 A 
ATOM      6  C5  UNL d   1       3.255   4.447  -4.552  0.00  0.00    -0.074 A 
ATOM      7  C6  UNL d   1       3.087   5.713  -3.765  0.00  0.00     0.077 C 
ATOM      8  C7  UNL d   1       4.489   3.784  -4.553  0.00  0.00    -0.001 A 
ENDROOT
TORSDOF 0
ENDMDL
