MODEL 1
REMARK minimizedAffinity 2.30073595
REMARK minimizedRMSD -1
REMARK  0 active torsions:
REMARK  status: ('A' for Active; 'I' for Inactive)
ROOT
ATOM      1  C   UNL d   1       6.000   1.922  -5.761  0.00  0.00     0.077 C 
ATOM      2  C1  UNL d   1       4.685   2.568  -5.440  0.00  0.00    -0.074 A 
ATOM      3  C2  UNL d   1       3.495   2.093  -6.000  0.00  0.00    -0.005 A 
ATOM      4  C3  UNL d   1       2.278   2.697  -5.684  0.00  0.00     0.006 A 
ATOM      5  C4  UNL d   1       2.239   3.782  -4.807  0.00  0.00    -0.005 A 
ATOM      6  C5  UNL d   1       3.419   4.270  -4.236  0.00  0.00    -0.074 A 
ATOM      7  C6  UNL d   1       3.394   5.428  -3.283  0.00  0.00     0.077 C 
ATOM      8  C7  UNL d   1       4.637   3.652  -4.553  0.00  0.00    -0.001 A 
ENDROOT
TORSDOF 0
ENDMDL
