MODEL 1
REMARK minimizedAffinity 0.386724919
REMARK minimizedRMSD -1
REMARK  0 active torsions:
REMARK  status: ('A' for Active; 'I' for Inactive)
ROOT
ATOM      1  C   UNL d   1      -2.641   3.169   0.069  0.00  0.00     0.077 C 
ATOM      2  C1  UNL d   1      -2.671   1.824   0.732  0.00  0.00    -0.074 A 
ATOM      3  C2  UNL d   1      -2.620   1.707   2.125  0.00  0.00    -0.005 A 
ATOM      4  C3  UNL d   1      -2.658   0.450   2.727  0.00  0.00     0.006 A 
ATOM      5  C4  UNL d   1      -2.747  -0.702   1.944  0.00  0.00    -0.005 A 
ATOM      6  C5  UNL d   1      -2.800  -0.605   0.550  0.00  0.00    -0.074 A 
ATOM      7  C6  UNL d   1      -2.906  -1.832  -0.306  0.00  0.00     0.077 C 
ATOM      8  C7  UNL d   1      -2.769   0.662  -0.048  0.00  0.00    -0.001 A 
ENDROOT
TORSDOF 0
ENDMDL
