MODEL 1
REMARK minimizedAffinity 1.71285045
REMARK minimizedRMSD -1
REMARK  0 active torsions:
REMARK  status: ('A' for Active; 'I' for Inactive)
ROOT
ATOM      1  C   UNL d   1      -2.624   0.632   0.595  0.00  0.00     0.077 C 
ATOM      2  C1  UNL d   1      -3.259   0.235   1.895  0.00  0.00    -0.074 A 
ATOM      3  C2  UNL d   1      -2.850   0.813   3.101  0.00  0.00    -0.005 A 
ATOM      4  C3  UNL d   1      -3.457   0.441   4.300  0.00  0.00     0.006 A 
ATOM      5  C4  UNL d   1      -4.476  -0.512   4.306  0.00  0.00    -0.005 A 
ATOM      6  C5  UNL d   1      -4.899  -1.100   3.110  0.00  0.00    -0.074 A 
ATOM      7  C6  UNL d   1      -6.000  -2.118   3.097  0.00  0.00     0.077 C 
ATOM      8  C7  UNL d   1      -4.289  -0.716   1.908  0.00  0.00    -0.001 A 
ENDROOT
TORSDOF 0
ENDMDL
