MODEL 1
REMARK minimizedAffinity -3.13376713
REMARK minimizedRMSD -1
REMARK  0 active torsions:
REMARK  status: ('A' for Active; 'I' for Inactive)
ROOT
ATOM      1  C   UNL d   1       3.152  -1.497   2.406  0.00  0.00     0.077 C 
ATOM      2  C1  UNL d   1       3.777  -0.269   2.998  0.00  0.00    -0.074 A 
ATOM      3  C2  UNL d   1       3.599   0.985   2.404  0.00  0.00    -0.005 A 
ATOM      4  C3  UNL d   1       4.179   2.120   2.971  0.00  0.00     0.006 A 
ATOM      5  C4  UNL d   1       4.941   2.013   4.135  0.00  0.00    -0.005 A 
ATOM      6  C5  UNL d   1       5.129   0.767   4.743  0.00  0.00    -0.074 A 
ATOM      7  C6  UNL d   1       5.937   0.636   6.000  0.00  0.00     0.077 C 
ATOM      8  C7  UNL d   1       4.538  -0.367   4.171  0.00  0.00    -0.001 A 
ENDROOT
TORSDOF 0
ENDMDL
