MODEL 1
REMARK minimizedAffinity -4.02048492
REMARK minimizedRMSD -1
REMARK  0 active torsions:
REMARK  status: ('A' for Active; 'I' for Inactive)
ROOT
ATOM      1  C   UNL d   1      -4.245   3.346   0.409  0.00  0.00     0.077 C 
ATOM      2  C1  UNL d   1      -3.481   2.223   1.045  0.00  0.00    -0.074 A 
ATOM      3  C2  UNL d   1      -2.661   2.450   2.155  0.00  0.00    -0.005 A 
ATOM      4  C3  UNL d   1      -1.964   1.394   2.742  0.00  0.00     0.006 A 
ATOM      5  C4  UNL d   1      -2.080   0.103   2.227  0.00  0.00    -0.005 A 
ATOM      6  C5  UNL d   1      -2.896  -0.144   1.118  0.00  0.00    -0.074 A 
ATOM      7  C6  UNL d   1      -3.040  -1.527   0.558  0.00  0.00     0.077 C 
ATOM      8  C7  UNL d   1      -3.599   0.921   0.538  0.00  0.00    -0.001 A 
ENDROOT
TORSDOF 0
ENDMDL
