MODEL 1
REMARK minimizedAffinity 3.15072513
REMARK minimizedRMSD -1
REMARK  0 active torsions:
REMARK  status: ('A' for Active; 'I' for Inactive)
ROOT
ATOM      1  C   UNL d   1       5.994   0.876   5.700  0.00  0.00     0.077 C 
ATOM      2  C1  UNL d   1       5.153   0.734   4.467  0.00  0.00    -0.074 A 
ATOM      3  C2  UNL d   1       4.809  -0.529   3.973  0.00  0.00    -0.005 A 
ATOM      4  C3  UNL d   1       4.018  -0.646   2.830  0.00  0.00     0.006 A 
ATOM      5  C4  UNL d   1       3.564   0.497   2.170  0.00  0.00    -0.005 A 
ATOM      6  C5  UNL d   1       3.897   1.768   2.649  0.00  0.00    -0.074 A 
ATOM      7  C6  UNL d   1       3.409   3.006   1.958  0.00  0.00     0.077 C 
ATOM      8  C7  UNL d   1       4.686   1.877   3.803  0.00  0.00    -0.001 A 
ENDROOT
TORSDOF 0
ENDMDL
