MODEL 1
REMARK minimizedAffinity -0.443665653
REMARK minimizedRMSD -1
REMARK  0 active torsions:
REMARK  status: ('A' for Active; 'I' for Inactive)
ROOT
ATOM      1  C   UNL d   1       5.998   0.507   5.551  0.00  0.00     0.077 C 
ATOM      2  C1  UNL d   1       5.087   0.662   4.370  0.00  0.00    -0.074 A 
ATOM      3  C2  UNL d   1       5.022   1.869   3.666  0.00  0.00    -0.005 A 
ATOM      4  C3  UNL d   1       4.177   1.996   2.563  0.00  0.00     0.006 A 
ATOM      5  C4  UNL d   1       3.390   0.918   2.154  0.00  0.00    -0.005 A 
ATOM      6  C5  UNL d   1       3.442  -0.296   2.845  0.00  0.00    -0.074 A 
ATOM      7  C6  UNL d   1       2.610  -1.467   2.413  0.00  0.00     0.077 C 
ATOM      8  C7  UNL d   1       4.299  -0.418   3.948  0.00  0.00    -0.001 A 
ENDROOT
TORSDOF 0
ENDMDL
