MODEL 1
REMARK minimizedAffinity 7.00598431
REMARK minimizedRMSD -1
REMARK  0 active torsions:
REMARK  status: ('A' for Active; 'I' for Inactive)
ROOT
ATOM      1  C   UNL d   1       3.752   2.878   2.223  0.00  0.00     0.077 C 
ATOM      2  C1  UNL d   1       4.336   1.805   3.093  0.00  0.00    -0.074 A 
ATOM      3  C2  UNL d   1       5.473   2.049   3.870  0.00  0.00    -0.005 A 
ATOM      4  C3  UNL d   1       5.999   1.044   4.682  0.00  0.00     0.006 A 
ATOM      5  C4  UNL d   1       5.395  -0.213   4.724  0.00  0.00    -0.005 A 
ATOM      6  C5  UNL d   1       4.257  -0.475   3.954  0.00  0.00    -0.074 A 
ATOM      7  C6  UNL d   1       3.590  -1.818   3.996  0.00  0.00     0.077 C 
ATOM      8  C7  UNL d   1       3.730   0.542   3.147  0.00  0.00    -0.001 A 
ENDROOT
TORSDOF 0
ENDMDL
