MODEL 1
REMARK minimizedAffinity 1.17956161
REMARK minimizedRMSD -1
REMARK  0 active torsions:
REMARK  status: ('A' for Active; 'I' for Inactive)
ROOT
ATOM      1  C   UNL d   1      -3.004  -0.049   3.802  0.00  0.00     0.077 C 
ATOM      2  C1  UNL d   1      -3.126   0.419   2.382  0.00  0.00    -0.074 A 
ATOM      3  C2  UNL d   1      -3.474  -0.470   1.360  0.00  0.00    -0.005 A 
ATOM      4  C3  UNL d   1      -3.593  -0.019   0.045  0.00  0.00     0.006 A 
ATOM      5  C4  UNL d   1      -3.366   1.324  -0.260  0.00  0.00    -0.005 A 
ATOM      6  C5  UNL d   1      -3.018   2.227   0.749  0.00  0.00    -0.074 A 
ATOM      7  C6  UNL d   1      -2.780   3.676   0.440  0.00  0.00     0.077 C 
ATOM      8  C7  UNL d   1      -2.908   1.768   2.068  0.00  0.00    -0.001 A 
ENDROOT
TORSDOF 0
ENDMDL
