MODEL 1
REMARK minimizedAffinity 1.41588855
REMARK minimizedRMSD -1
REMARK  0 active torsions:
REMARK  status: ('A' for Active; 'I' for Inactive)
ROOT
ATOM      1  C   UNL d   1       3.018  -1.188   4.526  0.00  0.00     0.077 C 
ATOM      2  C1  UNL d   1       3.820   0.055   4.277  0.00  0.00    -0.074 A 
ATOM      3  C2  UNL d   1       4.964   0.336   5.032  0.00  0.00    -0.005 A 
ATOM      4  C3  UNL d   1       5.705   1.491   4.782  0.00  0.00     0.006 A 
ATOM      5  C4  UNL d   1       5.311   2.375   3.777  0.00  0.00    -0.005 A 
ATOM      6  C5  UNL d   1       4.172   2.110   3.011  0.00  0.00    -0.074 A 
ATOM      7  C6  UNL d   1       3.740   3.045   1.921  0.00  0.00     0.077 C 
ATOM      8  C7  UNL d   1       3.436   0.944   3.264  0.00  0.00    -0.001 A 
ENDROOT
TORSDOF 0
ENDMDL
