MODEL 1
REMARK minimizedAffinity -1.04860413
REMARK minimizedRMSD -1
REMARK  0 active torsions:
REMARK  status: ('A' for Active; 'I' for Inactive)
ROOT
ATOM      1  C   UNL d   1       6.000   0.746   5.686  0.00  0.00     0.077 C 
ATOM      2  C1  UNL d   1       5.075   0.749   4.506  0.00  0.00    -0.074 A 
ATOM      3  C2  UNL d   1       4.889   1.905   3.740  0.00  0.00    -0.005 A 
ATOM      4  C3  UNL d   1       4.033   1.889   2.639  0.00  0.00     0.006 A 
ATOM      5  C4  UNL d   1       3.354   0.720   2.293  0.00  0.00    -0.005 A 
ATOM      6  C5  UNL d   1       3.528  -0.446   3.046  0.00  0.00    -0.074 A 
ATOM      7  C6  UNL d   1       2.814  -1.713   2.682  0.00  0.00     0.077 C 
ATOM      8  C7  UNL d   1       4.396  -0.424   4.147  0.00  0.00    -0.001 A 
ENDROOT
TORSDOF 0
ENDMDL
