MODEL 1
REMARK minimizedAffinity -4.62569332
REMARK minimizedRMSD -1
REMARK  1 active torsions:
REMARK  status: ('A' for Active; 'I' for Inactive)
REMARK    1  A    between atoms: C1_2  and  C2_3 
ROOT
ATOM      1  C2  UNL d   1      -0.976  -1.752  -0.391  0.00  0.00    -0.081 A 
ATOM      2  C3  UNL d   1      -2.069  -0.903  -0.176  0.00  0.00     0.006 A 
ATOM      3  C4  UNL d   1      -1.869   0.432   0.180  0.00  0.00     0.002 A 
ATOM      4  C5  UNL d   1      -0.574   0.943   0.319  0.00  0.00    -0.080 A 
ATOM      5  C6  UNL d   1      -0.345   2.383   0.671  0.00  0.00     0.076 C 
ATOM      6  C7  UNL d   1       0.518   0.091   0.121  0.00  0.00     0.002 A 
ATOM      7  C8  UNL d   1       0.318  -1.245  -0.234  0.00  0.00     0.006 A 
ENDROOT
BRANCH   1   8
ATOM      8  C1  UNL d   1      -1.188  -3.176  -0.838  0.00  0.00     0.054 C 
ATOM      9  C   UNL d   1      -1.775  -3.234  -2.241  0.00  0.00     0.018 C 
ENDBRANCH   1   8
TORSDOF 1
ENDMDL
