MODEL 1
REMARK minimizedAffinity -3.69141102
REMARK minimizedRMSD -1
REMARK  1 active torsions:
REMARK  status: ('A' for Active; 'I' for Inactive)
REMARK    1  A    between atoms: C1_2  and  C2_3 
ROOT
ATOM      1  C2  UNL d   1      -0.496  -0.835  -0.123  0.00  0.00    -0.081 A 
ATOM      2  C3  UNL d   1      -1.512   0.015   0.331  0.00  0.00     0.006 A 
ATOM      3  C4  UNL d   1      -1.263   1.375   0.528  0.00  0.00     0.002 A 
ATOM      4  C5  UNL d   1       0.004   1.909   0.268  0.00  0.00    -0.080 A 
ATOM      5  C6  UNL d   1       0.276   3.373   0.447  0.00  0.00     0.076 C 
ATOM      6  C7  UNL d   1       1.024   1.057  -0.169  0.00  0.00     0.002 A 
ATOM      7  C8  UNL d   1       0.775  -0.303  -0.366  0.00  0.00     0.006 A 
ENDROOT
BRANCH   1   8
ATOM      8  C1  UNL d   1      -0.779  -2.290  -0.398  0.00  0.00     0.054 C 
ATOM      9  C   UNL d   1      -0.333  -2.684  -1.799  0.00  0.00     0.018 C 
ENDBRANCH   1   8
TORSDOF 1
ENDMDL
