MODEL 1
REMARK minimizedAffinity -4.37334394
REMARK minimizedRMSD -1
REMARK  1 active torsions:
REMARK  status: ('A' for Active; 'I' for Inactive)
REMARK    1  A    between atoms: C1_2  and  C2_3 
ROOT
ATOM      1  C2  UNL d   1       0.093  -0.287  -0.187  0.00  0.00    -0.081 A 
ATOM      2  C3  UNL d   1      -0.324  -0.392  -1.519  0.00  0.00     0.006 A 
ATOM      3  C4  UNL d   1      -0.498  -1.646  -2.111  0.00  0.00     0.002 A 
ATOM      4  C5  UNL d   1      -0.265  -2.814  -1.378  0.00  0.00    -0.080 A 
ATOM      5  C6  UNL d   1      -0.477  -4.166  -1.992  0.00  0.00     0.076 C 
ATOM      6  C7  UNL d   1       0.168  -2.710  -0.052  0.00  0.00     0.002 A 
ATOM      7  C8  UNL d   1       0.343  -1.457   0.540  0.00  0.00     0.006 A 
ENDROOT
BRANCH   1   8
ATOM      8  C1  UNL d   1       0.219   1.062   0.473  0.00  0.00     0.054 C 
ATOM      9  C   UNL d   1      -0.816   2.040  -0.065  0.00  0.00     0.018 C 
ENDBRANCH   1   8
TORSDOF 1
ENDMDL
