MODEL 1
REMARK minimizedAffinity -3.14599991
REMARK minimizedRMSD -1
REMARK  1 active torsions:
REMARK  status: ('A' for Active; 'I' for Inactive)
REMARK    1  A    between atoms: C1_2  and  C2_3 
ROOT
ATOM      1  C2  UNL d   1      -0.461  -1.604  -0.630  0.00  0.00    -0.081 A 
ATOM      2  C3  UNL d   1      -1.380  -0.667  -1.121  0.00  0.00     0.006 A 
ATOM      3  C4  UNL d   1      -1.362   0.651  -0.661  0.00  0.00     0.002 A 
ATOM      4  C5  UNL d   1      -0.422   1.057   0.292  0.00  0.00    -0.080 A 
ATOM      5  C6  UNL d   1      -0.372   2.477   0.773  0.00  0.00     0.076 C 
ATOM      6  C7  UNL d   1       0.484   0.118   0.796  0.00  0.00     0.002 A 
ATOM      7  C8  UNL d   1       0.467  -1.201   0.336  0.00  0.00     0.006 A 
ENDROOT
BRANCH   1   8
ATOM      8  C1  UNL d   1      -0.436  -3.010  -1.172  0.00  0.00     0.054 C 
ATOM      9  C   UNL d   1      -0.979  -3.065  -2.593  0.00  0.00     0.018 C 
ENDBRANCH   1   8
TORSDOF 1
ENDMDL
