MODEL 1
REMARK minimizedAffinity -0.966416895
REMARK minimizedRMSD -1
REMARK  1 active torsions:
REMARK  status: ('A' for Active; 'I' for Inactive)
REMARK    1  A    between atoms: C1_2  and  C2_3 
ROOT
ATOM      1  C2  UNL d   1      -0.296  -1.074   0.028  0.00  0.00    -0.081 A 
ATOM      2  C3  UNL d   1      -1.419  -0.427   0.559  0.00  0.00     0.006 A 
ATOM      3  C4  UNL d   1      -1.394   0.947   0.806  0.00  0.00     0.002 A 
ATOM      4  C5  UNL d   1      -0.249   1.699   0.519  0.00  0.00    -0.080 A 
ATOM      5  C6  UNL d   1      -0.219   3.181   0.750  0.00  0.00     0.076 C 
ATOM      6  C7  UNL d   1       0.879   1.050   0.005  0.00  0.00     0.002 A 
ATOM      7  C8  UNL d   1       0.854  -0.325  -0.241  0.00  0.00     0.006 A 
ENDROOT
BRANCH   1   8
ATOM      8  C1  UNL d   1      -0.342  -2.545  -0.299  0.00  0.00     0.054 C 
ATOM      9  C   UNL d   1      -0.206  -2.783  -1.796  0.00  0.00     0.018 C 
ENDBRANCH   1   8
TORSDOF 1
ENDMDL
