MODEL 1
REMARK minimizedAffinity 1.71743512
REMARK minimizedRMSD -1
REMARK  1 active torsions:
REMARK  status: ('A' for Active; 'I' for Inactive)
REMARK    1  A    between atoms: C1_2  and  C2_3 
ROOT
ATOM      1  C2  UNL d   1       1.363   1.424   1.103  0.00  0.00    -0.081 A 
ATOM      2  C3  UNL d   1       0.926   0.198   0.588  0.00  0.00     0.006 A 
ATOM      3  C4  UNL d   1      -0.423  -0.002   0.282  0.00  0.00     0.002 A 
ATOM      4  C5  UNL d   1      -1.355   1.022   0.480  0.00  0.00    -0.080 A 
ATOM      5  C6  UNL d   1      -2.800   0.831   0.128  0.00  0.00     0.076 C 
ATOM      6  C7  UNL d   1      -0.921   2.242   1.011  0.00  0.00     0.002 A 
ATOM      7  C8  UNL d   1       0.427   2.442   1.317  0.00  0.00     0.006 A 
ENDROOT
BRANCH   1   8
ATOM      8  C1  UNL d   1       2.826   1.665   1.372  0.00  0.00     0.054 C 
ATOM      9  C   UNL d   1       3.033   2.892   2.248  0.00  0.00     0.018 C 
ENDBRANCH   1   8
TORSDOF 1
ENDMDL
