MODEL 1
REMARK minimizedAffinity -2.88787031
REMARK minimizedRMSD -1
REMARK  1 active torsions:
REMARK  status: ('A' for Active; 'I' for Inactive)
REMARK    1  A    between atoms: C1_2  and  C2_3 
ROOT
ATOM      1  C2  UNL d   1       1.071   0.445   0.521  0.00  0.00    -0.081 A 
ATOM      2  C3  UNL d   1       0.288  -0.707   0.378  0.00  0.00     0.006 A 
ATOM      3  C4  UNL d   1      -1.106  -0.619   0.365  0.00  0.00     0.002 A 
ATOM      4  C5  UNL d   1      -1.740   0.622   0.488  0.00  0.00    -0.080 A 
ATOM      5  C6  UNL d   1      -3.235   0.733   0.445  0.00  0.00     0.076 C 
ATOM      6  C7  UNL d   1      -0.959   1.771   0.648  0.00  0.00     0.002 A 
ATOM      7  C8  UNL d   1       0.435   1.684   0.662  0.00  0.00     0.006 A 
ENDROOT
BRANCH   1   8
ATOM      8  C1  UNL d   1       2.575   0.362   0.470  0.00  0.00     0.054 C 
ATOM      9  C   UNL d   1       3.058  -1.065   0.692  0.00  0.00     0.018 C 
ENDBRANCH   1   8
TORSDOF 1
ENDMDL
