MODEL 1
REMARK minimizedAffinity -0.532909214
REMARK minimizedRMSD -1
REMARK  1 active torsions:
REMARK  status: ('A' for Active; 'I' for Inactive)
REMARK    1  A    between atoms: C1_2  and  C2_3 
ROOT
ATOM      1  C2  UNL d   1      -0.482  -1.152  -0.511  0.00  0.00    -0.081 A 
ATOM      2  C3  UNL d   1       0.720  -0.630  -0.018  0.00  0.00     0.006 A 
ATOM      3  C4  UNL d   1       0.778   0.679   0.465  0.00  0.00     0.002 A 
ATOM      4  C5  UNL d   1      -0.365   1.485   0.472  0.00  0.00    -0.080 A 
ATOM      5  C6  UNL d   1      -0.323   2.882   1.017  0.00  0.00     0.076 C 
ATOM      6  C7  UNL d   1      -1.562   0.969  -0.036  0.00  0.00     0.002 A 
ATOM      7  C8  UNL d   1      -1.621  -0.339  -0.521  0.00  0.00     0.006 A 
ENDROOT
BRANCH   1   8
ATOM      8  C1  UNL d   1      -0.564  -2.584  -0.974  0.00  0.00     0.054 C 
ATOM      9  C   UNL d   1      -0.398  -2.689  -2.483  0.00  0.00     0.018 C 
ENDBRANCH   1   8
TORSDOF 1
ENDMDL
