MODEL 1
REMARK minimizedAffinity -4.5777235
REMARK minimizedRMSD -1
REMARK  1 active torsions:
REMARK  status: ('A' for Active; 'I' for Inactive)
REMARK    1  A    between atoms: C1_2  and  C2_3 
ROOT
ATOM      1  C2  UNL d   1      -1.163  -0.154   0.038  0.00  0.00    -0.081 A 
ATOM      2  C3  UNL d   1      -0.993  -0.034  -1.346  0.00  0.00     0.006 A 
ATOM      3  C4  UNL d   1      -0.378  -1.056  -2.075  0.00  0.00     0.002 A 
ATOM      4  C5  UNL d   1       0.069  -2.215  -1.433  0.00  0.00    -0.080 A 
ATOM      5  C6  UNL d   1       0.704  -3.332  -2.208  0.00  0.00     0.076 C 
ATOM      6  C7  UNL d   1      -0.085  -2.327  -0.047  0.00  0.00     0.002 A 
ATOM      7  C8  UNL d   1      -0.699  -1.306   0.682  0.00  0.00     0.006 A 
ENDROOT
BRANCH   1   8
ATOM      8  C1  UNL d   1      -1.883   0.917   0.817  0.00  0.00     0.054 C 
ATOM      9  C   UNL d   1      -1.099   2.222   0.820  0.00  0.00     0.018 C 
ENDBRANCH   1   8
TORSDOF 1
ENDMDL
