MODEL 1
REMARK minimizedAffinity -5.43411827
REMARK minimizedRMSD -1
REMARK  2 active torsions:
REMARK  status: ('A' for Active; 'I' for Inactive)
REMARK    1  A    between atoms: C1_2  and  C2_3 
REMARK    2  A    between atoms: C2_3  and  C3_4 
ROOT
ATOM      1  C3  UNL d   1       0.468   0.497   1.723  0.00  0.00    -0.075 A 
ATOM      2  C4  UNL d   1       0.051   1.708   2.295  0.00  0.00     0.002 A 
ATOM      3  C5  UNL d   1      -0.966   2.458   1.704  0.00  0.00     0.002 A 
ATOM      4  C6  UNL d   1      -1.571   2.014   0.531  0.00  0.00    -0.004 A 
ATOM      5  C7  UNL d   1      -1.153   0.821  -0.056  0.00  0.00     0.002 A 
ATOM      6  C8  UNL d   1      -0.139   0.066   0.536  0.00  0.00     0.002 A 
ENDROOT
BRANCH   1   7
ATOM      7  C2  UNL d   1       1.548  -0.334   2.374  0.00  0.00     0.056 C 
BRANCH   7   8
ATOM      8  C1  UNL d   1       2.780  -0.558   1.491  0.00  0.00     0.007 C 
ATOM      9  C   UNL d   1       3.935  -1.222   2.229  0.00  0.00     0.009 C 
ENDBRANCH   7   8
ENDBRANCH   1   7
TORSDOF 2
ENDMDL
