MODEL 1
REMARK minimizedAffinity -3.74458981
REMARK minimizedRMSD -1
REMARK  2 active torsions:
REMARK  status: ('A' for Active; 'I' for Inactive)
REMARK    1  A    between atoms: C1_2  and  C2_3 
REMARK    2  A    between atoms: C2_3  and  C3_4 
ROOT
ATOM      1  C3  UNL d   1       0.125  -0.677  -0.141  0.00  0.00    -0.075 A 
ATOM      2  C4  UNL d   1       1.068  -0.500   0.882  0.00  0.00     0.002 A 
ATOM      3  C5  UNL d   1       0.964   0.578   1.762  0.00  0.00     0.002 A 
ATOM      4  C6  UNL d   1      -0.075   1.496   1.624  0.00  0.00    -0.004 A 
ATOM      5  C7  UNL d   1      -1.007   1.339   0.601  0.00  0.00     0.002 A 
ATOM      6  C8  UNL d   1      -0.909   0.259  -0.278  0.00  0.00     0.002 A 
ENDROOT
BRANCH   1   7
ATOM      7  C2  UNL d   1       0.215  -1.858  -1.078  0.00  0.00     0.056 C 
BRANCH   7   8
ATOM      8  C1  UNL d   1      -0.742  -3.003  -0.731  0.00  0.00     0.007 C 
ATOM      9  C   UNL d   1      -0.991  -3.951  -1.897  0.00  0.00     0.009 C 
ENDBRANCH   7   8
ENDBRANCH   1   7
TORSDOF 2
ENDMDL
