MODEL 1
REMARK minimizedAffinity -4.16536713
REMARK minimizedRMSD -1
REMARK  2 active torsions:
REMARK  status: ('A' for Active; 'I' for Inactive)
REMARK    1  A    between atoms: C1_2  and  C2_3 
REMARK    2  A    between atoms: C2_3  and  C3_4 
ROOT
ATOM      1  C3  UNL d   1       0.033  -0.468  -0.798  0.00  0.00    -0.075 A 
ATOM      2  C4  UNL d   1      -1.063   0.407  -0.784  0.00  0.00     0.002 A 
ATOM      3  C5  UNL d   1      -1.251   1.291   0.279  0.00  0.00     0.002 A 
ATOM      4  C6  UNL d   1      -0.353   1.304   1.344  0.00  0.00    -0.004 A 
ATOM      5  C7  UNL d   1       0.729   0.428   1.349  0.00  0.00     0.002 A 
ATOM      6  C8  UNL d   1       0.922  -0.455   0.285  0.00  0.00     0.002 A 
ENDROOT
BRANCH   1   7
ATOM      7  C2  UNL d   1       0.258  -1.407  -1.959  0.00  0.00     0.056 C 
BRANCH   7   8
ATOM      8  C1  UNL d   1       0.225  -2.890  -1.577  0.00  0.00     0.007 C 
ATOM      9  C   UNL d   1      -1.043  -3.600  -2.033  0.00  0.00     0.009 C 
ENDBRANCH   7   8
ENDBRANCH   1   7
TORSDOF 2
ENDMDL
