MODEL 1
REMARK minimizedAffinity 2.05388546
REMARK minimizedRMSD -1
REMARK  2 active torsions:
REMARK  status: ('A' for Active; 'I' for Inactive)
REMARK    1  A    between atoms: C1_2  and  C2_3 
REMARK    2  A    between atoms: C2_3  and  C3_4 
ROOT
ATOM      1  C3  UNL d   1      -0.457  -1.103  -0.117  0.00  0.00    -0.075 A 
ATOM      2  C4  UNL d   1      -0.615  -0.174   0.922  0.00  0.00     0.002 A 
ATOM      3  C5  UNL d   1      -0.370   1.182   0.703  0.00  0.00     0.002 A 
ATOM      4  C6  UNL d   1       0.046   1.624  -0.551  0.00  0.00    -0.004 A 
ATOM      5  C7  UNL d   1       0.222   0.708  -1.586  0.00  0.00     0.002 A 
ATOM      6  C8  UNL d   1      -0.027  -0.648  -1.371  0.00  0.00     0.002 A 
ENDROOT
BRANCH   1   7
ATOM      7  C2  UNL d   1      -0.750  -2.568   0.105  0.00  0.00     0.056 C 
BRANCH   7   8
ATOM      8  C1  UNL d   1      -0.601  -3.431  -1.153  0.00  0.00     0.007 C 
ATOM      9  C   UNL d   1      -1.933  -3.915  -1.709  0.00  0.00     0.009 C 
ENDBRANCH   7   8
ENDBRANCH   1   7
TORSDOF 2
ENDMDL
