MODEL 1
REMARK minimizedAffinity -5.10727119
REMARK minimizedRMSD -1
REMARK  2 active torsions:
REMARK  status: ('A' for Active; 'I' for Inactive)
REMARK    1  A    between atoms: C1_2  and  C2_3 
REMARK    2  A    between atoms: C2_3  and  C3_4 
ROOT
ATOM      1  C3  UNL d   1       2.294  -2.227  -1.031  0.00  0.00    -0.075 A 
ATOM      2  C4  UNL d   1       1.912  -3.576  -1.056  0.00  0.00     0.002 A 
ATOM      3  C5  UNL d   1       0.625  -3.940  -1.451  0.00  0.00     0.002 A 
ATOM      4  C6  UNL d   1      -0.298  -2.962  -1.815  0.00  0.00    -0.004 A 
ATOM      5  C7  UNL d   1       0.065  -1.618  -1.777  0.00  0.00     0.002 A 
ATOM      6  C8  UNL d   1       1.354  -1.251  -1.387  0.00  0.00     0.002 A 
ENDROOT
BRANCH   1   7
ATOM      7  C2  UNL d   1       3.695  -1.828  -0.633  0.00  0.00     0.056 C 
BRANCH   7   8
ATOM      8  C1  UNL d   1       3.767  -1.009   0.660  0.00  0.00     0.007 C 
ATOM      9  C   UNL d   1       4.462  -1.745   1.799  0.00  0.00     0.009 C 
ENDBRANCH   7   8
ENDBRANCH   1   7
TORSDOF 2
ENDMDL
