MODEL 1
REMARK minimizedAffinity 4.65334463
REMARK minimizedRMSD -1
REMARK  2 active torsions:
REMARK  status: ('A' for Active; 'I' for Inactive)
REMARK    1  A    between atoms: C2'_3  and  C1'_4 
REMARK    2  A    between atoms: C1'_4  and  C1_5 
ROOT
ATOM      1  C1  I4B d   1      -0.296   5.634  -2.313  0.00  0.00    -0.075 A 
ATOM      2  C2  I4B d   1      -0.013   5.691  -3.655  0.00  0.00     0.003 A 
ATOM      3  C3  I4B d   1      -1.052   5.896  -4.595  0.00  0.00     0.002 A 
ATOM      4  C4  I4B d   1      -2.357   5.988  -4.156  0.00  0.00    -0.004 A 
ATOM      5  C5  I4B d   1      -2.640   5.953  -2.793  0.00  0.00     0.002 A 
ATOM      6  C6  I4B d   1      -1.602   5.787  -1.865  0.00  0.00     0.003 A 
ENDROOT
BRANCH   1   7
ATOM      7  C1' I4B d   1       0.821   5.383  -1.351  0.00  0.00     0.060 C 
BRANCH   7   8
ATOM      8  C2' I4B d   1       0.969   3.884  -1.187  0.00  0.00    -0.013 C 
ATOM      9  C4' I4B d   1       1.802   3.294  -2.294  0.00  0.00     0.013 C 
ATOM     10  C3' I4B d   1       1.587   3.624   0.154  0.00  0.00     0.013 C 
ENDBRANCH   7   8
ENDBRANCH   1   7
TORSDOF 2
ENDMDL
