MODEL 1
REMARK minimizedAffinity 3.68717813
REMARK minimizedRMSD -1
REMARK  2 active torsions:
REMARK  status: ('A' for Active; 'I' for Inactive)
REMARK    1  A    between atoms: C2'_3  and  C1'_4 
REMARK    2  A    between atoms: C1'_4  and  C1_5 
ROOT
ATOM      1  C1  I4B d   1      -1.187  -0.175   1.876  0.00  0.00    -0.075 A 
ATOM      2  C2  I4B d   1      -0.596   0.960   2.372  0.00  0.00     0.003 A 
ATOM      3  C3  I4B d   1       0.546   1.504   1.738  0.00  0.00     0.002 A 
ATOM      4  C4  I4B d   1       1.091   0.857   0.648  0.00  0.00    -0.004 A 
ATOM      5  C5  I4B d   1       0.477  -0.280   0.132  0.00  0.00     0.002 A 
ATOM      6  C6  I4B d   1      -0.676  -0.794   0.742  0.00  0.00     0.003 A 
ENDROOT
BRANCH   1   7
ATOM      7  C1' I4B d   1      -2.373  -0.742   2.590  0.00  0.00     0.060 C 
BRANCH   7   8
ATOM      8  C2' I4B d   1      -1.896  -1.901   3.442  0.00  0.00    -0.013 C 
ATOM      9  C4' I4B d   1      -2.985  -2.386   4.361  0.00  0.00     0.013 C 
ATOM     10  C3' I4B d   1      -1.437  -2.993   2.522  0.00  0.00     0.013 C 
ENDBRANCH   7   8
ENDBRANCH   1   7
TORSDOF 2
ENDMDL
