MODEL 1
REMARK minimizedAffinity -1.13323331
REMARK minimizedRMSD -1
REMARK  2 active torsions:
REMARK  status: ('A' for Active; 'I' for Inactive)
REMARK    1  A    between atoms: C2'_3  and  C1'_4 
REMARK    2  A    between atoms: C1'_4  and  C1_5 
ROOT
ATOM      1  C1  I4B d   1      -0.554   5.925  -2.905  0.00  0.00    -0.075 A 
ATOM      2  C2  I4B d   1      -0.585   5.801  -1.539  0.00  0.00     0.003 A 
ATOM      3  C3  I4B d   1      -1.824   5.758  -0.854  0.00  0.00     0.002 A 
ATOM      4  C4  I4B d   1      -2.998   5.892  -1.566  0.00  0.00    -0.004 A 
ATOM      5  C5  I4B d   1      -2.966   5.995  -2.954  0.00  0.00     0.002 A 
ATOM      6  C6  I4B d   1      -1.737   5.999  -3.629  0.00  0.00     0.003 A 
ENDROOT
BRANCH   1   7
ATOM      7  C1' I4B d   1       0.772   6.000  -3.592  0.00  0.00     0.060 C 
BRANCH   7   8
ATOM      8  C2' I4B d   1       0.627   5.360  -4.958  0.00  0.00    -0.013 C 
ATOM      9  C4' I4B d   1       1.564   5.988  -5.957  0.00  0.00     0.013 C 
ATOM     10  C3' I4B d   1       0.895   3.892  -4.813  0.00  0.00     0.013 C 
ENDBRANCH   7   8
ENDBRANCH   1   7
TORSDOF 2
ENDMDL
