MODEL 1
REMARK minimizedAffinity 14.6909447
REMARK minimizedRMSD -1
REMARK  2 active torsions:
REMARK  status: ('A' for Active; 'I' for Inactive)
REMARK    1  A    between atoms: C2'_3  and  C1'_4 
REMARK    2  A    between atoms: C1'_4  and  C1_5 
ROOT
ATOM      1  C1  I4B d   1       0.695   0.334   0.912  0.00  0.00    -0.075 A 
ATOM      2  C2  I4B d   1       0.587  -0.848   0.222  0.00  0.00     0.003 A 
ATOM      3  C3  I4B d   1      -0.390  -1.803   0.593  0.00  0.00     0.002 A 
ATOM      4  C4  I4B d   1      -1.200  -1.559   1.683  0.00  0.00    -0.004 A 
ATOM      5  C5  I4B d   1      -1.105  -0.351   2.367  0.00  0.00     0.002 A 
ATOM      6  C6  I4B d   1      -0.160   0.608   1.972  0.00  0.00     0.003 A 
ENDROOT
BRANCH   1   7
ATOM      7  C1' I4B d   1       1.759   1.306   0.515  0.00  0.00     0.060 C 
BRANCH   7   8
ATOM      8  C2' I4B d   1       1.161   2.270  -0.490  0.00  0.00    -0.013 C 
ATOM      9  C4' I4B d   1       1.141   3.676   0.048  0.00  0.00     0.013 C 
ATOM     10  C3' I4B d   1       1.967   2.184  -1.751  0.00  0.00     0.013 C 
ENDBRANCH   7   8
ENDBRANCH   1   7
TORSDOF 2
ENDMDL
