MODEL 1
REMARK minimizedAffinity 0.371071994
REMARK minimizedRMSD -1
REMARK  2 active torsions:
REMARK  status: ('A' for Active; 'I' for Inactive)
REMARK    1  A    between atoms: C2'_3  and  C1'_4 
REMARK    2  A    between atoms: C1'_4  and  C1_5 
ROOT
ATOM      1  C1  I4B d   1      -0.583   5.904  -4.697  0.00  0.00    -0.075 A 
ATOM      2  C2  I4B d   1      -1.901   5.927  -5.081  0.00  0.00     0.003 A 
ATOM      3  C3  I4B d   1      -2.926   5.999  -4.107  0.00  0.00     0.002 A 
ATOM      4  C4  I4B d   1      -2.593   5.996  -2.768  0.00  0.00    -0.004 A 
ATOM      5  C5  I4B d   1      -1.256   5.996  -2.381  0.00  0.00     0.002 A 
ATOM      6  C6  I4B d   1      -0.244   5.962  -3.352  0.00  0.00     0.003 A 
ENDROOT
BRANCH   1   7
ATOM      7  C1' I4B d   1       0.473   5.795  -5.751  0.00  0.00     0.060 C 
BRANCH   7   8
ATOM      8  C2' I4B d   1       1.801   5.568  -5.058  0.00  0.00    -0.013 C 
ATOM      9  C4' I4B d   1       1.967   4.126  -4.655  0.00  0.00     0.013 C 
ATOM     10  C3' I4B d   1       2.891   5.997  -5.995  0.00  0.00     0.013 C 
ENDBRANCH   7   8
ENDBRANCH   1   7
TORSDOF 2
ENDMDL
