MODEL 1
REMARK minimizedAffinity 7.89548922
REMARK minimizedRMSD -1
REMARK  2 active torsions:
REMARK  status: ('A' for Active; 'I' for Inactive)
REMARK    1  A    between atoms: C2'_3  and  C1'_4 
REMARK    2  A    between atoms: C1'_4  and  C1_5 
ROOT
ATOM      1  C1  I4B d   1       0.131   0.814   2.684  0.00  0.00    -0.075 A 
ATOM      2  C2  I4B d   1       1.187   0.535   1.853  0.00  0.00     0.003 A 
ATOM      3  C3  I4B d   1       0.963  -0.083   0.598  0.00  0.00     0.002 A 
ATOM      4  C4  I4B d   1      -0.319  -0.448   0.240  0.00  0.00    -0.004 A 
ATOM      5  C5  I4B d   1      -1.391  -0.144   1.074  0.00  0.00     0.002 A 
ATOM      6  C6  I4B d   1      -1.166   0.502   2.299  0.00  0.00     0.003 A 
ENDROOT
BRANCH   1   7
ATOM      7  C1' I4B d   1       0.407   1.437   4.015  0.00  0.00     0.060 C 
BRANCH   7   8
ATOM      8  C2' I4B d   1       1.336   0.515   4.779  0.00  0.00    -0.013 C 
ATOM      9  C4' I4B d   1       1.908   1.200   5.992  0.00  0.00     0.013 C 
ATOM     10  C3' I4B d   1       0.560  -0.709   5.164  0.00  0.00     0.013 C 
ENDBRANCH   7   8
ENDBRANCH   1   7
TORSDOF 2
ENDMDL
