MODEL 1
REMARK minimizedAffinity -0.75811857
REMARK minimizedRMSD -1
REMARK  2 active torsions:
REMARK  status: ('A' for Active; 'I' for Inactive)
REMARK    1  A    between atoms: C2'_3  and  C1'_4 
REMARK    2  A    between atoms: C1'_4  and  C1_5 
ROOT
ATOM      1  C1  I4B d   1      -0.777   5.964  -3.861  0.00  0.00    -0.075 A 
ATOM      2  C2  I4B d   1      -2.143   5.969  -3.997  0.00  0.00     0.003 A 
ATOM      3  C3  I4B d   1      -2.972   5.998  -2.850  0.00  0.00     0.002 A 
ATOM      4  C4  I4B d   1      -2.399   5.971  -1.595  0.00  0.00    -0.004 A 
ATOM      5  C5  I4B d   1      -1.014   5.990  -1.460  0.00  0.00     0.002 A 
ATOM      6  C6  I4B d   1      -0.197   5.999  -2.600  0.00  0.00     0.003 A 
ENDROOT
BRANCH   1   7
ATOM      7  C1' I4B d   1       0.070   5.900  -5.093  0.00  0.00     0.060 C 
BRANCH   7   8
ATOM      8  C2' I4B d   1       1.374   5.221  -4.728  0.00  0.00    -0.013 C 
ATOM      9  C4' I4B d   1       1.329   3.749  -5.041  0.00  0.00     0.013 C 
ATOM     10  C3' I4B d   1       2.477   5.902  -5.484  0.00  0.00     0.013 C 
ENDBRANCH   7   8
ENDBRANCH   1   7
TORSDOF 2
ENDMDL
