MODEL 1
REMARK minimizedAffinity 4.41324139
REMARK minimizedRMSD -1
REMARK  2 active torsions:
REMARK  status: ('A' for Active; 'I' for Inactive)
REMARK    1  A    between atoms: C2'_3  and  C1'_4 
REMARK    2  A    between atoms: C1'_4  and  C1_5 
ROOT
ATOM      1  C1  I4B d   1       3.543   5.246  -5.278  0.00  0.00    -0.075 A 
ATOM      2  C2  I4B d   1       3.620   4.142  -4.465  0.00  0.00     0.003 A 
ATOM      3  C3  I4B d   1       4.860   3.756  -3.902  0.00  0.00     0.002 A 
ATOM      4  C4  I4B d   1       6.000   4.468  -4.217  0.00  0.00    -0.004 A 
ATOM      5  C5  I4B d   1       5.917   5.600  -5.022  0.00  0.00     0.002 A 
ATOM      6  C6  I4B d   1       4.679   5.999  -5.546  0.00  0.00     0.003 A 
ENDROOT
BRANCH   1   7
ATOM      7  C1' I4B d   1       2.223   5.606  -5.882  0.00  0.00     0.060 C 
BRANCH   7   8
ATOM      8  C2' I4B d   1       1.134   5.018  -5.008  0.00  0.00    -0.013 C 
ATOM      9  C4' I4B d   1       0.010   6.000  -4.803  0.00  0.00     0.013 C 
ATOM     10  C3' I4B d   1       0.643   3.762  -5.663  0.00  0.00     0.013 C 
ENDBRANCH   7   8
ENDBRANCH   1   7
TORSDOF 2
ENDMDL
