MODEL 1
REMARK minimizedAffinity 2.30472183
REMARK minimizedRMSD -1
REMARK  2 active torsions:
REMARK  status: ('A' for Active; 'I' for Inactive)
REMARK    1  A    between atoms: C2'_3  and  C1'_4 
REMARK    2  A    between atoms: C1'_4  and  C1_5 
ROOT
ATOM      1  C1  I4B d   1       0.879   0.704   0.654  0.00  0.00    -0.075 A 
ATOM      2  C2  I4B d   1       1.231   1.950   1.107  0.00  0.00     0.003 A 
ATOM      3  C3  I4B d   1       1.939   2.842   0.265  0.00  0.00     0.002 A 
ATOM      4  C4  I4B d   1       2.315   2.430  -0.997  0.00  0.00    -0.004 A 
ATOM      5  C5  I4B d   1       1.937   1.175  -1.464  0.00  0.00     0.002 A 
ATOM      6  C6  I4B d   1       1.203   0.310  -0.638  0.00  0.00     0.003 A 
ENDROOT
BRANCH   1   7
ATOM      7  C1' I4B d   1       0.161  -0.224   1.581  0.00  0.00     0.060 C 
BRANCH   7   8
ATOM      8  C2' I4B d   1      -1.182  -0.556   0.963  0.00  0.00    -0.013 C 
ATOM      9  C4' I4B d   1      -1.426  -2.042   0.952  0.00  0.00     0.013 C 
ATOM     10  C3' I4B d   1      -2.242   0.161   1.745  0.00  0.00     0.013 C 
ENDBRANCH   7   8
ENDBRANCH   1   7
TORSDOF 2
ENDMDL
