MODEL 1
REMARK minimizedAffinity -3.90496421
REMARK minimizedRMSD -1
REMARK  0 active torsions:
REMARK  status: ('A' for Active; 'I' for Inactive)
ROOT
ATOM      1  C2' OXE d   1      -6.000  -3.702  -4.109  0.00  0.00     0.078 C 
ATOM      2  C1' OXE d   1      -4.091  -1.816  -4.935  0.00  0.00     0.078 C 
ATOM      3  C1  OXE d   1      -3.738  -3.277  -5.062  0.00  0.00    -0.078 A 
ATOM      4  C2  OXE d   1      -4.659  -4.192  -4.612  0.00  0.00    -0.078 A 
ATOM      5  C3  OXE d   1      -4.406  -5.553  -4.756  0.00  0.00     0.003 A 
ATOM      6  C4  OXE d   1      -3.159  -5.997  -5.212  0.00  0.00    -0.002 A 
ATOM      7  C5  OXE d   1      -2.191  -5.082  -5.639  0.00  0.00    -0.002 A 
ATOM      8  C6  OXE d   1      -2.480  -3.722  -5.610  0.00  0.00     0.003 A 
ENDROOT
TORSDOF 0
ENDMDL
