MODEL 1
REMARK minimizedAffinity -2.94938946
REMARK minimizedRMSD -1
REMARK  0 active torsions:
REMARK  status: ('A' for Active; 'I' for Inactive)
ROOT
ATOM      1  C2' OXE d   1      -5.675  -3.539  -3.762  0.00  0.00     0.078 C 
ATOM      2  C1' OXE d   1      -6.000  -5.212  -5.993  0.00  0.00     0.078 C 
ATOM      3  C1  OXE d   1      -4.607  -5.039  -5.440  0.00  0.00    -0.078 A 
ATOM      4  C2  OXE d   1      -4.451  -4.182  -4.377  0.00  0.00    -0.078 A 
ATOM      5  C3  OXE d   1      -3.196  -4.028  -3.795  0.00  0.00     0.003 A 
ATOM      6  C4  OXE d   1      -2.067  -4.619  -4.376  0.00  0.00    -0.002 A 
ATOM      7  C5  OXE d   1      -2.199  -5.464  -5.482  0.00  0.00    -0.002 A 
ATOM      8  C6  OXE d   1      -3.465  -5.718  -5.999  0.00  0.00     0.003 A 
ENDROOT
TORSDOF 0
ENDMDL
