MODEL 1
REMARK minimizedAffinity -0.337341189
REMARK minimizedRMSD -1
REMARK  0 active torsions:
REMARK  status: ('A' for Active; 'I' for Inactive)
ROOT
ATOM      1  C2' OXE d   1      -3.961  -1.938  -5.959  0.00  0.00     0.078 C 
ATOM      2  C1' OXE d   1      -6.000  -1.979  -4.030  0.00  0.00     0.078 C 
ATOM      3  C1  OXE d   1      -5.493  -3.302  -4.547  0.00  0.00    -0.078 A 
ATOM      4  C2  OXE d   1      -4.528  -3.272  -5.525  0.00  0.00    -0.078 A 
ATOM      5  C3  OXE d   1      -3.987  -4.464  -5.997  0.00  0.00     0.003 A 
ATOM      6  C4  OXE d   1      -4.524  -5.694  -5.597  0.00  0.00    -0.002 A 
ATOM      7  C5  OXE d   1      -5.535  -5.746  -4.631  0.00  0.00    -0.002 A 
ATOM      8  C6  OXE d   1      -6.000  -4.564  -4.066  0.00  0.00     0.003 A 
ENDROOT
TORSDOF 0
ENDMDL
