MODEL 1
REMARK minimizedAffinity -3.14374685
REMARK minimizedRMSD -1
REMARK  0 active torsions:
REMARK  status: ('A' for Active; 'I' for Inactive)
ROOT
ATOM      1  C2' OXE d   1      -5.974  -3.996  -5.191  0.00  0.00     0.078 C 
ATOM      2  C1' OXE d   1      -5.306  -6.000  -3.342  0.00  0.00     0.078 C 
ATOM      3  C1  OXE d   1      -4.214  -5.484  -4.245  0.00  0.00    -0.078 A 
ATOM      4  C2  OXE d   1      -4.561  -4.537  -5.179  0.00  0.00    -0.078 A 
ATOM      5  C3  OXE d   1      -3.581  -3.987  -6.000  0.00  0.00     0.003 A 
ATOM      6  C4  OXE d   1      -2.278  -4.500  -5.989  0.00  0.00    -0.002 A 
ATOM      7  C5  OXE d   1      -1.913  -5.493  -5.074  0.00  0.00    -0.002 A 
ATOM      8  C6  OXE d   1      -2.857  -5.965  -4.168  0.00  0.00     0.003 A 
ENDROOT
TORSDOF 0
ENDMDL
