MODEL 1
REMARK minimizedAffinity -3.91123676
REMARK minimizedRMSD -1
REMARK  0 active torsions:
REMARK  status: ('A' for Active; 'I' for Inactive)
ROOT
ATOM      1  C2' OXE d   1      -5.354  -2.690  -4.502  0.00  0.00     0.078 C 
ATOM      2  C1' OXE d   1      -5.989  -5.425  -4.503  0.00  0.00     0.078 C 
ATOM      3  C1  OXE d   1      -4.585  -5.028  -4.886  0.00  0.00    -0.078 A 
ATOM      4  C2  OXE d   1      -4.297  -3.686  -4.928  0.00  0.00    -0.078 A 
ATOM      5  C3  OXE d   1      -3.002  -3.268  -5.223  0.00  0.00     0.003 A 
ATOM      6  C4  OXE d   1      -2.032  -4.194  -5.625  0.00  0.00    -0.002 A 
ATOM      7  C5  OXE d   1      -2.317  -5.564  -5.627  0.00  0.00    -0.002 A 
ATOM      8  C6  OXE d   1      -3.573  -5.999  -5.220  0.00  0.00     0.003 A 
ENDROOT
TORSDOF 0
ENDMDL
