MODEL 1
REMARK minimizedAffinity -4.19181442
REMARK minimizedRMSD -1
REMARK  0 active torsions:
REMARK  status: ('A' for Active; 'I' for Inactive)
ROOT
ATOM      1  C2' OXE d   1      -3.168  -5.974  -4.886  0.00  0.00     0.078 C 
ATOM      2  C1' OXE d   1      -5.975  -5.978  -4.935  0.00  0.00     0.078 C 
ATOM      3  C1  OXE d   1      -5.277  -4.656  -4.742  0.00  0.00    -0.078 A 
ATOM      4  C2  OXE d   1      -3.905  -4.669  -4.673  0.00  0.00    -0.078 A 
ATOM      5  C3  OXE d   1      -3.208  -3.470  -4.550  0.00  0.00     0.003 A 
ATOM      6  C4  OXE d   1      -3.897  -2.269  -4.343  0.00  0.00    -0.002 A 
ATOM      7  C5  OXE d   1      -5.295  -2.238  -4.370  0.00  0.00    -0.002 A 
ATOM      8  C6  OXE d   1      -5.998  -3.414  -4.611  0.00  0.00     0.003 A 
ENDROOT
TORSDOF 0
ENDMDL
