MODEL 1
REMARK minimizedAffinity -2.98368526
REMARK minimizedRMSD -1
REMARK  0 active torsions:
REMARK  status: ('A' for Active; 'I' for Inactive)
ROOT
ATOM      1  C2' OXE d   1      -5.540  -2.980  -4.933  0.00  0.00     0.078 C 
ATOM      2  C1' OXE d   1      -5.989  -5.538  -5.999  0.00  0.00     0.078 C 
ATOM      3  C1  OXE d   1      -4.562  -5.124  -5.741  0.00  0.00    -0.078 A 
ATOM      4  C2  OXE d   1      -4.349  -3.853  -5.264  0.00  0.00    -0.078 A 
ATOM      5  C3  OXE d   1      -3.056  -3.440  -4.957  0.00  0.00     0.003 A 
ATOM      6  C4  OXE d   1      -1.959  -4.250  -5.274  0.00  0.00    -0.002 A 
ATOM      7  C5  OXE d   1      -2.151  -5.533  -5.799  0.00  0.00    -0.002 A 
ATOM      8  C6  OXE d   1      -3.446  -6.000  -5.998  0.00  0.00     0.003 A 
ENDROOT
TORSDOF 0
ENDMDL
