MODEL 1
REMARK minimizedAffinity -2.19050145
REMARK minimizedRMSD -1
REMARK  0 active torsions:
REMARK  status: ('A' for Active; 'I' for Inactive)
ROOT
ATOM      1  C2' OXE d   1      -5.981  -1.627  -5.035  0.00  0.00     0.078 C 
ATOM      2  C1' OXE d   1      -3.766  -2.288  -3.442  0.00  0.00     0.078 C 
ATOM      3  C1  OXE d   1      -4.330  -3.359  -4.341  0.00  0.00    -0.078 A 
ATOM      4  C2  OXE d   1      -5.442  -3.041  -5.082  0.00  0.00    -0.078 A 
ATOM      5  C3  OXE d   1      -5.970  -3.975  -5.969  0.00  0.00     0.003 A 
ATOM      6  C4  OXE d   1      -5.473  -5.284  -6.000  0.00  0.00    -0.002 A 
ATOM      7  C5  OXE d   1      -4.365  -5.640  -5.224  0.00  0.00    -0.002 A 
ATOM      8  C6  OXE d   1      -3.757  -4.680  -4.423  0.00  0.00     0.003 A 
ENDROOT
TORSDOF 0
ENDMDL
