MODEL 1
REMARK minimizedAffinity -3.32171607
REMARK minimizedRMSD -1
REMARK  0 active torsions:
REMARK  status: ('A' for Active; 'I' for Inactive)
ROOT
ATOM      1  C2' OXE d   1      -3.041  -2.644  -3.864  0.00  0.00     0.078 C 
ATOM      2  C1' OXE d   1      -4.877  -1.497  -5.651  0.00  0.00     0.078 C 
ATOM      3  C1  OXE d   1      -4.982  -2.978  -5.389  0.00  0.00    -0.078 A 
ATOM      4  C2  OXE d   1      -4.050  -3.539  -4.549  0.00  0.00    -0.078 A 
ATOM      5  C3  OXE d   1      -4.135  -4.892  -4.230  0.00  0.00     0.003 A 
ATOM      6  C4  OXE d   1      -5.065  -5.715  -4.876  0.00  0.00    -0.002 A 
ATOM      7  C5  OXE d   1      -5.998  -5.171  -5.766  0.00  0.00    -0.002 A 
ATOM      8  C6  OXE d   1      -5.997  -3.800  -6.000  0.00  0.00     0.003 A 
ENDROOT
TORSDOF 0
ENDMDL
