MODEL 1
REMARK minimizedAffinity -4.04923058
REMARK minimizedRMSD -1
REMARK  0 active torsions:
REMARK  status: ('A' for Active; 'I' for Inactive)
ROOT
ATOM      1  C2' OXE d   1      -3.234  -5.992  -4.910  0.00  0.00     0.078 C 
ATOM      2  C1' OXE d   1      -5.926  -5.999  -5.707  0.00  0.00     0.078 C 
ATOM      3  C1  OXE d   1      -5.229  -4.666  -5.595  0.00  0.00    -0.078 A 
ATOM      4  C2  OXE d   1      -3.925  -4.669  -5.159  0.00  0.00    -0.078 A 
ATOM      5  C3  OXE d   1      -3.219  -3.472  -5.091  0.00  0.00     0.003 A 
ATOM      6  C4  OXE d   1      -3.868  -2.252  -5.313  0.00  0.00    -0.002 A 
ATOM      7  C5  OXE d   1      -5.207  -2.224  -5.719  0.00  0.00    -0.002 A 
ATOM      8  C6  OXE d   1      -5.888  -3.422  -5.905  0.00  0.00     0.003 A 
ENDROOT
TORSDOF 0
ENDMDL
