MODEL 1
REMARK minimizedAffinity -3.96560836
REMARK minimizedRMSD -1
REMARK  0 active torsions:
REMARK  status: ('A' for Active; 'I' for Inactive)
ROOT
ATOM      1  C2' OXE d   1      -4.795  -2.130  -5.995  0.00  0.00     0.078 C 
ATOM      2  C1' OXE d   1      -6.000  -4.450  -4.971  0.00  0.00     0.078 C 
ATOM      3  C1  OXE d   1      -4.516  -4.487  -5.239  0.00  0.00    -0.078 A 
ATOM      4  C2  OXE d   1      -3.943  -3.363  -5.784  0.00  0.00    -0.078 A 
ATOM      5  C3  OXE d   1      -2.569  -3.326  -6.000  0.00  0.00     0.003 A 
ATOM      6  C4  OXE d   1      -1.790  -4.474  -5.811  0.00  0.00    -0.002 A 
ATOM      7  C5  OXE d   1      -2.361  -5.642  -5.295  0.00  0.00    -0.002 A 
ATOM      8  C6  OXE d   1      -3.711  -5.652  -4.964  0.00  0.00     0.003 A 
ENDROOT
TORSDOF 0
ENDMDL
