MODEL 1
REMARK minimizedAffinity -3.0396893
REMARK minimizedRMSD -1
REMARK  0 active torsions:
REMARK  status: ('A' for Active; 'I' for Inactive)
ROOT
ATOM      1  C2' OXE d   1      -5.998  -4.477  -3.693  0.00  0.00     0.078 C 
ATOM      2  C1' OXE d   1      -5.240  -2.431  -5.459  0.00  0.00     0.078 C 
ATOM      3  C1  OXE d   1      -4.295  -3.592  -5.281  0.00  0.00    -0.078 A 
ATOM      4  C2  OXE d   1      -4.652  -4.566  -4.379  0.00  0.00    -0.078 A 
ATOM      5  C3  OXE d   1      -3.842  -5.686  -4.217  0.00  0.00     0.003 A 
ATOM      6  C4  OXE d   1      -2.594  -5.756  -4.848  0.00  0.00    -0.002 A 
ATOM      7  C5  OXE d   1      -2.193  -4.756  -5.739  0.00  0.00    -0.002 A 
ATOM      8  C6  OXE d   1      -3.048  -3.691  -5.999  0.00  0.00     0.003 A 
ENDROOT
TORSDOF 0
ENDMDL
