MODEL 1
REMARK minimizedAffinity -3.17150903
REMARK minimizedRMSD -1
REMARK  0 active torsions:
REMARK  status: ('A' for Active; 'I' for Inactive)
ROOT
ATOM      1  C2' OXE d   1      -5.629  -3.194  -4.879  0.00  0.00     0.078 C 
ATOM      2  C1' OXE d   1      -5.854  -5.773  -5.965  0.00  0.00     0.078 C 
ATOM      3  C1  OXE d   1      -4.468  -5.231  -5.720  0.00  0.00    -0.078 A 
ATOM      4  C2  OXE d   1      -4.367  -3.951  -5.232  0.00  0.00    -0.078 A 
ATOM      5  C3  OXE d   1      -3.113  -3.422  -4.938  0.00  0.00     0.003 A 
ATOM      6  C4  OXE d   1      -1.950  -4.124  -5.277  0.00  0.00    -0.002 A 
ATOM      7  C5  OXE d   1      -2.031  -5.415  -5.812  0.00  0.00    -0.002 A 
ATOM      8  C6  OXE d   1      -3.279  -5.998  -6.000  0.00  0.00     0.003 A 
ENDROOT
TORSDOF 0
ENDMDL
