MODEL 1
REMARK minimizedAffinity -0.167593181
REMARK minimizedRMSD -1
REMARK  0 active torsions:
REMARK  status: ('A' for Active; 'I' for Inactive)
ROOT
ATOM      1  C2' OXE d   1      -2.296  -5.960  -4.648  0.00  0.00     0.078 C 
ATOM      2  C1' OXE d   1      -2.123  -3.506  -6.000  0.00  0.00     0.078 C 
ATOM      3  C1  OXE d   1      -3.498  -4.028  -5.661  0.00  0.00    -0.078 A 
ATOM      4  C2  OXE d   1      -3.574  -5.252  -5.041  0.00  0.00    -0.078 A 
ATOM      5  C3  OXE d   1      -4.815  -5.753  -4.658  0.00  0.00     0.003 A 
ATOM      6  C4  OXE d   1      -5.992  -5.096  -5.034  0.00  0.00    -0.002 A 
ATOM      7  C5  OXE d   1      -5.938  -3.868  -5.701  0.00  0.00    -0.002 A 
ATOM      8  C6  OXE d   1      -4.700  -3.300  -5.983  0.00  0.00     0.003 A 
ENDROOT
TORSDOF 0
ENDMDL
