MODEL 1
REMARK minimizedAffinity 7.03866339
REMARK minimizedRMSD -1
REMARK  0 active torsions:
REMARK  status: ('A' for Active; 'I' for Inactive)
ROOT
ATOM      1  C2' OXE d   1      -4.425  -2.979  -3.757  0.00  0.00     0.078 C 
ATOM      2  C1' OXE d   1      -2.949  -2.157  -5.999  0.00  0.00     0.078 C 
ATOM      3  C1  OXE d   1      -2.653  -3.519  -5.423  0.00  0.00    -0.078 A 
ATOM      4  C2  OXE d   1      -3.348  -3.894  -4.298  0.00  0.00    -0.078 A 
ATOM      5  C3  OXE d   1      -3.153  -5.162  -3.759  0.00  0.00     0.003 A 
ATOM      6  C4  OXE d   1      -2.148  -5.999  -4.259  0.00  0.00    -0.002 A 
ATOM      7  C5  OXE d   1      -1.401  -5.620  -5.380  0.00  0.00    -0.002 A 
ATOM      8  C6  OXE d   1      -1.670  -4.404  -5.998  0.00  0.00     0.003 A 
ENDROOT
TORSDOF 0
ENDMDL
