MODEL 1
REMARK minimizedAffinity 3.843817
REMARK minimizedRMSD -1
REMARK  0 active torsions:
REMARK  status: ('A' for Active; 'I' for Inactive)
ROOT
ATOM      1  C2' OXE d   1      -3.374  -2.105  -2.623  0.00  0.00     0.078 C 
ATOM      2  C1' OXE d   1      -4.880  -2.032  -4.991  0.00  0.00     0.078 C 
ATOM      3  C1  OXE d   1      -3.732  -3.007  -4.918  0.00  0.00    -0.078 A 
ATOM      4  C2  OXE d   1      -2.972  -3.003  -3.773  0.00  0.00    -0.078 A 
ATOM      5  C3  OXE d   1      -1.935  -3.921  -3.631  0.00  0.00     0.003 A 
ATOM      6  C4  OXE d   1      -1.563  -4.742  -4.703  0.00  0.00    -0.002 A 
ATOM      7  C5  OXE d   1      -2.299  -4.733  -5.892  0.00  0.00    -0.002 A 
ATOM      8  C6  OXE d   1      -3.410  -3.904  -6.000  0.00  0.00     0.003 A 
ENDROOT
TORSDOF 0
ENDMDL
