MODEL 1
REMARK minimizedAffinity -5.42653036
REMARK minimizedRMSD -1
REMARK  0 active torsions:
REMARK  status: ('A' for Active; 'I' for Inactive)
ROOT
ATOM      1  C   UNL d   1       2.294  -5.601  -0.046  0.00  0.00     0.077 C 
ATOM      2  C1  UNL d   1       1.193  -4.723  -0.561  0.00  0.00    -0.074 A 
ATOM      3  C2  UNL d   1      -0.082  -5.242  -0.813  0.00  0.00    -0.005 A 
ATOM      4  C3  UNL d   1      -1.099  -4.411  -1.282  0.00  0.00     0.006 A 
ATOM      5  C4  UNL d   1      -0.853  -3.055  -1.503  0.00  0.00    -0.005 A 
ATOM      6  C5  UNL d   1       0.414  -2.519  -1.256  0.00  0.00    -0.074 A 
ATOM      7  C6  UNL d   1       0.693  -1.062  -1.479  0.00  0.00     0.077 C 
ATOM      8  C7  UNL d   1       1.430  -3.358  -0.778  0.00  0.00    -0.001 A 
ENDROOT
TORSDOF 0
ENDMDL
