MODEL 1
REMARK minimizedAffinity -4.74405622
REMARK minimizedRMSD -1
REMARK  0 active torsions:
REMARK  status: ('A' for Active; 'I' for Inactive)
ROOT
ATOM      1  C   UNL d   1       1.297   3.234   2.973  0.00  0.00     0.077 C 
ATOM      2  C1  UNL d   1       0.428   2.529   1.974  0.00  0.00    -0.074 A 
ATOM      3  C2  UNL d   1      -0.810   3.059   1.599  0.00  0.00    -0.005 A 
ATOM      4  C3  UNL d   1      -1.604   2.397   0.662  0.00  0.00     0.006 A 
ATOM      5  C4  UNL d   1      -1.167   1.200   0.092  0.00  0.00    -0.005 A 
ATOM      6  C5  UNL d   1       0.069   0.655   0.455  0.00  0.00    -0.074 A 
ATOM      7  C6  UNL d   1       0.557  -0.625  -0.155  0.00  0.00     0.077 C 
ATOM      8  C7  UNL d   1       0.863   1.330   1.392  0.00  0.00    -0.001 A 
ENDROOT
TORSDOF 0
ENDMDL
