MODEL 1
REMARK minimizedAffinity -0.140351504
REMARK minimizedRMSD -1
REMARK  0 active torsions:
REMARK  status: ('A' for Active; 'I' for Inactive)
ROOT
ATOM      1  C   UNL d   1       0.141   2.965   1.852  0.00  0.00     0.077 C 
ATOM      2  C1  UNL d   1       0.072   2.124   0.612  0.00  0.00    -0.074 A 
ATOM      3  C2  UNL d   1      -0.129   2.709  -0.643  0.00  0.00    -0.005 A 
ATOM      4  C3  UNL d   1      -0.183   1.914  -1.788  0.00  0.00     0.006 A 
ATOM      5  C4  UNL d   1      -0.036   0.530  -1.691  0.00  0.00    -0.005 A 
ATOM      6  C5  UNL d   1       0.167  -0.072  -0.445  0.00  0.00    -0.074 A 
ATOM      7  C6  UNL d   1       0.337  -1.557  -0.324  0.00  0.00     0.077 C 
ATOM      8  C7  UNL d   1       0.226   0.734   0.700  0.00  0.00    -0.001 A 
ENDROOT
TORSDOF 0
ENDMDL
