MODEL 1
REMARK minimizedAffinity -4.22970819
REMARK minimizedRMSD -1
REMARK  0 active torsions:
REMARK  status: ('A' for Active; 'I' for Inactive)
ROOT
ATOM      1  C   UNL d   1      -0.529   2.086   1.831  0.00  0.00     0.077 C 
ATOM      2  C1  UNL d   1      -0.275   1.445   0.499  0.00  0.00    -0.074 A 
ATOM      3  C2  UNL d   1      -0.182   2.215  -0.665  0.00  0.00    -0.005 A 
ATOM      4  C3  UNL d   1       0.064   1.605  -1.894  0.00  0.00     0.006 A 
ATOM      5  C4  UNL d   1       0.220   0.220  -1.973  0.00  0.00    -0.005 A 
ATOM      6  C5  UNL d   1       0.132  -0.566  -0.820  0.00  0.00    -0.074 A 
ATOM      7  C6  UNL d   1       0.307  -2.054  -0.886  0.00  0.00     0.077 C 
ATOM      8  C7  UNL d   1      -0.109   0.055   0.413  0.00  0.00    -0.001 A 
ENDROOT
TORSDOF 0
ENDMDL
