MODEL 1
REMARK minimizedAffinity -2.80957913
REMARK minimizedRMSD -1
REMARK  0 active torsions:
REMARK  status: ('A' for Active; 'I' for Inactive)
ROOT
ATOM      1  C   UNL d   1      -1.056   2.506   1.713  0.00  0.00     0.077 C 
ATOM      2  C1  UNL d   1      -0.705   1.596   0.574  0.00  0.00    -0.074 A 
ATOM      3  C2  UNL d   1      -0.966   1.966  -0.750  0.00  0.00    -0.005 A 
ATOM      4  C3  UNL d   1      -0.625   1.113  -1.799  0.00  0.00     0.006 A 
ATOM      5  C4  UNL d   1      -0.021  -0.117  -1.537  0.00  0.00    -0.005 A 
ATOM      6  C5  UNL d   1       0.249  -0.504  -0.220  0.00  0.00    -0.074 A 
ATOM      7  C6  UNL d   1       0.907  -1.818   0.079  0.00  0.00     0.077 C 
ATOM      8  C7  UNL d   1      -0.090   0.362   0.829  0.00  0.00    -0.001 A 
ENDROOT
TORSDOF 0
ENDMDL
