MODEL 1
REMARK minimizedAffinity -3.16049266
REMARK minimizedRMSD -1
REMARK  0 active torsions:
REMARK  status: ('A' for Active; 'I' for Inactive)
ROOT
ATOM      1  C   UNL d   1       0.425  -0.117   0.842  0.00  0.00     0.077 C 
ATOM      2  C1  UNL d   1       0.308  -1.071  -0.310  0.00  0.00    -0.074 A 
ATOM      3  C2  UNL d   1       0.331  -0.611  -1.630  0.00  0.00    -0.005 A 
ATOM      4  C3  UNL d   1       0.230  -1.511  -2.691  0.00  0.00     0.006 A 
ATOM      5  C4  UNL d   1       0.106  -2.878  -2.443  0.00  0.00    -0.005 A 
ATOM      6  C5  UNL d   1       0.082  -3.357  -1.129  0.00  0.00    -0.074 A 
ATOM      7  C6  UNL d   1      -0.041  -4.825  -0.845  0.00  0.00     0.077 C 
ATOM      8  C7  UNL d   1       0.191  -2.447  -0.069  0.00  0.00    -0.001 A 
ENDROOT
TORSDOF 0
ENDMDL
