MODEL 1
REMARK minimizedAffinity -2.17600894
REMARK minimizedRMSD -1
REMARK  0 active torsions:
REMARK  status: ('A' for Active; 'I' for Inactive)
ROOT
ATOM      1  C   UNL d   1      -0.095   0.847   1.510  0.00  0.00     0.077 C 
ATOM      2  C1  UNL d   1       0.060   0.247   0.144  0.00  0.00    -0.074 A 
ATOM      3  C2  UNL d   1       0.355   1.048  -0.964  0.00  0.00    -0.005 A 
ATOM      4  C3  UNL d   1       0.505   0.475  -2.227  0.00  0.00     0.006 A 
ATOM      5  C4  UNL d   1       0.362  -0.903  -2.394  0.00  0.00    -0.005 A 
ATOM      6  C5  UNL d   1       0.067  -1.720  -1.298  0.00  0.00    -0.074 A 
ATOM      7  C6  UNL d   1      -0.081  -3.204  -1.459  0.00  0.00     0.077 C 
ATOM      8  C7  UNL d   1      -0.075  -1.137  -0.031  0.00  0.00    -0.001 A 
ENDROOT
TORSDOF 0
ENDMDL
