MODEL 1
REMARK minimizedAffinity -2.089463
REMARK minimizedRMSD -1
REMARK  0 active torsions:
REMARK  status: ('A' for Active; 'I' for Inactive)
ROOT
ATOM      1  C   UNL d   1       3.304  -0.781   0.418  0.00  0.00     0.077 C 
ATOM      2  C1  UNL d   1       1.992  -0.060   0.328  0.00  0.00    -0.074 A 
ATOM      3  C2  UNL d   1       1.911   1.317   0.556  0.00  0.00    -0.005 A 
ATOM      4  C3  UNL d   1       0.685   1.975   0.459  0.00  0.00     0.006 A 
ATOM      5  C4  UNL d   1      -0.470   1.264   0.134  0.00  0.00    -0.005 A 
ATOM      6  C5  UNL d   1      -0.409  -0.114  -0.098  0.00  0.00    -0.074 A 
ATOM      7  C6  UNL d   1      -1.640  -0.892  -0.458  0.00  0.00     0.077 C 
ATOM      8  C7  UNL d   1       0.828  -0.767  -0.006  0.00  0.00    -0.001 A 
ENDROOT
TORSDOF 0
ENDMDL
