MODEL 1
REMARK minimizedAffinity -1.07429445
REMARK minimizedRMSD -1
REMARK  0 active torsions:
REMARK  status: ('A' for Active; 'I' for Inactive)
ROOT
ATOM      1  C   UNL d   1       2.022   1.670   0.255  0.00  0.00     0.077 C 
ATOM      2  C1  UNL d   1       0.831   0.760   0.299  0.00  0.00    -0.074 A 
ATOM      3  C2  UNL d   1       0.652  -0.140   1.354  0.00  0.00    -0.005 A 
ATOM      4  C3  UNL d   1      -0.466  -0.973   1.385  0.00  0.00     0.006 A 
ATOM      5  C4  UNL d   1      -1.415  -0.915   0.364  0.00  0.00    -0.005 A 
ATOM      6  C5  UNL d   1      -1.253  -0.021  -0.699  0.00  0.00    -0.074 A 
ATOM      7  C6  UNL d   1      -2.269   0.062  -1.800  0.00  0.00     0.077 C 
ATOM      8  C7  UNL d   1      -0.131   0.818  -0.720  0.00  0.00    -0.001 A 
ENDROOT
TORSDOF 0
ENDMDL
