MODEL 1
REMARK minimizedAffinity -3.89274359
REMARK minimizedRMSD -1
REMARK  0 active torsions:
REMARK  status: ('A' for Active; 'I' for Inactive)
ROOT
ATOM      1  C   UNL d   1      -1.060   0.221  -1.250  0.00  0.00     0.077 C 
ATOM      2  C1  UNL d   1       0.137  -0.066  -0.393  0.00  0.00    -0.074 A 
ATOM      3  C2  UNL d   1       0.677  -1.354  -0.322  0.00  0.00    -0.005 A 
ATOM      4  C3  UNL d   1       1.796  -1.604   0.472  0.00  0.00     0.006 A 
ATOM      5  C4  UNL d   1       2.386  -0.571   1.201  0.00  0.00    -0.005 A 
ATOM      6  C5  UNL d   1       1.860   0.723   1.142  0.00  0.00    -0.074 A 
ATOM      7  C6  UNL d   1       2.487   1.848   1.911  0.00  0.00     0.077 C 
ATOM      8  C7  UNL d   1       0.739   0.968   0.336  0.00  0.00    -0.001 A 
ENDROOT
TORSDOF 0
ENDMDL
