MODEL 1
REMARK minimizedAffinity 9.06200314
REMARK minimizedRMSD -1
REMARK  1 active torsions:
REMARK  status: ('A' for Active; 'I' for Inactive)
REMARK    1  A    between atoms: N_2  and  C1_3 
ROOT
ATOM      1  C1  UNL d   1       4.741   2.991  -1.258  0.00  0.00     0.143 A 
ATOM      2  C2  UNL d   1       5.781   3.763  -0.728  0.00  0.00    -0.057 A 
ATOM      3  C3  UNL d   1       5.992   3.846   0.654  0.00  0.00     0.033 A 
ATOM      4  C4  UNL d   1       5.146   3.181   1.534  0.00  0.00    -0.042 A 
ATOM      5  C5  UNL d   1       4.090   2.428   1.031  0.00  0.00     0.033 A 
ATOM      6  C6  UNL d   1       3.889   2.343  -0.350  0.00  0.00    -0.057 A 
ENDROOT
BRANCH   1   7
ATOM      7  N   UNL d   1       4.420   2.947  -2.616  0.00  0.00    -0.732 N 
ATOM      8  C   UNL d   1       3.041   3.024  -3.051  0.00  0.00     0.284 C 
ATOM      9  H3  UNL d   1       5.066   3.488  -3.186  0.00  0.00     0.395 HD
ENDBRANCH   1   7
TORSDOF 1
ENDMDL
