MODEL 1
REMARK minimizedAffinity 11.3831215
REMARK minimizedRMSD -1
REMARK  1 active torsions:
REMARK  status: ('A' for Active; 'I' for Inactive)
REMARK    1  A    between atoms: N_2  and  C1_3 
ROOT
ATOM      1  C1  UNL d   1       2.252  -2.542   0.325  0.00  0.00     0.143 A 
ATOM      2  C2  UNL d   1       1.148  -3.279  -0.118  0.00  0.00    -0.057 A 
ATOM      3  C3  UNL d   1      -0.136  -3.036   0.383  0.00  0.00     0.033 A 
ATOM      4  C4  UNL d   1      -0.335  -2.067   1.362  0.00  0.00    -0.042 A 
ATOM      5  C5  UNL d   1       0.751  -1.340   1.836  0.00  0.00     0.033 A 
ATOM      6  C6  UNL d   1       2.030  -1.583   1.326  0.00  0.00    -0.057 A 
ENDROOT
BRANCH   1   7
ATOM      7  N   UNL d   1       3.568  -2.803  -0.063  0.00  0.00    -0.732 N 
ATOM      8  C   UNL d   1       3.989  -4.151  -0.381  0.00  0.00     0.284 C 
ATOM      9  H3  UNL d   1       3.936  -2.094  -0.692  0.00  0.00     0.395 HD
ENDBRANCH   1   7
TORSDOF 1
ENDMDL
