MODEL 1
REMARK minimizedAffinity 13.2999926
REMARK minimizedRMSD -1
REMARK  1 active torsions:
REMARK  status: ('A' for Active; 'I' for Inactive)
REMARK    1  A    between atoms: N_2  and  C1_3 
ROOT
ATOM      1  C1  UNL d   1       3.472   4.159  -2.628  0.00  0.00     0.143 A 
ATOM      2  C2  UNL d   1       2.340   4.969  -2.488  0.00  0.00    -0.057 A 
ATOM      3  C3  UNL d   1       1.050   4.448  -2.647  0.00  0.00     0.033 A 
ATOM      4  C4  UNL d   1       0.870   3.109  -2.978  0.00  0.00    -0.042 A 
ATOM      5  C5  UNL d   1       1.982   2.291  -3.147  0.00  0.00     0.033 A 
ATOM      6  C6  UNL d   1       3.267   2.815  -2.980  0.00  0.00    -0.057 A 
ENDROOT
BRANCH   1   7
ATOM      7  N   UNL d   1       4.783   4.639  -2.579  0.00  0.00    -0.732 N 
ATOM      8  C   UNL d   1       5.244   5.411  -1.445  0.00  0.00     0.284 C 
ATOM      9  H3  UNL d   1       5.458   3.959  -2.921  0.00  0.00     0.395 HD
ENDBRANCH   1   7
TORSDOF 1
ENDMDL
