MODEL 1
REMARK minimizedAffinity 6.06193209
REMARK minimizedRMSD -1
REMARK  1 active torsions:
REMARK  status: ('A' for Active; 'I' for Inactive)
REMARK    1  A    between atoms: N_2  and  C1_3 
ROOT
ATOM      1  C1  UNL d   1      -4.245   0.269   4.860  0.00  0.00     0.143 A 
ATOM      2  C2  UNL d   1      -4.125   0.462   3.479  0.00  0.00    -0.057 A 
ATOM      3  C3  UNL d   1      -4.596  -0.491   2.569  0.00  0.00     0.033 A 
ATOM      4  C4  UNL d   1      -5.171  -1.672   3.024  0.00  0.00    -0.042 A 
ATOM      5  C5  UNL d   1      -5.279  -1.897   4.392  0.00  0.00     0.033 A 
ATOM      6  C6  UNL d   1      -4.813  -0.939   5.297  0.00  0.00    -0.057 A 
ENDROOT
BRANCH   1   7
ATOM      7  N   UNL d   1      -3.708   1.133   5.816  0.00  0.00    -0.732 N 
ATOM      8  C   UNL d   1      -2.276   1.245   5.988  0.00  0.00     0.284 C 
ATOM      9  H3  UNL d   1      -4.202   2.022   5.858  0.00  0.00     0.395 HD
ENDBRANCH   1   7
TORSDOF 1
ENDMDL
