MODEL 1
REMARK minimizedAffinity 1.1410799
REMARK minimizedRMSD -1
REMARK  1 active torsions:
REMARK  status: ('A' for Active; 'I' for Inactive)
REMARK    1  A    between atoms: N_2  and  C1_3 
ROOT
ATOM      1  C1  UNL d   1      -3.009   0.386   3.867  0.00  0.00     0.143 A 
ATOM      2  C2  UNL d   1      -2.387  -0.158   2.738  0.00  0.00    -0.057 A 
ATOM      3  C3  UNL d   1      -3.017  -1.140   1.964  0.00  0.00     0.033 A 
ATOM      4  C4  UNL d   1      -4.274  -1.616   2.323  0.00  0.00    -0.042 A 
ATOM      5  C5  UNL d   1      -4.900  -1.108   3.455  0.00  0.00     0.033 A 
ATOM      6  C6  UNL d   1      -4.269  -0.123   4.220  0.00  0.00    -0.057 A 
ENDROOT
BRANCH   1   7
ATOM      7  N   UNL d   1      -2.393   1.293   4.733  0.00  0.00    -0.732 N 
ATOM      8  C   UNL d   1      -3.006   1.635   5.999  0.00  0.00     0.284 C 
ATOM      9  H3  UNL d   1      -1.386   1.162   4.780  0.00  0.00     0.395 HD
ENDBRANCH   1   7
TORSDOF 1
ENDMDL
