MODEL 1
REMARK minimizedAffinity 7.38374758
REMARK minimizedRMSD -1
REMARK  1 active torsions:
REMARK  status: ('A' for Active; 'I' for Inactive)
REMARK    1  A    between atoms: N_2  and  C1_3 
ROOT
ATOM      1  C1  UNL d   1      -3.063  -0.778   2.691  0.00  0.00     0.143 A 
ATOM      2  C2  UNL d   1      -4.345  -1.202   3.056  0.00  0.00    -0.057 A 
ATOM      3  C3  UNL d   1      -4.976  -0.703   4.203  0.00  0.00     0.033 A 
ATOM      4  C4  UNL d   1      -4.320   0.209   5.023  0.00  0.00    -0.042 A 
ATOM      5  C5  UNL d   1      -3.035   0.625   4.693  0.00  0.00     0.033 A 
ATOM      6  C6  UNL d   1      -2.414   0.129   3.543  0.00  0.00    -0.057 A 
ENDROOT
BRANCH   1   7
ATOM      7  N   UNL d   1      -2.344  -1.310   1.618  0.00  0.00    -0.732 N 
ATOM      8  C   UNL d   1      -0.906  -1.451   1.691  0.00  0.00     0.284 C 
ATOM      9  H3  UNL d   1      -2.818  -2.100   1.186  0.00  0.00     0.395 HD
ENDBRANCH   1   7
TORSDOF 1
ENDMDL
