MODEL 1
REMARK minimizedAffinity -1.57437718
REMARK minimizedRMSD -1
REMARK  1 active torsions:
REMARK  status: ('A' for Active; 'I' for Inactive)
REMARK    1  A    between atoms: N_2  and  C1_3 
ROOT
ATOM      1  C1  UNL d   1       0.488  -5.372  -5.252  0.00  0.00     0.143 A 
ATOM      2  C2  UNL d   1      -0.515  -5.998  -6.000  0.00  0.00    -0.057 A 
ATOM      3  C3  UNL d   1      -1.869  -5.731  -5.767  0.00  0.00     0.033 A 
ATOM      4  C4  UNL d   1      -2.246  -4.850  -4.758  0.00  0.00    -0.042 A 
ATOM      5  C5  UNL d   1      -1.268  -4.235  -3.986  0.00  0.00     0.033 A 
ATOM      6  C6  UNL d   1       0.083  -4.501  -4.228  0.00  0.00    -0.057 A 
ENDROOT
BRANCH   1   7
ATOM      7  N   UNL d   1       1.848  -5.670  -5.370  0.00  0.00    -0.732 N 
ATOM      8  C   UNL d   1       2.712  -5.641  -4.210  0.00  0.00     0.284 C 
ATOM      9  H3  UNL d   1       2.021  -6.452  -5.998  0.00  0.00     0.395 HD
ENDBRANCH   1   7
TORSDOF 1
ENDMDL
