MODEL 1
REMARK minimizedAffinity 6.20149517
REMARK minimizedRMSD -1
REMARK  1 active torsions:
REMARK  status: ('A' for Active; 'I' for Inactive)
REMARK    1  A    between atoms: N_2  and  C1_3 
ROOT
ATOM      1  C1  UNL d   1       4.812  -3.374  -1.049  0.00  0.00     0.143 A 
ATOM      2  C2  UNL d   1       3.637  -4.131  -0.991  0.00  0.00    -0.057 A 
ATOM      3  C3  UNL d   1       3.634  -5.426  -0.459  0.00  0.00     0.033 A 
ATOM      4  C4  UNL d   1       4.815  -6.000  -0.001  0.00  0.00    -0.042 A 
ATOM      5  C5  UNL d   1       6.000  -5.275  -0.073  0.00  0.00     0.033 A 
ATOM      6  C6  UNL d   1       5.996  -3.980  -0.599  0.00  0.00    -0.057 A 
ENDROOT
BRANCH   1   7
ATOM      7  N   UNL d   1       4.899  -2.119  -1.656  0.00  0.00    -0.732 N 
ATOM      8  C   UNL d   1       4.083  -1.017  -1.193  0.00  0.00     0.284 C 
ATOM      9  H3  UNL d   1       5.858  -1.861  -1.879  0.00  0.00     0.395 HD
ENDBRANCH   1   7
TORSDOF 1
ENDMDL
