MODEL 1
REMARK minimizedAffinity 11.9225578
REMARK minimizedRMSD -1
REMARK  1 active torsions:
REMARK  status: ('A' for Active; 'I' for Inactive)
REMARK    1  A    between atoms: N_2  and  C1_3 
ROOT
ATOM      1  C1  UNL d   1      -5.913  -1.105  -3.384  0.00  0.00     0.143 A 
ATOM      2  C2  UNL d   1      -5.971  -2.464  -3.058  0.00  0.00    -0.057 A 
ATOM      3  C3  UNL d   1      -6.000  -3.449  -4.052  0.00  0.00     0.033 A 
ATOM      4  C4  UNL d   1      -5.999  -3.090  -5.396  0.00  0.00    -0.042 A 
ATOM      5  C5  UNL d   1      -5.967  -1.744  -5.744  0.00  0.00     0.033 A 
ATOM      6  C6  UNL d   1      -5.932  -0.765  -4.746  0.00  0.00    -0.057 A 
ENDROOT
BRANCH   1   7
ATOM      7  N   UNL d   1      -5.982  -0.075  -2.443  0.00  0.00    -0.732 N 
ATOM      8  C   UNL d   1      -6.000  -0.372  -1.026  0.00  0.00     0.284 C 
ATOM      9  H3  UNL d   1      -5.399   0.720  -2.693  0.00  0.00     0.395 HD
ENDBRANCH   1   7
TORSDOF 1
ENDMDL
