MODEL 1
REMARK minimizedAffinity 18.8667088
REMARK minimizedRMSD -1
REMARK  1 active torsions:
REMARK  status: ('A' for Active; 'I' for Inactive)
REMARK    1  A    between atoms: N_2  and  C1_3 
ROOT
ATOM      1  C1  UNL d   1      -1.344  -0.184   2.612  0.00  0.00     0.143 A 
ATOM      2  C2  UNL d   1      -0.041  -0.691   2.639  0.00  0.00    -0.057 A 
ATOM      3  C3  UNL d   1       0.290  -1.880   1.978  0.00  0.00     0.033 A 
ATOM      4  C4  UNL d   1      -0.688  -2.601   1.301  0.00  0.00    -0.042 A 
ATOM      5  C5  UNL d   1      -1.996  -2.129   1.282  0.00  0.00     0.033 A 
ATOM      6  C6  UNL d   1      -2.318  -0.937   1.938  0.00  0.00    -0.057 A 
ENDROOT
BRANCH   1   7
ATOM      7  N   UNL d   1      -1.757   0.941   3.331  0.00  0.00    -0.732 N 
ATOM      8  C   UNL d   1      -1.818   0.910   4.777  0.00  0.00     0.284 C 
ATOM      9  H3  UNL d   1      -1.380   1.805   2.950  0.00  0.00     0.395 HD
ENDBRANCH   1   7
TORSDOF 1
ENDMDL
