MODEL 1
REMARK minimizedAffinity 4.95068073
REMARK minimizedRMSD -1
REMARK  1 active torsions:
REMARK  status: ('A' for Active; 'I' for Inactive)
REMARK    1  A    between atoms: N_2  and  C1_3 
ROOT
ATOM      1  C1  UNL d   1       3.238  -0.637  -0.148  0.00  0.00     0.143 A 
ATOM      2  C2  UNL d   1       2.776  -1.518   0.835  0.00  0.00    -0.057 A 
ATOM      3  C3  UNL d   1       3.088  -2.882   0.792  0.00  0.00     0.033 A 
ATOM      4  C4  UNL d   1       3.847  -3.395  -0.254  0.00  0.00    -0.042 A 
ATOM      5  C5  UNL d   1       4.297  -2.542  -1.256  0.00  0.00     0.033 A 
ATOM      6  C6  UNL d   1       3.987  -1.180  -1.204  0.00  0.00    -0.057 A 
ENDROOT
BRANCH   1   7
ATOM      7  N   UNL d   1       2.880   0.712  -0.215  0.00  0.00    -0.732 N 
ATOM      8  C   UNL d   1       2.103   1.214  -1.328  0.00  0.00     0.284 C 
ATOM      9  H3  UNL d   1       2.599   1.084   0.690  0.00  0.00     0.395 HD
ENDBRANCH   1   7
TORSDOF 1
ENDMDL
