MODEL 1
REMARK minimizedAffinity 8.93912792
REMARK minimizedRMSD -1
REMARK  1 active torsions:
REMARK  status: ('A' for Active; 'I' for Inactive)
REMARK    1  A    between atoms: N_2  and  C1_3 
ROOT
ATOM      1  C1  UNL d   1       4.030  -0.835  -0.273  0.00  0.00     0.143 A 
ATOM      2  C2  UNL d   1       3.816  -1.193   1.063  0.00  0.00    -0.057 A 
ATOM      3  C3  UNL d   1       3.467  -0.237   2.024  0.00  0.00     0.033 A 
ATOM      4  C4  UNL d   1       3.355   1.104   1.671  0.00  0.00    -0.042 A 
ATOM      5  C5  UNL d   1       3.588   1.487   0.355  0.00  0.00     0.033 A 
ATOM      6  C6  UNL d   1       3.929   0.526  -0.602  0.00  0.00    -0.057 A 
ENDROOT
BRANCH   1   7
ATOM      7  N   UNL d   1       4.475  -1.724  -1.254  0.00  0.00    -0.732 N 
ATOM      8  C   UNL d   1       4.697  -3.119  -0.940  0.00  0.00     0.284 C 
ATOM      9  H3  UNL d   1       4.024  -1.567  -2.153  0.00  0.00     0.395 HD
ENDBRANCH   1   7
TORSDOF 1
ENDMDL
