MODEL 1
REMARK minimizedAffinity 12.8022346
REMARK minimizedRMSD -1
REMARK  1 active torsions:
REMARK  status: ('A' for Active; 'I' for Inactive)
REMARK    1  A    between atoms: N_2  and  C1_3 
ROOT
ATOM      1  C1  UNL d   1      -5.375  -0.079  -1.749  0.00  0.00     0.143 A 
ATOM      2  C2  UNL d   1      -4.782   1.174  -1.561  0.00  0.00    -0.057 A 
ATOM      3  C3  UNL d   1      -4.771   1.791  -0.304  0.00  0.00     0.033 A 
ATOM      4  C4  UNL d   1      -5.381   1.176   0.785  0.00  0.00    -0.042 A 
ATOM      5  C5  UNL d   1      -5.999  -0.058   0.616  0.00  0.00     0.033 A 
ATOM      6  C6  UNL d   1      -6.000  -0.672  -0.641  0.00  0.00    -0.057 A 
ENDROOT
BRANCH   1   7
ATOM      7  N   UNL d   1      -5.504  -0.700  -2.994  0.00  0.00    -0.732 N 
ATOM      8  C   UNL d   1      -6.000  -2.056  -3.094  0.00  0.00     0.284 C 
ATOM      9  H3  UNL d   1      -5.868  -0.070  -3.705  0.00  0.00     0.395 HD
ENDBRANCH   1   7
TORSDOF 1
ENDMDL
