MODEL 1
REMARK minimizedAffinity 8.63665104
REMARK minimizedRMSD -1
REMARK  1 active torsions:
REMARK  status: ('A' for Active; 'I' for Inactive)
REMARK    1  A    between atoms: N_2  and  C1_3 
ROOT
ATOM      1  C1  UNL d   1      -0.236  -1.740   1.527  0.00  0.00     0.143 A 
ATOM      2  C2  UNL d   1      -1.388  -2.526   1.419  0.00  0.00    -0.057 A 
ATOM      3  C3  UNL d   1      -2.665  -1.958   1.502  0.00  0.00     0.033 A 
ATOM      4  C4  UNL d   1      -2.812  -0.592   1.723  0.00  0.00    -0.042 A 
ATOM      5  C5  UNL d   1      -1.681   0.204   1.858  0.00  0.00     0.033 A 
ATOM      6  C6  UNL d   1      -0.408  -0.368   1.768  0.00  0.00    -0.057 A 
ENDROOT
BRANCH   1   7
ATOM      7  N   UNL d   1       1.061  -2.260   1.552  0.00  0.00    -0.732 N 
ATOM      8  C   UNL d   1       1.442  -3.334   0.659  0.00  0.00     0.284 C 
ATOM      9  H3  UNL d   1       1.768  -1.536   1.656  0.00  0.00     0.395 HD
ENDBRANCH   1   7
TORSDOF 1
ENDMDL
