MODEL 1
REMARK minimizedAffinity -4.68485355
REMARK minimizedRMSD -1
REMARK  1 active torsions:
REMARK  status: ('A' for Active; 'I' for Inactive)
REMARK    1  A    between atoms: N_2  and  C1_3 
ROOT
ATOM      1  C1  UNL d   1       0.024   0.329  -0.292  0.00  0.00     0.143 A 
ATOM      2  C2  UNL d   1      -1.260  -0.190  -0.095  0.00  0.00    -0.057 A 
ATOM      3  C3  UNL d   1      -1.454  -1.431   0.522  0.00  0.00     0.033 A 
ATOM      4  C4  UNL d   1      -0.362  -2.192   0.928  0.00  0.00    -0.042 A 
ATOM      5  C5  UNL d   1       0.924  -1.707   0.719  0.00  0.00     0.033 A 
ATOM      6  C6  UNL d   1       1.111  -0.463   0.109  0.00  0.00    -0.057 A 
ENDROOT
BRANCH   1   7
ATOM      7  N   UNL d   1       0.287   1.512  -0.988  0.00  0.00    -0.732 N 
ATOM      8  C   UNL d   1       1.619   1.803  -1.471  0.00  0.00     0.284 C 
ATOM      9  H3  UNL d   1      -0.454   1.750  -1.643  0.00  0.00     0.395 HD
ENDBRANCH   1   7
TORSDOF 1
ENDMDL
