MODEL 1
REMARK minimizedAffinity -2.84301043
REMARK minimizedRMSD -1
REMARK  0 active torsions:
REMARK  status: ('A' for Active; 'I' for Inactive)
ROOT
ATOM      1  C   UNL d   1      -1.492  -0.005  -0.467  0.00  0.00     0.172 C 
ATOM      2  N   UNL d   1      -0.812   0.355   0.755  0.00  0.00    -0.070 N 
ATOM      3  C1  UNL d   1      -1.418   0.736   1.923  0.00  0.00    -0.004 A 
ATOM      4  C2  UNL d   1      -0.428   0.994   2.846  0.00  0.00    -0.047 A 
ATOM      5  C3  UNL d   1       0.815   0.761   2.212  0.00  0.00    -0.047 A 
ATOM      6  C4  UNL d   1       0.548   0.367   0.918  0.00  0.00    -0.004 A 
ENDROOT
TORSDOF 0
ENDMDL
