MODEL 1
REMARK minimizedAffinity -1.23967159
REMARK minimizedRMSD -1
REMARK  0 active torsions:
REMARK  status: ('A' for Active; 'I' for Inactive)
ROOT
ATOM      1  C   UNL d   1       3.374   5.330   0.342  0.00  0.00     0.172 C 
ATOM      2  N   UNL d   1       4.204   5.601   1.492  0.00  0.00    -0.070 N 
ATOM      3  C1  UNL d   1       3.761   5.751   2.779  0.00  0.00    -0.004 A 
ATOM      4  C2  UNL d   1       4.858   5.996   3.577  0.00  0.00    -0.047 A 
ATOM      5  C3  UNL d   1       5.999   5.995   2.740  0.00  0.00    -0.047 A 
ATOM      6  C4  UNL d   1       5.566   5.748   1.454  0.00  0.00    -0.004 A 
ENDROOT
TORSDOF 0
ENDMDL
