MODEL 1
REMARK minimizedAffinity 2.15374231
REMARK minimizedRMSD -1
REMARK  0 active torsions:
REMARK  status: ('A' for Active; 'I' for Inactive)
ROOT
ATOM      1  C   UNL d   1       0.173  -1.202   4.140  0.00  0.00     0.172 C 
ATOM      2  N   UNL d   1      -0.609  -0.510   3.143  0.00  0.00    -0.070 N 
ATOM      3  C1  UNL d   1      -1.896  -0.070   3.302  0.00  0.00    -0.004 A 
ATOM      4  C2  UNL d   1      -2.283   0.538   2.128  0.00  0.00    -0.047 A 
ATOM      5  C3  UNL d   1      -1.190   0.461   1.231  0.00  0.00    -0.047 A 
ATOM      6  C4  UNL d   1      -0.168  -0.193   1.886  0.00  0.00    -0.004 A 
ENDROOT
TORSDOF 0
ENDMDL
