MODEL 1
REMARK minimizedAffinity 2.84747338
REMARK minimizedRMSD -1
REMARK  1 active torsions:
REMARK  status: ('A' for Active; 'I' for Inactive)
REMARK    1  A    between atoms: C1_2  and  C2_3 
ROOT
ATOM      1  C2  UNL d   1       0.484   1.178   0.979  0.00  0.00    -0.073 A 
ATOM      2  C3  UNL d   1      -0.443   2.226   0.932  0.00  0.00    -0.002 A 
ATOM      3  C4  UNL d   1      -1.765   1.980   0.561  0.00  0.00     0.004 A 
ATOM      4  C5  UNL d   1      -2.176   0.686   0.241  0.00  0.00    -0.004 A 
ATOM      5  C6  UNL d   1      -1.267  -0.376   0.294  0.00  0.00    -0.075 A 
ATOM      6  C7  UNL d   1      -1.693  -1.773  -0.050  0.00  0.00     0.076 C 
ATOM      7  C8  UNL d   1       0.060  -0.121   0.665  0.00  0.00     0.001 A 
ENDROOT
BRANCH   1   8
ATOM      8  C1  UNL d   1       1.912   1.438   1.386  0.00  0.00     0.053 C 
ATOM      9  C   UNL d   1       2.880   0.479   0.711  0.00  0.00     0.018 C 
ENDBRANCH   1   8
TORSDOF 1
ENDMDL
