MODEL 1
REMARK minimizedAffinity -0.784209549
REMARK minimizedRMSD -1
REMARK  1 active torsions:
REMARK  status: ('A' for Active; 'I' for Inactive)
REMARK    1  A    between atoms: C1_2  and  C2_3 
ROOT
ATOM      1  C2  UNL d   1      -0.021   1.426   0.119  0.00  0.00    -0.073 A 
ATOM      2  C3  UNL d   1      -0.584   2.686   0.352  0.00  0.00    -0.002 A 
ATOM      3  C4  UNL d   1       0.205   3.733   0.830  0.00  0.00     0.004 A 
ATOM      4  C5  UNL d   1       1.564   3.534   1.073  0.00  0.00    -0.004 A 
ATOM      5  C6  UNL d   1       2.147   2.286   0.835  0.00  0.00    -0.075 A 
ATOM      6  C7  UNL d   1       3.607   2.054   1.094  0.00  0.00     0.076 C 
ATOM      7  C8  UNL d   1       1.348   1.238   0.358  0.00  0.00     0.001 A 
ENDROOT
BRANCH   1   8
ATOM      8  C1  UNL d   1      -0.868   0.294  -0.403  0.00  0.00     0.053 C 
ATOM      9  C   UNL d   1      -0.024  -0.811  -1.019  0.00  0.00     0.018 C 
ENDBRANCH   1   8
TORSDOF 1
ENDMDL
