MODEL 1
REMARK minimizedAffinity -4.2779994
REMARK minimizedRMSD -1
REMARK  1 active torsions:
REMARK  status: ('A' for Active; 'I' for Inactive)
REMARK    1  A    between atoms: C1_2  and  C2_3 
ROOT
ATOM      1  C2  UNL d   1      -0.213  -0.248   0.045  0.00  0.00    -0.073 A 
ATOM      2  C3  UNL d   1      -1.582  -0.010   0.217  0.00  0.00    -0.002 A 
ATOM      3  C4  UNL d   1      -2.060   1.295   0.338  0.00  0.00     0.004 A 
ATOM      4  C5  UNL d   1      -1.179   2.374   0.281  0.00  0.00    -0.004 A 
ATOM      5  C6  UNL d   1       0.191   2.157   0.098  0.00  0.00    -0.075 A 
ATOM      6  C7  UNL d   1       1.153   3.307   0.037  0.00  0.00     0.076 C 
ATOM      7  C8  UNL d   1       0.664   0.844  -0.020  0.00  0.00     0.001 A 
ENDROOT
BRANCH   1   8
ATOM      8  C1  UNL d   1       0.307  -1.655  -0.093  0.00  0.00     0.053 C 
ATOM      9  C   UNL d   1      -0.505  -2.469  -1.087  0.00  0.00     0.018 C 
ENDBRANCH   1   8
TORSDOF 1
ENDMDL
