MODEL 1
REMARK minimizedAffinity -4.68343735
REMARK minimizedRMSD -1
REMARK  1 active torsions:
REMARK  status: ('A' for Active; 'I' for Inactive)
REMARK    1  A    between atoms: C1_2  and  C2_3 
ROOT
ATOM      1  C2  UNL d   1       0.105   1.635   0.019  0.00  0.00    -0.073 A 
ATOM      2  C3  UNL d   1       1.251   2.286  -0.451  0.00  0.00    -0.002 A 
ATOM      3  C4  UNL d   1       1.746   3.410   0.213  0.00  0.00     0.004 A 
ATOM      4  C5  UNL d   1       1.105   3.889   1.356  0.00  0.00    -0.004 A 
ATOM      5  C6  UNL d   1      -0.034   3.244   1.848  0.00  0.00    -0.075 A 
ATOM      6  C7  UNL d   1      -0.736   3.748   3.075  0.00  0.00     0.076 C 
ATOM      7  C8  UNL d   1      -0.527   2.118   1.174  0.00  0.00     0.001 A 
ENDROOT
BRANCH   1   8
ATOM      8  C1  UNL d   1      -0.429   0.418  -0.690  0.00  0.00     0.053 C 
ATOM      9  C   UNL d   1      -1.100  -0.553   0.269  0.00  0.00     0.018 C 
ENDBRANCH   1   8
TORSDOF 1
ENDMDL
