MODEL 1
REMARK minimizedAffinity -4.90514469
REMARK minimizedRMSD -1
REMARK  1 active torsions:
REMARK  status: ('A' for Active; 'I' for Inactive)
REMARK    1  A    between atoms: C1_2  and  C2_3 
ROOT
ATOM      1  C2  UNL d   1       0.340  -0.063   0.278  0.00  0.00    -0.073 A 
ATOM      2  C3  UNL d   1      -1.009  -0.017   0.651  0.00  0.00    -0.002 A 
ATOM      3  C4  UNL d   1      -1.650   1.210   0.826  0.00  0.00     0.004 A 
ATOM      4  C5  UNL d   1      -0.953   2.401   0.624  0.00  0.00    -0.004 A 
ATOM      5  C6  UNL d   1       0.392   2.376   0.239  0.00  0.00    -0.075 A 
ATOM      6  C7  UNL d   1       1.156   3.648   0.020  0.00  0.00     0.076 C 
ATOM      7  C8  UNL d   1       1.029   1.140   0.068  0.00  0.00     0.001 A 
ENDROOT
BRANCH   1   8
ATOM      8  C1  UNL d   1       1.034  -1.386   0.082  0.00  0.00     0.053 C 
ATOM      9  C   UNL d   1       0.158  -2.387  -0.654  0.00  0.00     0.018 C 
ENDBRANCH   1   8
TORSDOF 1
ENDMDL
