MODEL 1
REMARK minimizedAffinity -3.26419115
REMARK minimizedRMSD -1
REMARK  1 active torsions:
REMARK  status: ('A' for Active; 'I' for Inactive)
REMARK    1  A    between atoms: C1_2  and  C2_3 
ROOT
ATOM      1  C2  UNL d   1      -0.645  -1.072  -1.373  0.00  0.00    -0.073 A 
ATOM      2  C3  UNL d   1      -0.053  -1.772  -0.316  0.00  0.00    -0.002 A 
ATOM      3  C4  UNL d   1       0.059  -1.183   0.944  0.00  0.00     0.004 A 
ATOM      4  C5  UNL d   1      -0.425   0.107   1.162  0.00  0.00    -0.004 A 
ATOM      5  C6  UNL d   1      -1.031   0.818   0.121  0.00  0.00    -0.075 A 
ATOM      6  C7  UNL d   1      -1.555   2.207   0.338  0.00  0.00     0.076 C 
ATOM      7  C8  UNL d   1      -1.137   0.221  -1.142  0.00  0.00     0.001 A 
ENDROOT
BRANCH   1   8
ATOM      8  C1  UNL d   1      -0.774  -1.706  -2.734  0.00  0.00     0.053 C 
ATOM      9  C   UNL d   1      -1.156  -3.175  -2.644  0.00  0.00     0.018 C 
ENDBRANCH   1   8
TORSDOF 1
ENDMDL
