MODEL 1
REMARK minimizedAffinity -5.16249228
REMARK minimizedRMSD -1
REMARK  1 active torsions:
REMARK  status: ('A' for Active; 'I' for Inactive)
REMARK    1  A    between atoms: C1_2  and  C2_3 
ROOT
ATOM      1  C2  UNL d   1       0.188   1.747   0.019  0.00  0.00    -0.073 A 
ATOM      2  C3  UNL d   1      -1.004   1.015   0.061  0.00  0.00    -0.002 A 
ATOM      3  C4  UNL d   1      -0.980  -0.356   0.323  0.00  0.00     0.004 A 
ATOM      4  C5  UNL d   1       0.233  -1.006   0.550  0.00  0.00    -0.004 A 
ATOM      5  C6  UNL d   1       1.434  -0.289   0.524  0.00  0.00    -0.075 A 
ATOM      6  C7  UNL d   1       2.747  -0.974   0.764  0.00  0.00     0.076 C 
ATOM      7  C8  UNL d   1       1.402   1.086   0.258  0.00  0.00     0.001 A 
ENDROOT
BRANCH   1   8
ATOM      8  C1  UNL d   1       0.167   3.228  -0.257  0.00  0.00     0.053 C 
ATOM      9  C   UNL d   1       1.428   3.918   0.237  0.00  0.00     0.018 C 
ENDBRANCH   1   8
TORSDOF 1
ENDMDL
