MODEL 1
REMARK minimizedAffinity -3.21893358
REMARK minimizedRMSD -1
REMARK  1 active torsions:
REMARK  status: ('A' for Active; 'I' for Inactive)
REMARK    1  A    between atoms: C1_2  and  C2_3 
ROOT
ATOM      1  C2  UNL d   1      -0.602  -1.851  -0.410  0.00  0.00    -0.073 A 
ATOM      2  C3  UNL d   1      -1.571  -0.987   0.112  0.00  0.00    -0.002 A 
ATOM      3  C4  UNL d   1      -1.194   0.215   0.713  0.00  0.00     0.004 A 
ATOM      4  C5  UNL d   1       0.153   0.568   0.791  0.00  0.00    -0.004 A 
ATOM      5  C6  UNL d   1       1.135  -0.277   0.265  0.00  0.00    -0.075 A 
ATOM      6  C7  UNL d   1       2.589   0.088   0.344  0.00  0.00     0.076 C 
ATOM      7  C8  UNL d   1       0.749  -1.483  -0.334  0.00  0.00     0.001 A 
ENDROOT
BRANCH   1   8
ATOM      8  C1  UNL d   1      -1.005  -3.147  -1.066  0.00  0.00     0.053 C 
ATOM      9  C   UNL d   1      -0.595  -3.197  -2.529  0.00  0.00     0.018 C 
ENDBRANCH   1   8
TORSDOF 1
ENDMDL
