MODEL 1
REMARK minimizedAffinity -3.64898443
REMARK minimizedRMSD -1
REMARK  1 active torsions:
REMARK  status: ('A' for Active; 'I' for Inactive)
REMARK    1  A    between atoms: C1_2  and  C2_3 
ROOT
ATOM      1  C2  UNL d   1      -0.290  -1.555  -0.800  0.00  0.00    -0.073 A 
ATOM      2  C3  UNL d   1      -1.548  -0.953  -0.684  0.00  0.00    -0.002 A 
ATOM      3  C4  UNL d   1      -1.687   0.267  -0.021  0.00  0.00     0.004 A 
ATOM      4  C5  UNL d   1      -0.571   0.900   0.526  0.00  0.00    -0.004 A 
ATOM      5  C6  UNL d   1       0.696   0.319   0.411  0.00  0.00    -0.075 A 
ATOM      6  C7  UNL d   1       1.906   0.986   0.996  0.00  0.00     0.076 C 
ATOM      7  C8  UNL d   1       0.828  -0.907  -0.254  0.00  0.00     0.001 A 
ENDROOT
BRANCH   1   8
ATOM      8  C1  UNL d   1      -0.134  -2.869  -1.521  0.00  0.00     0.053 C 
ATOM      9  C   UNL d   1      -1.472  -3.441  -1.961  0.00  0.00     0.018 C 
ENDBRANCH   1   8
TORSDOF 1
ENDMDL
