MODEL 1
REMARK minimizedAffinity -4.49215221
REMARK minimizedRMSD -1
REMARK  1 active torsions:
REMARK  status: ('A' for Active; 'I' for Inactive)
REMARK    1  A    between atoms: C1_2  and  C2_3 
ROOT
ATOM      1  C2  UNL d   1       0.633   1.106  -0.007  0.00  0.00    -0.073 A 
ATOM      2  C3  UNL d   1       0.265   2.450   0.116  0.00  0.00    -0.002 A 
ATOM      3  C4  UNL d   1       1.237   3.433   0.305  0.00  0.00     0.004 A 
ATOM      4  C5  UNL d   1       2.586   3.084   0.365  0.00  0.00    -0.004 A 
ATOM      5  C6  UNL d   1       2.975   1.747   0.233  0.00  0.00    -0.075 A 
ATOM      6  C7  UNL d   1       4.422   1.354   0.298  0.00  0.00     0.076 C 
ATOM      7  C8  UNL d   1       1.992   0.765   0.046  0.00  0.00     0.001 A 
ENDROOT
BRANCH   1   8
ATOM      8  C1  UNL d   1      -0.413   0.042  -0.218  0.00  0.00     0.053 C 
ATOM      9  C   UNL d   1      -1.284  -0.153   1.013  0.00  0.00     0.018 C 
ENDBRANCH   1   8
TORSDOF 1
ENDMDL
