MODEL 1
REMARK minimizedAffinity -6.6111989
REMARK minimizedRMSD -1
REMARK  1 active torsions:
REMARK  status: ('A' for Active; 'I' for Inactive)
REMARK    1  A    between atoms: C1_2  and  C2_3 
ROOT
ATOM      1  C2  UNL d   1       0.858   1.894   0.240  0.00  0.00    -0.073 A 
ATOM      2  C3  UNL d   1       2.223   1.785   0.528  0.00  0.00    -0.002 A 
ATOM      3  C4  UNL d   1       2.908   0.599   0.261  0.00  0.00     0.004 A 
ATOM      4  C5  UNL d   1       2.238  -0.487  -0.302  0.00  0.00    -0.004 A 
ATOM      5  C6  UNL d   1       0.876  -0.394  -0.609  0.00  0.00    -0.075 A 
ATOM      6  C7  UNL d   1       0.140  -1.554  -1.213  0.00  0.00     0.076 C 
ATOM      7  C8  UNL d   1       0.195   0.800  -0.335  0.00  0.00     0.001 A 
ENDROOT
BRANCH   1   8
ATOM      8  C1  UNL d   1       0.116   3.175   0.520  0.00  0.00     0.053 C 
ATOM      9  C   UNL d   1       0.895   4.397   0.060  0.00  0.00     0.018 C 
ENDBRANCH   1   8
TORSDOF 1
ENDMDL
