MODEL 1
REMARK minimizedAffinity -3.53304744
REMARK minimizedRMSD -1
REMARK  1 active torsions:
REMARK  status: ('A' for Active; 'I' for Inactive)
REMARK    1  A    between atoms: C1_2  and  C2_3 
ROOT
ATOM      1  C2  UNL d   1       0.123  -0.225   0.069  0.00  0.00    -0.073 A 
ATOM      2  C3  UNL d   1      -1.214   0.039   0.387  0.00  0.00    -0.002 A 
ATOM      3  C4  UNL d   1      -1.612   1.327   0.747  0.00  0.00     0.004 A 
ATOM      4  C5  UNL d   1      -0.681   2.365   0.786  0.00  0.00    -0.004 A 
ATOM      5  C6  UNL d   1       0.658   2.123   0.459  0.00  0.00    -0.075 A 
ATOM      6  C7  UNL d   1       1.672   3.228   0.498  0.00  0.00     0.076 C 
ATOM      7  C8  UNL d   1       1.050   0.826   0.102  0.00  0.00     0.001 A 
ENDROOT
BRANCH   1   8
ATOM      8  C1  UNL d   1       0.556  -1.613  -0.327  0.00  0.00     0.053 C 
ATOM      9  C   UNL d   1      -0.626  -2.494  -0.700  0.00  0.00     0.018 C 
ENDBRANCH   1   8
TORSDOF 1
ENDMDL
