MODEL 1
REMARK minimizedAffinity -5.29037142
REMARK minimizedRMSD -1
REMARK  0 active torsions:
REMARK  status: ('A' for Active; 'I' for Inactive)
ROOT
ATOM      1  C1  DEN d   1      -1.237   0.010   0.143  0.00  0.00     0.130 A 
ATOM      2  C2  DEN d   1      -0.979  -0.654  -1.131  0.00  0.00    -0.031 A 
ATOM      3  C3  DEN d   1       0.385  -0.292  -1.567  0.00  0.00     0.027 A 
ATOM      4  C4  DEN d   1       2.114   1.222  -0.397  0.00  0.00     0.027 A 
ATOM      5  C5  DEN d   1       2.347   2.018   0.703  0.00  0.00    -0.003 A 
ATOM      6  C6  DEN d   1       1.397   2.227   1.667  0.00  0.00     0.001 A 
ATOM      7  C7  DEN d   1       0.185   1.596   1.574  0.00  0.00     0.017 A 
ATOM      8  C8  DEN d   1      -0.060   0.797   0.465  0.00  0.00    -0.094 A 
ATOM      9  C9  DEN d   1       0.918   0.588  -0.493  0.00  0.00    -0.072 A 
ENDROOT
TORSDOF 0
ENDMDL
