MODEL 1
REMARK minimizedAffinity -5.28536987
REMARK minimizedRMSD -1
REMARK  0 active torsions:
REMARK  status: ('A' for Active; 'I' for Inactive)
ROOT
ATOM      1  C1  DEN d   1       1.837   2.002   0.328  0.00  0.00     0.130 A 
ATOM      2  C2  DEN d   1       0.981   2.735   1.257  0.00  0.00    -0.031 A 
ATOM      3  C3  DEN d   1      -0.153   1.862   1.618  0.00  0.00     0.027 A 
ATOM      4  C4  DEN d   1      -0.663  -0.543   0.835  0.00  0.00     0.027 A 
ATOM      5  C5  DEN d   1      -0.230  -1.579   0.037  0.00  0.00    -0.003 A 
ATOM      6  C6  DEN d   1       0.894  -1.482  -0.739  0.00  0.00     0.001 A 
ATOM      7  C7  DEN d   1       1.649  -0.341  -0.700  0.00  0.00     0.017 A 
ATOM      8  C8  DEN d   1       1.216   0.711   0.096  0.00  0.00    -0.094 A 
ATOM      9  C9  DEN d   1       0.084   0.589   0.883  0.00  0.00    -0.072 A 
ENDROOT
TORSDOF 0
ENDMDL
