MODEL 1
REMARK minimizedAffinity -2.48605514
REMARK minimizedRMSD -1
REMARK  0 active torsions:
REMARK  status: ('A' for Active; 'I' for Inactive)
ROOT
ATOM      1  C1  DEN d   1      -4.892   5.985  -5.869  0.00  0.00     0.130 A 
ATOM      2  C2  DEN d   1      -5.996   5.994  -4.913  0.00  0.00    -0.031 A 
ATOM      3  C3  DEN d   1      -5.423   5.990  -3.553  0.00  0.00     0.027 A 
ATOM      4  C4  DEN d   1      -2.945   5.976  -2.836  0.00  0.00     0.027 A 
ATOM      5  C5  DEN d   1      -1.645   5.954  -3.291  0.00  0.00    -0.003 A 
ATOM      6  C6  DEN d   1      -1.339   5.908  -4.625  0.00  0.00     0.001 A 
ATOM      7  C7  DEN d   1      -2.346   5.927  -5.554  0.00  0.00     0.017 A 
ATOM      8  C8  DEN d   1      -3.660   5.941  -5.103  0.00  0.00    -0.094 A 
ATOM      9  C9  DEN d   1      -3.948   6.000  -3.750  0.00  0.00    -0.072 A 
ENDROOT
TORSDOF 0
ENDMDL
