MODEL 1
REMARK minimizedAffinity -4.71815252
REMARK minimizedRMSD -1
REMARK  0 active torsions:
REMARK  status: ('A' for Active; 'I' for Inactive)
ROOT
ATOM      1  C1  DEN d   1       0.623  -0.310  -0.856  0.00  0.00     0.130 A 
ATOM      2  C2  DEN d   1      -0.426  -0.947  -0.065  0.00  0.00    -0.031 A 
ATOM      3  C3  DEN d   1      -0.383  -0.375   1.296  0.00  0.00     0.027 A 
ATOM      4  C4  DEN d   1       1.195   1.429   2.249  0.00  0.00     0.027 A 
ATOM      5  C5  DEN d   1       2.257   2.258   1.960  0.00  0.00    -0.003 A 
ATOM      6  C6  DEN d   1       2.865   2.264   0.732  0.00  0.00     0.001 A 
ATOM      7  C7  DEN d   1       2.387   1.458  -0.267  0.00  0.00     0.017 A 
ATOM      8  C8  DEN d   1       1.322   0.614   0.019  0.00  0.00    -0.094 A 
ATOM      9  C9  DEN d   1       0.713   0.631   1.263  0.00  0.00    -0.072 A 
ENDROOT
TORSDOF 0
ENDMDL
