MODEL 1
REMARK minimizedAffinity -3.69748712
REMARK minimizedRMSD -1
REMARK  0 active torsions:
REMARK  status: ('A' for Active; 'I' for Inactive)
ROOT
ATOM      1  C1  DEN d   1       2.466   0.100  -0.452  0.00  0.00     0.130 A 
ATOM      2  C2  DEN d   1       3.614   0.752   0.172  0.00  0.00    -0.031 A 
ATOM      3  C3  DEN d   1       3.118   1.583   1.286  0.00  0.00     0.027 A 
ATOM      4  C4  DEN d   1       0.695   1.919   2.105  0.00  0.00     0.027 A 
ATOM      5  C5  DEN d   1      -0.622   1.583   1.883  0.00  0.00    -0.003 A 
ATOM      6  C6  DEN d   1      -1.002   0.762   0.854  0.00  0.00     0.001 A 
ATOM      7  C7  DEN d   1      -0.050   0.214   0.036  0.00  0.00     0.017 A 
ATOM      8  C8  DEN d   1       1.279   0.554   0.249  0.00  0.00    -0.094 A 
ATOM      9  C9  DEN d   1       1.644   1.376   1.302  0.00  0.00    -0.072 A 
ENDROOT
TORSDOF 0
ENDMDL
