MODEL 1
REMARK minimizedAffinity -3.52576971
REMARK minimizedRMSD -1
REMARK  0 active torsions:
REMARK  status: ('A' for Active; 'I' for Inactive)
ROOT
ATOM      1  C1  DEN d   1      -0.692  -0.562   0.747  0.00  0.00     0.130 A 
ATOM      2  C2  DEN d   1      -0.378  -1.472  -0.351  0.00  0.00    -0.031 A 
ATOM      3  C3  DEN d   1       0.834  -0.970  -1.028  0.00  0.00     0.027 A 
ATOM      4  C4  DEN d   1       2.251   1.115  -0.484  0.00  0.00     0.027 A 
ATOM      5  C5  DEN d   1       2.372   2.203   0.352  0.00  0.00    -0.003 A 
ATOM      6  C6  DEN d   1       1.468   2.462   1.349  0.00  0.00     0.001 A 
ATOM      7  C7  DEN d   1       0.428   1.598   1.563  0.00  0.00     0.017 A 
ATOM      8  C8  DEN d   1       0.295   0.502   0.720  0.00  0.00    -0.094 A 
ATOM      9  C9  DEN d   1       1.226   0.251  -0.274  0.00  0.00    -0.072 A 
ENDROOT
TORSDOF 0
ENDMDL
