MODEL 1
REMARK minimizedAffinity -1.01097393
REMARK minimizedRMSD -1
REMARK  0 active torsions:
REMARK  status: ('A' for Active; 'I' for Inactive)
ROOT
ATOM      1  C1  DEN d   1       1.403   0.205  -0.600  0.00  0.00     0.130 A 
ATOM      2  C2  DEN d   1       0.810  -0.919  -1.318  0.00  0.00    -0.031 A 
ATOM      3  C3  DEN d   1      -0.455  -1.276  -0.643  0.00  0.00     0.027 A 
ATOM      4  C4  DEN d   1      -1.547  -0.198   1.430  0.00  0.00     0.027 A 
ATOM      5  C5  DEN d   1      -1.410   0.780   2.391  0.00  0.00    -0.003 A 
ATOM      6  C6  DEN d   1      -0.319   1.606   2.441  0.00  0.00     0.001 A 
ATOM      7  C7  DEN d   1       0.658   1.499   1.487  0.00  0.00     0.017 A 
ATOM      8  C8  DEN d   1       0.531   0.510   0.520  0.00  0.00    -0.094 A 
ATOM      9  C9  DEN d   1      -0.586  -0.307   0.478  0.00  0.00    -0.072 A 
ENDROOT
TORSDOF 0
ENDMDL
