MODEL 1
REMARK minimizedAffinity -6.17060614
REMARK minimizedRMSD -1
REMARK  0 active torsions:
REMARK  status: ('A' for Active; 'I' for Inactive)
ROOT
ATOM      1  C1  DEN d   1       3.615   1.562  -0.102  0.00  0.00     0.130 A 
ATOM      2  C2  DEN d   1       3.748   0.334  -0.881  0.00  0.00    -0.031 A 
ATOM      3  C3  DEN d   1       2.456  -0.380  -0.831  0.00  0.00     0.027 A 
ATOM      4  C4  DEN d   1       0.273   0.296   0.366  0.00  0.00     0.027 A 
ATOM      5  C5  DEN d   1      -0.321   1.249   1.163  0.00  0.00    -0.003 A 
ATOM      6  C6  DEN d   1       0.360   2.347   1.619  0.00  0.00     0.001 A 
ATOM      7  C7  DEN d   1       1.663   2.542   1.244  0.00  0.00     0.017 A 
ATOM      8  C8  DEN d   1       2.271   1.582   0.446  0.00  0.00    -0.094 A 
ATOM      9  C9  DEN d   1       1.562   0.485  -0.015  0.00  0.00    -0.072 A 
ENDROOT
TORSDOF 0
ENDMDL
