MODEL 1
REMARK minimizedAffinity -4.24774551
REMARK minimizedRMSD -1
REMARK  0 active torsions:
REMARK  status: ('A' for Active; 'I' for Inactive)
ROOT
ATOM      1  C1  DEN d   1      -3.497  -3.149  -0.117  0.00  0.00     0.130 A 
ATOM      2  C2  DEN d   1      -4.742  -3.432  -0.826  0.00  0.00    -0.031 A 
ATOM      3  C3  DEN d   1      -4.625  -2.881  -2.191  0.00  0.00     0.027 A 
ATOM      4  C4  DEN d   1      -2.644  -1.630  -3.272  0.00  0.00     0.027 A 
ATOM      5  C5  DEN d   1      -1.374  -1.143  -3.059  0.00  0.00    -0.003 A 
ATOM      6  C6  DEN d   1      -0.740  -1.259  -1.850  0.00  0.00     0.001 A 
ATOM      7  C7  DEN d   1      -1.359  -1.918  -0.820  0.00  0.00     0.017 A 
ATOM      8  C8  DEN d   1      -2.643  -2.406  -1.025  0.00  0.00    -0.094 A 
ATOM      9  C9  DEN d   1      -3.261  -2.289  -2.258  0.00  0.00    -0.072 A 
ENDROOT
TORSDOF 0
ENDMDL
