MODEL 1
REMARK minimizedAffinity -5.35253
REMARK minimizedRMSD -1
REMARK  0 active torsions:
REMARK  status: ('A' for Active; 'I' for Inactive)
ROOT
ATOM      1  C1  DEN d   1       2.968   0.638  -0.232  0.00  0.00     0.130 A 
ATOM      2  C2  DEN d   1       3.647   1.766   0.400  0.00  0.00    -0.031 A 
ATOM      3  C3  DEN d   1       2.647   2.518   1.185  0.00  0.00     0.027 A 
ATOM      4  C4  DEN d   1       0.130   2.045   1.486  0.00  0.00     0.027 A 
ATOM      5  C5  DEN d   1      -0.904   1.206   1.135  0.00  0.00    -0.003 A 
ATOM      6  C6  DEN d   1      -0.729   0.147   0.284  0.00  0.00     0.001 A 
ATOM      7  C7  DEN d   1       0.519  -0.127  -0.210  0.00  0.00     0.017 A 
ATOM      8  C8  DEN d   1       1.565   0.719   0.133  0.00  0.00    -0.094 A 
ATOM      9  C9  DEN d   1       1.370   1.777   1.005  0.00  0.00    -0.072 A 
ENDROOT
TORSDOF 0
ENDMDL
