MODEL 1
REMARK minimizedAffinity -4.16868353
REMARK minimizedRMSD -1
REMARK  0 active torsions:
REMARK  status: ('A' for Active; 'I' for Inactive)
ROOT
ATOM      1  C1  DEN d   1      -1.886  -0.702  -0.987  0.00  0.00     0.130 A 
ATOM      2  C2  DEN d   1      -0.840  -1.644  -1.377  0.00  0.00    -0.031 A 
ATOM      3  C3  DEN d   1       0.319  -1.433  -0.486  0.00  0.00     0.027 A 
ATOM      4  C4  DEN d   1       0.592   0.248   1.451  0.00  0.00     0.027 A 
ATOM      5  C5  DEN d   1      -0.021   1.263   2.151  0.00  0.00    -0.003 A 
ATOM      6  C6  DEN d   1      -1.276   1.714   1.835  0.00  0.00     0.001 A 
ATOM      7  C7  DEN d   1      -1.975   1.117   0.820  0.00  0.00     0.017 A 
ATOM      8  C8  DEN d   1      -1.361   0.098   0.105  0.00  0.00    -0.094 A 
ATOM      9  C9  DEN d   1      -0.097  -0.352   0.448  0.00  0.00    -0.072 A 
ENDROOT
TORSDOF 0
ENDMDL
