MODEL 1
REMARK minimizedAffinity -4.17413712
REMARK minimizedRMSD -1
REMARK  0 active torsions:
REMARK  status: ('A' for Active; 'I' for Inactive)
ROOT
ATOM      1  C1  DEN d   1       0.220  -1.015  -0.737  0.00  0.00     0.130 A 
ATOM      2  C2  DEN d   1      -1.155  -0.781  -0.305  0.00  0.00    -0.031 A 
ATOM      3  C3  DEN d   1      -1.124   0.171   0.823  0.00  0.00     0.027 A 
ATOM      4  C4  DEN d   1       0.910   1.303   1.934  0.00  0.00     0.027 A 
ATOM      5  C5  DEN d   1       2.283   1.407   1.921  0.00  0.00    -0.003 A 
ATOM      6  C6  DEN d   1       3.061   0.690   1.051  0.00  0.00     0.001 A 
ATOM      7  C7  DEN d   1       2.468  -0.129   0.126  0.00  0.00     0.017 A 
ATOM      8  C8  DEN d   1       1.084  -0.244   0.138  0.00  0.00    -0.094 A 
ATOM      9  C9  DEN d   1       0.314   0.499   1.018  0.00  0.00    -0.072 A 
ENDROOT
TORSDOF 0
ENDMDL
