MODEL 1
REMARK minimizedAffinity -4.90689945
REMARK minimizedRMSD -1
REMARK  0 active torsions:
REMARK  status: ('A' for Active; 'I' for Inactive)
ROOT
ATOM      1  C1  DEN d   1       1.398  -1.567  -0.517  0.00  0.00     0.130 A 
ATOM      2  C2  DEN d   1       2.755  -1.081  -0.747  0.00  0.00    -0.031 A 
ATOM      3  C3  DEN d   1       2.904   0.210  -0.046  0.00  0.00     0.027 A 
ATOM      4  C4  DEN d   1       1.174   1.494   1.372  0.00  0.00     0.027 A 
ATOM      5  C5  DEN d   1      -0.120   1.485   1.844  0.00  0.00    -0.003 A 
ATOM      6  C6  DEN d   1      -1.002   0.483   1.537  0.00  0.00     0.001 A 
ATOM      7  C7  DEN d   1      -0.587  -0.575   0.772  0.00  0.00     0.017 A 
ATOM      8  C8  DEN d   1       0.714  -0.569   0.286  0.00  0.00    -0.094 A 
ATOM      9  C9  DEN d   1       1.594   0.447   0.618  0.00  0.00    -0.072 A 
ENDROOT
TORSDOF 0
ENDMDL
