MODEL 1
REMARK minimizedAffinity -1.6683476
REMARK minimizedRMSD -1
REMARK  0 active torsions:
REMARK  status: ('A' for Active; 'I' for Inactive)
ROOT
ATOM      1  C4' PXY d   1       3.175   0.123   1.580  0.00  0.00     0.077 C 
ATOM      2  C1' PXY d   1      -2.165   0.554  -0.591  0.00  0.00     0.077 C 
ATOM      3  C1  PXY d   1      -0.762   0.453  -0.027  0.00  0.00    -0.082 A 
ATOM      4  C2  PXY d   1      -0.261  -0.735   0.270  0.00  0.00     0.003 A 
ATOM      5  C3  PXY d   1       0.995  -0.843   0.811  0.00  0.00     0.003 A 
ATOM      6  C4  PXY d   1       1.766   0.272   1.000  0.00  0.00    -0.082 A 
ATOM      7  C5  PXY d   1       1.266   1.487   0.689  0.00  0.00     0.003 A 
ATOM      8  C6  PXY d   1      -0.026   1.579   0.180  0.00  0.00     0.003 A 
ENDROOT
TORSDOF 0
ENDMDL
