MODEL 1
REMARK minimizedAffinity -1.26628578
REMARK minimizedRMSD -1
REMARK  0 active torsions:
REMARK  status: ('A' for Active; 'I' for Inactive)
ROOT
ATOM      1  C4' PXY d   1      -2.020  -1.416  -1.579  0.00  0.00     0.077 C 
ATOM      2  C1' PXY d   1       2.298   1.173   1.261  0.00  0.00     0.077 C 
ATOM      3  C1  PXY d   1       1.157   0.501   0.523  0.00  0.00    -0.082 A 
ATOM      4  C2  PXY d   1       1.341  -0.691  -0.021  0.00  0.00     0.003 A 
ATOM      5  C3  PXY d   1       0.330  -1.299  -0.720  0.00  0.00     0.003 A 
ATOM      6  C4  PXY d   1      -0.899  -0.704  -0.817  0.00  0.00    -0.082 A 
ATOM      7  C5  PXY d   1      -1.099   0.507  -0.255  0.00  0.00     0.003 A 
ATOM      8  C6  PXY d   1      -0.047   1.126   0.414  0.00  0.00     0.003 A 
ENDROOT
TORSDOF 0
ENDMDL
