MODEL 1
REMARK minimizedAffinity 0.0405093692
REMARK minimizedRMSD -1
REMARK  0 active torsions:
REMARK  status: ('A' for Active; 'I' for Inactive)
ROOT
ATOM      1  C4' PXY d   1      -2.767  -0.281  -3.046  0.00  0.00     0.077 C 
ATOM      2  C1' PXY d   1       1.267   0.348   1.045  0.00  0.00     0.077 C 
ATOM      3  C1  PXY d   1       0.203   0.175  -0.020  0.00  0.00    -0.082 A 
ATOM      4  C2  PXY d   1       0.497   0.425  -1.286  0.00  0.00     0.003 A 
ATOM      5  C3  PXY d   1      -0.462   0.304  -2.258  0.00  0.00     0.003 A 
ATOM      6  C4  PXY d   1      -1.722  -0.128  -1.938  0.00  0.00    -0.082 A 
ATOM      7  C5  PXY d   1      -2.027  -0.396  -0.651  0.00  0.00     0.003 A 
ATOM      8  C6  PXY d   1      -1.050  -0.227   0.326  0.00  0.00     0.003 A 
ENDROOT
TORSDOF 0
ENDMDL
