MODEL 1
REMARK minimizedAffinity -3.49777985
REMARK minimizedRMSD -1
REMARK  0 active torsions:
REMARK  status: ('A' for Active; 'I' for Inactive)
ROOT
ATOM      1  C4' PXY d   1      -2.062   0.849  -0.380  0.00  0.00     0.077 C 
ATOM      2  C1' PXY d   1       2.457  -1.265   2.539  0.00  0.00     0.077 C 
ATOM      3  C1  PXY d   1       1.277  -0.699   1.774  0.00  0.00    -0.082 A 
ATOM      4  C2  PXY d   1       0.127  -1.353   1.768  0.00  0.00     0.003 A 
ATOM      5  C3  PXY d   1      -0.941  -0.871   1.055  0.00  0.00     0.003 A 
ATOM      6  C4  PXY d   1      -0.847   0.320   0.386  0.00  0.00    -0.082 A 
ATOM      7  C5  PXY d   1       0.320   0.998   0.397  0.00  0.00     0.003 A 
ATOM      8  C6  PXY d   1       1.405   0.472   1.092  0.00  0.00     0.003 A 
ENDROOT
TORSDOF 0
ENDMDL
