MODEL 1
REMARK minimizedAffinity -2.75196171
REMARK minimizedRMSD -1
REMARK  0 active torsions:
REMARK  status: ('A' for Active; 'I' for Inactive)
ROOT
ATOM      1  C4' PXY d   1      -2.593   0.402  -1.205  0.00  0.00     0.077 C 
ATOM      2  C1' PXY d   1       2.546   0.514   1.440  0.00  0.00     0.077 C 
ATOM      3  C1  PXY d   1       1.198   0.471   0.748  0.00  0.00    -0.082 A 
ATOM      4  C2  PXY d   1       0.834   1.473  -0.037  0.00  0.00     0.003 A 
ATOM      5  C3  PXY d   1      -0.395   1.466  -0.646  0.00  0.00     0.003 A 
ATOM      6  C4  PXY d   1      -1.238   0.398  -0.493  0.00  0.00    -0.082 A 
ATOM      7  C5  PXY d   1      -0.869  -0.633   0.297  0.00  0.00     0.003 A 
ATOM      8  C6  PXY d   1       0.365  -0.587   0.940  0.00  0.00     0.003 A 
ENDROOT
TORSDOF 0
ENDMDL
