MODEL 1
REMARK minimizedAffinity 0.337747455
REMARK minimizedRMSD -1
REMARK  1 active torsions:
REMARK  status: ('A' for Active; 'I' for Inactive)
REMARK    1  A    between atoms: C3_4  and  O_7 
ROOT
ATOM      1  C   UNL d   1       1.128   4.486   0.569  0.00  0.00    -0.033 A 
ATOM      2  C1  UNL d   1       1.670   5.359  -0.376  0.00  0.00     0.039 A 
ATOM      3  C2  UNL d   1       0.884   5.820  -1.434  0.00  0.00    -0.080 A 
ATOM      4  C3  UNL d   1      -0.440   5.402  -1.535  0.00  0.00     0.150 A 
ATOM      5  C4  UNL d   1      -0.988   4.536  -0.595  0.00  0.00    -0.007 A 
ATOM      6  C5  UNL d   1      -0.202   4.076   0.461  0.00  0.00     0.039 A 
ENDROOT
BRANCH   4   7
ATOM      7  O   UNL d   1      -1.244   5.822  -2.553  0.00  0.00    -0.526 OA
ATOM      8  H5  UNL d   1      -0.722   6.393  -3.142  0.00  0.00     0.418 HD
ENDBRANCH   4   7
TORSDOF 1
ENDMDL
