MODEL 1
REMARK minimizedAffinity 9.26622486
REMARK minimizedRMSD -1
REMARK  1 active torsions:
REMARK  status: ('A' for Active; 'I' for Inactive)
REMARK    1  A    between atoms: C3_4  and  O_7 
ROOT
ATOM      1  C   UNL d   1       5.290  -2.628  -0.371  0.00  0.00    -0.033 A 
ATOM      2  C1  UNL d   1       4.649  -3.786  -0.814  0.00  0.00     0.039 A 
ATOM      3  C2  UNL d   1       4.680  -4.129  -2.167  0.00  0.00    -0.080 A 
ATOM      4  C3  UNL d   1       5.355  -3.307  -3.065  0.00  0.00     0.150 A 
ATOM      5  C4  UNL d   1       5.999  -2.153  -2.630  0.00  0.00    -0.007 A 
ATOM      6  C5  UNL d   1       5.967  -1.812  -1.278  0.00  0.00     0.039 A 
ENDROOT
BRANCH   4   7
ATOM      7  O   UNL d   1       5.408  -3.597  -4.396  0.00  0.00    -0.526 OA
ATOM      8  H5  UNL d   1       4.895  -4.407  -4.555  0.00  0.00     0.418 HD
ENDBRANCH   4   7
TORSDOF 1
ENDMDL
