MODEL 1
REMARK minimizedAffinity 3.18872261
REMARK minimizedRMSD -1
REMARK  1 active torsions:
REMARK  status: ('A' for Active; 'I' for Inactive)
REMARK    1  A    between atoms: C3_4  and  O_7 
ROOT
ATOM      1  C   UNL d   1      -0.450   4.648   1.440  0.00  0.00    -0.033 A 
ATOM      2  C1  UNL d   1      -0.381   5.894   0.814  0.00  0.00     0.039 A 
ATOM      3  C2  UNL d   1       0.134   6.000  -0.479  0.00  0.00    -0.080 A 
ATOM      4  C3  UNL d   1       0.575   4.854  -1.135  0.00  0.00     0.150 A 
ATOM      5  C4  UNL d   1       0.505   3.608  -0.519  0.00  0.00    -0.007 A 
ATOM      6  C5  UNL d   1      -0.009   3.505   0.773  0.00  0.00     0.039 A 
ENDROOT
BRANCH   4   7
ATOM      7  O   UNL d   1       1.089   4.907  -2.396  0.00  0.00    -0.526 OA
ATOM      8  H5  UNL d   1       1.102   5.836  -2.684  0.00  0.00     0.418 HD
ENDBRANCH   4   7
TORSDOF 1
ENDMDL
