MODEL 1
REMARK minimizedAffinity 1.74576497
REMARK minimizedRMSD -1
REMARK  1 active torsions:
REMARK  status: ('A' for Active; 'I' for Inactive)
REMARK    1  A    between atoms: C3_4  and  O_7 
ROOT
ATOM      1  C   UNL d   1       5.662  -3.862  -0.469  0.00  0.00    -0.033 A 
ATOM      2  C1  UNL d   1       5.797  -2.789  -1.353  0.00  0.00     0.039 A 
ATOM      3  C2  UNL d   1       4.804  -1.811  -1.423  0.00  0.00    -0.080 A 
ATOM      4  C3  UNL d   1       3.682  -1.916  -0.606  0.00  0.00     0.150 A 
ATOM      5  C4  UNL d   1       3.542  -2.980   0.279  0.00  0.00    -0.007 A 
ATOM      6  C5  UNL d   1       4.535  -3.956   0.348  0.00  0.00     0.039 A 
ENDROOT
BRANCH   4   7
ATOM      7  O   UNL d   1       2.683  -0.988  -0.643  0.00  0.00    -0.526 OA
ATOM      8  H5  UNL d   1       2.903  -0.327  -1.321  0.00  0.00     0.418 HD
ENDBRANCH   4   7
TORSDOF 1
ENDMDL
