MODEL 1
REMARK minimizedAffinity 6.40997076
REMARK minimizedRMSD -1
REMARK  1 active torsions:
REMARK  status: ('A' for Active; 'I' for Inactive)
REMARK    1  A    between atoms: C3_4  and  O_7 
ROOT
ATOM      1  C   UNL d   1      -0.409   4.167   1.539  0.00  0.00    -0.033 A 
ATOM      2  C1  UNL d   1      -0.630   5.495   1.170  0.00  0.00     0.039 A 
ATOM      3  C2  UNL d   1      -0.063   6.000  -0.001  0.00  0.00    -0.080 A 
ATOM      4  C3  UNL d   1       0.721   5.167  -0.794  0.00  0.00     0.150 A 
ATOM      5  C4  UNL d   1       0.943   3.842  -0.435  0.00  0.00    -0.007 A 
ATOM      6  C5  UNL d   1       0.376   3.340   0.736  0.00  0.00     0.039 A 
ENDROOT
BRANCH   4   7
ATOM      7  O   UNL d   1       1.300   5.616  -1.944  0.00  0.00    -0.526 OA
ATOM      8  H5  UNL d   1       1.084   6.557  -2.050  0.00  0.00     0.418 HD
ENDBRANCH   4   7
TORSDOF 1
ENDMDL
