MODEL 1
REMARK minimizedAffinity 3.4657445
REMARK minimizedRMSD -1
REMARK  1 active torsions:
REMARK  status: ('A' for Active; 'I' for Inactive)
REMARK    1  A    between atoms: C3_4  and  O_7 
ROOT
ATOM      1  C   UNL d   1      -0.640   5.993   1.145  0.00  0.00    -0.033 A 
ATOM      2  C1  UNL d   1       0.016   5.840  -0.077  0.00  0.00     0.039 A 
ATOM      3  C2  UNL d   1       0.357   4.565  -0.534  0.00  0.00    -0.080 A 
ATOM      4  C3  UNL d   1       0.035   3.453   0.240  0.00  0.00     0.150 A 
ATOM      5  C4  UNL d   1      -0.622   3.599   1.458  0.00  0.00    -0.007 A 
ATOM      6  C5  UNL d   1      -0.961   4.873   1.912  0.00  0.00     0.039 A 
ENDROOT
BRANCH   4   7
ATOM      7  O   UNL d   1       0.352   2.190  -0.161  0.00  0.00    -0.526 OA
ATOM      8  H5  UNL d   1       0.828   2.245  -1.006  0.00  0.00     0.418 HD
ENDBRANCH   4   7
TORSDOF 1
ENDMDL
