MODEL 1
REMARK minimizedAffinity 8.41127682
REMARK minimizedRMSD -1
REMARK  1 active torsions:
REMARK  status: ('A' for Active; 'I' for Inactive)
REMARK    1  A    between atoms: C3_4  and  O_7 
ROOT
ATOM      1  C   UNL d   1      -0.058   5.031  -0.406  0.00  0.00    -0.033 A 
ATOM      2  C1  UNL d   1       0.456   3.734  -0.454  0.00  0.00     0.039 A 
ATOM      3  C2  UNL d   1       0.320   2.886   0.648  0.00  0.00    -0.080 A 
ATOM      4  C3  UNL d   1      -0.331   3.348   1.789  0.00  0.00     0.150 A 
ATOM      5  C4  UNL d   1      -0.848   4.638   1.842  0.00  0.00    -0.007 A 
ATOM      6  C5  UNL d   1      -0.711   5.483   0.741  0.00  0.00     0.039 A 
ENDROOT
BRANCH   4   7
ATOM      7  O   UNL d   1      -0.483   2.559   2.890  0.00  0.00    -0.526 OA
ATOM      8  H5  UNL d   1      -0.052   1.705   2.719  0.00  0.00     0.418 HD
ENDBRANCH   4   7
TORSDOF 1
ENDMDL
