MODEL 1
REMARK minimizedAffinity 4.31556082
REMARK minimizedRMSD -1
REMARK  1 active torsions:
REMARK  status: ('A' for Active; 'I' for Inactive)
REMARK    1  A    between atoms: C3_4  and  O_7 
ROOT
ATOM      1  C   UNL d   1       4.500  -2.669   1.112  0.00  0.00    -0.033 A 
ATOM      2  C1  UNL d   1       5.480  -3.456   0.503  0.00  0.00     0.039 A 
ATOM      3  C2  UNL d   1       5.997  -3.093  -0.742  0.00  0.00    -0.080 A 
ATOM      4  C3  UNL d   1       5.527  -1.941  -1.366  0.00  0.00     0.150 A 
ATOM      5  C4  UNL d   1       4.555  -1.149  -0.764  0.00  0.00    -0.007 A 
ATOM      6  C5  UNL d   1       4.039  -1.514   0.479  0.00  0.00     0.039 A 
ENDROOT
BRANCH   4   7
ATOM      7  O   UNL d   1       5.998  -1.548  -2.584  0.00  0.00    -0.526 OA
ATOM      8  H5  UNL d   1       6.644  -2.206  -2.891  0.00  0.00     0.418 HD
ENDBRANCH   4   7
TORSDOF 1
ENDMDL
