MODEL 1
REMARK minimizedAffinity 8.4342556
REMARK minimizedRMSD -1
REMARK  1 active torsions:
REMARK  status: ('A' for Active; 'I' for Inactive)
REMARK    1  A    between atoms: C3_4  and  O_7 
ROOT
ATOM      1  C   UNL d   1      -5.352  -1.485   4.639  0.00  0.00    -0.033 A 
ATOM      2  C1  UNL d   1      -4.214  -1.833   3.907  0.00  0.00     0.039 A 
ATOM      3  C2  UNL d   1      -3.336  -0.841   3.466  0.00  0.00    -0.080 A 
ATOM      4  C3  UNL d   1      -3.607   0.492   3.763  0.00  0.00     0.150 A 
ATOM      5  C4  UNL d   1      -4.736   0.845   4.494  0.00  0.00    -0.007 A 
ATOM      6  C5  UNL d   1      -5.612  -0.147   4.933  0.00  0.00     0.039 A 
ENDROOT
BRANCH   4   7
ATOM      7  O   UNL d   1      -2.781   1.496   3.349  0.00  0.00    -0.526 OA
ATOM      8  H5  UNL d   1      -2.058   1.105   2.831  0.00  0.00     0.418 HD
ENDBRANCH   4   7
TORSDOF 1
ENDMDL
