MODEL 1
REMARK minimizedAffinity 1.59583616
REMARK minimizedRMSD -1
REMARK  0 active torsions:
REMARK  status: ('A' for Active; 'I' for Inactive)
ROOT
ATOM      1  C2' OXE d   1       1.992  -3.160   0.658  0.00  0.00     0.078 C 
ATOM      2  C1' OXE d   1       1.222  -0.992  -0.950  0.00  0.00     0.078 C 
ATOM      3  C1  OXE d   1       0.582  -1.121   0.409  0.00  0.00    -0.078 A 
ATOM      4  C2  OXE d   1       0.930  -2.211   1.171  0.00  0.00    -0.078 A 
ATOM      5  C3  OXE d   1       0.411  -2.348   2.455  0.00  0.00     0.003 A 
ATOM      6  C4  OXE d   1      -0.578  -1.472   2.918  0.00  0.00    -0.002 A 
ATOM      7  C5  OXE d   1      -0.976  -0.378   2.142  0.00  0.00    -0.002 A 
ATOM      8  C6  OXE d   1      -0.376  -0.165   0.906  0.00  0.00     0.003 A 
ENDROOT
TORSDOF 0
ENDMDL
