MODEL 1
REMARK minimizedAffinity -4.39681625
REMARK minimizedRMSD -1
REMARK  0 active torsions:
REMARK  status: ('A' for Active; 'I' for Inactive)
ROOT
ATOM      1  C2' OXE d   1       2.820  -3.745   3.315  0.00  0.00     0.078 C 
ATOM      2  C1' OXE d   1       3.415  -3.058   0.659  0.00  0.00     0.078 C 
ATOM      3  C1  OXE d   1       2.277  -2.335   1.334  0.00  0.00    -0.078 A 
ATOM      4  C2  OXE d   1       1.963  -2.711   2.618  0.00  0.00    -0.078 A 
ATOM      5  C3  OXE d   1       0.957  -2.038   3.307  0.00  0.00     0.003 A 
ATOM      6  C4  OXE d   1       0.162  -1.089   2.652  0.00  0.00    -0.002 A 
ATOM      7  C5  OXE d   1       0.440  -0.721   1.331  0.00  0.00    -0.002 A 
ATOM      8  C6  OXE d   1       1.518  -1.302   0.674  0.00  0.00     0.003 A 
ENDROOT
TORSDOF 0
ENDMDL
