MODEL 1
REMARK minimizedAffinity 3.56105208
REMARK minimizedRMSD -1
REMARK  0 active torsions:
REMARK  status: ('A' for Active; 'I' for Inactive)
ROOT
ATOM      1  C2' OXE d   1       1.088  -0.380  -0.561  0.00  0.00     0.078 C 
ATOM      2  C1' OXE d   1       0.360   2.248  -1.226  0.00  0.00     0.078 C 
ATOM      3  C1  OXE d   1       1.789   1.997  -0.812  0.00  0.00    -0.078 A 
ATOM      4  C2  OXE d   1       2.124   0.716  -0.443  0.00  0.00    -0.078 A 
ATOM      5  C3  OXE d   1       3.441   0.419  -0.106  0.00  0.00     0.003 A 
ATOM      6  C4  OXE d   1       4.391   1.441   0.011  0.00  0.00    -0.002 A 
ATOM      7  C5  OXE d   1       4.061   2.759  -0.322  0.00  0.00    -0.002 A 
ATOM      8  C6  OXE d   1       2.778   3.046  -0.775  0.00  0.00     0.003 A 
ENDROOT
TORSDOF 0
ENDMDL
