MODEL 1
REMARK minimizedAffinity 4.31475878
REMARK minimizedRMSD -1
REMARK  0 active torsions:
REMARK  status: ('A' for Active; 'I' for Inactive)
ROOT
ATOM      1  C2' OXE d   1       1.305  -0.677  -0.321  0.00  0.00     0.078 C 
ATOM      2  C1' OXE d   1      -1.022   0.254   0.943  0.00  0.00     0.078 C 
ATOM      3  C1  OXE d   1      -0.377  -0.995   1.489  0.00  0.00    -0.078 A 
ATOM      4  C2  OXE d   1       0.735  -1.470   0.836  0.00  0.00    -0.078 A 
ATOM      5  C3  OXE d   1       1.401  -2.587   1.331  0.00  0.00     0.003 A 
ATOM      6  C4  OXE d   1       0.862  -3.321   2.395  0.00  0.00    -0.002 A 
ATOM      7  C5  OXE d   1      -0.292  -2.877   3.050  0.00  0.00    -0.002 A 
ATOM      8  C6  OXE d   1      -0.898  -1.695   2.637  0.00  0.00     0.003 A 
ENDROOT
TORSDOF 0
ENDMDL
