MODEL 1
REMARK minimizedAffinity 5.45863819
REMARK minimizedRMSD -1
REMARK  0 active torsions:
REMARK  status: ('A' for Active; 'I' for Inactive)
ROOT
ATOM      1  C2' OXE d   1       1.548  -0.848   0.347  0.00  0.00     0.078 C 
ATOM      2  C1' OXE d   1      -0.509  -0.012   2.064  0.00  0.00     0.078 C 
ATOM      3  C1  OXE d   1      -0.012  -1.429   2.201  0.00  0.00    -0.078 A 
ATOM      4  C2  OXE d   1       0.963  -1.844   1.325  0.00  0.00    -0.078 A 
ATOM      5  C3  OXE d   1       1.496  -3.124   1.443  0.00  0.00     0.003 A 
ATOM      6  C4  OXE d   1       0.942  -4.043   2.343  0.00  0.00    -0.002 A 
ATOM      7  C5  OXE d   1      -0.079  -3.653   3.217  0.00  0.00    -0.002 A 
ATOM      8  C6  OXE d   1      -0.536  -2.340   3.188  0.00  0.00     0.003 A 
ENDROOT
TORSDOF 0
ENDMDL
