MODEL 1
REMARK minimizedAffinity 5.62993956
REMARK minimizedRMSD -1
REMARK  0 active torsions:
REMARK  status: ('A' for Active; 'I' for Inactive)
ROOT
ATOM      1  C2' OXE d   1      -5.607  -0.907   1.112  0.00  0.00     0.078 C 
ATOM      2  C1' OXE d   1      -5.075   0.926   3.170  0.00  0.00     0.078 C 
ATOM      3  C1  OXE d   1      -3.912   0.446   2.338  0.00  0.00    -0.078 A 
ATOM      4  C2  OXE d   1      -4.175  -0.487   1.363  0.00  0.00    -0.078 A 
ATOM      5  C3  OXE d   1      -3.147  -0.922   0.531  0.00  0.00     0.003 A 
ATOM      6  C4  OXE d   1      -1.824  -0.536   0.777  0.00  0.00    -0.002 A 
ATOM      7  C5  OXE d   1      -1.529   0.382   1.790  0.00  0.00    -0.002 A 
ATOM      8  C6  OXE d   1      -2.565   0.914   2.550  0.00  0.00     0.003 A 
ENDROOT
TORSDOF 0
ENDMDL
