MODEL 1
REMARK minimizedAffinity -3.73203731
REMARK minimizedRMSD -1
REMARK  0 active torsions:
REMARK  status: ('A' for Active; 'I' for Inactive)
ROOT
ATOM      1  C2' OXE d   1       1.793  -3.247   1.238  0.00  0.00     0.078 C 
ATOM      2  C1' OXE d   1      -0.289  -2.321   2.878  0.00  0.00     0.078 C 
ATOM      3  C1  OXE d   1       0.103  -1.474   1.693  0.00  0.00    -0.078 A 
ATOM      4  C2  OXE d   1       1.154  -1.911   0.923  0.00  0.00    -0.078 A 
ATOM      5  C3  OXE d   1       1.521  -1.196  -0.213  0.00  0.00     0.003 A 
ATOM      6  C4  OXE d   1       0.932   0.043  -0.491  0.00  0.00    -0.002 A 
ATOM      7  C5  OXE d   1      -0.113   0.527   0.303  0.00  0.00    -0.002 A 
ATOM      8  C6  OXE d   1      -0.567  -0.238   1.372  0.00  0.00     0.003 A 
ENDROOT
TORSDOF 0
ENDMDL
