MODEL 1
REMARK minimizedAffinity 2.56549358
REMARK minimizedRMSD -1
REMARK  0 active torsions:
REMARK  status: ('A' for Active; 'I' for Inactive)
ROOT
ATOM      1  C   UNL d   1       3.630  -5.586  -3.607  0.00  0.00     0.078 C 
ATOM      2  C1  UNL d   1       4.079  -4.544  -2.626  0.00  0.00    -0.077 A 
ATOM      3  C2  UNL d   1       4.895  -4.881  -1.539  0.00  0.00    -0.001 A 
ATOM      4  C3  UNL d   1       5.297  -3.903  -0.628  0.00  0.00     0.003 A 
ATOM      5  C4  UNL d   1       4.887  -2.582  -0.794  0.00  0.00    -0.005 A 
ATOM      6  C5  UNL d   1       4.073  -2.237  -1.872  0.00  0.00     0.003 A 
ATOM      7  C6  UNL d   1       3.670  -3.214  -2.783  0.00  0.00    -0.001 A 
ENDROOT
TORSDOF 0
ENDMDL
