MODEL 1
REMARK minimizedAffinity -2.51269078
REMARK minimizedRMSD -1
REMARK  0 active torsions:
REMARK  status: ('A' for Active; 'I' for Inactive)
ROOT
ATOM      1  C   UNL d   1       4.136  -1.890  -1.251  0.00  0.00     0.078 C 
ATOM      2  C1  UNL d   1       4.301  -3.319  -1.673  0.00  0.00    -0.077 A 
ATOM      3  C2  UNL d   1       3.440  -3.898  -2.613  0.00  0.00    -0.001 A 
ATOM      4  C3  UNL d   1       3.599  -5.232  -2.989  0.00  0.00     0.003 A 
ATOM      5  C4  UNL d   1       4.619  -6.000  -2.430  0.00  0.00    -0.005 A 
ATOM      6  C5  UNL d   1       5.480  -5.434  -1.492  0.00  0.00     0.003 A 
ATOM      7  C6  UNL d   1       5.322  -4.099  -1.114  0.00  0.00    -0.001 A 
ENDROOT
TORSDOF 0
ENDMDL
