MODEL 1
REMARK minimizedAffinity -3.97770405
REMARK minimizedRMSD -1
REMARK  0 active torsions:
REMARK  status: ('A' for Active; 'I' for Inactive)
ROOT
ATOM      1  C   UNL d   1       2.777  -4.450  -3.876  0.00  0.00     0.078 C 
ATOM      2  C1  UNL d   1       3.776  -3.931  -2.886  0.00  0.00    -0.077 A 
ATOM      3  C2  UNL d   1       3.683  -2.628  -2.382  0.00  0.00    -0.001 A 
ATOM      4  C3  UNL d   1       4.626  -2.155  -1.469  0.00  0.00     0.003 A 
ATOM      5  C4  UNL d   1       5.670  -2.978  -1.052  0.00  0.00    -0.005 A 
ATOM      6  C5  UNL d   1       5.773  -4.275  -1.549  0.00  0.00     0.003 A 
ATOM      7  C6  UNL d   1       4.831  -4.750  -2.463  0.00  0.00    -0.001 A 
ENDROOT
TORSDOF 0
ENDMDL
