MODEL 1
REMARK minimizedAffinity -0.234096095
REMARK minimizedRMSD -1
REMARK  0 active torsions:
REMARK  status: ('A' for Active; 'I' for Inactive)
ROOT
ATOM      1  C   UNL d   1      -0.750   1.816  -0.744  0.00  0.00     0.078 C 
ATOM      2  C1  UNL d   1      -0.420   3.272  -0.894  0.00  0.00    -0.077 A 
ATOM      3  C2  UNL d   1       0.845   3.684  -1.331  0.00  0.00    -0.001 A 
ATOM      4  C3  UNL d   1       1.141   5.042  -1.456  0.00  0.00     0.003 A 
ATOM      5  C4  UNL d   1       0.177   5.999  -1.145  0.00  0.00    -0.005 A 
ATOM      6  C5  UNL d   1      -1.083   5.599  -0.707  0.00  0.00     0.003 A 
ATOM      7  C6  UNL d   1      -1.381   4.241  -0.581  0.00  0.00    -0.001 A 
ENDROOT
TORSDOF 0
ENDMDL
