MODEL 1
REMARK minimizedAffinity -0.571278811
REMARK minimizedRMSD -1
REMARK  0 active torsions:
REMARK  status: ('A' for Active; 'I' for Inactive)
ROOT
ATOM      1  C   UNL d   1      -2.897   1.529  -2.002  0.00  0.00     0.078 C 
ATOM      2  C1  UNL d   1      -1.893   2.541  -1.536  0.00  0.00    -0.077 A 
ATOM      3  C2  UNL d   1      -0.743   2.149  -0.840  0.00  0.00    -0.001 A 
ATOM      4  C3  UNL d   1       0.178   3.103  -0.405  0.00  0.00     0.003 A 
ATOM      5  C4  UNL d   1      -0.042   4.456  -0.659  0.00  0.00    -0.005 A 
ATOM      6  C5  UNL d   1      -1.184   4.855  -1.349  0.00  0.00     0.003 A 
ATOM      7  C6  UNL d   1      -2.106   3.903  -1.786  0.00  0.00    -0.001 A 
ENDROOT
TORSDOF 0
ENDMDL
