MODEL 1
REMARK minimizedAffinity 5.61832047
REMARK minimizedRMSD -1
REMARK  0 active torsions:
REMARK  status: ('A' for Active; 'I' for Inactive)
ROOT
ATOM      1  C   UNL d   1      -0.043   1.553   1.424  0.00  0.00     0.078 C 
ATOM      2  C1  UNL d   1      -0.136   2.392   0.185  0.00  0.00    -0.077 A 
ATOM      3  C2  UNL d   1       0.206   3.749   0.205  0.00  0.00    -0.001 A 
ATOM      4  C3  UNL d   1       0.105   4.520  -0.954  0.00  0.00     0.003 A 
ATOM      5  C4  UNL d   1      -0.340   3.943  -2.142  0.00  0.00    -0.005 A 
ATOM      6  C5  UNL d   1      -0.685   2.594  -2.171  0.00  0.00     0.003 A 
ATOM      7  C6  UNL d   1      -0.584   1.821  -1.013  0.00  0.00    -0.001 A 
ENDROOT
TORSDOF 0
ENDMDL
