MODEL 1
REMARK minimizedAffinity 0.899662673
REMARK minimizedRMSD -1
REMARK  0 active torsions:
REMARK  status: ('A' for Active; 'I' for Inactive)
ROOT
ATOM      1  C   UNL d   1      -3.358  -0.002  -1.497  0.00  0.00     0.078 C 
ATOM      2  C1  UNL d   1      -4.014   1.306  -1.824  0.00  0.00    -0.077 A 
ATOM      3  C2  UNL d   1      -5.399   1.470  -1.694  0.00  0.00    -0.001 A 
ATOM      4  C3  UNL d   1      -5.998   2.690  -2.011  0.00  0.00     0.003 A 
ATOM      5  C4  UNL d   1      -5.221   3.755  -2.462  0.00  0.00    -0.005 A 
ATOM      6  C5  UNL d   1      -3.843   3.600  -2.597  0.00  0.00     0.003 A 
ATOM      7  C6  UNL d   1      -3.242   2.381  -2.280  0.00  0.00    -0.001 A 
ENDROOT
TORSDOF 0
ENDMDL
