MODEL 1
REMARK minimizedAffinity 1.94912636
REMARK minimizedRMSD -1
REMARK  0 active torsions:
REMARK  status: ('A' for Active; 'I' for Inactive)
ROOT
ATOM      1  C   UNL d   1       3.788  -5.297  -3.832  0.00  0.00     0.078 C 
ATOM      2  C1  UNL d   1       4.082  -4.254  -2.795  0.00  0.00    -0.077 A 
ATOM      3  C2  UNL d   1       4.556  -4.611  -1.527  0.00  0.00    -0.001 A 
ATOM      4  C3  UNL d   1       4.815  -3.630  -0.569  0.00  0.00     0.003 A 
ATOM      5  C4  UNL d   1       4.603  -2.286  -0.868  0.00  0.00    -0.005 A 
ATOM      6  C5  UNL d   1       4.129  -1.921  -2.127  0.00  0.00     0.003 A 
ATOM      7  C6  UNL d   1       3.869  -2.901  -3.086  0.00  0.00    -0.001 A 
ENDROOT
TORSDOF 0
ENDMDL
