MODEL 1
REMARK minimizedAffinity 2.58277225
REMARK minimizedRMSD -1
REMARK  0 active torsions:
REMARK  status: ('A' for Active; 'I' for Inactive)
ROOT
ATOM      1  C   UNL d   1       0.824   4.617  -1.037  0.00  0.00     0.078 C 
ATOM      2  C1  UNL d   1       0.234   3.431  -0.335  0.00  0.00    -0.077 A 
ATOM      3  C2  UNL d   1       0.195   3.367   1.064  0.00  0.00    -0.001 A 
ATOM      4  C3  UNL d   1      -0.349   2.253   1.704  0.00  0.00     0.003 A 
ATOM      5  C4  UNL d   1      -0.857   1.194   0.955  0.00  0.00    -0.005 A 
ATOM      6  C5  UNL d   1      -0.821   1.248  -0.437  0.00  0.00     0.003 A 
ATOM      7  C6  UNL d   1      -0.278   2.361  -1.079  0.00  0.00    -0.001 A 
ENDROOT
TORSDOF 0
ENDMDL
