MODEL 1
REMARK minimizedAffinity 5.58316135
REMARK minimizedRMSD -1
REMARK  0 active torsions:
REMARK  status: ('A' for Active; 'I' for Inactive)
ROOT
ATOM      1  C   UNL d   1       0.755   5.650  -1.096  0.00  0.00     0.078 C 
ATOM      2  C1  UNL d   1       0.341   4.282  -0.643  0.00  0.00    -0.077 A 
ATOM      3  C2  UNL d   1       0.265   3.966   0.719  0.00  0.00    -0.001 A 
ATOM      4  C3  UNL d   1      -0.113   2.686   1.127  0.00  0.00     0.003 A 
ATOM      5  C4  UNL d   1      -0.417   1.711   0.179  0.00  0.00    -0.005 A 
ATOM      6  C5  UNL d   1      -0.343   2.016  -1.179  0.00  0.00     0.003 A 
ATOM      7  C6  UNL d   1       0.035   3.295  -1.588  0.00  0.00    -0.001 A 
ENDROOT
TORSDOF 0
ENDMDL
