MODEL 1
REMARK minimizedAffinity -1.95251203
REMARK minimizedRMSD -1
REMARK  0 active torsions:
REMARK  status: ('A' for Active; 'I' for Inactive)
ROOT
ATOM      1  C   UNL d   1      -2.027  -0.548  -1.264  0.00  0.00     0.020 A 
ATOM      2  C1  UNL d   1      -1.174   0.452  -1.731  0.00  0.00     0.020 A 
ATOM      3  C2  UNL d   1       0.025   0.715  -1.064  0.00  0.00     0.034 A 
ATOM      4  C3  UNL d   1       0.374  -0.024   0.072  0.00  0.00     0.017 A 
ATOM      5  C4  UNL d   1      -0.482  -1.027   0.540  0.00  0.00     0.017 A 
ATOM      6  C5  UNL d   1      -1.681  -1.286  -0.132  0.00  0.00     0.034 A 
ATOM      7 Cl   UNL d   1      -0.118  -1.980   1.935  0.00  0.00    -0.070 Cl
ATOM      8 Cl1  UNL d   1       1.872   0.354   0.846  0.00  0.00    -0.070 Cl
ENDROOT
TORSDOF 0
ENDMDL
