MODEL 1
REMARK minimizedAffinity -3.44529581
REMARK minimizedRMSD -1
REMARK  0 active torsions:
REMARK  status: ('A' for Active; 'I' for Inactive)
ROOT
ATOM      1  C   UNL d   1      -1.862   0.573  -1.910  0.00  0.00     0.020 A 
ATOM      2  C1  UNL d   1      -2.591  -0.422  -1.259  0.00  0.00     0.020 A 
ATOM      3  C2  UNL d   1      -1.995  -1.174  -0.244  0.00  0.00     0.034 A 
ATOM      4  C3  UNL d   1      -0.666  -0.931   0.123  0.00  0.00     0.017 A 
ATOM      5  C4  UNL d   1       0.065   0.068  -0.530  0.00  0.00     0.017 A 
ATOM      6  C5  UNL d   1      -0.537   0.817  -1.546  0.00  0.00     0.034 A 
ATOM      7 Cl   UNL d   1       1.708   0.425  -0.132  0.00  0.00    -0.070 Cl
ATOM      8 Cl1  UNL d   1       0.007  -1.898   1.387  0.00  0.00    -0.070 Cl
ENDROOT
TORSDOF 0
ENDMDL
