MODEL 1
REMARK minimizedAffinity -2.43429136
REMARK minimizedRMSD -1
REMARK  0 active torsions:
REMARK  status: ('A' for Active; 'I' for Inactive)
ROOT
ATOM      1  C   UNL d   1      -2.296  -1.323  -0.330  0.00  0.00     0.020 A 
ATOM      2  C1  UNL d   1      -1.456  -1.452   0.776  0.00  0.00     0.020 A 
ATOM      3  C2  UNL d   1      -0.232  -0.781   0.805  0.00  0.00     0.034 A 
ATOM      4  C3  UNL d   1       0.156   0.022  -0.274  0.00  0.00     0.017 A 
ATOM      5  C4  UNL d   1      -0.687   0.151  -1.383  0.00  0.00     0.017 A 
ATOM      6  C5  UNL d   1      -1.912  -0.523  -1.407  0.00  0.00     0.034 A 
ATOM      7 Cl   UNL d   1      -0.277   1.123  -2.752  0.00  0.00    -0.070 Cl
ATOM      8 Cl1  UNL d   1       1.684   0.822  -0.170  0.00  0.00    -0.070 Cl
ENDROOT
TORSDOF 0
ENDMDL
