MODEL 1
REMARK minimizedAffinity -2.56370163
REMARK minimizedRMSD -1
REMARK  0 active torsions:
REMARK  status: ('A' for Active; 'I' for Inactive)
ROOT
ATOM      1  C   UNL d   1       0.986  -0.004  -0.174  0.00  0.00     0.020 A 
ATOM      2  C1  UNL d   1       1.220  -0.956   0.817  0.00  0.00     0.020 A 
ATOM      3  C2  UNL d   1       1.845  -0.584   2.009  0.00  0.00     0.034 A 
ATOM      4  C3  UNL d   1       2.239   0.744   2.213  0.00  0.00     0.017 A 
ATOM      5  C4  UNL d   1       2.004   1.699   1.217  0.00  0.00     0.017 A 
ATOM      6  C5  UNL d   1       1.377   1.321   0.025  0.00  0.00     0.034 A 
ATOM      7 Cl   UNL d   1       2.461   3.356   1.395  0.00  0.00    -0.070 Cl
ATOM      8 Cl1  UNL d   1       3.007   1.134   3.711  0.00  0.00    -0.070 Cl
ENDROOT
TORSDOF 0
ENDMDL
