MODEL 1
REMARK minimizedAffinity -1.23738837
REMARK minimizedRMSD -1
REMARK  0 active torsions:
REMARK  status: ('A' for Active; 'I' for Inactive)
ROOT
ATOM      1  C   UNL d   1       0.951  -0.281   0.224  0.00  0.00     0.020 A 
ATOM      2  C1  UNL d   1       0.117   0.591   0.922  0.00  0.00     0.020 A 
ATOM      3  C2  UNL d   1       0.577   1.860   1.281  0.00  0.00     0.034 A 
ATOM      4  C3  UNL d   1       1.875   2.259   0.943  0.00  0.00     0.017 A 
ATOM      5  C4  UNL d   1       2.712   1.383   0.242  0.00  0.00     0.017 A 
ATOM      6  C5  UNL d   1       2.245   0.114  -0.115  0.00  0.00     0.034 A 
ATOM      7 Cl   UNL d   1       4.325   1.804  -0.211  0.00  0.00    -0.070 Cl
ATOM      8 Cl1  UNL d   1       2.379   3.842   1.419  0.00  0.00    -0.070 Cl
ENDROOT
TORSDOF 0
ENDMDL
