MODEL 1
REMARK minimizedAffinity 11.9129963
REMARK minimizedRMSD -1
REMARK  0 active torsions:
REMARK  status: ('A' for Active; 'I' for Inactive)
ROOT
ATOM      1  C   UNL d   1      -2.358  -1.260  -1.181  0.00  0.00     0.020 A 
ATOM      2  C1  UNL d   1      -1.267  -0.508  -1.616  0.00  0.00     0.020 A 
ATOM      3  C2  UNL d   1      -0.111  -0.441  -0.837  0.00  0.00     0.034 A 
ATOM      4  C3  UNL d   1      -0.041  -1.126   0.381  0.00  0.00     0.017 A 
ATOM      5  C4  UNL d   1      -1.137  -1.881   0.817  0.00  0.00     0.017 A 
ATOM      6  C5  UNL d   1      -2.293  -1.945   0.033  0.00  0.00     0.034 A 
ATOM      7 Cl   UNL d   1      -1.126  -2.754   2.309  0.00  0.00    -0.070 Cl
ATOM      8 Cl1  UNL d   1       1.421  -0.999   1.293  0.00  0.00    -0.070 Cl
ENDROOT
TORSDOF 0
ENDMDL
