MODEL 1
REMARK minimizedAffinity 2.31750178
REMARK minimizedRMSD -1
REMARK  0 active torsions:
REMARK  status: ('A' for Active; 'I' for Inactive)
ROOT
ATOM      1  C   UNL d   1      -3.196  -0.997  -0.889  0.00  0.00     0.020 A 
ATOM      2  C1  UNL d   1      -2.238  -0.270  -1.595  0.00  0.00     0.020 A 
ATOM      3  C2  UNL d   1      -0.917  -0.235  -1.145  0.00  0.00     0.034 A 
ATOM      4  C3  UNL d   1      -0.549  -0.928   0.014  0.00  0.00     0.017 A 
ATOM      5  C4  UNL d   1      -1.511  -1.658   0.722  0.00  0.00     0.017 A 
ATOM      6  C5  UNL d   1      -2.833  -1.689   0.267  0.00  0.00     0.034 A 
ATOM      7 Cl   UNL d   1      -1.134  -2.539   2.160  0.00  0.00    -0.070 Cl
ATOM      8 Cl1  UNL d   1       1.103  -0.842   0.512  0.00  0.00    -0.070 Cl
ENDROOT
TORSDOF 0
ENDMDL
