MODEL 1
REMARK minimizedAffinity -2.39300036
REMARK minimizedRMSD -1
REMARK  0 active torsions:
REMARK  status: ('A' for Active; 'I' for Inactive)
ROOT
ATOM      1  C   UNL d   1      -1.902  -0.744  -1.265  0.00  0.00     0.020 A 
ATOM      2  C1  UNL d   1      -1.424   0.495  -1.692  0.00  0.00     0.020 A 
ATOM      3  C2  UNL d   1      -0.297   1.054  -1.086  0.00  0.00     0.034 A 
ATOM      4  C3  UNL d   1       0.356   0.376  -0.051  0.00  0.00     0.017 A 
ATOM      5  C4  UNL d   1      -0.125  -0.868   0.376  0.00  0.00     0.017 A 
ATOM      6  C5  UNL d   1      -1.254  -1.423  -0.234  0.00  0.00     0.034 A 
ATOM      7 Cl   UNL d   1       0.628  -1.765   1.648  0.00  0.00    -0.070 Cl
ATOM      8 Cl1  UNL d   1       1.744   1.127   0.652  0.00  0.00    -0.070 Cl
ENDROOT
TORSDOF 0
ENDMDL
