MODEL 1
REMARK minimizedAffinity -4.13824844
REMARK minimizedRMSD -1
REMARK  0 active torsions:
REMARK  status: ('A' for Active; 'I' for Inactive)
ROOT
ATOM      1  C   UNL d   1      -2.276  -0.723  -1.476  0.00  0.00     0.020 A 
ATOM      2  C1  UNL d   1      -1.713   0.495  -1.854  0.00  0.00     0.020 A 
ATOM      3  C2  UNL d   1      -0.546   0.948  -1.235  0.00  0.00     0.034 A 
ATOM      4  C3  UNL d   1       0.062   0.182  -0.234  0.00  0.00     0.017 A 
ATOM      5  C4  UNL d   1      -0.503  -1.041   0.145  0.00  0.00     0.017 A 
ATOM      6  C5  UNL d   1      -1.672  -1.489  -0.478  0.00  0.00     0.034 A 
ATOM      7 Cl   UNL d   1       0.190  -2.042   1.372  0.00  0.00    -0.070 Cl
ATOM      8 Cl1  UNL d   1       1.504   0.802   0.488  0.00  0.00    -0.070 Cl
ENDROOT
TORSDOF 0
ENDMDL
