MODEL 1
REMARK minimizedAffinity -2.84387684
REMARK minimizedRMSD -1
REMARK  0 active torsions:
REMARK  status: ('A' for Active; 'I' for Inactive)
ROOT
ATOM      1  C   UNL d   1      -2.713  -0.525  -1.392  0.00  0.00     0.020 A 
ATOM      2  C1  UNL d   1      -1.851   0.526  -1.703  0.00  0.00     0.020 A 
ATOM      3  C2  UNL d   1      -0.626   0.642  -1.044  0.00  0.00     0.034 A 
ATOM      4  C3  UNL d   1      -0.258  -0.294  -0.070  0.00  0.00     0.017 A 
ATOM      5  C4  UNL d   1      -1.124  -1.349   0.241  0.00  0.00     0.017 A 
ATOM      6  C5  UNL d   1      -2.350  -1.461  -0.422  0.00  0.00     0.034 A 
ATOM      7 Cl   UNL d   1      -0.740  -2.542   1.431  0.00  0.00    -0.070 Cl
ATOM      8 Cl1  UNL d   1       1.272  -0.088   0.705  0.00  0.00    -0.070 Cl
ENDROOT
TORSDOF 0
ENDMDL
