MODEL 1
REMARK minimizedAffinity -1.1393615
REMARK minimizedRMSD -1
REMARK  0 active torsions:
REMARK  status: ('A' for Active; 'I' for Inactive)
ROOT
ATOM      1  C   UNL d   1       1.750   0.140  -0.040  0.00  0.00     0.020 A 
ATOM      2  C1  UNL d   1       1.030   0.637  -1.126  0.00  0.00     0.020 A 
ATOM      3  C2  UNL d   1      -0.268   0.183  -1.370  0.00  0.00     0.034 A 
ATOM      4  C3  UNL d   1      -0.850  -0.771  -0.526  0.00  0.00     0.017 A 
ATOM      5  C4  UNL d   1      -0.127  -1.269   0.563  0.00  0.00     0.017 A 
ATOM      6  C5  UNL d   1       1.172  -0.811   0.803  0.00  0.00     0.034 A 
ATOM      7 Cl   UNL d   1      -0.778  -2.447   1.648  0.00  0.00    -0.070 Cl
ATOM      8 Cl1  UNL d   1      -2.459  -1.287  -0.887  0.00  0.00    -0.070 Cl
ENDROOT
TORSDOF 0
ENDMDL
