MODEL 1
REMARK minimizedAffinity -2.92851043
REMARK minimizedRMSD -1
REMARK  0 active torsions:
REMARK  status: ('A' for Active; 'I' for Inactive)
ROOT
ATOM      1  C   UNL d   1       2.448   3.960   0.716  0.00  0.00     0.020 A 
ATOM      2  C1  UNL d   1       3.254   3.147  -0.080  0.00  0.00     0.020 A 
ATOM      3  C2  UNL d   1       2.989   1.780  -0.175  0.00  0.00     0.034 A 
ATOM      4  C3  UNL d   1       1.915   1.221   0.527  0.00  0.00     0.017 A 
ATOM      5  C4  UNL d   1       1.106   2.038   1.325  0.00  0.00     0.017 A 
ATOM      6  C5  UNL d   1       1.376   3.407   1.417  0.00  0.00     0.034 A 
ATOM      7 Cl   UNL d   1      -0.237   1.421   2.221  0.00  0.00    -0.070 Cl
ATOM      8 Cl1  UNL d   1       1.644  -0.478   0.363  0.00  0.00    -0.070 Cl
ENDROOT
TORSDOF 0
ENDMDL
