MODEL 1
REMARK minimizedAffinity -0.104027554
REMARK minimizedRMSD -1
REMARK  0 active torsions:
REMARK  status: ('A' for Active; 'I' for Inactive)
ROOT
ATOM      1  C   UNL d   1       1.141   0.224   0.026  0.00  0.00     0.020 A 
ATOM      2  C1  UNL d   1       0.339   0.705  -1.009  0.00  0.00     0.020 A 
ATOM      3  C2  UNL d   1      -0.956   0.211  -1.176  0.00  0.00     0.034 A 
ATOM      4  C3  UNL d   1      -1.454  -0.766  -0.306  0.00  0.00     0.017 A 
ATOM      5  C4  UNL d   1      -0.649  -1.248   0.732  0.00  0.00     0.017 A 
ATOM      6  C5  UNL d   1       0.647  -0.750   0.895  0.00  0.00     0.034 A 
ATOM      7 Cl   UNL d   1      -1.194  -2.453   1.845  0.00  0.00    -0.070 Cl
ATOM      8 Cl1  UNL d   1      -3.066  -1.331  -0.571  0.00  0.00    -0.070 Cl
ENDROOT
TORSDOF 0
ENDMDL
