MODEL 1
REMARK minimizedAffinity -1.05990601
REMARK minimizedRMSD -1
REMARK  0 active torsions:
REMARK  status: ('A' for Active; 'I' for Inactive)
ROOT
ATOM      1  C   UNL d   1      -0.998   0.441  -0.116  0.00  0.00     0.020 A 
ATOM      2  C1  UNL d   1      -0.047  -0.376  -0.726  0.00  0.00     0.020 A 
ATOM      3  C2  UNL d   1       1.310  -0.064  -0.624  0.00  0.00     0.034 A 
ATOM      4  C3  UNL d   1       1.721   1.067   0.090  0.00  0.00     0.017 A 
ATOM      5  C4  UNL d   1       0.765   1.887   0.703  0.00  0.00     0.017 A 
ATOM      6  C5  UNL d   1      -0.593   1.570   0.597  0.00  0.00     0.034 A 
ATOM      7 Cl   UNL d   1       1.195   3.300   1.601  0.00  0.00    -0.070 Cl
ATOM      8 Cl1  UNL d   1       3.415   1.392   0.177  0.00  0.00    -0.070 Cl
ENDROOT
TORSDOF 0
ENDMDL
