MODEL 1
REMARK minimizedAffinity 0.573447764
REMARK minimizedRMSD -1
REMARK  0 active torsions:
REMARK  status: ('A' for Active; 'I' for Inactive)
ROOT
ATOM      1  C   UNL d   1      -1.597   0.104  -1.849  0.00  0.00     0.020 A 
ATOM      2  C1  UNL d   1      -2.409  -0.934  -1.396  0.00  0.00     0.020 A 
ATOM      3  C2  UNL d   1      -2.044  -1.662  -0.261  0.00  0.00     0.034 A 
ATOM      4  C3  UNL d   1      -0.864  -1.351   0.425  0.00  0.00     0.017 A 
ATOM      5  C4  UNL d   1      -0.049  -0.308  -0.031  0.00  0.00     0.017 A 
ATOM      6  C5  UNL d   1      -0.420   0.417  -1.168  0.00  0.00     0.034 A 
ATOM      7 Cl   UNL d   1       1.422   0.134   0.762  0.00  0.00    -0.070 Cl
ATOM      8 Cl1  UNL d   1      -0.474  -2.292   1.821  0.00  0.00    -0.070 Cl
ENDROOT
TORSDOF 0
ENDMDL
