MODEL 1
REMARK minimizedAffinity -4.67304993
REMARK minimizedRMSD -1
REMARK  1 active torsions:
REMARK  status: ('A' for Active; 'I' for Inactive)
REMARK    1  A    between atoms: C3_4  and  O_7 
ROOT
ATOM      1  C   UNL d   1      -0.134   0.117  -0.401  0.00  0.00    -0.033 A 
ATOM      2  C1  UNL d   1      -1.508  -0.069  -0.235  0.00  0.00     0.039 A 
ATOM      3  C2  UNL d   1      -1.986  -1.201   0.428  0.00  0.00    -0.080 A 
ATOM      4  C3  UNL d   1      -1.082  -2.137   0.921  0.00  0.00     0.150 A 
ATOM      5  C4  UNL d   1       0.289  -1.956   0.763  0.00  0.00    -0.007 A 
ATOM      6  C5  UNL d   1       0.764  -0.826   0.100  0.00  0.00     0.039 A 
ENDROOT
BRANCH   4   7
ATOM      7  O   UNL d   1      -1.501  -3.259   1.571  0.00  0.00    -0.526 OA
ATOM      8  H5  UNL d   1      -2.473  -3.265   1.580  0.00  0.00     0.418 HD
ENDBRANCH   4   7
TORSDOF 1
ENDMDL
