MODEL 1
REMARK minimizedAffinity -3.60506153
REMARK minimizedRMSD -1
REMARK  1 active torsions:
REMARK  status: ('A' for Active; 'I' for Inactive)
REMARK    1  A    between atoms: C3_4  and  O_7 
ROOT
ATOM      1  C   UNL d   1       0.416   1.293  -0.252  0.00  0.00    -0.033 A 
ATOM      2  C1  UNL d   1       1.000   0.049  -0.497  0.00  0.00     0.039 A 
ATOM      3  C2  UNL d   1       0.263  -1.121  -0.304  0.00  0.00    -0.080 A 
ATOM      4  C3  UNL d   1      -1.056  -1.033   0.132  0.00  0.00     0.150 A 
ATOM      5  C4  UNL d   1      -1.646   0.203   0.374  0.00  0.00    -0.007 A 
ATOM      6  C5  UNL d   1      -0.908   1.371   0.182  0.00  0.00     0.039 A 
ENDROOT
BRANCH   4   7
ATOM      7  O   UNL d   1      -1.814  -2.147   0.339  0.00  0.00    -0.526 OA
ATOM      8  H5  UNL d   1      -1.266  -2.929   0.159  0.00  0.00     0.418 HD
ENDBRANCH   4   7
TORSDOF 1
ENDMDL
