MODEL 1
REMARK minimizedAffinity -4.74840355
REMARK minimizedRMSD -1
REMARK  1 active torsions:
REMARK  status: ('A' for Active; 'I' for Inactive)
REMARK    1  A    between atoms: C3_4  and  O_7 
ROOT
ATOM      1  C   UNL d   1      -1.114  -1.995   1.534  0.00  0.00    -0.033 A 
ATOM      2  C1  UNL d   1       0.062  -2.414   0.909  0.00  0.00     0.039 A 
ATOM      3  C2  UNL d   1       0.797  -1.520   0.128  0.00  0.00    -0.080 A 
ATOM      4  C3  UNL d   1       0.346  -0.211  -0.019  0.00  0.00     0.150 A 
ATOM      5  C4  UNL d   1      -0.823   0.214   0.603  0.00  0.00    -0.007 A 
ATOM      6  C5  UNL d   1      -1.556  -0.680   1.382  0.00  0.00     0.039 A 
ENDROOT
BRANCH   4   7
ATOM      7  O   UNL d   1       1.027   0.696  -0.776  0.00  0.00    -0.526 OA
ATOM      8  H5  UNL d   1       1.798   0.253  -1.168  0.00  0.00     0.418 HD
ENDBRANCH   4   7
TORSDOF 1
ENDMDL
