MODEL 1
REMARK minimizedAffinity -2.97894692
REMARK minimizedRMSD -1
REMARK  1 active torsions:
REMARK  status: ('A' for Active; 'I' for Inactive)
REMARK    1  A    between atoms: C3_4  and  O_7 
ROOT
ATOM      1  C   UNL d   1       0.172   1.680   0.419  0.00  0.00    -0.033 A 
ATOM      2  C1  UNL d   1      -1.221   1.759   0.391  0.00  0.00     0.039 A 
ATOM      3  C2  UNL d   1      -1.986   0.598   0.262  0.00  0.00    -0.080 A 
ATOM      4  C3  UNL d   1      -1.346  -0.634   0.162  0.00  0.00     0.150 A 
ATOM      5  C4  UNL d   1       0.042  -0.721   0.194  0.00  0.00    -0.007 A 
ATOM      6  C5  UNL d   1       0.804   0.440   0.322  0.00  0.00     0.039 A 
ENDROOT
BRANCH   4   7
ATOM      7  O   UNL d   1      -2.050  -1.794   0.030  0.00  0.00    -0.526 OA
ATOM      8  H5  UNL d   1      -2.997  -1.577  -0.006  0.00  0.00     0.418 HD
ENDBRANCH   4   7
TORSDOF 1
ENDMDL
