MODEL 1
REMARK minimizedAffinity -3.36580372
REMARK minimizedRMSD -1
REMARK  1 active torsions:
REMARK  status: ('A' for Active; 'I' for Inactive)
REMARK    1  A    between atoms: C3_4  and  O_7 
ROOT
ATOM      1  C   UNL d   1       0.599  -1.136   0.434  0.00  0.00    -0.033 A 
ATOM      2  C1  UNL d   1       0.203   0.176   0.169  0.00  0.00     0.039 A 
ATOM      3  C2  UNL d   1      -0.881   0.732   0.852  0.00  0.00    -0.080 A 
ATOM      4  C3  UNL d   1      -1.559  -0.035   1.796  0.00  0.00     0.150 A 
ATOM      5  C4  UNL d   1      -1.167  -1.341   2.068  0.00  0.00    -0.007 A 
ATOM      6  C5  UNL d   1      -0.085  -1.895   1.384  0.00  0.00     0.039 A 
ENDROOT
BRANCH   4   7
ATOM      7  O   UNL d   1      -2.625   0.463   2.485  0.00  0.00    -0.526 OA
ATOM      8  H5  UNL d   1      -2.799   1.366   2.172  0.00  0.00     0.418 HD
ENDBRANCH   4   7
TORSDOF 1
ENDMDL
