MODEL 1
REMARK minimizedAffinity -3.90812659
REMARK minimizedRMSD -1
REMARK  1 active torsions:
REMARK  status: ('A' for Active; 'I' for Inactive)
REMARK    1  A    between atoms: C3_4  and  O_7 
ROOT
ATOM      1  C   UNL d   1       0.438  -2.237   0.296  0.00  0.00    -0.033 A 
ATOM      2  C1  UNL d   1      -0.170  -1.216   1.029  0.00  0.00     0.039 A 
ATOM      3  C2  UNL d   1      -0.087   0.107   0.588  0.00  0.00    -0.080 A 
ATOM      4  C3  UNL d   1       0.604   0.394  -0.586  0.00  0.00     0.150 A 
ATOM      5  C4  UNL d   1       1.208  -0.619  -1.323  0.00  0.00    -0.007 A 
ATOM      6  C5  UNL d   1       1.126  -1.939  -0.881  0.00  0.00     0.039 A 
ENDROOT
BRANCH   4   7
ATOM      7  O   UNL d   1       0.716   1.670  -1.053  0.00  0.00    -0.526 OA
ATOM      8  H5  UNL d   1       0.274   2.267  -0.426  0.00  0.00     0.418 HD
ENDBRANCH   4   7
TORSDOF 1
ENDMDL
