MODEL 1
REMARK minimizedAffinity -3.53787947
REMARK minimizedRMSD -1
REMARK  1 active torsions:
REMARK  status: ('A' for Active; 'I' for Inactive)
REMARK    1  A    between atoms: C3_4  and  O_7 
ROOT
ATOM      1  C   UNL d   1      -1.485  -2.665   1.695  0.00  0.00    -0.033 A 
ATOM      2  C1  UNL d   1      -0.380  -2.827   0.857  0.00  0.00     0.039 A 
ATOM      3  C2  UNL d   1       0.133  -1.734   0.157  0.00  0.00    -0.080 A 
ATOM      4  C3  UNL d   1      -0.465  -0.486   0.304  0.00  0.00     0.150 A 
ATOM      5  C4  UNL d   1      -1.563  -0.316   1.141  0.00  0.00    -0.007 A 
ATOM      6  C5  UNL d   1      -2.076  -1.409   1.838  0.00  0.00     0.039 A 
ENDROOT
BRANCH   4   7
ATOM      7  O   UNL d   1      -0.002   0.610  -0.362  0.00  0.00    -0.526 OA
ATOM      8  H5  UNL d   1       0.742   0.336  -0.924  0.00  0.00     0.418 HD
ENDBRANCH   4   7
TORSDOF 1
ENDMDL
