MODEL 1
REMARK minimizedAffinity -3.81007481
REMARK minimizedRMSD -1
REMARK  1 active torsions:
REMARK  status: ('A' for Active; 'I' for Inactive)
REMARK    1  A    between atoms: C3_4  and  O_7 
ROOT
ATOM      1  C   UNL d   1       1.711   2.211  -4.035  0.00  0.00    -0.033 A 
ATOM      2  C1  UNL d   1       2.705   1.727  -3.182  0.00  0.00     0.039 A 
ATOM      3  C2  UNL d   1       2.443   1.570  -1.820  0.00  0.00    -0.080 A 
ATOM      4  C3  UNL d   1       1.184   1.898  -1.324  0.00  0.00     0.150 A 
ATOM      5  C4  UNL d   1       0.188   2.377  -2.169  0.00  0.00    -0.007 A 
ATOM      6  C5  UNL d   1       0.452   2.534  -3.529  0.00  0.00     0.039 A 
ENDROOT
BRANCH   4   7
ATOM      7  O   UNL d   1       0.882   1.766  -0.001  0.00  0.00    -0.526 OA
ATOM      8  H5  UNL d   1       1.675   1.453   0.465  0.00  0.00     0.418 HD
ENDBRANCH   4   7
TORSDOF 1
ENDMDL
