MODEL 1
REMARK minimizedAffinity -3.99672651
REMARK minimizedRMSD -1
REMARK  1 active torsions:
REMARK  status: ('A' for Active; 'I' for Inactive)
REMARK    1  A    between atoms: C3_4  and  O_7 
ROOT
ATOM      1  C   UNL d   1       0.785  -0.021  -0.105  0.00  0.00    -0.033 A 
ATOM      2  C1  UNL d   1      -0.571   0.166   0.171  0.00  0.00     0.039 A 
ATOM      3  C2  UNL d   1      -1.352  -0.908   0.602  0.00  0.00    -0.080 A 
ATOM      4  C3  UNL d   1      -0.766  -2.162   0.753  0.00  0.00     0.150 A 
ATOM      5  C4  UNL d   1       0.585  -2.354   0.483  0.00  0.00    -0.007 A 
ATOM      6  C5  UNL d   1       1.363  -1.281   0.053  0.00  0.00     0.039 A 
ENDROOT
BRANCH   4   7
ATOM      7  O   UNL d   1      -1.489  -3.241   1.166  0.00  0.00    -0.526 OA
ATOM      8  H5  UNL d   1      -2.413  -2.965   1.287  0.00  0.00     0.418 HD
ENDBRANCH   4   7
TORSDOF 1
ENDMDL
