MODEL 1
REMARK minimizedAffinity -3.05907083
REMARK minimizedRMSD -1
REMARK  1 active torsions:
REMARK  status: ('A' for Active; 'I' for Inactive)
REMARK    1  A    between atoms: C3_4  and  O_7 
ROOT
ATOM      1  C   UNL d   1      -1.155  -1.895   1.925  0.00  0.00    -0.033 A 
ATOM      2  C1  UNL d   1      -1.667  -0.596   1.938  0.00  0.00     0.039 A 
ATOM      3  C2  UNL d   1      -1.150   0.368   1.070  0.00  0.00    -0.080 A 
ATOM      4  C3  UNL d   1      -0.125   0.020   0.195  0.00  0.00     0.150 A 
ATOM      5  C4  UNL d   1       0.387  -1.273   0.174  0.00  0.00    -0.007 A 
ATOM      6  C5  UNL d   1      -0.129  -2.234   1.043  0.00  0.00     0.039 A 
ENDROOT
BRANCH   4   7
ATOM      7  O   UNL d   1       0.415   0.928  -0.668  0.00  0.00    -0.526 OA
ATOM      8  H5  UNL d   1      -0.018   1.786  -0.521  0.00  0.00     0.418 HD
ENDBRANCH   4   7
TORSDOF 1
ENDMDL
