MODEL 1
REMARK minimizedAffinity -4.36506844
REMARK minimizedRMSD -1
REMARK  1 active torsions:
REMARK  status: ('A' for Active; 'I' for Inactive)
REMARK    1  A    between atoms: C3_4  and  O_7 
ROOT
ATOM      1  C   UNL d   1      -1.507   0.930   1.055  0.00  0.00    -0.033 A 
ATOM      2  C1  UNL d   1      -0.507   0.216   0.392  0.00  0.00     0.039 A 
ATOM      3  C2  UNL d   1      -0.449  -1.174   0.502  0.00  0.00    -0.080 A 
ATOM      4  C3  UNL d   1      -1.396  -1.839   1.277  0.00  0.00     0.150 A 
ATOM      5  C4  UNL d   1      -2.397  -1.134   1.938  0.00  0.00    -0.007 A 
ATOM      6  C5  UNL d   1      -2.453   0.254   1.827  0.00  0.00     0.039 A 
ENDROOT
BRANCH   4   7
ATOM      7  O   UNL d   1      -1.377  -3.194   1.419  0.00  0.00    -0.526 OA
ATOM      8  H5  UNL d   1      -0.613  -3.544   0.930  0.00  0.00     0.418 HD
ENDBRANCH   4   7
TORSDOF 1
ENDMDL
