MODEL 1
REMARK minimizedAffinity -5.32833576
REMARK minimizedRMSD -1
REMARK  1 active torsions:
REMARK  status: ('A' for Active; 'I' for Inactive)
REMARK    1  A    between atoms: C3_4  and  O_7 
ROOT
ATOM      1  C   UNL d   1       0.237   0.359   0.264  0.00  0.00    -0.033 A 
ATOM      2  C1  UNL d   1      -1.139   0.435   0.486  0.00  0.00     0.039 A 
ATOM      3  C2  UNL d   1      -1.874  -0.728   0.728  0.00  0.00    -0.080 A 
ATOM      4  C3  UNL d   1      -1.221  -1.957   0.747  0.00  0.00     0.150 A 
ATOM      5  C4  UNL d   1       0.151  -2.039   0.531  0.00  0.00    -0.007 A 
ATOM      6  C5  UNL d   1       0.883  -0.877   0.288  0.00  0.00     0.039 A 
ENDROOT
BRANCH   4   7
ATOM      7  O   UNL d   1      -1.896  -3.119   0.975  0.00  0.00    -0.526 OA
ATOM      8  H5  UNL d   1      -2.839  -2.912   1.079  0.00  0.00     0.418 HD
ENDBRANCH   4   7
TORSDOF 1
ENDMDL
