MODEL 1
REMARK minimizedAffinity -4.34345198
REMARK minimizedRMSD -1
REMARK  1 active torsions:
REMARK  status: ('A' for Active; 'I' for Inactive)
REMARK    1  A    between atoms: C3_4  and  O_7 
ROOT
ATOM      1  C   UNL d   1       0.574   0.043   0.110  0.00  0.00    -0.033 A 
ATOM      2  C1  UNL d   1       1.101  -1.097   0.720  0.00  0.00     0.039 A 
ATOM      3  C2  UNL d   1       0.282  -2.202   0.965  0.00  0.00    -0.080 A 
ATOM      4  C3  UNL d   1      -1.059  -2.153   0.595  0.00  0.00     0.150 A 
ATOM      5  C4  UNL d   1      -1.590  -1.022  -0.016  0.00  0.00    -0.007 A 
ATOM      6  C5  UNL d   1      -0.771   0.080  -0.259  0.00  0.00     0.039 A 
ENDROOT
BRANCH   4   7
ATOM      7  O   UNL d   1      -1.898  -3.204   0.819  0.00  0.00    -0.526 OA
ATOM      8  H5  UNL d   1      -1.400  -3.904   1.273  0.00  0.00     0.418 HD
ENDBRANCH   4   7
TORSDOF 1
ENDMDL
