MODEL 1
REMARK minimizedAffinity -4.97148371
REMARK minimizedRMSD -1
REMARK  1 active torsions:
REMARK  status: ('A' for Active; 'I' for Inactive)
REMARK    1  A    between atoms: C3_4  and  O_7 
ROOT
ATOM      1  C   UNL d   1       0.258   0.312   0.097  0.00  0.00    -0.033 A 
ATOM      2  C1  UNL d   1      -1.135   0.387   0.040  0.00  0.00     0.039 A 
ATOM      3  C2  UNL d   1      -1.906  -0.761   0.233  0.00  0.00    -0.080 A 
ATOM      4  C3  UNL d   1      -1.273  -1.976   0.483  0.00  0.00     0.150 A 
ATOM      5  C4  UNL d   1       0.115  -2.057   0.544  0.00  0.00    -0.007 A 
ATOM      6  C5  UNL d   1       0.883  -0.910   0.350  0.00  0.00     0.039 A 
ENDROOT
BRANCH   4   7
ATOM      7  O   UNL d   1      -1.983  -3.124   0.673  0.00  0.00    -0.526 OA
ATOM      8  H5  UNL d   1      -2.928  -2.921   0.574  0.00  0.00     0.418 HD
ENDBRANCH   4   7
TORSDOF 1
ENDMDL
