MODEL 1
REMARK minimizedAffinity 0.241460189
REMARK minimizedRMSD -1
REMARK  2 active torsions:
REMARK  status: ('A' for Active; 'I' for Inactive)
REMARK    1  A    between atoms: C2'_3  and  C1'_4 
REMARK    2  A    between atoms: C1'_4  and  C1_5 
ROOT
ATOM      1  C1  I4B d   1       0.781   0.630   0.440  0.00  0.00    -0.075 A 
ATOM      2  C2  I4B d   1       1.669  -0.409   0.315  0.00  0.00     0.003 A 
ATOM      3  C3  I4B d   1       1.327  -1.699   0.788  0.00  0.00     0.002 A 
ATOM      4  C4  I4B d   1       0.116  -1.892   1.420  0.00  0.00    -0.004 A 
ATOM      5  C5  I4B d   1      -0.793  -0.843   1.525  0.00  0.00     0.002 A 
ATOM      6  C6  I4B d   1      -0.464   0.423   1.021  0.00  0.00     0.003 A 
ENDROOT
BRANCH   1   7
ATOM      7  C1' I4B d   1       1.187   1.987  -0.041  0.00  0.00     0.060 C 
BRANCH   7   8
ATOM      8  C2' I4B d   1      -0.014   2.904   0.078  0.00  0.00    -0.013 C 
ATOM      9  C4' I4B d   1      -0.242   3.320   1.508  0.00  0.00     0.013 C 
ATOM     10  C3' I4B d   1       0.223   4.095  -0.801  0.00  0.00     0.013 C 
ENDBRANCH   7   8
ENDBRANCH   1   7
TORSDOF 2
ENDMDL
