MODEL 1
REMARK minimizedAffinity -1.37807608
REMARK minimizedRMSD -1
REMARK  2 active torsions:
REMARK  status: ('A' for Active; 'I' for Inactive)
REMARK    1  A    between atoms: C2'_3  and  C1'_4 
REMARK    2  A    between atoms: C1'_4  and  C1_5 
ROOT
ATOM      1  C1  I4B d   1       0.895   0.483  -0.033  0.00  0.00    -0.075 A 
ATOM      2  C2  I4B d   1       2.218   0.650  -0.356  0.00  0.00     0.003 A 
ATOM      3  C3  I4B d   1       2.673   1.883  -0.883  0.00  0.00     0.002 A 
ATOM      4  C4  I4B d   1       1.768   2.898  -1.116  0.00  0.00    -0.004 A 
ATOM      5  C5  I4B d   1       0.431   2.735  -0.766  0.00  0.00     0.002 A 
ATOM      6  C6  I4B d   1      -0.007   1.524  -0.210  0.00  0.00     0.003 A 
ENDROOT
BRANCH   1   7
ATOM      7  C1' I4B d   1       0.443  -0.844   0.490  0.00  0.00     0.060 C 
BRANCH   7   8
ATOM      8  C2' I4B d   1      -1.037  -0.982   0.195  0.00  0.00    -0.013 C 
ATOM      9  C4' I4B d   1      -1.435  -2.429   0.069  0.00  0.00     0.013 C 
ATOM     10  C3' I4B d   1      -1.794  -0.307   1.300  0.00  0.00     0.013 C 
ENDBRANCH   7   8
ENDBRANCH   1   7
TORSDOF 2
ENDMDL
