MODEL 1
REMARK minimizedAffinity 3.94080424
REMARK minimizedRMSD -1
REMARK  2 active torsions:
REMARK  status: ('A' for Active; 'I' for Inactive)
REMARK    1  A    between atoms: C2'_3  and  C1'_4 
REMARK    2  A    between atoms: C1'_4  and  C1_5 
ROOT
ATOM      1  C1  I4B d   1      -0.327   0.135   1.315  0.00  0.00    -0.075 A 
ATOM      2  C2  I4B d   1      -1.325   0.922   1.833  0.00  0.00     0.003 A 
ATOM      3  C3  I4B d   1      -2.270   0.373   2.734  0.00  0.00     0.002 A 
ATOM      4  C4  I4B d   1      -2.210  -0.970   3.047  0.00  0.00    -0.004 A 
ATOM      5  C5  I4B d   1      -1.184  -1.760   2.538  0.00  0.00     0.002 A 
ATOM      6  C6  I4B d   1      -0.228  -1.202   1.676  0.00  0.00     0.003 A 
ENDROOT
BRANCH   1   7
ATOM      7  C1' I4B d   1       0.635   0.739   0.340  0.00  0.00     0.060 C 
BRANCH   7   8
ATOM      8  C2' I4B d   1       0.811   2.199   0.703  0.00  0.00    -0.013 C 
ATOM      9  C4' I4B d   1       2.256   2.613   0.611  0.00  0.00     0.013 C 
ATOM     10  C3' I4B d   1      -0.045   3.013  -0.221  0.00  0.00     0.013 C 
ENDBRANCH   7   8
ENDBRANCH   1   7
TORSDOF 2
ENDMDL
