MODEL 1
REMARK minimizedAffinity 5.9687109
REMARK minimizedRMSD -1
REMARK  2 active torsions:
REMARK  status: ('A' for Active; 'I' for Inactive)
REMARK    1  A    between atoms: C2'_3  and  C1'_4 
REMARK    2  A    between atoms: C1'_4  and  C1_5 
ROOT
ATOM      1  C1  I4B d   1       2.232   2.682   0.540  0.00  0.00    -0.075 A 
ATOM      2  C2  I4B d   1       2.334   3.188   1.812  0.00  0.00     0.003 A 
ATOM      3  C3  I4B d   1       3.482   2.919   2.596  0.00  0.00     0.002 A 
ATOM      4  C4  I4B d   1       4.474   2.103   2.091  0.00  0.00    -0.004 A 
ATOM      5  C5  I4B d   1       4.379   1.610   0.793  0.00  0.00     0.002 A 
ATOM      6  C6  I4B d   1       3.257   1.911   0.008  0.00  0.00     0.003 A 
ENDROOT
BRANCH   1   7
ATOM      7  C1' I4B d   1       0.991   2.959  -0.248  0.00  0.00     0.060 C 
BRANCH   7   8
ATOM      8  C2' I4B d   1      -0.185   2.384   0.515  0.00  0.00    -0.013 C 
ATOM      9  C4' I4B d   1      -1.489   2.711  -0.164  0.00  0.00     0.013 C 
ATOM     10  C3' I4B d   1       0.013   0.901   0.622  0.00  0.00     0.013 C 
ENDBRANCH   7   8
ENDBRANCH   1   7
TORSDOF 2
ENDMDL
