MODEL 1
REMARK minimizedAffinity 7.79504776
REMARK minimizedRMSD -1
REMARK  2 active torsions:
REMARK  status: ('A' for Active; 'I' for Inactive)
REMARK    1  A    between atoms: C2'_3  and  C1'_4 
REMARK    2  A    between atoms: C1'_4  and  C1_5 
ROOT
ATOM      1  C1  I4B d   1      -1.411   0.814   2.034  0.00  0.00    -0.075 A 
ATOM      2  C2  I4B d   1      -0.682  -0.327   1.808  0.00  0.00     0.003 A 
ATOM      3  C3  I4B d   1      -1.302  -1.597   1.890  0.00  0.00     0.002 A 
ATOM      4  C4  I4B d   1      -2.632  -1.682   2.249  0.00  0.00    -0.004 A 
ATOM      5  C5  I4B d   1      -3.375  -0.524   2.456  0.00  0.00     0.002 A 
ATOM      6  C6  I4B d   1      -2.764   0.733   2.336  0.00  0.00     0.003 A 
ENDROOT
BRANCH   1   7
ATOM      7  C1' I4B d   1      -0.717   2.137   1.971  0.00  0.00     0.060 C 
BRANCH   7   8
ATOM      8  C2' I4B d   1      -0.214   2.333   0.556  0.00  0.00    -0.013 C 
ATOM      9  C4' I4B d   1      -1.037   3.359  -0.178  0.00  0.00     0.013 C 
ATOM     10  C3' I4B d   1       1.226   2.746   0.629  0.00  0.00     0.013 C 
ENDBRANCH   7   8
ENDBRANCH   1   7
TORSDOF 2
ENDMDL
