MODEL 1
REMARK minimizedAffinity 13.1468401
REMARK minimizedRMSD -1
REMARK  2 active torsions:
REMARK  status: ('A' for Active; 'I' for Inactive)
REMARK    1  A    between atoms: C2'_3  and  C1'_4 
REMARK    2  A    between atoms: C1'_4  and  C1_5 
ROOT
ATOM      1  C1  I4B d   1       1.430   1.089   0.315  0.00  0.00    -0.075 A 
ATOM      2  C2  I4B d   1       2.273   2.014  -0.248  0.00  0.00     0.003 A 
ATOM      3  C3  I4B d   1       1.887   3.374  -0.328  0.00  0.00     0.002 A 
ATOM      4  C4  I4B d   1       0.638   3.754   0.118  0.00  0.00    -0.004 A 
ATOM      5  C5  I4B d   1      -0.206   2.818   0.710  0.00  0.00     0.002 A 
ATOM      6  C6  I4B d   1       0.197   1.480   0.820  0.00  0.00     0.003 A 
ENDROOT
BRANCH   1   7
ATOM      7  C1' I4B d   1       1.855  -0.345   0.353  0.00  0.00     0.060 C 
BRANCH   7   8
ATOM      8  C2' I4B d   1       0.829  -1.157  -0.410  0.00  0.00    -0.013 C 
ATOM      9  C4' I4B d   1       1.472  -1.932  -1.531  0.00  0.00     0.013 C 
ATOM     10  C3' I4B d   1       0.148  -2.074   0.561  0.00  0.00     0.013 C 
ENDBRANCH   7   8
ENDBRANCH   1   7
TORSDOF 2
ENDMDL
