MODEL 1
REMARK minimizedAffinity 2.79052305
REMARK minimizedRMSD -1
REMARK  2 active torsions:
REMARK  status: ('A' for Active; 'I' for Inactive)
REMARK    1  A    between atoms: C2'_3  and  C1'_4 
REMARK    2  A    between atoms: C1'_4  and  C1_5 
ROOT
ATOM      1  C1  I4B d   1       1.144  -5.523  -2.970  0.00  0.00    -0.075 A 
ATOM      2  C2  I4B d   1       2.389  -5.175  -2.508  0.00  0.00     0.003 A 
ATOM      3  C3  I4B d   1       3.509  -5.223  -3.374  0.00  0.00     0.002 A 
ATOM      4  C4  I4B d   1       3.348  -5.669  -4.670  0.00  0.00    -0.004 A 
ATOM      5  C5  I4B d   1       2.082  -5.999  -5.142  0.00  0.00     0.002 A 
ATOM      6  C6  I4B d   1       0.970  -5.914  -4.291  0.00  0.00     0.003 A 
ENDROOT
BRANCH   1   7
ATOM      7  C1' I4B d   1      -0.011  -5.493  -2.020  0.00  0.00     0.060 C 
BRANCH   7   8
ATOM      8  C2' I4B d   1       0.127  -4.255  -1.157  0.00  0.00    -0.013 C 
ATOM      9  C4' I4B d   1      -1.115  -3.406  -1.219  0.00  0.00     0.013 C 
ATOM     10  C3' I4B d   1       0.410  -4.699   0.247  0.00  0.00     0.013 C 
ENDBRANCH   7   8
ENDBRANCH   1   7
TORSDOF 2
ENDMDL
