MODEL 1
REMARK minimizedAffinity 7.57612514
REMARK minimizedRMSD -1
REMARK  2 active torsions:
REMARK  status: ('A' for Active; 'I' for Inactive)
REMARK    1  A    between atoms: C2'_3  and  C1'_4 
REMARK    2  A    between atoms: C1'_4  and  C1_5 
ROOT
ATOM      1  C1  I4B d   1       2.751   1.851  -0.633  0.00  0.00    -0.075 A 
ATOM      2  C2  I4B d   1       3.884   1.510   0.063  0.00  0.00     0.003 A 
ATOM      3  C3  I4B d   1       3.797   1.139   1.427  0.00  0.00     0.002 A 
ATOM      4  C4  I4B d   1       2.573   1.172   2.064  0.00  0.00    -0.004 A 
ATOM      5  C5  I4B d   1       1.423   1.497   1.350  0.00  0.00     0.002 A 
ATOM      6  C6  I4B d   1       1.510   1.826  -0.011  0.00  0.00     0.003 A 
ENDROOT
BRANCH   1   7
ATOM      7  C1' I4B d   1       2.884   2.269  -2.064  0.00  0.00     0.060 C 
BRANCH   7   8
ATOM      8  C2' I4B d   1       1.988   1.375  -2.896  0.00  0.00    -0.013 C 
ATOM      9  C4' I4B d   1       0.733   2.096  -3.312  0.00  0.00     0.013 C 
ATOM     10  C3' I4B d   1       2.771   0.919  -4.091  0.00  0.00     0.013 C 
ENDBRANCH   7   8
ENDBRANCH   1   7
TORSDOF 2
ENDMDL
