MODEL 1
REMARK minimizedAffinity 11.8720989
REMARK minimizedRMSD -1
REMARK  2 active torsions:
REMARK  status: ('A' for Active; 'I' for Inactive)
REMARK    1  A    between atoms: C2'_3  and  C1'_4 
REMARK    2  A    between atoms: C1'_4  and  C1_5 
ROOT
ATOM      1  C1  I4B d   1       4.418   2.373  -3.701  0.00  0.00    -0.075 A 
ATOM      2  C2  I4B d   1       5.232   3.462  -3.509  0.00  0.00     0.003 A 
ATOM      3  C3  I4B d   1       5.475   4.367  -4.570  0.00  0.00     0.002 A 
ATOM      4  C4  I4B d   1       4.927   4.120  -5.812  0.00  0.00    -0.004 A 
ATOM      5  C5  I4B d   1       4.084   3.029  -5.999  0.00  0.00     0.002 A 
ATOM      6  C6  I4B d   1       3.817   2.156  -4.934  0.00  0.00     0.003 A 
ENDROOT
BRANCH   1   7
ATOM      7  C1' I4B d   1       4.210   1.420  -2.567  0.00  0.00     0.060 C 
BRANCH   7   8
ATOM      8  C2' I4B d   1       4.166   2.223  -1.284  0.00  0.00    -0.013 C 
ATOM      9  C4' I4B d   1       2.938   1.894  -0.477  0.00  0.00     0.013 C 
ATOM     10  C3' I4B d   1       5.417   1.929  -0.510  0.00  0.00     0.013 C 
ENDBRANCH   7   8
ENDBRANCH   1   7
TORSDOF 2
ENDMDL
