MODEL 1
REMARK minimizedAffinity -0.997342944
REMARK minimizedRMSD -1
REMARK  2 active torsions:
REMARK  status: ('A' for Active; 'I' for Inactive)
REMARK    1  A    between atoms: C2'_3  and  C1'_4 
REMARK    2  A    between atoms: C1'_4  and  C1_5 
ROOT
ATOM      1  C1  I4B d   1       0.710   3.407   1.147  0.00  0.00    -0.075 A 
ATOM      2  C2  I4B d   1       0.360   4.086   0.007  0.00  0.00     0.003 A 
ATOM      3  C3  I4B d   1      -0.980   4.069  -0.450  0.00  0.00     0.002 A 
ATOM      4  C4  I4B d   1      -1.921   3.323   0.231  0.00  0.00    -0.004 A 
ATOM      5  C5  I4B d   1      -1.569   2.653   1.400  0.00  0.00     0.002 A 
ATOM      6  C6  I4B d   1      -0.248   2.705   1.868  0.00  0.00     0.003 A 
ENDROOT
BRANCH   1   7
ATOM      7  C1' I4B d   1       2.141   3.419   1.583  0.00  0.00     0.060 C 
BRANCH   7   8
ATOM      8  C2' I4B d   1       2.467   2.055   2.155  0.00  0.00    -0.013 C 
ATOM      9  C4' I4B d   1       2.370   0.984   1.101  0.00  0.00     0.013 C 
ATOM     10  C3' I4B d   1       3.846   2.115   2.740  0.00  0.00     0.013 C 
ENDBRANCH   7   8
ENDBRANCH   1   7
TORSDOF 2
ENDMDL
