MODEL 1
REMARK minimizedAffinity 4.65978909
REMARK minimizedRMSD -1
REMARK  2 active torsions:
REMARK  status: ('A' for Active; 'I' for Inactive)
REMARK    1  A    between atoms: C2'_3  and  C1'_4 
REMARK    2  A    between atoms: C1'_4  and  C1_5 
ROOT
ATOM      1  C1  I4B d   1       0.501   2.653   0.421  0.00  0.00    -0.075 A 
ATOM      2  C2  I4B d   1       1.279   3.728   0.773  0.00  0.00     0.003 A 
ATOM      3  C3  I4B d   1       2.690   3.613   0.786  0.00  0.00     0.002 A 
ATOM      4  C4  I4B d   1       3.276   2.399   0.491  0.00  0.00    -0.004 A 
ATOM      5  C5  I4B d   1       2.487   1.316   0.113  0.00  0.00     0.002 A 
ATOM      6  C6  I4B d   1       1.091   1.447   0.065  0.00  0.00     0.003 A 
ENDROOT
BRANCH   1   7
ATOM      7  C1' I4B d   1      -0.987   2.799   0.450  0.00  0.00     0.060 C 
BRANCH   7   8
ATOM      8  C2' I4B d   1      -1.584   1.441   0.757  0.00  0.00    -0.013 C 
ATOM      9  C4' I4B d   1      -1.361   1.060   2.197  0.00  0.00     0.013 C 
ATOM     10  C3' I4B d   1      -3.047   1.494   0.431  0.00  0.00     0.013 C 
ENDBRANCH   7   8
ENDBRANCH   1   7
TORSDOF 2
ENDMDL
