MODEL 1
REMARK minimizedAffinity -1.31976652
REMARK minimizedRMSD -1
REMARK  2 active torsions:
REMARK  status: ('A' for Active; 'I' for Inactive)
REMARK    1  A    between atoms: C1_2  and  C2_3 
REMARK    2  A    between atoms: C2_3  and  C3_4 
ROOT
ATOM      1  C3  UNL d   1      -1.258   0.498  -0.798  0.00  0.00    -0.075 A 
ATOM      2  C4  UNL d   1      -1.066  -0.828  -1.212  0.00  0.00     0.002 A 
ATOM      3  C5  UNL d   1      -1.675  -1.303  -2.374  0.00  0.00     0.002 A 
ATOM      4  C6  UNL d   1      -2.490  -0.463  -3.130  0.00  0.00    -0.004 A 
ATOM      5  C7  UNL d   1      -2.702   0.852  -2.719  0.00  0.00     0.002 A 
ATOM      6  C8  UNL d   1      -2.090   1.330  -1.559  0.00  0.00     0.002 A 
ENDROOT
BRANCH   1   7
ATOM      7  C2  UNL d   1      -0.578   1.026   0.443  0.00  0.00     0.056 C 
BRANCH   7   8
ATOM      8  C1  UNL d   1       0.800   1.644   0.183  0.00  0.00     0.007 C 
ATOM      9  C   UNL d   1       1.949   0.776   0.679  0.00  0.00     0.009 C 
ENDBRANCH   7   8
ENDBRANCH   1   7
TORSDOF 2
ENDMDL
