MODEL 1
REMARK minimizedAffinity -5.94891548
REMARK minimizedRMSD -1
REMARK  2 active torsions:
REMARK  status: ('A' for Active; 'I' for Inactive)
REMARK    1  A    between atoms: C1_2  and  C2_3 
REMARK    2  A    between atoms: C2_3  and  C3_4 
ROOT
ATOM      1  C3  UNL d   1       0.090   0.256  -0.120  0.00  0.00    -0.075 A 
ATOM      2  C4  UNL d   1       0.573   1.567   0.008  0.00  0.00     0.002 A 
ATOM      3  C5  UNL d   1       1.876   1.801   0.450  0.00  0.00     0.002 A 
ATOM      4  C6  UNL d   1       2.707   0.732   0.778  0.00  0.00    -0.004 A 
ATOM      5  C7  UNL d   1       2.232  -0.573   0.670  0.00  0.00     0.002 A 
ATOM      6  C8  UNL d   1       0.931  -0.811   0.224  0.00  0.00     0.002 A 
ENDROOT
BRANCH   1   7
ATOM      7  C2  UNL d   1      -1.308  -0.005  -0.626  0.00  0.00     0.056 C 
BRANCH   7   8
ATOM      8  C1  UNL d   1      -1.359  -0.805  -1.932  0.00  0.00     0.007 C 
ATOM      9  C   UNL d   1      -2.370  -0.259  -2.932  0.00  0.00     0.009 C 
ENDBRANCH   7   8
ENDBRANCH   1   7
TORSDOF 2
ENDMDL
