MODEL 1
REMARK minimizedAffinity -5.66832256
REMARK minimizedRMSD -1
REMARK  2 active torsions:
REMARK  status: ('A' for Active; 'I' for Inactive)
REMARK    1  A    between atoms: C1_2  and  C2_3 
REMARK    2  A    between atoms: C2_3  and  C3_4 
ROOT
ATOM      1  C3  UNL d   1       0.064   0.098  -0.272  0.00  0.00    -0.075 A 
ATOM      2  C4  UNL d   1       1.140  -0.726   0.090  0.00  0.00     0.002 A 
ATOM      3  C5  UNL d   1       2.292  -0.178   0.654  0.00  0.00     0.002 A 
ATOM      4  C6  UNL d   1       2.388   1.197   0.853  0.00  0.00    -0.004 A 
ATOM      5  C7  UNL d   1       1.332   2.027   0.481  0.00  0.00     0.002 A 
ATOM      6  C8  UNL d   1       0.176   1.481  -0.079  0.00  0.00     0.002 A 
ENDROOT
BRANCH   1   7
ATOM      7  C2  UNL d   1      -1.198  -0.492  -0.856  0.00  0.00     0.056 C 
BRANCH   7   8
ATOM      8  C1  UNL d   1      -2.077   0.523  -1.594  0.00  0.00     0.007 C 
ATOM      9  C   UNL d   1      -2.432   0.091  -3.011  0.00  0.00     0.009 C 
ENDBRANCH   7   8
ENDBRANCH   1   7
TORSDOF 2
ENDMDL
