MODEL 1
REMARK minimizedAffinity -5.60347319
REMARK minimizedRMSD -1
REMARK  2 active torsions:
REMARK  status: ('A' for Active; 'I' for Inactive)
REMARK    1  A    between atoms: C1_2  and  C2_3 
REMARK    2  A    between atoms: C2_3  and  C3_4 
ROOT
ATOM      1  C3  UNL d   1       0.386   0.040   0.132  0.00  0.00    -0.075 A 
ATOM      2  C4  UNL d   1       1.085  -1.144   0.404  0.00  0.00     0.002 A 
ATOM      3  C5  UNL d   1       2.441  -1.107   0.733  0.00  0.00     0.002 A 
ATOM      4  C6  UNL d   1       3.115   0.111   0.785  0.00  0.00    -0.004 A 
ATOM      5  C7  UNL d   1       2.433   1.293   0.500  0.00  0.00     0.002 A 
ATOM      6  C8  UNL d   1       1.076   1.259   0.175  0.00  0.00     0.002 A 
ENDROOT
BRANCH   1   7
ATOM      7  C2  UNL d   1      -1.088   0.009  -0.196  0.00  0.00     0.056 C 
BRANCH   7   8
ATOM      8  C1  UNL d   1      -1.393   0.026  -1.697  0.00  0.00     0.007 C 
ATOM      9  C   UNL d   1      -2.810   0.484  -2.017  0.00  0.00     0.009 C 
ENDBRANCH   7   8
ENDBRANCH   1   7
TORSDOF 2
ENDMDL
