MODEL 1
REMARK minimizedAffinity 2.34146047
REMARK minimizedRMSD -1
REMARK  2 active torsions:
REMARK  status: ('A' for Active; 'I' for Inactive)
REMARK    1  A    between atoms: C1_2  and  C2_3 
REMARK    2  A    between atoms: C2_3  and  C3_4 
ROOT
ATOM      1  C3  UNL d   1       2.590  -0.761   0.712  0.00  0.00    -0.075 A 
ATOM      2  C4  UNL d   1       1.878   0.420   0.966  0.00  0.00     0.002 A 
ATOM      3  C5  UNL d   1       2.322   1.639   0.452  0.00  0.00     0.002 A 
ATOM      4  C6  UNL d   1       3.486   1.694  -0.312  0.00  0.00    -0.004 A 
ATOM      5  C7  UNL d   1       4.210   0.529  -0.557  0.00  0.00     0.002 A 
ATOM      6  C8  UNL d   1       3.766  -0.693  -0.047  0.00  0.00     0.002 A 
ENDROOT
BRANCH   1   7
ATOM      7  C2  UNL d   1       2.099  -2.088   1.241  0.00  0.00     0.056 C 
BRANCH   7   8
ATOM      8  C1  UNL d   1       0.824  -1.989   2.085  0.00  0.00     0.007 C 
ATOM      9  C   UNL d   1       1.024  -2.431   3.528  0.00  0.00     0.009 C 
ENDBRANCH   7   8
ENDBRANCH   1   7
TORSDOF 2
ENDMDL
