MODEL 1
REMARK minimizedAffinity -3.42628503
REMARK minimizedRMSD -1
REMARK  2 active torsions:
REMARK  status: ('A' for Active; 'I' for Inactive)
REMARK    1  A    between atoms: C1_2  and  C2_3 
REMARK    2  A    between atoms: C2_3  and  C3_4 
ROOT
ATOM      1  C3  UNL d   1       0.248   0.264   0.342  0.00  0.00    -0.075 A 
ATOM      2  C4  UNL d   1       0.472   1.600  -0.018  0.00  0.00     0.002 A 
ATOM      3  C5  UNL d   1       1.715   2.194   0.203  0.00  0.00     0.002 A 
ATOM      4  C6  UNL d   1       2.743   1.465   0.795  0.00  0.00    -0.004 A 
ATOM      5  C7  UNL d   1       2.527   0.142   1.172  0.00  0.00     0.002 A 
ATOM      6  C8  UNL d   1       1.286  -0.457   0.948  0.00  0.00     0.002 A 
ENDROOT
BRANCH   1   7
ATOM      7  C2  UNL d   1      -1.086  -0.394   0.079  0.00  0.00     0.056 C 
BRANCH   7   8
ATOM      8  C1  UNL d   1      -1.720  -0.005  -1.261  0.00  0.00     0.007 C 
ATOM      9  C   UNL d   1      -1.930  -1.190  -2.193  0.00  0.00     0.009 C 
ENDBRANCH   7   8
ENDBRANCH   1   7
TORSDOF 2
ENDMDL
