MODEL 1
REMARK minimizedAffinity -5.54976368
REMARK minimizedRMSD -1
REMARK  2 active torsions:
REMARK  status: ('A' for Active; 'I' for Inactive)
REMARK    1  A    between atoms: C1_2  and  C2_3 
REMARK    2  A    between atoms: C2_3  and  C3_4 
ROOT
ATOM      1  C3  UNL d   1       0.791  -0.618   0.253  0.00  0.00    -0.075 A 
ATOM      2  C4  UNL d   1       1.545   0.496  -0.143  0.00  0.00     0.002 A 
ATOM      3  C5  UNL d   1       2.808   0.727   0.403  0.00  0.00     0.002 A 
ATOM      4  C6  UNL d   1       3.328  -0.145   1.357  0.00  0.00    -0.004 A 
ATOM      5  C7  UNL d   1       2.581  -1.246   1.771  0.00  0.00     0.002 A 
ATOM      6  C8  UNL d   1       1.319  -1.481   1.223  0.00  0.00     0.002 A 
ENDROOT
BRANCH   1   7
ATOM      7  C2  UNL d   1      -0.564  -0.890  -0.355  0.00  0.00     0.056 C 
BRANCH   7   8
ATOM      8  C1  UNL d   1      -1.487   0.332  -0.392  0.00  0.00     0.007 C 
ATOM      9  C   UNL d   1      -2.448   0.324  -1.574  0.00  0.00     0.009 C 
ENDBRANCH   7   8
ENDBRANCH   1   7
TORSDOF 2
ENDMDL
