MODEL 1
REMARK minimizedAffinity -5.51324797
REMARK minimizedRMSD -1
REMARK  2 active torsions:
REMARK  status: ('A' for Active; 'I' for Inactive)
REMARK    1  A    between atoms: C1_2  and  C2_3 
REMARK    2  A    between atoms: C2_3  and  C3_4 
ROOT
ATOM      1  C3  UNL d   1      -0.233  -0.060   0.166  0.00  0.00    -0.075 A 
ATOM      2  C4  UNL d   1       0.690  -1.104   0.325  0.00  0.00     0.002 A 
ATOM      3  C5  UNL d   1       1.998  -0.837   0.729  0.00  0.00     0.002 A 
ATOM      4  C6  UNL d   1       2.403   0.474   0.968  0.00  0.00    -0.004 A 
ATOM      5  C7  UNL d   1       1.499   1.520   0.798  0.00  0.00     0.002 A 
ATOM      6  C8  UNL d   1       0.188   1.256   0.399  0.00  0.00     0.002 A 
ENDROOT
BRANCH   1   7
ATOM      7  C2  UNL d   1      -1.659  -0.345  -0.242  0.00  0.00     0.056 C 
BRANCH   7   8
ATOM      8  C1  UNL d   1      -2.094   0.369  -1.526  0.00  0.00     0.007 C 
ATOM      9  C   UNL d   1      -2.607  -0.584  -2.597  0.00  0.00     0.009 C 
ENDBRANCH   7   8
ENDBRANCH   1   7
TORSDOF 2
ENDMDL
