MODEL 1
REMARK minimizedAffinity 0.284771711
REMARK minimizedRMSD -1
REMARK  0 active torsions:
REMARK  status: ('A' for Active; 'I' for Inactive)
ROOT
ATOM      1  C   UNL d   1      -0.040   5.191  -5.990  0.00  0.00     0.078 C 
ATOM      2  C1  UNL d   1      -1.514   4.949  -5.866  0.00  0.00    -0.077 A 
ATOM      3  C2  UNL d   1      -2.431   5.999  -6.000  0.00  0.00    -0.001 A 
ATOM      4  C3  UNL d   1      -3.801   5.761  -5.872  0.00  0.00     0.003 A 
ATOM      5  C4  UNL d   1      -4.265   4.474  -5.608  0.00  0.00    -0.005 A 
ATOM      6  C5  UNL d   1      -3.361   3.424  -5.471  0.00  0.00     0.003 A 
ATOM      7  C6  UNL d   1      -1.991   3.660  -5.598  0.00  0.00    -0.001 A 
ENDROOT
TORSDOF 0
ENDMDL
