MODEL 1
REMARK minimizedAffinity -3.84599376
REMARK minimizedRMSD -1
REMARK  0 active torsions:
REMARK  status: ('A' for Active; 'I' for Inactive)
ROOT
ATOM      1  C   UNL d   1      -3.612  -5.397  -0.353  0.00  0.00     0.078 C 
ATOM      2  C1  UNL d   1      -2.610  -4.315  -0.080  0.00  0.00    -0.077 A 
ATOM      3  C2  UNL d   1      -2.951  -3.194   0.686  0.00  0.00    -0.001 A 
ATOM      4  C3  UNL d   1      -2.011  -2.190   0.924  0.00  0.00     0.003 A 
ATOM      5  C4  UNL d   1      -0.725  -2.296   0.397  0.00  0.00    -0.005 A 
ATOM      6  C5  UNL d   1      -0.378  -3.407  -0.368  0.00  0.00     0.003 A 
ATOM      7  C6  UNL d   1      -1.316  -4.412  -0.607  0.00  0.00    -0.001 A 
ENDROOT
TORSDOF 0
ENDMDL
