MODEL 1
REMARK minimizedAffinity -0.940443575
REMARK minimizedRMSD -1
REMARK  0 active torsions:
REMARK  status: ('A' for Active; 'I' for Inactive)
ROOT
ATOM      1  C   UNL d   1      -2.543  -0.945   1.244  0.00  0.00     0.078 C 
ATOM      2  C1  UNL d   1      -1.884  -1.943   0.339  0.00  0.00    -0.077 A 
ATOM      3  C2  UNL d   1      -2.576  -2.501  -0.743  0.00  0.00    -0.001 A 
ATOM      4  C3  UNL d   1      -1.953  -3.436  -1.572  0.00  0.00     0.003 A 
ATOM      5  C4  UNL d   1      -0.637  -3.822  -1.326  0.00  0.00    -0.005 A 
ATOM      6  C5  UNL d   1       0.058  -3.273  -0.251  0.00  0.00     0.003 A 
ATOM      7  C6  UNL d   1      -0.563  -2.338   0.579  0.00  0.00    -0.001 A 
ENDROOT
TORSDOF 0
ENDMDL
