MODEL 1
REMARK minimizedAffinity -2.53485489
REMARK minimizedRMSD -1
REMARK  0 active torsions:
REMARK  status: ('A' for Active; 'I' for Inactive)
ROOT
ATOM      1  C   UNL d   1      -0.125  -2.343  -0.117  0.00  0.00     0.078 C 
ATOM      2  C1  UNL d   1      -0.780  -3.559  -0.700  0.00  0.00    -0.077 A 
ATOM      3  C2  UNL d   1      -2.129  -3.543  -1.075  0.00  0.00    -0.001 A 
ATOM      4  C3  UNL d   1      -2.728  -4.686  -1.608  0.00  0.00     0.003 A 
ATOM      5  C4  UNL d   1      -1.985  -5.854  -1.769  0.00  0.00    -0.005 A 
ATOM      6  C5  UNL d   1      -0.643  -5.881  -1.397  0.00  0.00     0.003 A 
ATOM      7  C6  UNL d   1      -0.042  -4.739  -0.864  0.00  0.00    -0.001 A 
ENDROOT
TORSDOF 0
ENDMDL
