MODEL 1
REMARK minimizedAffinity 4.04914427
REMARK minimizedRMSD -1
REMARK  0 active torsions:
REMARK  status: ('A' for Active; 'I' for Inactive)
ROOT
ATOM      1  C   UNL d   1       1.792   0.809   0.993  0.00  0.00     0.078 C 
ATOM      2  C1  UNL d   1       1.760  -0.652   0.658  0.00  0.00    -0.077 A 
ATOM      3  C2  UNL d   1       2.883  -1.293   0.120  0.00  0.00    -0.001 A 
ATOM      4  C3  UNL d   1       2.837  -2.652  -0.196  0.00  0.00     0.003 A 
ATOM      5  C4  UNL d   1       1.669  -3.381   0.021  0.00  0.00    -0.005 A 
ATOM      6  C5  UNL d   1       0.546  -2.751   0.553  0.00  0.00     0.003 A 
ATOM      7  C6  UNL d   1       0.591  -1.393   0.870  0.00  0.00    -0.001 A 
ENDROOT
TORSDOF 0
ENDMDL
