MODEL 1
REMARK minimizedAffinity -0.708510399
REMARK minimizedRMSD -1
REMARK  0 active torsions:
REMARK  status: ('A' for Active; 'I' for Inactive)
ROOT
ATOM      1  C   UNL d   1       3.767   1.454   1.522  0.00  0.00     0.078 C 
ATOM      2  C1  UNL d   1       3.147   2.531   2.362  0.00  0.00    -0.077 A 
ATOM      3  C2  UNL d   1       3.652   3.837   2.348  0.00  0.00    -0.001 A 
ATOM      4  C3  UNL d   1       3.071   4.827   3.142  0.00  0.00     0.003 A 
ATOM      5  C4  UNL d   1       1.982   4.522   3.956  0.00  0.00    -0.005 A 
ATOM      6  C5  UNL d   1       1.474   3.225   3.978  0.00  0.00     0.003 A 
ATOM      7  C6  UNL d   1       2.054   2.233   3.185  0.00  0.00    -0.001 A 
ENDROOT
TORSDOF 0
ENDMDL
