MODEL 1
REMARK minimizedAffinity 4.6810813
REMARK minimizedRMSD -1
REMARK  0 active torsions:
REMARK  status: ('A' for Active; 'I' for Inactive)
ROOT
ATOM      1  C   UNL d   1       1.568   0.759   0.771  0.00  0.00     0.078 C 
ATOM      2  C1  UNL d   1       2.277   1.783   1.606  0.00  0.00    -0.077 A 
ATOM      3  C2  UNL d   1       3.675   1.846   1.637  0.00  0.00    -0.001 A 
ATOM      4  C3  UNL d   1       4.322   2.798   2.427  0.00  0.00     0.003 A 
ATOM      5  C4  UNL d   1       3.578   3.694   3.193  0.00  0.00    -0.005 A 
ATOM      6  C5  UNL d   1       2.186   3.637   3.171  0.00  0.00     0.003 A 
ATOM      7  C6  UNL d   1       1.537   2.686   2.381  0.00  0.00    -0.001 A 
ENDROOT
TORSDOF 0
ENDMDL
