MODEL 1
REMARK minimizedAffinity 5.77631235
REMARK minimizedRMSD -1
REMARK  0 active torsions:
REMARK  status: ('A' for Active; 'I' for Inactive)
ROOT
ATOM      1  C   UNL d   1       1.918   1.170   0.621  0.00  0.00     0.078 C 
ATOM      2  C1  UNL d   1       2.599   2.196   1.476  0.00  0.00    -0.077 A 
ATOM      3  C2  UNL d   1       2.028   3.458   1.682  0.00  0.00    -0.001 A 
ATOM      4  C3  UNL d   1       2.678   4.407   2.471  0.00  0.00     0.003 A 
ATOM      5  C4  UNL d   1       3.904   4.106   3.061  0.00  0.00    -0.005 A 
ATOM      6  C5  UNL d   1       4.482   2.854   2.860  0.00  0.00     0.003 A 
ATOM      7  C6  UNL d   1       3.833   1.903   2.070  0.00  0.00    -0.001 A 
ENDROOT
TORSDOF 0
ENDMDL
