MODEL 1
REMARK minimizedAffinity 7.3501029
REMARK minimizedRMSD -1
REMARK  0 active torsions:
REMARK  status: ('A' for Active; 'I' for Inactive)
ROOT
ATOM      1  C   UNL d   1       0.991   1.048   1.248  0.00  0.00     0.078 C 
ATOM      2  C1  UNL d   1       2.039   1.922   1.870  0.00  0.00    -0.077 A 
ATOM      3  C2  UNL d   1       1.698   3.140   2.471  0.00  0.00    -0.001 A 
ATOM      4  C3  UNL d   1       2.685   3.948   3.037  0.00  0.00     0.003 A 
ATOM      5  C4  UNL d   1       4.020   3.547   3.007  0.00  0.00    -0.005 A 
ATOM      6  C5  UNL d   1       4.368   2.338   2.409  0.00  0.00     0.003 A 
ATOM      7  C6  UNL d   1       3.383   1.528   1.843  0.00  0.00    -0.001 A 
ENDROOT
TORSDOF 0
ENDMDL
