MODEL 1
REMARK minimizedAffinity 5.36435175
REMARK minimizedRMSD -1
REMARK  0 active torsions:
REMARK  status: ('A' for Active; 'I' for Inactive)
ROOT
ATOM      1  C   UNL d   1       3.683   6.000   1.877  0.00  0.00     0.078 C 
ATOM      2  C1  UNL d   1       3.970   4.533   2.000  0.00  0.00    -0.077 A 
ATOM      3  C2  UNL d   1       2.931   3.602   2.118  0.00  0.00    -0.001 A 
ATOM      4  C3  UNL d   1       3.214   2.241   2.241  0.00  0.00     0.003 A 
ATOM      5  C4  UNL d   1       4.535   1.798   2.249  0.00  0.00    -0.005 A 
ATOM      6  C5  UNL d   1       5.576   2.718   2.135  0.00  0.00     0.003 A 
ATOM      7  C6  UNL d   1       5.295   4.079   2.011  0.00  0.00    -0.001 A 
ENDROOT
TORSDOF 0
ENDMDL
