MODEL 1
REMARK minimizedAffinity 7.58544397
REMARK minimizedRMSD -1
REMARK  0 active torsions:
REMARK  status: ('A' for Active; 'I' for Inactive)
ROOT
ATOM      1  C   UNL d   1       5.465   3.715   4.502  0.00  0.00     0.078 C 
ATOM      2  C1  UNL d   1       4.414   3.664   3.434  0.00  0.00    -0.077 A 
ATOM      3  C2  UNL d   1       3.240   2.922   3.613  0.00  0.00    -0.001 A 
ATOM      4  C3  UNL d   1       2.274   2.876   2.607  0.00  0.00     0.003 A 
ATOM      5  C4  UNL d   1       2.472   3.568   1.414  0.00  0.00    -0.005 A 
ATOM      6  C5  UNL d   1       3.639   4.307   1.226  0.00  0.00     0.003 A 
ATOM      7  C6  UNL d   1       4.606   4.354   2.231  0.00  0.00    -0.001 A 
ENDROOT
TORSDOF 0
ENDMDL
