MODEL 1
REMARK minimizedAffinity 7.09215689
REMARK minimizedRMSD -1
REMARK  0 active torsions:
REMARK  status: ('A' for Active; 'I' for Inactive)
ROOT
ATOM      1  C   UNL d   1      -3.000   0.102   0.378  0.00  0.00     0.078 C 
ATOM      2  C1  UNL d   1      -4.053   1.104   0.008  0.00  0.00    -0.077 A 
ATOM      3  C2  UNL d   1      -4.933   0.866  -1.055  0.00  0.00    -0.001 A 
ATOM      4  C3  UNL d   1      -5.902   1.812  -1.394  0.00  0.00     0.003 A 
ATOM      5  C4  UNL d   1      -6.000   3.002  -0.676  0.00  0.00    -0.005 A 
ATOM      6  C5  UNL d   1      -5.127   3.249   0.382  0.00  0.00     0.003 A 
ATOM      7  C6  UNL d   1      -4.157   2.304   0.722  0.00  0.00    -0.001 A 
ENDROOT
TORSDOF 0
ENDMDL
