MODEL 1
REMARK minimizedAffinity 5.67374325
REMARK minimizedRMSD -1
REMARK  0 active torsions:
REMARK  status: ('A' for Active; 'I' for Inactive)
ROOT
ATOM      1  C   UNL d   1       1.957   1.033   1.104  0.00  0.00     0.078 C 
ATOM      2  C1  UNL d   1       2.694   2.193   1.705  0.00  0.00    -0.077 A 
ATOM      3  C2  UNL d   1       2.066   3.431   1.886  0.00  0.00    -0.001 A 
ATOM      4  C3  UNL d   1       2.767   4.505   2.438  0.00  0.00     0.003 A 
ATOM      5  C4  UNL d   1       4.100   4.351   2.813  0.00  0.00    -0.005 A 
ATOM      6  C5  UNL d   1       4.734   3.123   2.635  0.00  0.00     0.003 A 
ATOM      7  C6  UNL d   1       4.035   2.048   2.083  0.00  0.00    -0.001 A 
ENDROOT
TORSDOF 0
ENDMDL
