MODEL 1
REMARK minimizedAffinity 1.03375542
REMARK minimizedRMSD -1
REMARK  0 active torsions:
REMARK  status: ('A' for Active; 'I' for Inactive)
ROOT
ATOM      1  C   UNL d   1       3.541   2.223   2.022  0.00  0.00     0.078 C 
ATOM      2  C1  UNL d   1       3.131   3.545   2.601  0.00  0.00    -0.077 A 
ATOM      3  C2  UNL d   1       4.011   4.634   2.604  0.00  0.00    -0.001 A 
ATOM      4  C3  UNL d   1       3.620   5.856   3.155  0.00  0.00     0.003 A 
ATOM      5  C4  UNL d   1       2.348   5.999   3.708  0.00  0.00    -0.005 A 
ATOM      6  C5  UNL d   1       1.467   4.920   3.711  0.00  0.00     0.003 A 
ATOM      7  C6  UNL d   1       1.857   3.698   3.160  0.00  0.00    -0.001 A 
ENDROOT
TORSDOF 0
ENDMDL
