MODEL 1
REMARK minimizedAffinity 0.463529587
REMARK minimizedRMSD -1
REMARK  0 active torsions:
REMARK  status: ('A' for Active; 'I' for Inactive)
ROOT
ATOM      1  C   UNL d   1      -1.435  -5.481  -1.871  0.00  0.00     0.078 C 
ATOM      2  C1  UNL d   1      -0.420  -4.805  -0.998  0.00  0.00    -0.077 A 
ATOM      3  C2  UNL d   1       0.818  -5.403  -0.735  0.00  0.00    -0.001 A 
ATOM      4  C3  UNL d   1       1.749  -4.767   0.088  0.00  0.00     0.003 A 
ATOM      5  C4  UNL d   1       1.451  -3.529   0.655  0.00  0.00    -0.005 A 
ATOM      6  C5  UNL d   1       0.220  -2.927   0.401  0.00  0.00     0.003 A 
ATOM      7  C6  UNL d   1      -0.712  -3.562  -0.422  0.00  0.00    -0.001 A 
ENDROOT
TORSDOF 0
ENDMDL
