MODEL 1
REMARK minimizedAffinity 5.25187445
REMARK minimizedRMSD -1
REMARK  0 active torsions:
REMARK  status: ('A' for Active; 'I' for Inactive)
ROOT
ATOM      1  C   UNL d   1       2.744   1.806   1.658  0.00  0.00     0.078 C 
ATOM      2  C1  UNL d   1       2.285   2.844   2.638  0.00  0.00    -0.077 A 
ATOM      3  C2  UNL d   1       1.637   2.480   3.824  0.00  0.00    -0.001 A 
ATOM      4  C3  UNL d   1       1.206   3.458   4.722  0.00  0.00     0.003 A 
ATOM      5  C4  UNL d   1       1.417   4.807   4.443  0.00  0.00    -0.005 A 
ATOM      6  C5  UNL d   1       2.059   5.179   3.263  0.00  0.00     0.003 A 
ATOM      7  C6  UNL d   1       2.491   4.202   2.364  0.00  0.00    -0.001 A 
ENDROOT
TORSDOF 0
ENDMDL
