MODEL 1
REMARK minimizedAffinity -0.783162057
REMARK minimizedRMSD -1
REMARK  0 active torsions:
REMARK  status: ('A' for Active; 'I' for Inactive)
ROOT
ATOM      1  C4' PXY d   1      -3.002   0.434   1.733  0.00  0.00     0.077 C 
ATOM      2  C1' PXY d   1       1.482  -1.853  -1.108  0.00  0.00     0.077 C 
ATOM      3  C1  PXY d   1       0.312  -1.242  -0.363  0.00  0.00    -0.082 A 
ATOM      4  C2  PXY d   1      -0.447  -2.007   0.404  0.00  0.00     0.003 A 
ATOM      5  C3  PXY d   1      -1.529  -1.477   1.059  0.00  0.00     0.003 A 
ATOM      6  C4  PXY d   1      -1.804  -0.138   0.971  0.00  0.00    -0.082 A 
ATOM      7  C5  PXY d   1      -1.028   0.651   0.199  0.00  0.00     0.003 A 
ATOM      8  C6  PXY d   1       0.041   0.086  -0.491  0.00  0.00     0.003 A 
ENDROOT
TORSDOF 0
ENDMDL
