MODEL 1
REMARK minimizedAffinity -0.602033675
REMARK minimizedRMSD -1
REMARK  0 active torsions:
REMARK  status: ('A' for Active; 'I' for Inactive)
ROOT
ATOM      1  C4' PXY d   1      -2.946   0.829   0.137  0.00  0.00     0.077 C 
ATOM      2  C1' PXY d   1       2.265  -1.569  -0.576  0.00  0.00     0.077 C 
ATOM      3  C1  PXY d   1       0.904  -0.929  -0.384  0.00  0.00    -0.082 A 
ATOM      4  C2  PXY d   1      -0.165  -1.696  -0.239  0.00  0.00     0.003 A 
ATOM      5  C3  PXY d   1      -1.407  -1.134  -0.097  0.00  0.00     0.003 A 
ATOM      6  C4  PXY d   1      -1.551   0.227  -0.050  0.00  0.00    -0.082 A 
ATOM      7  C5  PXY d   1      -0.464   1.016  -0.186  0.00  0.00     0.003 A 
ATOM      8  C6  PXY d   1       0.783   0.426  -0.371  0.00  0.00     0.003 A 
ENDROOT
TORSDOF 0
ENDMDL
