MODEL 1
REMARK minimizedAffinity 0.372596622
REMARK minimizedRMSD -1
REMARK  0 active torsions:
REMARK  status: ('A' for Active; 'I' for Inactive)
ROOT
ATOM      1  C4' PXY d   1      -0.340  -3.098  -0.744  0.00  0.00     0.077 C 
ATOM      2  C1' PXY d   1       1.200   2.403   0.138  0.00  0.00     0.077 C 
ATOM      3  C1  PXY d   1       0.808   0.958  -0.097  0.00  0.00    -0.082 A 
ATOM      4  C2  PXY d   1      -0.462   0.650  -0.305  0.00  0.00     0.003 A 
ATOM      5  C3  PXY d   1      -0.838  -0.656  -0.488  0.00  0.00     0.003 A 
ATOM      6  C4  PXY d   1       0.102  -1.651  -0.511  0.00  0.00    -0.082 A 
ATOM      7  C5  PXY d   1       1.402  -1.344  -0.310  0.00  0.00     0.003 A 
ATOM      8  C6  PXY d   1       1.758  -0.017  -0.086  0.00  0.00     0.003 A 
ENDROOT
TORSDOF 0
ENDMDL
