MODEL 1
REMARK minimizedAffinity -4.96452761
REMARK minimizedRMSD -1
REMARK  0 active torsions:
REMARK  status: ('A' for Active; 'I' for Inactive)
ROOT
ATOM      1  C4' PXY d   1       5.386   1.865  -1.034  0.00  0.00     0.077 C 
ATOM      2  C1' PXY d   1       0.811  -0.792   1.297  0.00  0.00     0.077 C 
ATOM      3  C1  PXY d   1       2.004  -0.084   0.685  0.00  0.00    -0.082 A 
ATOM      4  C2  PXY d   1       2.903  -0.781   0.010  0.00  0.00     0.003 A 
ATOM      5  C3  PXY d   1       4.005  -0.162  -0.523  0.00  0.00     0.003 A 
ATOM      6  C4  PXY d   1       4.160   1.194  -0.408  0.00  0.00    -0.082 A 
ATOM      7  C5  PXY d   1       3.242   1.914   0.271  0.00  0.00     0.003 A 
ATOM      8  C6  PXY d   1       2.152   1.260   0.839  0.00  0.00     0.003 A 
ENDROOT
TORSDOF 0
ENDMDL
