MODEL 1
REMARK minimizedAffinity -4.42662859
REMARK minimizedRMSD -1
REMARK  0 active torsions:
REMARK  status: ('A' for Active; 'I' for Inactive)
ROOT
ATOM      1  C4' PXY d   1       1.358   2.924   0.070  0.00  0.00     0.077 C 
ATOM      2  C1' PXY d   1       0.733  -2.807  -0.354  0.00  0.00     0.077 C 
ATOM      3  C1  PXY d   1       0.908  -1.306  -0.235  0.00  0.00    -0.082 A 
ATOM      4  C2  PXY d   1      -0.133  -0.510  -0.419  0.00  0.00     0.003 A 
ATOM      5  C3  PXY d   1       0.013   0.852  -0.347  0.00  0.00     0.003 A 
ATOM      6  C4  PXY d   1       1.227   1.402  -0.031  0.00  0.00    -0.082 A 
ATOM      7  C5  PXY d   1       2.291   0.596   0.168  0.00  0.00     0.003 A 
ATOM      8  C6  PXY d   1       2.130  -0.781   0.050  0.00  0.00     0.003 A 
ENDROOT
TORSDOF 0
ENDMDL
