MODEL 1
REMARK minimizedAffinity -5.5819416
REMARK minimizedRMSD -1
REMARK  0 active torsions:
REMARK  status: ('A' for Active; 'I' for Inactive)
ROOT
ATOM      1  C4' PXY d   1       4.814   0.422   0.473  0.00  0.00     0.077 C 
ATOM      2  C1' PXY d   1      -0.894   0.780  -0.363  0.00  0.00     0.077 C 
ATOM      3  C1  PXY d   1       0.601   0.674  -0.139  0.00  0.00    -0.082 A 
ATOM      4  C2  PXY d   1       1.328   1.776  -0.045  0.00  0.00     0.003 A 
ATOM      5  C3  PXY d   1       2.686   1.698   0.126  0.00  0.00     0.003 A 
ATOM      6  C4  PXY d   1       3.300   0.481   0.255  0.00  0.00    -0.082 A 
ATOM      7  C5  PXY d   1       2.564  -0.647   0.172  0.00  0.00     0.003 A 
ATOM      8  C6  PXY d   1       1.192  -0.548  -0.043  0.00  0.00     0.003 A 
ENDROOT
TORSDOF 0
ENDMDL
