MODEL 1
REMARK minimizedAffinity -6.00185204
REMARK minimizedRMSD -1
REMARK  0 active torsions:
REMARK  status: ('A' for Active; 'I' for Inactive)
ROOT
ATOM      1  C4' PXY d   1      -1.943   0.768  -0.703  0.00  0.00     0.077 C 
ATOM      2  C1' PXY d   1       3.330  -0.975   0.899  0.00  0.00     0.077 C 
ATOM      3  C1  PXY d   1       1.947  -0.527   0.470  0.00  0.00    -0.082 A 
ATOM      4  C2  PXY d   1       1.563   0.718   0.696  0.00  0.00     0.003 A 
ATOM      5  C3  PXY d   1       0.304   1.131   0.344  0.00  0.00     0.003 A 
ATOM      6  C4  PXY d   1      -0.552   0.275  -0.296  0.00  0.00    -0.082 A 
ATOM      7  C5  PXY d   1      -0.164  -0.995  -0.540  0.00  0.00     0.003 A 
ATOM      8  C6  PXY d   1       1.103  -1.406  -0.137  0.00  0.00     0.003 A 
ENDROOT
TORSDOF 0
ENDMDL
