MODEL 1
REMARK minimizedAffinity -4.99921656
REMARK minimizedRMSD -1
REMARK  0 active torsions:
REMARK  status: ('A' for Active; 'I' for Inactive)
ROOT
ATOM      1  C4' PXY d   1      -1.273   0.140  -0.414  0.00  0.00     0.077 C 
ATOM      2  C1' PXY d   1       4.276  -0.887   0.837  0.00  0.00     0.077 C 
ATOM      3  C1  PXY d   1       2.821  -0.626   0.499  0.00  0.00    -0.082 A 
ATOM      4  C2  PXY d   1       2.260   0.516   0.861  0.00  0.00     0.003 A 
ATOM      5  C3  PXY d   1       0.937   0.755   0.591  0.00  0.00     0.003 A 
ATOM      6  C4  PXY d   1       0.195  -0.162  -0.103  0.00  0.00    -0.082 A 
ATOM      7  C5  PXY d   1       0.763  -1.326  -0.485  0.00  0.00     0.003 A 
ATOM      8  C6  PXY d   1       2.096  -1.567  -0.165  0.00  0.00     0.003 A 
ENDROOT
TORSDOF 0
ENDMDL
