MODEL 1
REMARK minimizedAffinity -0.276071787
REMARK minimizedRMSD -1
REMARK  0 active torsions:
REMARK  status: ('A' for Active; 'I' for Inactive)
ROOT
ATOM      1  C4' PXY d   1       2.276  -2.530  -0.367  0.00  0.00     0.077 C 
ATOM      2  C1' PXY d   1       0.422   2.926   0.081  0.00  0.00     0.077 C 
ATOM      3  C1  PXY d   1       0.897   1.491  -0.033  0.00  0.00    -0.082 A 
ATOM      4  C2  PXY d   1       2.190   1.223   0.035  0.00  0.00     0.003 A 
ATOM      5  C3  PXY d   1       2.639  -0.066  -0.098  0.00  0.00     0.003 A 
ATOM      6  C4  PXY d   1       1.751  -1.097  -0.248  0.00  0.00    -0.082 A 
ATOM      7  C5  PXY d   1       0.429  -0.832  -0.308  0.00  0.00     0.003 A 
ATOM      8  C6  PXY d   1      -0.004   0.487  -0.212  0.00  0.00     0.003 A 
ENDROOT
TORSDOF 0
ENDMDL
