MODEL 1
REMARK minimizedAffinity 2.574687
REMARK minimizedRMSD -1
REMARK  1 active torsions:
REMARK  status: ('A' for Active; 'I' for Inactive)
REMARK    1  A    between atoms: C1_2  and  C2_3 
ROOT
ATOM      1  C2  UNL d   1       1.339   1.543  -3.565  0.00  0.00    -0.077 A 
ATOM      2  C3  UNL d   1       0.383   2.534  -3.827  0.00  0.00     0.002 A 
ATOM      3  C4  UNL d   1       0.398   3.226  -5.040  0.00  0.00     0.002 A 
ATOM      4  C5  UNL d   1       1.364   2.933  -6.000  0.00  0.00    -0.004 A 
ATOM      5  C6  UNL d   1       2.321   1.950  -5.747  0.00  0.00     0.002 A 
ATOM      6  C7  UNL d   1       2.308   1.258  -4.535  0.00  0.00     0.002 A 
ENDROOT
BRANCH   1   7
ATOM      7  C1  UNL d   1       1.295   0.761  -2.278  0.00  0.00     0.055 C 
ATOM      8  C   UNL d   1      -0.030   0.959  -1.555  0.00  0.00     0.019 C 
ENDBRANCH   1   7
TORSDOF 1
ENDMDL
