MODEL 1
REMARK minimizedAffinity -0.874738812
REMARK minimizedRMSD -1
REMARK  1 active torsions:
REMARK  status: ('A' for Active; 'I' for Inactive)
REMARK    1  A    between atoms: C1_2  and  C2_3 
ROOT
ATOM      1  C2  UNL d   1      -1.253   0.171   2.485  0.00  0.00    -0.077 A 
ATOM      2  C3  UNL d   1      -2.321   0.346   3.376  0.00  0.00     0.002 A 
ATOM      3  C4  UNL d   1      -3.600   0.638   2.897  0.00  0.00     0.002 A 
ATOM      4  C5  UNL d   1      -3.823   0.753   1.526  0.00  0.00    -0.004 A 
ATOM      5  C6  UNL d   1      -2.767   0.583   0.632  0.00  0.00     0.002 A 
ATOM      6  C7  UNL d   1      -1.488   0.293   1.109  0.00  0.00     0.002 A 
ENDROOT
BRANCH   1   7
ATOM      7  C1  UNL d   1       0.116  -0.192   2.996  0.00  0.00     0.055 C 
ATOM      8  C   UNL d   1       1.210   0.382   2.107  0.00  0.00     0.019 C 
ENDBRANCH   1   7
TORSDOF 1
ENDMDL
