MODEL 1
REMARK minimizedAffinity 5.52770996
REMARK minimizedRMSD -1
REMARK  1 active torsions:
REMARK  status: ('A' for Active; 'I' for Inactive)
REMARK    1  A    between atoms: C1_2  and  C2_3 
ROOT
ATOM      1  C2  UNL d   1      -1.256   0.178   2.117  0.00  0.00    -0.077 A 
ATOM      2  C3  UNL d   1      -2.492   0.091   2.771  0.00  0.00     0.002 A 
ATOM      3  C4  UNL d   1      -3.682   0.195   2.048  0.00  0.00     0.002 A 
ATOM      4  C5  UNL d   1      -3.647   0.381   0.668  0.00  0.00    -0.004 A 
ATOM      5  C6  UNL d   1      -2.422   0.470   0.009  0.00  0.00     0.002 A 
ATOM      6  C7  UNL d   1      -1.232   0.368   0.730  0.00  0.00     0.002 A 
ENDROOT
BRANCH   1   7
ATOM      7  C1  UNL d   1       0.029   0.017   2.888  0.00  0.00     0.055 C 
ATOM      8  C   UNL d   1       0.241  -1.429   3.314  0.00  0.00     0.019 C 
ENDBRANCH   1   7
TORSDOF 1
ENDMDL
