MODEL 1
REMARK minimizedAffinity -2.8164382
REMARK minimizedRMSD -1
REMARK  1 active torsions:
REMARK  status: ('A' for Active; 'I' for Inactive)
REMARK    1  A    between atoms: C1_2  and  C2_3 
ROOT
ATOM      1  C2  UNL d   1      -1.688  -0.233   2.493  0.00  0.00    -0.077 A 
ATOM      2  C3  UNL d   1      -3.035  -0.472   2.802  0.00  0.00     0.002 A 
ATOM      3  C4  UNL d   1      -4.039  -0.134   1.892  0.00  0.00     0.002 A 
ATOM      4  C5  UNL d   1      -3.707   0.442   0.668  0.00  0.00    -0.004 A 
ATOM      5  C6  UNL d   1      -2.371   0.686   0.353  0.00  0.00     0.002 A 
ATOM      6  C7  UNL d   1      -1.366   0.350   1.261  0.00  0.00     0.002 A 
ENDROOT
BRANCH   1   7
ATOM      7  C1  UNL d   1      -0.601  -0.642   3.452  0.00  0.00     0.055 C 
ATOM      8  C   UNL d   1      -0.698  -2.120   3.800  0.00  0.00     0.019 C 
ENDBRANCH   1   7
TORSDOF 1
ENDMDL
