MODEL 1
REMARK minimizedAffinity 5.00997257
REMARK minimizedRMSD -1
REMARK  1 active torsions:
REMARK  status: ('A' for Active; 'I' for Inactive)
REMARK    1  A    between atoms: C1_2  and  C2_3 
ROOT
ATOM      1  C2  UNL d   1      -0.991   1.197   2.798  0.00  0.00    -0.077 A 
ATOM      2  C3  UNL d   1      -1.256   2.470   3.322  0.00  0.00     0.002 A 
ATOM      3  C4  UNL d   1      -2.542   3.011   3.247  0.00  0.00     0.002 A 
ATOM      4  C5  UNL d   1      -3.572   2.283   2.654  0.00  0.00    -0.004 A 
ATOM      5  C6  UNL d   1      -3.317   1.017   2.129  0.00  0.00     0.002 A 
ATOM      6  C7  UNL d   1      -2.033   0.476   2.201  0.00  0.00     0.002 A 
ENDROOT
BRANCH   1   7
ATOM      7  C1  UNL d   1       0.383   0.592   2.922  0.00  0.00     0.055 C 
ATOM      8  C   UNL d   1       0.334  -0.754   3.629  0.00  0.00     0.019 C 
ENDBRANCH   1   7
TORSDOF 1
ENDMDL
