MODEL 1
REMARK minimizedAffinity 3.49470639
REMARK minimizedRMSD -1
REMARK  1 active torsions:
REMARK  status: ('A' for Active; 'I' for Inactive)
REMARK    1  A    between atoms: C1_2  and  C2_3 
ROOT
ATOM      1  C2  UNL d   1       5.996  -1.349   3.546  0.00  0.00    -0.077 A 
ATOM      2  C3  UNL d   1       5.997  -0.421   4.597  0.00  0.00     0.002 A 
ATOM      3  C4  UNL d   1       5.997   0.950   4.329  0.00  0.00     0.002 A 
ATOM      4  C5  UNL d   1       5.992   1.404   3.012  0.00  0.00    -0.004 A 
ATOM      5  C6  UNL d   1       5.993   0.489   1.960  0.00  0.00     0.002 A 
ATOM      6  C7  UNL d   1       5.994  -0.881   2.226  0.00  0.00     0.002 A 
ENDROOT
BRANCH   1   7
ATOM      7  C1  UNL d   1       5.946  -2.827   3.833  0.00  0.00     0.055 C 
ATOM      8  C   UNL d   1       5.984  -3.102   5.329  0.00  0.00     0.019 C 
ENDBRANCH   1   7
TORSDOF 1
ENDMDL
