MODEL 1
REMARK minimizedAffinity 2.9675622
REMARK minimizedRMSD -1
REMARK  1 active torsions:
REMARK  status: ('A' for Active; 'I' for Inactive)
REMARK    1  A    between atoms: C1_2  and  C2_3 
ROOT
ATOM      1  C2  UNL d   1      -2.296  -0.809   0.026  0.00  0.00    -0.077 A 
ATOM      2  C3  UNL d   1      -2.138  -2.187   0.230  0.00  0.00     0.002 A 
ATOM      3  C4  UNL d   1      -1.311  -2.936  -0.610  0.00  0.00     0.002 A 
ATOM      4  C5  UNL d   1      -0.633  -2.314  -1.656  0.00  0.00    -0.004 A 
ATOM      5  C6  UNL d   1      -0.785  -0.945  -1.869  0.00  0.00     0.002 A 
ATOM      6  C7  UNL d   1      -1.612  -0.195  -1.031  0.00  0.00     0.002 A 
ENDROOT
BRANCH   1   7
ATOM      7  C1  UNL d   1      -3.149   0.008   0.960  0.00  0.00     0.055 C 
ATOM      8  C   UNL d   1      -4.631  -0.232   0.711  0.00  0.00     0.019 C 
ENDBRANCH   1   7
TORSDOF 1
ENDMDL
