MODEL 1
REMARK minimizedAffinity 6.27848673
REMARK minimizedRMSD -1
REMARK  1 active torsions:
REMARK  status: ('A' for Active; 'I' for Inactive)
REMARK    1  A    between atoms: C1_2  and  C2_3 
ROOT
ATOM      1  C2  UNL d   1      -2.609  -0.961  -0.979  0.00  0.00    -0.077 A 
ATOM      2  C3  UNL d   1      -2.601  -0.935  -2.380  0.00  0.00     0.002 A 
ATOM      3  C4  UNL d   1      -1.722  -1.749  -3.098  0.00  0.00     0.002 A 
ATOM      4  C5  UNL d   1      -0.848  -2.597  -2.422  0.00  0.00    -0.004 A 
ATOM      5  C6  UNL d   1      -0.846  -2.629  -1.028  0.00  0.00     0.002 A 
ATOM      6  C7  UNL d   1      -1.723  -1.816  -0.310  0.00  0.00     0.002 A 
ENDROOT
BRANCH   1   7
ATOM      7  C1  UNL d   1      -3.590  -0.121  -0.204  0.00  0.00     0.055 C 
ATOM      8  C   UNL d   1      -4.799  -0.938   0.228  0.00  0.00     0.019 C 
ENDBRANCH   1   7
TORSDOF 1
ENDMDL
