MODEL 1
REMARK minimizedAffinity -4.35800123
REMARK minimizedRMSD -1
REMARK  0 active torsions:
REMARK  status: ('A' for Active; 'I' for Inactive)
ROOT
ATOM      1  C1  BNZ d   1       0.812   0.826   1.733  0.00  0.00     0.000 A 
ATOM      2  C2  BNZ d   1       0.781   0.540   0.394  0.00  0.00     0.000 A 
ATOM      3  C3  BNZ d   1      -0.409   0.374  -0.258  0.00  0.00     0.000 A 
ATOM      4  C4  BNZ d   1      -1.562   0.452   0.436  0.00  0.00     0.000 A 
ATOM      5  C5  BNZ d   1      -1.547   0.730   1.788  0.00  0.00     0.000 A 
ATOM      6  C6  BNZ d   1      -0.349   0.936   2.434  0.00  0.00     0.000 A 
ENDROOT
TORSDOF 0
ENDMDL
