MODEL 1
REMARK minimizedAffinity -3.64825463
REMARK minimizedRMSD -1
REMARK  0 active torsions:
REMARK  status: ('A' for Active; 'I' for Inactive)
ROOT
ATOM      1  C1  BNZ d   1       1.139  -0.425   2.772  0.00  0.00     0.000 A 
ATOM      2  C2  BNZ d   1       1.344  -0.630   1.433  0.00  0.00     0.000 A 
ATOM      3  C3  BNZ d   1       0.374  -0.321   0.521  0.00  0.00     0.000 A 
ATOM      4  C4  BNZ d   1      -0.813   0.153   0.950  0.00  0.00     0.000 A 
ATOM      5  C5  BNZ d   1      -1.039   0.356   2.297  0.00  0.00     0.000 A 
ATOM      6  C6  BNZ d   1      -0.046   0.081   3.209  0.00  0.00     0.000 A 
ENDROOT
TORSDOF 0
ENDMDL
