MODEL 1
REMARK minimizedAffinity -3.30824995
REMARK minimizedRMSD -1
REMARK  0 active torsions:
REMARK  status: ('A' for Active; 'I' for Inactive)
ROOT
ATOM      1  C1  BNZ d   1       1.018  -0.305  -0.044  0.00  0.00     0.000 A 
ATOM      2  C2  BNZ d   1       0.699   0.194   1.191  0.00  0.00     0.000 A 
ATOM      3  C3  BNZ d   1      -0.310   1.104   1.339  0.00  0.00     0.000 A 
ATOM      4  C4  BNZ d   1      -0.972   1.543   0.248  0.00  0.00     0.000 A 
ATOM      5  C5  BNZ d   1      -0.656   1.056  -1.004  0.00  0.00     0.000 A 
ATOM      6  C6  BNZ d   1       0.335   0.111  -1.144  0.00  0.00     0.000 A 
ENDROOT
TORSDOF 0
ENDMDL
