MODEL 1
REMARK minimizedAffinity -2.01298022
REMARK minimizedRMSD -1
REMARK  0 active torsions:
REMARK  status: ('A' for Active; 'I' for Inactive)
ROOT
ATOM      1  C1  BNZ d   1      -0.662  -0.347   0.467  0.00  0.00     0.000 A 
ATOM      2  C2  BNZ d   1      -0.235   0.700  -0.305  0.00  0.00     0.000 A 
ATOM      3  C3  BNZ d   1       1.095   1.000  -0.404  0.00  0.00     0.000 A 
ATOM      4  C4  BNZ d   1       1.991   0.279   0.300  0.00  0.00     0.000 A 
ATOM      5  C5  BNZ d   1       1.575  -0.774   1.091  0.00  0.00     0.000 A 
ATOM      6  C6  BNZ d   1       0.240  -1.097   1.157  0.00  0.00     0.000 A 
ENDROOT
TORSDOF 0
ENDMDL
