MODEL 1
REMARK minimizedAffinity -2.52419019
REMARK minimizedRMSD -1
REMARK  0 active torsions:
REMARK  status: ('A' for Active; 'I' for Inactive)
ROOT
ATOM      1  C1  BNZ d   1       1.620  -0.600   0.517  0.00  0.00     0.000 A 
ATOM      2  C2  BNZ d   1       1.661  -0.422   1.874  0.00  0.00     0.000 A 
ATOM      3  C3  BNZ d   1       0.605   0.134   2.540  0.00  0.00     0.000 A 
ATOM      4  C4  BNZ d   1      -0.474   0.547   1.843  0.00  0.00     0.000 A 
ATOM      5  C5  BNZ d   1      -0.527   0.383   0.473  0.00  0.00     0.000 A 
ATOM      6  C6  BNZ d   1       0.523  -0.213  -0.188  0.00  0.00     0.000 A 
ENDROOT
TORSDOF 0
ENDMDL
