MODEL 1
REMARK minimizedAffinity -5.14105654
REMARK minimizedRMSD -1
REMARK  0 active torsions:
REMARK  status: ('A' for Active; 'I' for Inactive)
ROOT
ATOM      1  C1  BNZ d   1      -1.324  -0.067   0.718  0.00  0.00     0.000 A 
ATOM      2  C2  BNZ d   1      -1.522   0.492   1.952  0.00  0.00     0.000 A 
ATOM      3  C3  BNZ d   1      -0.479   0.666   2.817  0.00  0.00     0.000 A 
ATOM      4  C4  BNZ d   1       0.753   0.245   2.464  0.00  0.00     0.000 A 
ATOM      5  C5  BNZ d   1       0.967  -0.330   1.227  0.00  0.00     0.000 A 
ATOM      6  C6  BNZ d   1      -0.078  -0.468   0.343  0.00  0.00     0.000 A 
ENDROOT
TORSDOF 0
ENDMDL
