MODEL 1
REMARK minimizedAffinity 5.67326164
REMARK minimizedRMSD -1
REMARK  1 active torsions:
REMARK  status: ('A' for Active; 'I' for Inactive)
REMARK    1  A    between atoms: C1_2  and  C2_3 
ROOT
ATOM      1  C2  UNL d   1       3.519  -3.553   3.940  0.00  0.00    -0.081 A 
ATOM      2  C3  UNL d   1       3.822  -4.112   5.187  0.00  0.00     0.006 A 
ATOM      3  C4  UNL d   1       2.877  -4.888   5.863  0.00  0.00     0.002 A 
ATOM      4  C5  UNL d   1       1.619  -5.125   5.299  0.00  0.00    -0.080 A 
ATOM      5  C6  UNL d   1       0.607  -5.982   6.000  0.00  0.00     0.076 C 
ATOM      6  C7  UNL d   1       1.310  -4.552   4.061  0.00  0.00     0.002 A 
ATOM      7  C8  UNL d   1       2.254  -3.775   3.385  0.00  0.00     0.006 A 
ENDROOT
BRANCH   1   8
ATOM      8  C1  UNL d   1       4.558  -2.769   3.179  0.00  0.00     0.054 C 
ATOM      9  C   UNL d   1       5.941  -2.945   3.790  0.00  0.00     0.018 C 
ENDBRANCH   1   8
TORSDOF 1
ENDMDL
