MODEL 1
REMARK minimizedAffinity 7.61844254
REMARK minimizedRMSD -1
REMARK  1 active torsions:
REMARK  status: ('A' for Active; 'I' for Inactive)
REMARK    1  A    between atoms: C1_2  and  C2_3 
ROOT
ATOM      1  C2  UNL d   1       2.891  -4.259   4.673  0.00  0.00    -0.081 A 
ATOM      2  C3  UNL d   1       3.950  -3.380   4.415  0.00  0.00     0.006 A 
ATOM      3  C4  UNL d   1       3.813  -2.367   3.463  0.00  0.00     0.002 A 
ATOM      4  C5  UNL d   1       2.614  -2.212   2.759  0.00  0.00    -0.080 A 
ATOM      5  C6  UNL d   1       2.443  -1.110   1.756  0.00  0.00     0.076 C 
ATOM      6  C7  UNL d   1       1.562  -3.102   3.003  0.00  0.00     0.002 A 
ATOM      7  C8  UNL d   1       1.699  -4.115   3.955  0.00  0.00     0.006 A 
ENDROOT
BRANCH   1   8
ATOM      8  C1  UNL d   1       3.013  -5.312   5.745  0.00  0.00     0.054 C 
ATOM      9  C   UNL d   1       1.680  -6.000   5.999  0.00  0.00     0.018 C 
ENDBRANCH   1   8
TORSDOF 1
ENDMDL
