MODEL 1
REMARK minimizedAffinity 6.53425884
REMARK minimizedRMSD -1
REMARK  1 active torsions:
REMARK  status: ('A' for Active; 'I' for Inactive)
REMARK    1  A    between atoms: C1_2  and  C2_3 
ROOT
ATOM      1  C2  UNL d   1       1.785  -4.434   4.786  0.00  0.00    -0.081 A 
ATOM      2  C3  UNL d   1       2.441  -3.234   5.090  0.00  0.00     0.006 A 
ATOM      3  C4  UNL d   1       2.479  -2.193   4.159  0.00  0.00     0.002 A 
ATOM      4  C5  UNL d   1       1.856  -2.331   2.914  0.00  0.00    -0.080 A 
ATOM      5  C6  UNL d   1       1.864  -1.210   1.917  0.00  0.00     0.076 C 
ATOM      6  C7  UNL d   1       1.217  -3.536   2.604  0.00  0.00     0.002 A 
ATOM      7  C8  UNL d   1       1.179  -4.577   3.534  0.00  0.00     0.006 A 
ENDROOT
BRANCH   1   8
ATOM      8  C1  UNL d   1       1.687  -5.534   5.812  0.00  0.00     0.054 C 
ATOM      9  C   UNL d   1       0.247  -5.990   5.998  0.00  0.00     0.018 C 
ENDBRANCH   1   8
TORSDOF 1
ENDMDL
