MODEL 1
REMARK minimizedAffinity 7.77484369
REMARK minimizedRMSD -1
REMARK  1 active torsions:
REMARK  status: ('A' for Active; 'I' for Inactive)
REMARK    1  A    between atoms: C1_2  and  C2_3 
ROOT
ATOM      1  C2  UNL d   1       1.592  -4.491   4.640  0.00  0.00    -0.081 A 
ATOM      2  C3  UNL d   1       2.034  -4.637   3.319  0.00  0.00     0.006 A 
ATOM      3  C4  UNL d   1       2.128  -3.527   2.477  0.00  0.00     0.002 A 
ATOM      4  C5  UNL d   1       1.789  -2.252   2.942  0.00  0.00    -0.080 A 
ATOM      5  C6  UNL d   1       1.913  -1.048   2.057  0.00  0.00     0.076 C 
ATOM      6  C7  UNL d   1       1.330  -2.108   4.256  0.00  0.00     0.002 A 
ATOM      7  C8  UNL d   1       1.236  -3.218   5.099  0.00  0.00     0.006 A 
ENDROOT
BRANCH   1   8
ATOM      8  C1  UNL d   1       1.551  -5.676   5.570  0.00  0.00     0.054 C 
ATOM      9  C   UNL d   1       0.126  -5.997   5.996  0.00  0.00     0.018 C 
ENDBRANCH   1   8
TORSDOF 1
ENDMDL
