MODEL 1
REMARK minimizedAffinity 1.33650804
REMARK minimizedRMSD -1
REMARK  1 active torsions:
REMARK  status: ('A' for Active; 'I' for Inactive)
REMARK    1  A    between atoms: C1_2  and  C2_3 
ROOT
ATOM      1  C2  UNL d   1       1.498  -3.991   4.819  0.00  0.00    -0.081 A 
ATOM      2  C3  UNL d   1       1.872  -4.482   3.563  0.00  0.00     0.006 A 
ATOM      3  C4  UNL d   1       2.057  -3.609   2.488  0.00  0.00     0.002 A 
ATOM      4  C5  UNL d   1       1.878  -2.232   2.653  0.00  0.00    -0.080 A 
ATOM      5  C6  UNL d   1       2.102  -1.281   1.514  0.00  0.00     0.076 C 
ATOM      6  C7  UNL d   1       1.487  -1.743   3.904  0.00  0.00     0.002 A 
ATOM      7  C8  UNL d   1       1.301  -2.615   4.979  0.00  0.00     0.006 A 
ENDROOT
BRANCH   1   8
ATOM      8  C1  UNL d   1       1.361  -4.922   5.997  0.00  0.00     0.054 C 
ATOM      9  C   UNL d   1       0.005  -5.615   6.000  0.00  0.00     0.018 C 
ENDBRANCH   1   8
TORSDOF 1
ENDMDL
