MODEL 1
REMARK minimizedAffinity -0.586465895
REMARK minimizedRMSD -1
REMARK  1 active torsions:
REMARK  status: ('A' for Active; 'I' for Inactive)
REMARK    1  A    between atoms: C1_2  and  C2_3 
ROOT
ATOM      1  C2  UNL d   1       3.515  -5.999  -4.062  0.00  0.00    -0.081 A 
ATOM      2  C3  UNL d   1       2.517  -5.997  -3.079  0.00  0.00     0.006 A 
ATOM      3  C4  UNL d   1       2.857  -5.969  -1.725  0.00  0.00     0.002 A 
ATOM      4  C5  UNL d   1       4.199  -5.934  -1.331  0.00  0.00    -0.080 A 
ATOM      5  C6  UNL d   1       4.577  -5.872   0.120  0.00  0.00     0.076 C 
ATOM      6  C7  UNL d   1       5.196  -5.953  -2.312  0.00  0.00     0.002 A 
ATOM      7  C8  UNL d   1       4.857  -5.982  -3.666  0.00  0.00     0.006 A 
ENDROOT
BRANCH   1   8
ATOM      8  C1  UNL d   1       3.151  -5.964  -5.524  0.00  0.00     0.054 C 
ATOM      9  C   UNL d   1       1.642  -5.899  -5.717  0.00  0.00     0.018 C 
ENDBRANCH   1   8
TORSDOF 1
ENDMDL
