MODEL 1
REMARK minimizedAffinity 8.93000603
REMARK minimizedRMSD -1
REMARK  1 active torsions:
REMARK  status: ('A' for Active; 'I' for Inactive)
REMARK    1  A    between atoms: C1_2  and  C2_3 
ROOT
ATOM      1  C2  UNL d   1       2.408   0.274   2.152  0.00  0.00    -0.081 A 
ATOM      2  C3  UNL d   1       2.519  -0.329   3.411  0.00  0.00     0.006 A 
ATOM      3  C4  UNL d   1       2.059  -1.632   3.615  0.00  0.00     0.002 A 
ATOM      4  C5  UNL d   1       1.488  -2.356   2.564  0.00  0.00    -0.080 A 
ATOM      5  C6  UNL d   1       1.018  -3.767   2.763  0.00  0.00     0.076 C 
ATOM      6  C7  UNL d   1       1.361  -1.749   1.310  0.00  0.00     0.002 A 
ATOM      7  C8  UNL d   1       1.821  -0.446   1.105  0.00  0.00     0.006 A 
ENDROOT
BRANCH   1   8
ATOM      8  C1  UNL d   1       2.962   1.655   1.911  0.00  0.00     0.054 C 
ATOM      9  C   UNL d   1       3.298   1.868   0.442  0.00  0.00     0.018 C 
ENDBRANCH   1   8
TORSDOF 1
ENDMDL
