MODEL 1
REMARK minimizedAffinity -4.93017817
REMARK minimizedRMSD -1
REMARK  1 active torsions:
REMARK  status: ('A' for Active; 'I' for Inactive)
REMARK    1  A    between atoms: C1_2  and  C2_3 
ROOT
ATOM      1  C2  UNL d   1       0.021   0.504   0.805  0.00  0.00    -0.077 A 
ATOM      2  C3  UNL d   1      -0.048   1.145   2.050  0.00  0.00     0.002 A 
ATOM      3  C4  UNL d   1      -1.246   1.169   2.766  0.00  0.00     0.002 A 
ATOM      4  C5  UNL d   1      -2.382   0.551   2.248  0.00  0.00    -0.004 A 
ATOM      5  C6  UNL d   1      -2.324  -0.087   1.009  0.00  0.00     0.002 A 
ATOM      6  C7  UNL d   1      -1.128  -0.111   0.292  0.00  0.00     0.002 A 
ENDROOT
BRANCH   1   7
ATOM      7  C1  UNL d   1       1.325   0.434   0.054  0.00  0.00     0.055 C 
ATOM      8  C   UNL d   1       1.095   0.243  -1.438  0.00  0.00     0.019 C 
ENDBRANCH   1   7
TORSDOF 1
ENDMDL
