MODEL 1
REMARK minimizedAffinity -4.26512098
REMARK minimizedRMSD -1
REMARK  1 active torsions:
REMARK  status: ('A' for Active; 'I' for Inactive)
REMARK    1  A    between atoms: C1_2  and  C2_3 
ROOT
ATOM      1  C2  UNL d   1       0.893  -0.677  -1.458  0.00  0.00    -0.077 A 
ATOM      2  C3  UNL d   1       0.091   0.060  -0.575  0.00  0.00     0.002 A 
ATOM      3  C4  UNL d   1       0.408   0.121   0.783  0.00  0.00     0.002 A 
ATOM      4  C5  UNL d   1       1.528  -0.549   1.270  0.00  0.00    -0.004 A 
ATOM      5  C6  UNL d   1       2.331  -1.286   0.400  0.00  0.00     0.002 A 
ATOM      6  C7  UNL d   1       2.016  -1.349  -0.958  0.00  0.00     0.002 A 
ENDROOT
BRANCH   1   7
ATOM      7  C1  UNL d   1       0.581  -0.704  -2.932  0.00  0.00     0.055 C 
ATOM      8  C   UNL d   1       0.944   0.615  -3.598  0.00  0.00     0.019 C 
ENDBRANCH   1   7
TORSDOF 1
ENDMDL
