MODEL 1
REMARK minimizedAffinity -2.73890018
REMARK minimizedRMSD -1
REMARK  1 active torsions:
REMARK  status: ('A' for Active; 'I' for Inactive)
REMARK    1  A    between atoms: C1_2  and  C2_3 
ROOT
ATOM      1  C2  UNL d   1       0.410  -0.294  -0.776  0.00  0.00    -0.077 A 
ATOM      2  C3  UNL d   1      -0.387   0.640  -0.100  0.00  0.00     0.002 A 
ATOM      3  C4  UNL d   1      -0.114   0.970   1.230  0.00  0.00     0.002 A 
ATOM      4  C5  UNL d   1       0.957   0.374   1.891  0.00  0.00    -0.004 A 
ATOM      5  C6  UNL d   1       1.754  -0.558   1.227  0.00  0.00     0.002 A 
ATOM      6  C7  UNL d   1       1.482  -0.889  -0.101  0.00  0.00     0.002 A 
ENDROOT
BRANCH   1   7
ATOM      7  C1  UNL d   1       0.147  -0.614  -2.225  0.00  0.00     0.055 C 
ATOM      8  C   UNL d   1       0.947   0.295  -3.146  0.00  0.00     0.019 C 
ENDBRANCH   1   7
TORSDOF 1
ENDMDL
