MODEL 1
REMARK minimizedAffinity -0.611822724
REMARK minimizedRMSD -1
REMARK  1 active torsions:
REMARK  status: ('A' for Active; 'I' for Inactive)
REMARK    1  A    between atoms: C1_2  and  C2_3 
ROOT
ATOM      1  C2  UNL d   1       0.595   0.135  -1.987  0.00  0.00    -0.077 A 
ATOM      2  C3  UNL d   1       1.656   1.042  -2.118  0.00  0.00     0.002 A 
ATOM      3  C4  UNL d   1       1.907   1.664  -3.343  0.00  0.00     0.002 A 
ATOM      4  C5  UNL d   1       1.100   1.387  -4.445  0.00  0.00    -0.004 A 
ATOM      5  C6  UNL d   1       0.044   0.484  -4.325  0.00  0.00     0.002 A 
ATOM      6  C7  UNL d   1      -0.208  -0.139  -3.102  0.00  0.00     0.002 A 
ENDROOT
BRANCH   1   7
ATOM      7  C1  UNL d   1       0.293  -0.499  -0.655  0.00  0.00     0.055 C 
ATOM      8  C   UNL d   1      -1.109  -0.146  -0.179  0.00  0.00     0.019 C 
ENDBRANCH   1   7
TORSDOF 1
ENDMDL
