MODEL 1
REMARK minimizedAffinity -2.70917678
REMARK minimizedRMSD -1
REMARK  1 active torsions:
REMARK  status: ('A' for Active; 'I' for Inactive)
REMARK    1  A    between atoms: C1_2  and  C2_3 
ROOT
ATOM      1  C2  UNL d   1      -1.045  -0.096   1.087  0.00  0.00    -0.077 A 
ATOM      2  C3  UNL d   1      -0.067   0.779   0.592  0.00  0.00     0.002 A 
ATOM      3  C4  UNL d   1       0.272   1.932   1.302  0.00  0.00     0.002 A 
ATOM      4  C5  UNL d   1      -0.358   2.220   2.510  0.00  0.00    -0.004 A 
ATOM      5  C6  UNL d   1      -1.333   1.358   3.009  0.00  0.00     0.002 A 
ATOM      6  C7  UNL d   1      -1.675   0.205   2.301  0.00  0.00     0.002 A 
ENDROOT
BRANCH   1   7
ATOM      7  C1  UNL d   1      -1.378  -1.366   0.348  0.00  0.00     0.055 C 
ATOM      8  C   UNL d   1      -0.124  -2.029  -0.204  0.00  0.00     0.019 C 
ENDBRANCH   1   7
TORSDOF 1
ENDMDL
