MODEL 1
REMARK minimizedAffinity -3.57880211
REMARK minimizedRMSD -1
REMARK  1 active torsions:
REMARK  status: ('A' for Active; 'I' for Inactive)
REMARK    1  A    between atoms: C1_2  and  C2_3 
ROOT
ATOM      1  C2  UNL d   1       0.712   0.091  -1.431  0.00  0.00    -0.077 A 
ATOM      2  C3  UNL d   1       0.383   1.307  -0.816  0.00  0.00     0.002 A 
ATOM      3  C4  UNL d   1       0.209   1.374   0.568  0.00  0.00     0.002 A 
ATOM      4  C5  UNL d   1       0.366   0.230   1.348  0.00  0.00    -0.004 A 
ATOM      5  C6  UNL d   1       0.691  -0.984   0.745  0.00  0.00     0.002 A 
ATOM      6  C7  UNL d   1       0.864  -1.053  -0.638  0.00  0.00     0.002 A 
ENDROOT
BRANCH   1   7
ATOM      7  C1  UNL d   1       0.949   0.027  -2.918  0.00  0.00     0.055 C 
ATOM      8  C   UNL d   1       2.001   1.036  -3.355  0.00  0.00     0.019 C 
ENDBRANCH   1   7
TORSDOF 1
ENDMDL
