MODEL 1
REMARK minimizedAffinity -3.26178575
REMARK minimizedRMSD -1
REMARK  1 active torsions:
REMARK  status: ('A' for Active; 'I' for Inactive)
REMARK    1  A    between atoms: C3_4  and  O_7 
ROOT
ATOM      1  C   UNL d   1      -0.499  -0.985  -0.004  0.00  0.00    -0.033 A 
ATOM      2  C1  UNL d   1       0.308  -0.005   0.577  0.00  0.00     0.039 A 
ATOM      3  C2  UNL d   1       1.614   0.187   0.122  0.00  0.00    -0.080 A 
ATOM      4  C3  UNL d   1       2.100  -0.605  -0.915  0.00  0.00     0.150 A 
ATOM      5  C4  UNL d   1       1.300  -1.581  -1.501  0.00  0.00    -0.007 A 
ATOM      6  C5  UNL d   1      -0.003  -1.772  -1.045  0.00  0.00     0.039 A 
ENDROOT
BRANCH   4   7
ATOM      7  O   UNL d   1       3.369  -0.458  -1.390  0.00  0.00    -0.526 OA
ATOM      8  H5  UNL d   1       3.814   0.233  -0.871  0.00  0.00     0.418 HD
ENDBRANCH   4   7
TORSDOF 1
ENDMDL
