MODEL 1
REMARK minimizedAffinity -3.99678397
REMARK minimizedRMSD -1
REMARK  1 active torsions:
REMARK  status: ('A' for Active; 'I' for Inactive)
REMARK    1  A    between atoms: C3_4  and  O_7 
ROOT
ATOM      1  C   UNL d   1      -0.390   1.774  -0.714  0.00  0.00    -0.033 A 
ATOM      2  C1  UNL d   1       0.922   1.311  -0.833  0.00  0.00     0.039 A 
ATOM      3  C2  UNL d   1       1.267   0.052  -0.338  0.00  0.00    -0.080 A 
ATOM      4  C3  UNL d   1       0.293  -0.734   0.271  0.00  0.00     0.150 A 
ATOM      5  C4  UNL d   1      -1.017  -0.281   0.389  0.00  0.00    -0.007 A 
ATOM      6  C5  UNL d   1      -1.360   0.977  -0.105  0.00  0.00     0.039 A 
ENDROOT
BRANCH   4   7
ATOM      7  O   UNL d   1       0.583  -1.968   0.773  0.00  0.00    -0.526 OA
ATOM      8  H5  UNL d   1       1.532  -2.136   0.646  0.00  0.00     0.418 HD
ENDBRANCH   4   7
TORSDOF 1
ENDMDL
