MODEL 1
REMARK minimizedAffinity -4.63579035
REMARK minimizedRMSD -1
REMARK  1 active torsions:
REMARK  status: ('A' for Active; 'I' for Inactive)
REMARK    1  A    between atoms: C3_4  and  O_7 
ROOT
ATOM      1  C   UNL d   1       0.842  -0.482   1.149  0.00  0.00    -0.033 A 
ATOM      2  C1  UNL d   1      -0.489  -0.302   0.768  0.00  0.00     0.039 A 
ATOM      3  C2  UNL d   1      -0.810   0.599  -0.249  0.00  0.00    -0.080 A 
ATOM      4  C3  UNL d   1       0.208   1.312  -0.877  0.00  0.00     0.150 A 
ATOM      5  C4  UNL d   1       1.536   1.134  -0.505  0.00  0.00    -0.007 A 
ATOM      6  C5  UNL d   1       1.855   0.235   0.511  0.00  0.00     0.039 A 
ENDROOT
BRANCH   4   7
ATOM      7  O   UNL d   1      -0.058   2.206  -1.871  0.00  0.00    -0.526 OA
ATOM      8  H5  UNL d   1      -1.020   2.245  -2.001  0.00  0.00     0.418 HD
ENDBRANCH   4   7
TORSDOF 1
ENDMDL
