MODEL 1
REMARK minimizedAffinity -2.14111805
REMARK minimizedRMSD -1
REMARK  1 active torsions:
REMARK  status: ('A' for Active; 'I' for Inactive)
REMARK    1  A    between atoms: C3_4  and  O_7 
ROOT
ATOM      1  C   UNL d   1      -1.429   1.475  -0.355  0.00  0.00    -0.033 A 
ATOM      2  C1  UNL d   1      -1.857   0.515   0.564  0.00  0.00     0.039 A 
ATOM      3  C2  UNL d   1      -0.995  -0.510   0.957  0.00  0.00    -0.080 A 
ATOM      4  C3  UNL d   1       0.291  -0.563   0.427  0.00  0.00     0.150 A 
ATOM      5  C4  UNL d   1       0.725   0.392  -0.486  0.00  0.00    -0.007 A 
ATOM      6  C5  UNL d   1      -0.138   1.415  -0.879  0.00  0.00     0.039 A 
ENDROOT
BRANCH   4   7
ATOM      7  O   UNL d   1       1.166  -1.548   0.777  0.00  0.00    -0.526 OA
ATOM      8  H5  UNL d   1       0.719  -2.152   1.393  0.00  0.00     0.418 HD
ENDBRANCH   4   7
TORSDOF 1
ENDMDL
