MODEL 1
REMARK minimizedAffinity -5.14874983
REMARK minimizedRMSD -1
REMARK  1 active torsions:
REMARK  status: ('A' for Active; 'I' for Inactive)
REMARK    1  A    between atoms: C3_4  and  O_7 
ROOT
ATOM      1  C   UNL d   1      -0.120  -0.726   0.461  0.00  0.00    -0.033 A 
ATOM      2  C1  UNL d   1       0.316  -1.851  -0.242  0.00  0.00     0.039 A 
ATOM      3  C2  UNL d   1       1.514  -1.808  -0.958  0.00  0.00    -0.080 A 
ATOM      4  C3  UNL d   1       2.266  -0.636  -0.962  0.00  0.00     0.150 A 
ATOM      5  C4  UNL d   1       1.840   0.487  -0.261  0.00  0.00    -0.007 A 
ATOM      6  C5  UNL d   1       0.643   0.442   0.453  0.00  0.00     0.039 A 
ENDROOT
BRANCH   4   7
ATOM      7  O   UNL d   1       3.439  -0.545  -1.650  0.00  0.00    -0.526 OA
ATOM      8  H5  UNL d   1       3.593  -1.388  -2.110  0.00  0.00     0.418 HD
ENDBRANCH   4   7
TORSDOF 1
ENDMDL
