MODEL 1
REMARK minimizedAffinity -5.07904434
REMARK minimizedRMSD -1
REMARK  1 active torsions:
REMARK  status: ('A' for Active; 'I' for Inactive)
REMARK    1  A    between atoms: C3_4  and  O_7 
ROOT
ATOM      1  C   UNL d   1       2.721   0.166  -2.258  0.00  0.00    -0.033 A 
ATOM      2  C1  UNL d   1       1.938   1.322  -2.278  0.00  0.00     0.039 A 
ATOM      3  C2  UNL d   1       0.841   1.439  -1.422  0.00  0.00    -0.080 A 
ATOM      4  C3  UNL d   1       0.538   0.395  -0.553  0.00  0.00     0.150 A 
ATOM      5  C4  UNL d   1       1.317  -0.758  -0.525  0.00  0.00    -0.007 A 
ATOM      6  C5  UNL d   1       2.411  -0.873  -1.381  0.00  0.00     0.039 A 
ENDROOT
BRANCH   4   7
ATOM      7  O   UNL d   1      -0.525   0.461   0.298  0.00  0.00    -0.526 OA
ATOM      8  H5  UNL d   1      -0.988   1.302   0.147  0.00  0.00     0.418 HD
ENDBRANCH   4   7
TORSDOF 1
ENDMDL
