MODEL 1
REMARK minimizedAffinity -4.14776039
REMARK minimizedRMSD -1
REMARK  1 active torsions:
REMARK  status: ('A' for Active; 'I' for Inactive)
REMARK    1  A    between atoms: C3_4  and  O_7 
ROOT
ATOM      1  C   UNL d   1       1.644  -1.524  -0.684  0.00  0.00    -0.033 A 
ATOM      2  C1  UNL d   1       0.543  -0.865  -0.133  0.00  0.00     0.039 A 
ATOM      3  C2  UNL d   1       0.107   0.345  -0.677  0.00  0.00    -0.080 A 
ATOM      4  C3  UNL d   1       0.779   0.884  -1.771  0.00  0.00     0.150 A 
ATOM      5  C4  UNL d   1       1.875   0.231  -2.326  0.00  0.00    -0.007 A 
ATOM      6  C5  UNL d   1       2.309  -0.976  -1.781  0.00  0.00     0.039 A 
ENDROOT
BRANCH   4   7
ATOM      7  O   UNL d   1       0.394   2.065  -2.333  0.00  0.00    -0.526 OA
ATOM      8  H5  UNL d   1      -0.358   2.416  -1.827  0.00  0.00     0.418 HD
ENDBRANCH   4   7
TORSDOF 1
ENDMDL
