MODEL 1
REMARK minimizedAffinity -5.40963936
REMARK minimizedRMSD -1
REMARK  1 active torsions:
REMARK  status: ('A' for Active; 'I' for Inactive)
REMARK    1  A    between atoms: C3_4  and  O_7 
ROOT
ATOM      1  C   UNL d   1       3.027  -0.619  -2.124  0.00  0.00    -0.033 A 
ATOM      2  C1  UNL d   1       2.116  -1.626  -1.802  0.00  0.00     0.039 A 
ATOM      3  C2  UNL d   1       0.986  -1.330  -1.038  0.00  0.00    -0.080 A 
ATOM      4  C3  UNL d   1       0.778  -0.023  -0.604  0.00  0.00     0.150 A 
ATOM      5  C4  UNL d   1       1.680   0.986  -0.925  0.00  0.00    -0.007 A 
ATOM      6  C5  UNL d   1       2.808   0.688  -1.687  0.00  0.00     0.039 A 
ENDROOT
BRANCH   4   7
ATOM      7  O   UNL d   1      -0.308   0.314   0.148  0.00  0.00    -0.526 OA
ATOM      8  H5  UNL d   1      -0.828  -0.490   0.315  0.00  0.00     0.418 HD
ENDBRANCH   4   7
TORSDOF 1
ENDMDL
