MODEL 1
REMARK minimizedAffinity -4.34934425
REMARK minimizedRMSD -1
REMARK  1 active torsions:
REMARK  status: ('A' for Active; 'I' for Inactive)
REMARK    1  A    between atoms: C3_4  and  O_7 
ROOT
ATOM      1  C   UNL d   1       0.721   1.818  -1.204  0.00  0.00    -0.033 A 
ATOM      2  C1  UNL d   1      -0.591   1.545  -0.814  0.00  0.00     0.039 A 
ATOM      3  C2  UNL d   1      -0.918   0.296  -0.284  0.00  0.00    -0.080 A 
ATOM      4  C3  UNL d   1       0.076  -0.670  -0.148  0.00  0.00     0.150 A 
ATOM      5  C4  UNL d   1       1.386  -0.404  -0.532  0.00  0.00    -0.007 A 
ATOM      6  C5  UNL d   1       1.710   0.845  -1.062  0.00  0.00     0.039 A 
ENDROOT
BRANCH   4   7
ATOM      7  O   UNL d   1      -0.196  -1.906   0.359  0.00  0.00    -0.526 OA
ATOM      8  H5  UNL d   1      -1.147  -1.956   0.554  0.00  0.00     0.418 HD
ENDBRANCH   4   7
TORSDOF 1
ENDMDL
