MODEL 1
REMARK minimizedAffinity -4.16559649
REMARK minimizedRMSD -1
REMARK  1 active torsions:
REMARK  status: ('A' for Active; 'I' for Inactive)
REMARK    1  A    between atoms: C3_4  and  O_7 
ROOT
ATOM      1  C   UNL d   1       0.773   0.924   0.064  0.00  0.00    -0.033 A 
ATOM      2  C1  UNL d   1       0.052  -0.232   0.370  0.00  0.00     0.039 A 
ATOM      3  C2  UNL d   1       0.370  -1.441  -0.253  0.00  0.00    -0.080 A 
ATOM      4  C3  UNL d   1       1.409  -1.479  -1.179  0.00  0.00     0.150 A 
ATOM      5  C4  UNL d   1       2.134  -0.332  -1.486  0.00  0.00    -0.007 A 
ATOM      6  C5  UNL d   1       1.814   0.874  -0.863  0.00  0.00     0.039 A 
ENDROOT
BRANCH   4   7
ATOM      7  O   UNL d   1       1.753  -2.634  -1.817  0.00  0.00    -0.526 OA
ATOM      8  H5  UNL d   1       1.148  -3.338  -1.527  0.00  0.00     0.418 HD
ENDBRANCH   4   7
TORSDOF 1
ENDMDL
