MODEL 1
REMARK minimizedAffinity -4.43210888
REMARK minimizedRMSD -1
REMARK  1 active torsions:
REMARK  status: ('A' for Active; 'I' for Inactive)
REMARK    1  A    between atoms: C3_4  and  O_7 
ROOT
ATOM      1  C   UNL d   1       1.702  -0.020  -1.330  0.00  0.00    -0.033 A 
ATOM      2  C1  UNL d   1       1.299  -1.246  -0.796  0.00  0.00     0.039 A 
ATOM      3  C2  UNL d   1       0.154  -1.320   0.000  0.00  0.00    -0.080 A 
ATOM      4  C3  UNL d   1      -0.578  -0.163   0.253  0.00  0.00     0.150 A 
ATOM      5  C4  UNL d   1      -0.185   1.061  -0.279  0.00  0.00    -0.007 A 
ATOM      6  C5  UNL d   1       0.959   1.133  -1.073  0.00  0.00     0.039 A 
ENDROOT
BRANCH   4   7
ATOM      7  O   UNL d   1      -1.700  -0.185   1.028  0.00  0.00    -0.526 OA
ATOM      8  H5  UNL d   1      -1.834  -1.092   1.350  0.00  0.00     0.418 HD
ENDBRANCH   4   7
TORSDOF 1
ENDMDL
