MODEL 1
REMARK minimizedAffinity -4.97835159
REMARK minimizedRMSD -1
REMARK  1 active torsions:
REMARK  status: ('A' for Active; 'I' for Inactive)
REMARK    1  A    between atoms: C3_4  and  O_7 
ROOT
ATOM      1  C   UNL d   1       2.890  -0.667  -1.855  0.00  0.00    -0.033 A 
ATOM      2  C1  UNL d   1       2.099   0.439  -2.174  0.00  0.00     0.039 A 
ATOM      3  C2  UNL d   1       0.958   0.724  -1.422  0.00  0.00    -0.080 A 
ATOM      4  C3  UNL d   1       0.620  -0.103  -0.354  0.00  0.00     0.150 A 
ATOM      5  C4  UNL d   1       1.406  -1.203  -0.027  0.00  0.00    -0.007 A 
ATOM      6  C5  UNL d   1       2.544  -1.487  -0.781  0.00  0.00     0.039 A 
ENDROOT
BRANCH   4   7
ATOM      7  O   UNL d   1      -0.487   0.133   0.407  0.00  0.00    -0.526 OA
ATOM      8  H5  UNL d   1      -0.948   0.909   0.047  0.00  0.00     0.418 HD
ENDBRANCH   4   7
TORSDOF 1
ENDMDL
