MODEL 1
REMARK minimizedAffinity -5.80794954
REMARK minimizedRMSD -1
REMARK  1 active torsions:
REMARK  status: ('A' for Active; 'I' for Inactive)
REMARK    1  A    between atoms: C3_4  and  O_7 
ROOT
ATOM      1  C   UNL d   1       2.396   0.668  -2.507  0.00  0.00    -0.033 A 
ATOM      2  C1  UNL d   1       1.484   1.716  -2.369  0.00  0.00     0.039 A 
ATOM      3  C2  UNL d   1       0.514   1.673  -1.365  0.00  0.00    -0.080 A 
ATOM      4  C3  UNL d   1       0.469   0.578  -0.506  0.00  0.00     0.150 A 
ATOM      5  C4  UNL d   1       1.378  -0.467  -0.634  0.00  0.00    -0.007 A 
ATOM      6  C5  UNL d   1       2.344  -0.423  -1.638  0.00  0.00     0.039 A 
ENDROOT
BRANCH   4   7
ATOM      7  O   UNL d   1      -0.461   0.490   0.486  0.00  0.00    -0.526 OA
ATOM      8  H5  UNL d   1      -1.040   1.269   0.437  0.00  0.00     0.418 HD
ENDBRANCH   4   7
TORSDOF 1
ENDMDL
