MODEL 1
REMARK minimizedAffinity -2.08623099
REMARK minimizedRMSD -1
REMARK  1 active torsions:
REMARK  status: ('A' for Active; 'I' for Inactive)
REMARK    1  A    between atoms: C3_4  and  O_7 
ROOT
ATOM      1  C   UNL d   1      -2.459   1.065   3.329  0.00  0.00    -0.033 A 
ATOM      2  C1  UNL d   1      -2.716  -0.045   2.523  0.00  0.00     0.039 A 
ATOM      3  C2  UNL d   1      -1.981  -0.247   1.354  0.00  0.00    -0.080 A 
ATOM      4  C3  UNL d   1      -0.992   0.667   1.002  0.00  0.00     0.150 A 
ATOM      5  C4  UNL d   1      -0.727   1.773   1.803  0.00  0.00    -0.007 A 
ATOM      6  C5  UNL d   1      -1.463   1.974   2.970  0.00  0.00     0.039 A 
ENDROOT
BRANCH   4   7
ATOM      7  O   UNL d   1      -0.251   0.515  -0.132  0.00  0.00    -0.526 OA
ATOM      8  H5  UNL d   1      -0.564  -0.278  -0.600  0.00  0.00     0.418 HD
ENDBRANCH   4   7
TORSDOF 1
ENDMDL
