MODEL 1
REMARK minimizedAffinity -5.62330008
REMARK minimizedRMSD -1
REMARK  1 active torsions:
REMARK  status: ('A' for Active; 'I' for Inactive)
REMARK    1  A    between atoms: C3_4  and  O_7 
ROOT
ATOM      1  C   UNL d   1      -0.743  -0.738  -0.081  0.00  0.00    -0.033 A 
ATOM      2  C1  UNL d   1      -0.125   0.514  -0.079  0.00  0.00     0.039 A 
ATOM      3  C2  UNL d   1       1.216   0.633  -0.449  0.00  0.00    -0.080 A 
ATOM      4  C3  UNL d   1       1.927  -0.506  -0.819  0.00  0.00     0.150 A 
ATOM      5  C4  UNL d   1       1.316  -1.755  -0.827  0.00  0.00    -0.007 A 
ATOM      6  C5  UNL d   1      -0.023  -1.872  -0.456  0.00  0.00     0.039 A 
ENDROOT
BRANCH   4   7
ATOM      7  O   UNL d   1       3.239  -0.440  -1.183  0.00  0.00    -0.526 OA
ATOM      8  H5  UNL d   1       3.535   0.482  -1.102  0.00  0.00     0.418 HD
ENDBRANCH   4   7
TORSDOF 1
ENDMDL
