MODEL 1
REMARK minimizedAffinity -5.42870903
REMARK minimizedRMSD -1
REMARK  1 active torsions:
REMARK  status: ('A' for Active; 'I' for Inactive)
REMARK    1  A    between atoms: C3_4  and  O_7 
ROOT
ATOM      1  C   UNL d   1      -0.594  -0.848  -0.120  0.00  0.00    -0.033 A 
ATOM      2  C1  UNL d   1       0.010  -1.877  -0.846  0.00  0.00     0.039 A 
ATOM      3  C2  UNL d   1       1.344  -1.763  -1.242  0.00  0.00    -0.080 A 
ATOM      4  C3  UNL d   1       2.062  -0.618  -0.908  0.00  0.00     0.150 A 
ATOM      5  C4  UNL d   1       1.467   0.409  -0.182  0.00  0.00    -0.007 A 
ATOM      6  C5  UNL d   1       0.135   0.294   0.213  0.00  0.00     0.039 A 
ENDROOT
BRANCH   4   7
ATOM      7  O   UNL d   1       3.364  -0.460  -1.277  0.00  0.00    -0.526 OA
ATOM      8  H5  UNL d   1       3.633  -1.236  -1.797  0.00  0.00     0.418 HD
ENDBRANCH   4   7
TORSDOF 1
ENDMDL
