MODEL 1
REMARK minimizedAffinity -5.59168148
REMARK minimizedRMSD -1
REMARK  1 active torsions:
REMARK  status: ('A' for Active; 'I' for Inactive)
REMARK    1  A    between atoms: C3_4  and  O_7 
ROOT
ATOM      1  C   UNL d   1      -0.602  -0.117   0.050  0.00  0.00    -0.033 A 
ATOM      2  C1  UNL d   1       0.286   0.960   0.031  0.00  0.00     0.039 A 
ATOM      3  C2  UNL d   1       1.609   0.769  -0.372  0.00  0.00    -0.080 A 
ATOM      4  C3  UNL d   1       2.031  -0.501  -0.755  0.00  0.00     0.150 A 
ATOM      5  C4  UNL d   1       1.150  -1.578  -0.742  0.00  0.00    -0.007 A 
ATOM      6  C5  UNL d   1      -0.170  -1.386  -0.338  0.00  0.00     0.039 A 
ENDROOT
BRANCH   4   7
ATOM      7  O   UNL d   1       3.314  -0.737  -1.151  0.00  0.00    -0.526 OA
ATOM      8  H5  UNL d   1       3.815   0.092  -1.082  0.00  0.00     0.418 HD
ENDBRANCH   4   7
TORSDOF 1
ENDMDL
