MODEL 1
REMARK minimizedAffinity 7.97025728
REMARK minimizedRMSD -1
REMARK  2 active torsions:
REMARK  status: ('A' for Active; 'I' for Inactive)
REMARK    1  A    between atoms: C2'_3  and  C1'_4 
REMARK    2  A    between atoms: C1'_4  and  C1_5 
ROOT
ATOM      1  C1  I4B d   1      -0.512   1.896   2.435  0.00  0.00    -0.075 A 
ATOM      2  C2  I4B d   1      -1.060   2.959   1.762  0.00  0.00     0.003 A 
ATOM      3  C3  I4B d   1      -0.250   4.055   1.379  0.00  0.00     0.002 A 
ATOM      4  C4  I4B d   1       1.084   4.070   1.731  0.00  0.00    -0.004 A 
ATOM      5  C5  I4B d   1       1.644   2.981   2.394  0.00  0.00     0.002 A 
ATOM      6  C6  I4B d   1       0.844   1.881   2.737  0.00  0.00     0.003 A 
ENDROOT
BRANCH   1   7
ATOM      7  C1' I4B d   1      -1.403   0.770   2.853  0.00  0.00     0.060 C 
BRANCH   7   8
ATOM      8  C2' I4B d   1      -1.148  -0.398   1.922  0.00  0.00    -0.013 C 
ATOM      9  C4' I4B d   1      -0.593  -1.581   2.670  0.00  0.00     0.013 C 
ATOM     10  C3' I4B d   1      -2.442  -0.742   1.247  0.00  0.00     0.013 C 
ENDBRANCH   7   8
ENDBRANCH   1   7
TORSDOF 2
ENDMDL
