MODEL 1
REMARK minimizedAffinity 12.0920553
REMARK minimizedRMSD -1
REMARK  2 active torsions:
REMARK  status: ('A' for Active; 'I' for Inactive)
REMARK    1  A    between atoms: C2'_3  and  C1'_4 
REMARK    2  A    between atoms: C1'_4  and  C1_5 
ROOT
ATOM      1  C1  I4B d   1       3.621  -4.410   0.147  0.00  0.00    -0.075 A 
ATOM      2  C2  I4B d   1       3.574  -5.509  -0.674  0.00  0.00     0.003 A 
ATOM      3  C3  I4B d   1       4.758  -6.000  -1.277  0.00  0.00     0.002 A 
ATOM      4  C4  I4B d   1       5.950  -5.336  -1.073  0.00  0.00    -0.004 A 
ATOM      5  C5  I4B d   1       6.000  -4.236  -0.221  0.00  0.00     0.002 A 
ATOM      6  C6  I4B d   1       4.831  -3.777   0.402  0.00  0.00     0.003 A 
ENDROOT
BRANCH   1   7
ATOM      7  C1' I4B d   1       2.347  -3.899   0.741  0.00  0.00     0.060 C 
BRANCH   7   8
ATOM      8  C2' I4B d   1       2.565  -2.454   1.140  0.00  0.00    -0.013 C 
ATOM      9  C4' I4B d   1       1.259  -1.770   1.448  0.00  0.00     0.013 C 
ATOM     10  C3' I4B d   1       3.479  -2.434   2.328  0.00  0.00     0.013 C 
ENDBRANCH   7   8
ENDBRANCH   1   7
TORSDOF 2
ENDMDL
