MODEL 1
REMARK minimizedAffinity 10.2461615
REMARK minimizedRMSD -1
REMARK  2 active torsions:
REMARK  status: ('A' for Active; 'I' for Inactive)
REMARK    1  A    between atoms: C2'_3  and  C1'_4 
REMARK    2  A    between atoms: C1'_4  and  C1_5 
ROOT
ATOM      1  C1  I4B d   1       4.457  -3.828   3.006  0.00  0.00    -0.075 A 
ATOM      2  C2  I4B d   1       5.212  -4.947   3.251  0.00  0.00     0.003 A 
ATOM      3  C3  I4B d   1       5.970  -5.049   4.443  0.00  0.00     0.002 A 
ATOM      4  C4  I4B d   1       5.983  -3.994   5.332  0.00  0.00    -0.004 A 
ATOM      5  C5  I4B d   1       5.199  -2.870   5.093  0.00  0.00     0.002 A 
ATOM      6  C6  I4B d   1       4.421  -2.790   3.929  0.00  0.00     0.003 A 
ENDROOT
BRANCH   1   7
ATOM      7  C1' I4B d   1       3.695  -3.739   1.722  0.00  0.00     0.060 C 
BRANCH   7   8
ATOM      8  C2' I4B d   1       2.550  -2.767   1.924  0.00  0.00    -0.013 C 
ATOM      9  C4' I4B d   1       2.563  -1.685   0.877  0.00  0.00     0.013 C 
ATOM     10  C3' I4B d   1       1.269  -3.546   1.883  0.00  0.00     0.013 C 
ENDBRANCH   7   8
ENDBRANCH   1   7
TORSDOF 2
ENDMDL
