MODEL 1
REMARK minimizedAffinity 4.39158344
REMARK minimizedRMSD -1
REMARK  2 active torsions:
REMARK  status: ('A' for Active; 'I' for Inactive)
REMARK    1  A    between atoms: C2'_3  and  C1'_4 
REMARK    2  A    between atoms: C1'_4  and  C1_5 
ROOT
ATOM      1  C1  I4B d   1       4.167  -3.376   2.334  0.00  0.00    -0.075 A 
ATOM      2  C2  I4B d   1       4.856  -3.340   1.147  0.00  0.00     0.003 A 
ATOM      3  C3  I4B d   1       4.201  -2.945  -0.045  0.00  0.00     0.002 A 
ATOM      4  C4  I4B d   1       2.854  -2.645  -0.013  0.00  0.00    -0.004 A 
ATOM      5  C5  I4B d   1       2.164  -2.660   1.195  0.00  0.00     0.002 A 
ATOM      6  C6  I4B d   1       2.827  -3.015   2.378  0.00  0.00     0.003 A 
ENDROOT
BRANCH   1   7
ATOM      7  C1' I4B d   1       4.881  -3.829   3.568  0.00  0.00     0.060 C 
BRANCH   7   8
ATOM      8  C2' I4B d   1       4.722  -2.753   4.622  0.00  0.00    -0.013 C 
ATOM      9  C4' I4B d   1       4.609  -3.351   5.999  0.00  0.00     0.013 C 
ATOM     10  C3' I4B d   1       5.902  -1.833   4.526  0.00  0.00     0.013 C 
ENDBRANCH   7   8
ENDBRANCH   1   7
TORSDOF 2
ENDMDL
