MODEL 1
REMARK minimizedAffinity 4.6928091
REMARK minimizedRMSD -1
REMARK  2 active torsions:
REMARK  status: ('A' for Active; 'I' for Inactive)
REMARK    1  A    between atoms: C2'_3  and  C1'_4 
REMARK    2  A    between atoms: C1'_4  and  C1_5 
ROOT
ATOM      1  C1  I4B d   1      -3.317   0.278  -2.665  0.00  0.00    -0.075 A 
ATOM      2  C2  I4B d   1      -3.321  -0.729  -1.732  0.00  0.00     0.003 A 
ATOM      3  C3  I4B d   1      -4.174  -1.848  -1.895  0.00  0.00     0.002 A 
ATOM      4  C4  I4B d   1      -5.037  -1.894  -2.970  0.00  0.00    -0.004 A 
ATOM      5  C5  I4B d   1      -5.016  -0.883  -3.927  0.00  0.00     0.002 A 
ATOM      6  C6  I4B d   1      -4.142   0.204  -3.780  0.00  0.00     0.003 A 
ENDROOT
BRANCH   1   7
ATOM      7  C1' I4B d   1      -2.428   1.460  -2.445  0.00  0.00     0.060 C 
BRANCH   7   8
ATOM      8  C2' I4B d   1      -2.362   2.242  -3.741  0.00  0.00    -0.013 C 
ATOM      9  C4' I4B d   1      -3.514   3.205  -3.856  0.00  0.00     0.013 C 
ATOM     10  C3' I4B d   1      -1.047   2.962  -3.781  0.00  0.00     0.013 C 
ENDBRANCH   7   8
ENDBRANCH   1   7
TORSDOF 2
ENDMDL
