MODEL 1
REMARK minimizedAffinity 9.24016571
REMARK minimizedRMSD -1
REMARK  2 active torsions:
REMARK  status: ('A' for Active; 'I' for Inactive)
REMARK    1  A    between atoms: C2'_3  and  C1'_4 
REMARK    2  A    between atoms: C1'_4  and  C1_5 
ROOT
ATOM      1  C1  I4B d   1       3.472  -2.877   2.365  0.00  0.00    -0.075 A 
ATOM      2  C2  I4B d   1       2.654  -1.811   2.084  0.00  0.00     0.003 A 
ATOM      3  C3  I4B d   1       1.695  -1.904   1.046  0.00  0.00     0.002 A 
ATOM      4  C4  I4B d   1       1.624  -3.054   0.287  0.00  0.00    -0.004 A 
ATOM      5  C5  I4B d   1       2.439  -4.141   0.589  0.00  0.00     0.002 A 
ATOM      6  C6  I4B d   1       3.360  -4.057   1.642  0.00  0.00     0.003 A 
ENDROOT
BRANCH   1   7
ATOM      7  C1' I4B d   1       4.496  -2.733   3.446  0.00  0.00     0.060 C 
BRANCH   7   8
ATOM      8  C2' I4B d   1       3.825  -3.045   4.769  0.00  0.00    -0.013 C 
ATOM      9  C4' I4B d   1       4.403  -4.287   5.394  0.00  0.00     0.013 C 
ATOM     10  C3' I4B d   1       3.998  -1.856   5.667  0.00  0.00     0.013 C 
ENDBRANCH   7   8
ENDBRANCH   1   7
TORSDOF 2
ENDMDL
