MODEL 1
REMARK minimizedAffinity 5.48581791
REMARK minimizedRMSD -1
REMARK  2 active torsions:
REMARK  status: ('A' for Active; 'I' for Inactive)
REMARK    1  A    between atoms: C2'_3  and  C1'_4 
REMARK    2  A    between atoms: C1'_4  and  C1_5 
ROOT
ATOM      1  C1  I4B d   1       3.717  -3.082   2.574  0.00  0.00    -0.075 A 
ATOM      2  C2  I4B d   1       3.573  -3.865   1.457  0.00  0.00     0.003 A 
ATOM      3  C3  I4B d   1       2.530  -3.608   0.535  0.00  0.00     0.002 A 
ATOM      4  C4  I4B d   1       1.628  -2.596   0.794  0.00  0.00    -0.004 A 
ATOM      5  C5  I4B d   1       1.789  -1.787   1.916  0.00  0.00     0.002 A 
ATOM      6  C6  I4B d   1       2.847  -2.024   2.806  0.00  0.00     0.003 A 
ENDROOT
BRANCH   1   7
ATOM      7  C1' I4B d   1       4.810  -3.402   3.544  0.00  0.00     0.060 C 
BRANCH   7   8
ATOM      8  C2' I4B d   1       4.723  -2.414   4.689  0.00  0.00    -0.013 C 
ATOM      9  C4' I4B d   1       4.486  -3.118   5.999  0.00  0.00     0.013 C 
ATOM     10  C3' I4B d   1       6.000  -1.628   4.720  0.00  0.00     0.013 C 
ENDBRANCH   7   8
ENDBRANCH   1   7
TORSDOF 2
ENDMDL
