MODEL 1
REMARK minimizedAffinity -1.0595386
REMARK minimizedRMSD -1
REMARK  0 active torsions:
REMARK  status: ('A' for Active; 'I' for Inactive)
ROOT
ATOM      1  C1  DEN d   1       0.842   1.344  -0.121  0.00  0.00     0.130 A 
ATOM      2  C2  DEN d   1      -0.358   1.116  -0.922  0.00  0.00    -0.031 A 
ATOM      3  C3  DEN d   1      -1.143   0.047  -0.273  0.00  0.00     0.027 A 
ATOM      4  C4  DEN d   1      -0.624  -1.266   1.885  0.00  0.00     0.027 A 
ATOM      5  C5  DEN d   1       0.285  -1.433   2.906  0.00  0.00    -0.003 A 
ATOM      6  C6  DEN d   1       1.451  -0.716   2.971  0.00  0.00     0.001 A 
ATOM      7  C7  DEN d   1       1.716   0.234   2.021  0.00  0.00     0.017 A 
ATOM      8  C8  DEN d   1       0.808   0.403   0.984  0.00  0.00    -0.094 A 
ATOM      9  C9  DEN d   1      -0.370  -0.323   0.943  0.00  0.00    -0.072 A 
ENDROOT
TORSDOF 0
ENDMDL
