MODEL 1
REMARK minimizedAffinity -0.155388877
REMARK minimizedRMSD -1
REMARK  0 active torsions:
REMARK  status: ('A' for Active; 'I' for Inactive)
ROOT
ATOM      1  C1  DEN d   1       1.223  -1.089   1.673  0.00  0.00     0.130 A 
ATOM      2  C2  DEN d   1       0.367  -1.471   2.793  0.00  0.00    -0.031 A 
ATOM      3  C3  DEN d   1      -1.033  -1.198   2.411  0.00  0.00     0.027 A 
ATOM      4  C4  DEN d   1      -1.954  -0.230   0.205  0.00  0.00     0.027 A 
ATOM      5  C5  DEN d   1      -1.611   0.257  -1.037  0.00  0.00    -0.003 A 
ATOM      6  C6  DEN d   1      -0.308   0.361  -1.446  0.00  0.00     0.001 A 
ATOM      7  C7  DEN d   1       0.699  -0.071  -0.623  0.00  0.00     0.017 A 
ATOM      8  C8  DEN d   1       0.361  -0.556   0.633  0.00  0.00    -0.094 A 
ATOM      9  C9  DEN d   1      -0.963  -0.664   1.024  0.00  0.00    -0.072 A 
ENDROOT
TORSDOF 0
ENDMDL
