MODEL 1
REMARK minimizedAffinity 2.62992167
REMARK minimizedRMSD -1
REMARK  0 active torsions:
REMARK  status: ('A' for Active; 'I' for Inactive)
ROOT
ATOM      1  C1  DEN d   1       0.205   1.375  -1.528  0.00  0.00     0.130 A 
ATOM      2  C2  DEN d   1       0.074   1.897  -0.170  0.00  0.00    -0.031 A 
ATOM      3  C3  DEN d   1       0.334   3.350  -0.212  0.00  0.00     0.027 A 
ATOM      4  C4  DEN d   1       0.919   4.836  -2.237  0.00  0.00     0.027 A 
ATOM      5  C5  DEN d   1       1.153   4.842  -3.595  0.00  0.00    -0.003 A 
ATOM      6  C6  DEN d   1       1.122   3.697  -4.346  0.00  0.00     0.001 A 
ATOM      7  C7  DEN d   1       0.805   2.504  -3.753  0.00  0.00     0.017 A 
ATOM      8  C8  DEN d   1       0.575   2.488  -2.383  0.00  0.00    -0.094 A 
ATOM      9  C9  DEN d   1       0.599   3.658  -1.643  0.00  0.00    -0.072 A 
ENDROOT
TORSDOF 0
ENDMDL
