MODEL 1
REMARK minimizedAffinity -2.19755983
REMARK minimizedRMSD -1
REMARK  0 active torsions:
REMARK  status: ('A' for Active; 'I' for Inactive)
ROOT
ATOM      1  C1  DEN d   1      -0.688  -0.183   1.728  0.00  0.00     0.130 A 
ATOM      2  C2  DEN d   1       0.012  -0.820   2.840  0.00  0.00    -0.031 A 
ATOM      3  C3  DEN d   1       1.212  -1.490   2.301  0.00  0.00     0.027 A 
ATOM      4  C4  DEN d   1       2.054  -1.597  -0.135  0.00  0.00     0.027 A 
ATOM      5  C5  DEN d   1       1.789  -1.217  -1.432  0.00  0.00    -0.003 A 
ATOM      6  C6  DEN d   1       0.671  -0.501  -1.769  0.00  0.00     0.001 A 
ATOM      7  C7  DEN d   1      -0.201  -0.103  -0.790  0.00  0.00     0.017 A 
ATOM      8  C8  DEN d   1       0.056  -0.488   0.519  0.00  0.00    -0.094 A 
ATOM      9  C9  DEN d   1       1.198  -1.202   0.841  0.00  0.00    -0.072 A 
ENDROOT
TORSDOF 0
ENDMDL
