MODEL 1
REMARK minimizedAffinity -3.48229599
REMARK minimizedRMSD -1
REMARK  0 active torsions:
REMARK  status: ('A' for Active; 'I' for Inactive)
ROOT
ATOM      1  C1  DEN d   1      -1.090  -0.015  -0.043  0.00  0.00     0.130 A 
ATOM      2  C2  DEN d   1      -2.024  -0.319   1.038  0.00  0.00    -0.031 A 
ATOM      3  C3  DEN d   1      -1.236  -0.636   2.246  0.00  0.00     0.027 A 
ATOM      4  C4  DEN d   1       1.325  -0.681   2.548  0.00  0.00     0.027 A 
ATOM      5  C5  DEN d   1       2.533  -0.504   1.912  0.00  0.00    -0.003 A 
ATOM      6  C6  DEN d   1       2.619  -0.188   0.582  0.00  0.00     0.001 A 
ATOM      7  C7  DEN d   1       1.474   0.006  -0.145  0.00  0.00     0.017 A 
ATOM      8  C8  DEN d   1       0.251  -0.178   0.488  0.00  0.00    -0.094 A 
ATOM      9  C9  DEN d   1       0.186  -0.485   1.837  0.00  0.00    -0.072 A 
ENDROOT
TORSDOF 0
ENDMDL
