MODEL 1
REMARK minimizedAffinity -5.14148426
REMARK minimizedRMSD -1
REMARK  0 active torsions:
REMARK  status: ('A' for Active; 'I' for Inactive)
ROOT
ATOM      1  C1  DEN d   1      -5.999   2.209  -3.731  0.00  0.00     0.130 A 
ATOM      2  C2  DEN d   1      -6.000   0.748  -3.741  0.00  0.00    -0.031 A 
ATOM      3  C3  DEN d   1      -4.624   0.289  -3.461  0.00  0.00     0.027 A 
ATOM      4  C4  DEN d   1      -2.506   1.691  -3.013  0.00  0.00     0.027 A 
ATOM      5  C5  DEN d   1      -2.007   2.971  -2.913  0.00  0.00    -0.003 A 
ATOM      6  C6  DEN d   1      -2.790   4.077  -3.111  0.00  0.00     0.001 A 
ATOM      7  C7  DEN d   1      -4.126   3.925  -3.375  0.00  0.00     0.017 A 
ATOM      8  C8  DEN d   1      -4.634   2.638  -3.484  0.00  0.00    -0.094 A 
ATOM      9  C9  DEN d   1      -3.829   1.532  -3.268  0.00  0.00    -0.072 A 
ENDROOT
TORSDOF 0
ENDMDL
