MODEL 1
REMARK minimizedAffinity 0.446126372
REMARK minimizedRMSD -1
REMARK  0 active torsions:
REMARK  status: ('A' for Active; 'I' for Inactive)
ROOT
ATOM      1  C1  DEN d   1       1.185   0.805  -0.702  0.00  0.00     0.130 A 
ATOM      2  C2  DEN d   1       0.311   1.543  -1.609  0.00  0.00    -0.031 A 
ATOM      3  C3  DEN d   1      -1.081   1.131  -1.337  0.00  0.00     0.027 A 
ATOM      4  C4  DEN d   1      -1.963  -0.566   0.393  0.00  0.00     0.027 A 
ATOM      5  C5  DEN d   1      -1.598  -1.454   1.381  0.00  0.00    -0.003 A 
ATOM      6  C6  DEN d   1      -0.289  -1.674   1.718  0.00  0.00     0.001 A 
ATOM      7  C7  DEN d   1       0.701  -0.965   1.092  0.00  0.00     0.017 A 
ATOM      8  C8  DEN d   1       0.342  -0.073   0.090  0.00  0.00    -0.094 A 
ATOM      9  C9  DEN d   1      -0.988   0.145  -0.228  0.00  0.00    -0.072 A 
ENDROOT
TORSDOF 0
ENDMDL
