MODEL 1
REMARK minimizedAffinity -2.65213585
REMARK minimizedRMSD -1
REMARK  0 active torsions:
REMARK  status: ('A' for Active; 'I' for Inactive)
ROOT
ATOM      1  C1  DEN d   1      -4.947   1.766   6.000  0.00  0.00     0.130 A 
ATOM      2  C2  DEN d   1      -5.998   0.906   5.464  0.00  0.00    -0.031 A 
ATOM      3  C3  DEN d   1      -5.789   0.783   4.007  0.00  0.00     0.027 A 
ATOM      4  C4  DEN d   1      -3.947   1.833   2.538  0.00  0.00     0.027 A 
ATOM      5  C5  DEN d   1      -2.837   2.649   2.542  0.00  0.00    -0.003 A 
ATOM      6  C6  DEN d   1      -2.377   3.251   3.684  0.00  0.00     0.001 A 
ATOM      7  C7  DEN d   1      -3.003   3.008   4.878  0.00  0.00     0.017 A 
ATOM      8  C8  DEN d   1      -4.126   2.193   4.881  0.00  0.00    -0.094 A 
ATOM      9  C9  DEN d   1      -4.569   1.584   3.719  0.00  0.00    -0.072 A 
ENDROOT
TORSDOF 0
ENDMDL
