MODEL 1
REMARK minimizedAffinity 8.30209351
REMARK minimizedRMSD -1
REMARK  0 active torsions:
REMARK  status: ('A' for Active; 'I' for Inactive)
ROOT
ATOM      1  C   UNL d   1       3.159   1.826   0.447  0.00  0.00    -0.002 A 
ATOM      2  C1  UNL d   1       2.498   2.195   1.610  0.00  0.00     0.010 A 
ATOM      3  C2  UNL d   1       1.343   1.522   2.015  0.00  0.00     0.041 A 
ATOM      4  C3  UNL d   1       0.861   0.460   1.224  0.00  0.00    -0.075 A 
ATOM      5  S   UNL d   1      -0.534  -0.509   1.523  0.00  0.00     0.015 SA
ATOM      6  C4  UNL d   1      -0.284  -1.436   0.115  0.00  0.00     0.022 A 
ATOM      7  C5  UNL d   1       0.832  -1.029  -0.579  0.00  0.00     0.026 A 
ATOM      8  C6  UNL d   1       1.510   0.069   0.050  0.00  0.00    -0.082 A 
ATOM      9  C7  UNL d   1       2.678   0.772  -0.334  0.00  0.00     0.045 A 
ENDROOT
TORSDOF 0
ENDMDL
