MODEL 1
REMARK minimizedAffinity 5.44534492
REMARK minimizedRMSD -1
REMARK  0 active torsions:
REMARK  status: ('A' for Active; 'I' for Inactive)
ROOT
ATOM      1  C   UNL d   1       1.768   1.777   3.113  0.00  0.00    -0.002 A 
ATOM      2  C1  UNL d   1       2.977   1.874   2.439  0.00  0.00     0.010 A 
ATOM      3  C2  UNL d   1       3.208   1.125   1.283  0.00  0.00     0.041 A 
ATOM      4  C3  UNL d   1       2.193   0.269   0.811  0.00  0.00    -0.075 A 
ATOM      5  S   UNL d   1       2.252  -0.743  -0.583  0.00  0.00     0.015 SA
ATOM      6  C4  UNL d   1       0.673  -1.327  -0.317  0.00  0.00     0.022 A 
ATOM      7  C5  UNL d   1       0.101  -0.775   0.804  0.00  0.00     0.026 A 
ATOM      8  C6  UNL d   1       0.967   0.155   1.473  0.00  0.00    -0.082 A 
ATOM      9  C7  UNL d   1       0.764   0.927   2.642  0.00  0.00     0.045 A 
ENDROOT
TORSDOF 0
ENDMDL
