MODEL 1
REMARK minimizedAffinity 3.45938635
REMARK minimizedRMSD -1
REMARK  0 active torsions:
REMARK  status: ('A' for Active; 'I' for Inactive)
ROOT
ATOM      1  C   UNL d   1       0.792  -1.203  -0.277  0.00  0.00    -0.002 A 
ATOM      2  C1  UNL d   1       2.145  -1.504  -0.345  0.00  0.00     0.010 A 
ATOM      3  C2  UNL d   1       3.074  -0.766   0.390  0.00  0.00     0.041 A 
ATOM      4  C3  UNL d   1       2.617   0.289   1.204  0.00  0.00    -0.075 A 
ATOM      5  S   UNL d   1       3.573   1.328   2.194  0.00  0.00     0.015 SA
ATOM      6  C4  UNL d   1       2.208   2.196   2.731  0.00  0.00     0.022 A 
ATOM      7  C5  UNL d   1       1.043   1.718   2.178  0.00  0.00     0.026 A 
ATOM      8  C6  UNL d   1       1.259   0.611   1.290  0.00  0.00    -0.082 A 
ATOM      9  C7  UNL d   1       0.342  -0.155   0.532  0.00  0.00     0.045 A 
ENDROOT
TORSDOF 0
ENDMDL
