MODEL 1
REMARK minimizedAffinity 10.5386209
REMARK minimizedRMSD -1
REMARK  0 active torsions:
REMARK  status: ('A' for Active; 'I' for Inactive)
ROOT
ATOM      1  C   UNL d   1      -1.720  -1.606  -0.936  0.00  0.00    -0.002 A 
ATOM      2  C1  UNL d   1      -0.338  -1.670  -0.825  0.00  0.00     0.010 A 
ATOM      3  C2  UNL d   1       0.356  -2.810  -1.237  0.00  0.00     0.041 A 
ATOM      4  C3  UNL d   1      -0.370  -3.894  -1.768  0.00  0.00    -0.075 A 
ATOM      5  S   UNL d   1       0.268  -5.392  -2.338  0.00  0.00     0.015 SA
ATOM      6  C4  UNL d   1      -1.279  -5.982  -2.742  0.00  0.00     0.022 A 
ATOM      7  C5  UNL d   1      -2.269  -5.072  -2.456  0.00  0.00     0.026 A 
ATOM      8  C6  UNL d   1      -1.761  -3.853  -1.891  0.00  0.00    -0.082 A 
ATOM      9  C7  UNL d   1      -2.436  -2.684  -1.464  0.00  0.00     0.045 A 
ENDROOT
TORSDOF 0
ENDMDL
