MODEL 1
REMARK minimizedAffinity 2.04480004
REMARK minimizedRMSD -1
REMARK  0 active torsions:
REMARK  status: ('A' for Active; 'I' for Inactive)
ROOT
ATOM      1  C   UNL d   1       0.723   1.036   4.022  0.00  0.00    -0.002 A 
ATOM      2  C1  UNL d   1      -0.337   0.146   3.930  0.00  0.00     0.010 A 
ATOM      3  C2  UNL d   1      -0.525  -0.618   2.776  0.00  0.00     0.041 A 
ATOM      4  C3  UNL d   1       0.381  -0.473   1.708  0.00  0.00    -0.075 A 
ATOM      5  S   UNL d   1       0.350  -1.304   0.198  0.00  0.00     0.015 SA
ATOM      6  C4  UNL d   1       1.745  -0.499  -0.360  0.00  0.00     0.022 A 
ATOM      7  C5  UNL d   1       2.235   0.387   0.571  0.00  0.00     0.026 A 
ATOM      8  C6  UNL d   1       1.458   0.416   1.778  0.00  0.00    -0.082 A 
ATOM      9  C7  UNL d   1       1.620   1.177   2.960  0.00  0.00     0.045 A 
ENDROOT
TORSDOF 0
ENDMDL
