MODEL 1
REMARK minimizedAffinity 12.6705484
REMARK minimizedRMSD -1
REMARK  0 active torsions:
REMARK  status: ('A' for Active; 'I' for Inactive)
ROOT
ATOM      1  C   UNL d   1       1.512   2.720   1.991  0.00  0.00    -0.002 A 
ATOM      2  C1  UNL d   1       2.879   2.490   1.935  0.00  0.00     0.010 A 
ATOM      3  C2  UNL d   1       3.379   1.318   1.366  0.00  0.00     0.041 A 
ATOM      4  C3  UNL d   1       2.474   0.372   0.846  0.00  0.00    -0.075 A 
ATOM      5  S   UNL d   1       2.858  -1.134   0.101  0.00  0.00     0.015 SA
ATOM      6  C4  UNL d   1       1.216  -1.508  -0.162  0.00  0.00     0.022 A 
ATOM      7  C5  UNL d   1       0.381  -0.519   0.302  0.00  0.00     0.026 A 
ATOM      8  C6  UNL d   1       1.092   0.582   0.890  0.00  0.00    -0.082 A 
ATOM      9  C7  UNL d   1       0.616   1.780   1.475  0.00  0.00     0.045 A 
ENDROOT
TORSDOF 0
ENDMDL
