MODEL 1
REMARK minimizedAffinity 4.10534668
REMARK minimizedRMSD -1
REMARK  0 active torsions:
REMARK  status: ('A' for Active; 'I' for Inactive)
ROOT
ATOM      1  C   UNL d   1       2.831   0.412   1.310  0.00  0.00    -0.002 A 
ATOM      2  C1  UNL d   1       1.954   1.453   1.576  0.00  0.00     0.010 A 
ATOM      3  C2  UNL d   1       0.625   1.389   1.151  0.00  0.00     0.041 A 
ATOM      4  C3  UNL d   1       0.189   0.249   0.449  0.00  0.00    -0.075 A 
ATOM      5  S   UNL d   1      -1.393  -0.050  -0.168  0.00  0.00     0.015 SA
ATOM      6  C4  UNL d   1      -0.942  -1.567  -0.799  0.00  0.00     0.022 A 
ATOM      7  C5  UNL d   1       0.380  -1.855  -0.554  0.00  0.00     0.026 A 
ATOM      8  C6  UNL d   1       1.053  -0.814   0.169  0.00  0.00    -0.082 A 
ATOM      9  C7  UNL d   1       2.394  -0.718   0.613  0.00  0.00     0.045 A 
ENDROOT
TORSDOF 0
ENDMDL
