MODEL 1
REMARK minimizedAffinity 5.38927412
REMARK minimizedRMSD -1
REMARK  0 active torsions:
REMARK  status: ('A' for Active; 'I' for Inactive)
ROOT
ATOM      1  C   UNL d   1       1.750  -0.560  -0.549  0.00  0.00    -0.002 A 
ATOM      2  C1  UNL d   1       0.499  -1.161  -0.551  0.00  0.00     0.010 A 
ATOM      3  C2  UNL d   1      -0.306  -1.127   0.589  0.00  0.00     0.041 A 
ATOM      4  C3  UNL d   1       0.170  -0.471   1.741  0.00  0.00    -0.075 A 
ATOM      5  S   UNL d   1      -0.643  -0.301   3.252  0.00  0.00     0.015 SA
ATOM      6  C4  UNL d   1       0.651   0.574   3.935  0.00  0.00     0.022 A 
ATOM      7  C5  UNL d   1       1.686   0.741   3.046  0.00  0.00     0.026 A 
ATOM      8  C6  UNL d   1       1.426   0.143   1.767  0.00  0.00    -0.082 A 
ATOM      9  C7  UNL d   1       2.219   0.090   0.595  0.00  0.00     0.045 A 
ENDROOT
TORSDOF 0
ENDMDL
