MODEL 1
REMARK minimizedAffinity 6.88556576
REMARK minimizedRMSD -1
REMARK  0 active torsions:
REMARK  status: ('A' for Active; 'I' for Inactive)
ROOT
ATOM      1  C   UNL d   1      -2.326  -0.407   2.623  0.00  0.00    -0.002 A 
ATOM      2  C1  UNL d   1      -2.263  -1.575   1.878  0.00  0.00     0.010 A 
ATOM      3  C2  UNL d   1      -2.847  -1.642   0.611  0.00  0.00     0.041 A 
ATOM      4  C3  UNL d   1      -3.500  -0.502   0.101  0.00  0.00    -0.075 A 
ATOM      5  S   UNL d   1      -4.285  -0.351  -1.427  0.00  0.00     0.015 SA
ATOM      6  C4  UNL d   1      -4.721   1.269  -1.126  0.00  0.00     0.022 A 
ATOM      7  C5  UNL d   1      -4.287   1.700   0.106  0.00  0.00     0.026 A 
ATOM      8  C6  UNL d   1      -3.575   0.686   0.832  0.00  0.00    -0.082 A 
ATOM      9  C7  UNL d   1      -2.974   0.721   2.114  0.00  0.00     0.045 A 
ENDROOT
TORSDOF 0
ENDMDL
