MODEL 1
REMARK minimizedAffinity 11.5204544
REMARK minimizedRMSD -1
REMARK  0 active torsions:
REMARK  status: ('A' for Active; 'I' for Inactive)
ROOT
ATOM      1  C   UNL d   1       1.974   0.349  -0.206  0.00  0.00    -0.002 A 
ATOM      2  C1  UNL d   1       2.750   0.965   0.765  0.00  0.00     0.010 A 
ATOM      3  C2  UNL d   1       2.154   1.552   1.883  0.00  0.00     0.041 A 
ATOM      4  C3  UNL d   1       0.752   1.507   2.011  0.00  0.00    -0.075 A 
ATOM      5  S   UNL d   1      -0.196   2.158   3.295  0.00  0.00     0.015 SA
ATOM      6  C4  UNL d   1      -1.654   1.633   2.584  0.00  0.00     0.022 A 
ATOM      7  C5  UNL d   1      -1.441   0.975   1.396  0.00  0.00     0.026 A 
ATOM      8  C6  UNL d   1      -0.050   0.891   1.046  0.00  0.00    -0.082 A 
ATOM      9  C7  UNL d   1       0.584   0.306  -0.076  0.00  0.00     0.045 A 
ENDROOT
TORSDOF 0
ENDMDL
