MODEL 1
REMARK minimizedAffinity 12.9256935
REMARK minimizedRMSD -1
REMARK  0 active torsions:
REMARK  status: ('A' for Active; 'I' for Inactive)
ROOT
ATOM      1  C   UNL d   1       3.605   1.523   0.351  0.00  0.00    -0.002 A 
ATOM      2  C1  UNL d   1       2.342   1.348  -0.195  0.00  0.00     0.010 A 
ATOM      3  C2  UNL d   1       1.828   0.066  -0.400  0.00  0.00     0.041 A 
ATOM      4  C3  UNL d   1       2.612  -1.048  -0.040  0.00  0.00    -0.075 A 
ATOM      5  S   UNL d   1       2.188  -2.712  -0.198  0.00  0.00     0.015 SA
ATOM      6  C4  UNL d   1       3.674  -3.229   0.457  0.00  0.00     0.022 A 
ATOM      7  C5  UNL d   1       4.485  -2.172   0.794  0.00  0.00     0.026 A 
ATOM      8  C6  UNL d   1       3.887  -0.897   0.513  0.00  0.00    -0.082 A 
ATOM      9  C7  UNL d   1       4.380   0.415   0.707  0.00  0.00     0.045 A 
ENDROOT
TORSDOF 0
ENDMDL
