MODEL 1
REMARK minimizedAffinity 14.1597576
REMARK minimizedRMSD -1
REMARK  0 active torsions:
REMARK  status: ('A' for Active; 'I' for Inactive)
ROOT
ATOM      1  C   UNL d   1       1.138   1.032   1.374  0.00  0.00    -0.002 A 
ATOM      2  C1  UNL d   1       1.021   1.876   2.470  0.00  0.00     0.010 A 
ATOM      3  C2  UNL d   1      -0.214   2.065   3.092  0.00  0.00     0.041 A 
ATOM      4  C3  UNL d   1      -1.341   1.385   2.591  0.00  0.00    -0.075 A 
ATOM      5  S   UNL d   1      -2.955   1.463   3.192  0.00  0.00     0.015 SA
ATOM      6  C4  UNL d   1      -3.528   0.377   2.009  0.00  0.00     0.022 A 
ATOM      7  C5  UNL d   1      -2.526  -0.044   1.168  0.00  0.00     0.026 A 
ATOM      8  C6  UNL d   1      -1.249   0.529   1.489  0.00  0.00    -0.082 A 
ATOM      9  C7  UNL d   1       0.017   0.358   0.880  0.00  0.00     0.045 A 
ENDROOT
TORSDOF 0
ENDMDL
