MODEL 1
REMARK minimizedAffinity 21.8885727
REMARK minimizedRMSD -1
REMARK  0 active torsions:
REMARK  status: ('A' for Active; 'I' for Inactive)
ROOT
ATOM      1  C   UNL d   1       0.325   1.147   2.041  0.00  0.00    -0.002 A 
ATOM      2  C1  UNL d   1       0.340   2.231   2.907  0.00  0.00     0.010 A 
ATOM      3  C2  UNL d   1      -0.837   2.669   3.517  0.00  0.00     0.041 A 
ATOM      4  C3  UNL d   1      -2.041   1.992   3.241  0.00  0.00    -0.075 A 
ATOM      5  S   UNL d   1      -3.604   2.350   3.874  0.00  0.00     0.015 SA
ATOM      6  C4  UNL d   1      -4.329   1.072   3.010  0.00  0.00     0.022 A 
ATOM      7  C5  UNL d   1      -3.415   0.379   2.252  0.00  0.00     0.026 A 
ATOM      8  C6  UNL d   1      -2.081   0.897   2.373  0.00  0.00    -0.082 A 
ATOM      9  C7  UNL d   1      -0.871   0.478   1.770  0.00  0.00     0.045 A 
ENDROOT
TORSDOF 0
ENDMDL
