MODEL 1
REMARK minimizedAffinity 20.1114788
REMARK minimizedRMSD -1
REMARK  0 active torsions:
REMARK  status: ('A' for Active; 'I' for Inactive)
ROOT
ATOM      1  C   UNL d   1       1.157  -0.047  -2.457  0.00  0.00    -0.002 A 
ATOM      2  C1  UNL d   1       1.343  -1.420  -2.532  0.00  0.00     0.010 A 
ATOM      3  C2  UNL d   1       2.241  -2.063  -1.678  0.00  0.00     0.041 A 
ATOM      4  C3  UNL d   1       2.955  -1.295  -0.737  0.00  0.00    -0.075 A 
ATOM      5  S   UNL d   1       4.107  -1.867   0.412  0.00  0.00     0.015 SA
ATOM      6  C4  UNL d   1       4.378  -0.302   1.030  0.00  0.00     0.022 A 
ATOM      7  C5  UNL d   1       3.617   0.645   0.387  0.00  0.00     0.026 A 
ATOM      8  C6  UNL d   1       2.784   0.088  -0.641  0.00  0.00    -0.082 A 
ATOM      9  C7  UNL d   1       1.866   0.711  -1.521  0.00  0.00     0.045 A 
ENDROOT
TORSDOF 0
ENDMDL
