MODEL 1
REMARK minimizedAffinity 11.5879555
REMARK minimizedRMSD -1
REMARK  0 active torsions:
REMARK  status: ('A' for Active; 'I' for Inactive)
ROOT
ATOM      1  C   UNL d   1       1.861  -0.157  -1.930  0.00  0.00    -0.002 A 
ATOM      2  C1  UNL d   1       3.072   0.356  -1.487  0.00  0.00     0.010 A 
ATOM      3  C2  UNL d   1       3.147   1.060  -0.284  0.00  0.00     0.041 A 
ATOM      4  C3  UNL d   1       1.974   1.240   0.475  0.00  0.00    -0.075 A 
ATOM      5  S   UNL d   1       1.827   2.067   1.981  0.00  0.00     0.015 SA
ATOM      6  C4  UNL d   1       0.153   1.758   2.072  0.00  0.00     0.022 A 
ATOM      7  C5  UNL d   1      -0.299   1.042   0.988  0.00  0.00     0.026 A 
ATOM      8  C6  UNL d   1       0.743   0.732   0.051  0.00  0.00    -0.082 A 
ATOM      9  C7  UNL d   1       0.700   0.023  -1.174  0.00  0.00     0.045 A 
ENDROOT
TORSDOF 0
ENDMDL
