MODEL 1
REMARK minimizedAffinity 16.7283077
REMARK minimizedRMSD -1
REMARK  0 active torsions:
REMARK  status: ('A' for Active; 'I' for Inactive)
ROOT
ATOM      1  C   UNL d   1       2.798  -3.249  -0.073  0.00  0.00    -0.002 A 
ATOM      2  C1  UNL d   1       3.984  -3.151   0.641  0.00  0.00     0.010 A 
ATOM      3  C2  UNL d   1       4.569  -1.906   0.880  0.00  0.00     0.041 A 
ATOM      4  C3  UNL d   1       3.935  -0.749   0.385  0.00  0.00    -0.075 A 
ATOM      5  S   UNL d   1       4.468   0.882   0.556  0.00  0.00     0.015 SA
ATOM      6  C4  UNL d   1       3.133   1.487  -0.314  0.00  0.00     0.022 A 
ATOM      7  C5  UNL d   1       2.292   0.484  -0.733  0.00  0.00     0.026 A 
ATOM      8  C6  UNL d   1       2.740  -0.822  -0.336  0.00  0.00    -0.082 A 
ATOM      9  C7  UNL d   1       2.172  -2.099  -0.562  0.00  0.00     0.045 A 
ENDROOT
TORSDOF 0
ENDMDL
