MODEL 1
REMARK minimizedAffinity 15.3551874
REMARK minimizedRMSD -1
REMARK  0 active torsions:
REMARK  status: ('A' for Active; 'I' for Inactive)
ROOT
ATOM      1  C   UNL d   1       1.411  -2.485  -0.587  0.00  0.00    -0.002 A 
ATOM      2  C1  UNL d   1       0.836  -1.661  -1.543  0.00  0.00     0.010 A 
ATOM      3  C2  UNL d   1       1.391  -0.413  -1.832  0.00  0.00     0.041 A 
ATOM      4  C3  UNL d   1       2.547  -0.004  -1.138  0.00  0.00    -0.075 A 
ATOM      5  S   UNL d   1       3.401   1.482  -1.326  0.00  0.00     0.015 SA
ATOM      6  C4  UNL d   1       4.550   1.057  -0.141  0.00  0.00     0.022 A 
ATOM      7  C5  UNL d   1       4.303  -0.184   0.396  0.00  0.00     0.026 A 
ATOM      8  C6  UNL d   1       3.144  -0.816  -0.170  0.00  0.00    -0.082 A 
ATOM      9  C7  UNL d   1       2.557  -2.076   0.100  0.00  0.00     0.045 A 
ENDROOT
TORSDOF 0
ENDMDL
