MODEL 1
REMARK minimizedAffinity 22.6909752
REMARK minimizedRMSD -1
REMARK  0 active torsions:
REMARK  status: ('A' for Active; 'I' for Inactive)
ROOT
ATOM      1  C   UNL d   1       1.419   1.404   2.712  0.00  0.00    -0.002 A 
ATOM      2  C1  UNL d   1       1.430   1.559   4.091  0.00  0.00     0.010 A 
ATOM      3  C2  UNL d   1       0.234   1.655   4.805  0.00  0.00     0.041 A 
ATOM      4  C3  UNL d   1      -0.986   1.590   4.103  0.00  0.00    -0.075 A 
ATOM      5  S   UNL d   1      -2.574   1.684   4.767  0.00  0.00     0.015 SA
ATOM      6  C4  UNL d   1      -3.305   1.519   3.236  0.00  0.00     0.022 A 
ATOM      7  C5  UNL d   1      -2.375   1.394   2.231  0.00  0.00     0.026 A 
ATOM      8  C6  UNL d   1      -1.023   1.432   2.714  0.00  0.00    -0.082 A 
ATOM      9  C7  UNL d   1       0.207   1.339   2.019  0.00  0.00     0.045 A 
ENDROOT
TORSDOF 0
ENDMDL
