MODEL 1
REMARK minimizedAffinity 15.6883078
REMARK minimizedRMSD -1
REMARK  0 active torsions:
REMARK  status: ('A' for Active; 'I' for Inactive)
ROOT
ATOM      1  C   UNL d   1       3.509  -4.308   0.611  0.00  0.00    -0.002 A 
ATOM      2  C1  UNL d   1       4.798  -3.877   0.892  0.00  0.00     0.010 A 
ATOM      3  C2  UNL d   1       5.121  -2.520   0.833  0.00  0.00     0.041 A 
ATOM      4  C3  UNL d   1       4.117  -1.594   0.486  0.00  0.00    -0.075 A 
ATOM      5  S   UNL d   1       4.281   0.117   0.353  0.00  0.00     0.015 SA
ATOM      6  C4  UNL d   1       2.645   0.315  -0.079  0.00  0.00     0.022 A 
ATOM      7  C5  UNL d   1       1.974  -0.884  -0.125  0.00  0.00     0.026 A 
ATOM      8  C6  UNL d   1       2.812  -2.005   0.201  0.00  0.00    -0.082 A 
ATOM      9  C7  UNL d   1       2.516  -3.388   0.268  0.00  0.00     0.045 A 
ENDROOT
TORSDOF 0
ENDMDL
