MODEL 1
REMARK minimizedAffinity 17.661787
REMARK minimizedRMSD -1
REMARK  0 active torsions:
REMARK  status: ('A' for Active; 'I' for Inactive)
ROOT
ATOM      1  C   UNL d   1      -0.023   2.231   6.000  0.00  0.00    -0.002 A 
ATOM      2  C1  UNL d   1       1.217   1.612   5.938  0.00  0.00     0.010 A 
ATOM      3  C2  UNL d   1       1.711   1.132   4.724  0.00  0.00     0.041 A 
ATOM      4  C3  UNL d   1       0.931   1.287   3.561  0.00  0.00    -0.075 A 
ATOM      5  S   UNL d   1       1.333   0.778   1.964  0.00  0.00     0.015 SA
ATOM      6  C4  UNL d   1      -0.132   1.371   1.326  0.00  0.00     0.022 A 
ATOM      7  C5  UNL d   1      -0.920   1.947   2.294  0.00  0.00     0.026 A 
ATOM      8  C6  UNL d   1      -0.321   1.908   3.598  0.00  0.00    -0.082 A 
ATOM      9  C7  UNL d   1      -0.794   2.384   4.844  0.00  0.00     0.045 A 
ENDROOT
TORSDOF 0
ENDMDL
