MODEL 1
REMARK minimizedAffinity 11.876008
REMARK minimizedRMSD -1
REMARK  0 active torsions:
REMARK  status: ('A' for Active; 'I' for Inactive)
ROOT
ATOM      1  C   UNL d   1      -1.585  -4.177  -2.283  0.00  0.00    -0.002 A 
ATOM      2  C1  UNL d   1      -0.673  -3.377  -2.958  0.00  0.00     0.010 A 
ATOM      3  C2  UNL d   1      -1.047  -2.699  -4.120  0.00  0.00     0.041 A 
ATOM      4  C3  UNL d   1      -2.365  -2.838  -4.596  0.00  0.00    -0.075 A 
ATOM      5  S   UNL d   1      -3.047  -2.101  -5.997  0.00  0.00     0.015 SA
ATOM      6  C4  UNL d   1      -4.565  -2.829  -5.733  0.00  0.00     0.022 A 
ATOM      7  C5  UNL d   1      -4.569  -3.619  -4.607  0.00  0.00     0.026 A 
ATOM      8  C6  UNL d   1      -3.302  -3.636  -3.933  0.00  0.00    -0.082 A 
ATOM      9  C7  UNL d   1      -2.892  -4.312  -2.758  0.00  0.00     0.045 A 
ENDROOT
TORSDOF 0
ENDMDL
