MODEL 1
REMARK minimizedAffinity -0.512506068
REMARK minimizedRMSD -1
REMARK  0 active torsions:
REMARK  status: ('A' for Active; 'I' for Inactive)
ROOT
ATOM      1  C   UNL d   1       3.247  -3.175   1.281  0.00  0.00     0.020 A 
ATOM      2  C1  UNL d   1       1.961  -2.636   1.299  0.00  0.00     0.020 A 
ATOM      3  C2  UNL d   1       1.778  -1.262   1.129  0.00  0.00     0.034 A 
ATOM      4  C3  UNL d   1       2.881  -0.422   0.941  0.00  0.00     0.017 A 
ATOM      5  C4  UNL d   1       4.172  -0.964   0.923  0.00  0.00     0.017 A 
ATOM      6  C5  UNL d   1       4.350  -2.340   1.093  0.00  0.00     0.034 A 
ATOM      7 Cl   UNL d   1       5.582   0.009   0.696  0.00  0.00    -0.070 Cl
ATOM      8 Cl1  UNL d   1       2.580   1.267   0.737  0.00  0.00    -0.070 Cl
ENDROOT
TORSDOF 0
ENDMDL
