MODEL 1
REMARK minimizedAffinity 1.9613415
REMARK minimizedRMSD -1
REMARK  0 active torsions:
REMARK  status: ('A' for Active; 'I' for Inactive)
ROOT
ATOM      1  C   UNL d   1      -3.071   4.000  -3.386  0.00  0.00     0.020 A 
ATOM      2  C1  UNL d   1      -3.281   2.887  -2.574  0.00  0.00     0.020 A 
ATOM      3  C2  UNL d   1      -2.191   2.151  -2.103  0.00  0.00     0.034 A 
ATOM      4  C3  UNL d   1      -0.887   2.528  -2.444  0.00  0.00     0.017 A 
ATOM      5  C4  UNL d   1      -0.677   3.646  -3.259  0.00  0.00     0.017 A 
ATOM      6  C5  UNL d   1      -1.772   4.379  -3.728  0.00  0.00     0.034 A 
ATOM      7 Cl   UNL d   1       0.902   4.172  -3.722  0.00  0.00    -0.070 Cl
ATOM      8 Cl1  UNL d   1       0.413   1.572  -1.825  0.00  0.00    -0.070 Cl
ENDROOT
TORSDOF 0
ENDMDL
