MODEL 1
REMARK minimizedAffinity 8.16003132
REMARK minimizedRMSD -1
REMARK  0 active torsions:
REMARK  status: ('A' for Active; 'I' for Inactive)
ROOT
ATOM      1  C   UNL d   1       2.948  -2.623   0.094  0.00  0.00     0.020 A 
ATOM      2  C1  UNL d   1       2.406  -1.486   0.690  0.00  0.00     0.020 A 
ATOM      3  C2  UNL d   1       1.346  -1.607   1.590  0.00  0.00     0.034 A 
ATOM      4  C3  UNL d   1       0.824  -2.869   1.897  0.00  0.00     0.017 A 
ATOM      5  C4  UNL d   1       1.369  -4.011   1.299  0.00  0.00     0.017 A 
ATOM      6  C5  UNL d   1       2.431  -3.883   0.398  0.00  0.00     0.034 A 
ATOM      7 Cl   UNL d   1       0.779  -5.602   1.628  0.00  0.00    -0.070 Cl
ATOM      8 Cl1  UNL d   1      -0.487  -2.945   3.020  0.00  0.00    -0.070 Cl
ENDROOT
TORSDOF 0
ENDMDL
