MODEL 1
REMARK minimizedAffinity 11.2317066
REMARK minimizedRMSD -1
REMARK  0 active torsions:
REMARK  status: ('A' for Active; 'I' for Inactive)
ROOT
ATOM      1  C   UNL d   1       2.892  -3.866   0.129  0.00  0.00     0.020 A 
ATOM      2  C1  UNL d   1       2.038  -4.594   0.956  0.00  0.00     0.020 A 
ATOM      3  C2  UNL d   1       1.085  -3.931   1.732  0.00  0.00     0.034 A 
ATOM      4  C3  UNL d   1       0.983  -2.536   1.683  0.00  0.00     0.017 A 
ATOM      5  C4  UNL d   1       1.841  -1.806   0.852  0.00  0.00     0.017 A 
ATOM      6  C5  UNL d   1       2.793  -2.475   0.077  0.00  0.00     0.034 A 
ATOM      7 Cl   UNL d   1       1.775  -0.083   0.738  0.00  0.00    -0.070 Cl
ATOM      8 Cl1  UNL d   1      -0.219  -1.783   2.669  0.00  0.00    -0.070 Cl
ENDROOT
TORSDOF 0
ENDMDL
