MODEL 1
REMARK minimizedAffinity 2.90631819
REMARK minimizedRMSD -1
REMARK  0 active torsions:
REMARK  status: ('A' for Active; 'I' for Inactive)
ROOT
ATOM      1  C   UNL d   1       2.797  -3.080   0.971  0.00  0.00     0.020 A 
ATOM      2  C1  UNL d   1       2.584  -2.966   2.344  0.00  0.00     0.020 A 
ATOM      3  C2  UNL d   1       1.441  -2.321   2.822  0.00  0.00     0.034 A 
ATOM      4  C3  UNL d   1       0.506  -1.789   1.926  0.00  0.00     0.017 A 
ATOM      5  C4  UNL d   1       0.721  -1.904   0.548  0.00  0.00     0.017 A 
ATOM      6  C5  UNL d   1       1.867  -2.551   0.075  0.00  0.00     0.034 A 
ATOM      7 Cl   UNL d   1      -0.387  -1.273  -0.618  0.00  0.00    -0.070 Cl
ATOM      8 Cl1  UNL d   1      -0.885  -1.005   2.588  0.00  0.00    -0.070 Cl
ENDROOT
TORSDOF 0
ENDMDL
