MODEL 1
REMARK minimizedAffinity -0.711268544
REMARK minimizedRMSD -1
REMARK  0 active torsions:
REMARK  status: ('A' for Active; 'I' for Inactive)
ROOT
ATOM      1  C   UNL d   1       5.990  -0.586  -4.209  0.00  0.00     0.020 A 
ATOM      2  C1  UNL d   1       5.997   0.808  -4.201  0.00  0.00     0.020 A 
ATOM      3  C2  UNL d   1       6.000   1.500  -2.988  0.00  0.00     0.034 A 
ATOM      4  C3  UNL d   1       5.995   0.797  -1.777  0.00  0.00     0.017 A 
ATOM      5  C4  UNL d   1       5.988  -0.603  -1.786  0.00  0.00     0.017 A 
ATOM      6  C5  UNL d   1       5.986  -1.290  -3.004  0.00  0.00     0.034 A 
ATOM      7 Cl   UNL d   1       5.982  -1.539  -0.333  0.00  0.00    -0.070 Cl
ATOM      8 Cl1  UNL d   1       5.999   1.717  -0.314  0.00  0.00    -0.070 Cl
ENDROOT
TORSDOF 0
ENDMDL
