MODEL 1
REMARK minimizedAffinity 1.22612977
REMARK minimizedRMSD -1
REMARK  0 active torsions:
REMARK  status: ('A' for Active; 'I' for Inactive)
ROOT
ATOM      1  C   UNL d   1      -1.207  -0.846   3.402  0.00  0.00     0.020 A 
ATOM      2  C1  UNL d   1       0.113  -1.178   3.703  0.00  0.00     0.020 A 
ATOM      3  C2  UNL d   1       0.948  -1.691   2.708  0.00  0.00     0.034 A 
ATOM      4  C3  UNL d   1       0.463  -1.874   1.408  0.00  0.00     0.017 A 
ATOM      5  C4  UNL d   1      -0.862  -1.541   1.107  0.00  0.00     0.017 A 
ATOM      6  C5  UNL d   1      -1.694  -1.027   2.107  0.00  0.00     0.034 A 
ATOM      7 Cl   UNL d   1      -1.532  -1.739  -0.474  0.00  0.00    -0.070 Cl
ATOM      8 Cl1  UNL d   1       1.551  -2.514   0.228  0.00  0.00    -0.070 Cl
ENDROOT
TORSDOF 0
ENDMDL
