MODEL 1
REMARK minimizedAffinity 2.05049658
REMARK minimizedRMSD -1
REMARK  0 active torsions:
REMARK  status: ('A' for Active; 'I' for Inactive)
ROOT
ATOM      1  C   UNL d   1      -1.029   1.216  -3.148  0.00  0.00     0.020 A 
ATOM      2  C1  UNL d   1      -0.945   2.334  -2.319  0.00  0.00     0.020 A 
ATOM      3  C2  UNL d   1      -0.047   3.360  -2.619  0.00  0.00     0.034 A 
ATOM      4  C3  UNL d   1       0.770   3.272  -3.752  0.00  0.00     0.017 A 
ATOM      5  C4  UNL d   1       0.685   2.149  -4.584  0.00  0.00     0.017 A 
ATOM      6  C5  UNL d   1      -0.215   1.124  -4.278  0.00  0.00     0.034 A 
ATOM      7 Cl   UNL d   1       1.661   1.968  -5.999  0.00  0.00    -0.070 Cl
ATOM      8 Cl1  UNL d   1       1.857   4.578  -4.063  0.00  0.00    -0.070 Cl
ENDROOT
TORSDOF 0
ENDMDL
