MODEL 1
REMARK minimizedAffinity 5.72779417
REMARK minimizedRMSD -1
REMARK  0 active torsions:
REMARK  status: ('A' for Active; 'I' for Inactive)
ROOT
ATOM      1  C   UNL d   1       1.331   2.183   3.312  0.00  0.00     0.020 A 
ATOM      2  C1  UNL d   1       1.995   2.456   2.117  0.00  0.00     0.020 A 
ATOM      3  C2  UNL d   1       2.269   1.422   1.219  0.00  0.00     0.034 A 
ATOM      4  C3  UNL d   1       1.878   0.111   1.515  0.00  0.00     0.017 A 
ATOM      5  C4  UNL d   1       1.211  -0.162   2.715  0.00  0.00     0.017 A 
ATOM      6  C5  UNL d   1       0.940   0.877   3.610  0.00  0.00     0.034 A 
ATOM      7 Cl   UNL d   1       0.698  -1.754   3.149  0.00  0.00    -0.070 Cl
ATOM      8 Cl1  UNL d   1       2.248  -1.118   0.358  0.00  0.00    -0.070 Cl
ENDROOT
TORSDOF 0
ENDMDL
