MODEL 1
REMARK minimizedAffinity 5.3131361
REMARK minimizedRMSD -1
REMARK  0 active torsions:
REMARK  status: ('A' for Active; 'I' for Inactive)
ROOT
ATOM      1  C   UNL d   1       3.259  -5.332   1.368  0.00  0.00     0.020 A 
ATOM      2  C1  UNL d   1       4.602  -5.007   1.179  0.00  0.00     0.020 A 
ATOM      3  C2  UNL d   1       4.984  -3.671   1.045  0.00  0.00     0.034 A 
ATOM      4  C3  UNL d   1       4.024  -2.655   1.100  0.00  0.00     0.017 A 
ATOM      5  C4  UNL d   1       2.676  -2.982   1.290  0.00  0.00     0.017 A 
ATOM      6  C5  UNL d   1       2.298  -4.322   1.424  0.00  0.00     0.034 A 
ATOM      7 Cl   UNL d   1       1.434  -1.783   1.369  0.00  0.00    -0.070 Cl
ATOM      8 Cl1  UNL d   1       4.568  -1.024   0.927  0.00  0.00    -0.070 Cl
ENDROOT
TORSDOF 0
ENDMDL
