MODEL 1
REMARK minimizedAffinity 6.01501846
REMARK minimizedRMSD -1
REMARK  0 active torsions:
REMARK  status: ('A' for Active; 'I' for Inactive)
ROOT
ATOM      1  C   UNL d   1       1.845   3.887  -5.124  0.00  0.00     0.020 A 
ATOM      2  C1  UNL d   1       1.717   4.102  -3.752  0.00  0.00     0.020 A 
ATOM      3  C2  UNL d   1       0.735   3.422  -3.028  0.00  0.00     0.034 A 
ATOM      4  C3  UNL d   1      -0.122   2.525  -3.675  0.00  0.00     0.017 A 
ATOM      5  C4  UNL d   1       0.008   2.310  -5.052  0.00  0.00     0.017 A 
ATOM      6  C5  UNL d   1       0.993   2.993  -5.772  0.00  0.00     0.034 A 
ATOM      7 Cl   UNL d   1      -1.013   1.218  -5.920  0.00  0.00    -0.070 Cl
ATOM      8 Cl1  UNL d   1      -1.312   1.719  -2.717  0.00  0.00    -0.070 Cl
ENDROOT
TORSDOF 0
ENDMDL
