MODEL 1
REMARK minimizedAffinity 8.09170055
REMARK minimizedRMSD -1
REMARK  0 active torsions:
REMARK  status: ('A' for Active; 'I' for Inactive)
ROOT
ATOM      1  C   UNL d   1       0.379  -1.678   2.119  0.00  0.00     0.020 A 
ATOM      2  C1  UNL d   1       0.271  -0.771   3.172  0.00  0.00     0.020 A 
ATOM      3  C2  UNL d   1      -0.892  -0.013   3.324  0.00  0.00     0.034 A 
ATOM      4  C3  UNL d   1      -1.951  -0.159   2.421  0.00  0.00     0.017 A 
ATOM      5  C4  UNL d   1      -1.841  -1.070   1.364  0.00  0.00     0.017 A 
ATOM      6  C5  UNL d   1      -0.675  -1.827   1.217  0.00  0.00     0.034 A 
ATOM      7 Cl   UNL d   1      -3.106  -1.307   0.210  0.00  0.00    -0.070 Cl
ATOM      8 Cl1  UNL d   1      -3.359   0.810   2.670  0.00  0.00    -0.070 Cl
ENDROOT
TORSDOF 0
ENDMDL
