MODEL 1
REMARK minimizedAffinity 4.30360746
REMARK minimizedRMSD -1
REMARK  0 active torsions:
REMARK  status: ('A' for Active; 'I' for Inactive)
ROOT
ATOM      1  C   UNL d   1       1.772  -4.124   0.879  0.00  0.00     0.020 A 
ATOM      2  C1  UNL d   1       2.560  -3.420  -0.031  0.00  0.00     0.020 A 
ATOM      3  C2  UNL d   1       2.600  -2.025   0.012  0.00  0.00     0.034 A 
ATOM      4  C3  UNL d   1       1.851  -1.329   0.968  0.00  0.00     0.017 A 
ATOM      5  C4  UNL d   1       1.060  -2.036   1.881  0.00  0.00     0.017 A 
ATOM      6  C5  UNL d   1       1.024  -3.433   1.833  0.00  0.00     0.034 A 
ATOM      7 Cl   UNL d   1       0.108  -1.246   3.089  0.00  0.00    -0.070 Cl
ATOM      8 Cl1  UNL d   1       1.948   0.396   0.964  0.00  0.00    -0.070 Cl
ENDROOT
TORSDOF 0
ENDMDL
