MODEL 1
REMARK minimizedAffinity -3.16098309
REMARK minimizedRMSD -1
REMARK  1 active torsions:
REMARK  status: ('A' for Active; 'I' for Inactive)
REMARK    1  A    between atoms: C1_2  and  C2_3 
ROOT
ATOM      1  C2  UNL d   1       0.559   1.181  -1.293  0.00  0.00    -0.077 A 
ATOM      2  C3  UNL d   1      -0.081   0.910  -2.511  0.00  0.00     0.002 A 
ATOM      3  C4  UNL d   1       0.488   1.329  -3.716  0.00  0.00     0.002 A 
ATOM      4  C5  UNL d   1       1.699   2.017  -3.714  0.00  0.00    -0.004 A 
ATOM      5  C6  UNL d   1       2.342   2.293  -2.508  0.00  0.00     0.002 A 
ATOM      6  C7  UNL d   1       1.775   1.876  -1.303  0.00  0.00     0.002 A 
ENDROOT
BRANCH   1   7
ATOM      7  C1  UNL d   1      -0.028   0.687   0.003  0.00  0.00     0.055 C 
ATOM      8  C   UNL d   1       0.271  -0.790   0.219  0.00  0.00     0.019 C 
ENDBRANCH   1   7
TORSDOF 1
ENDMDL
