MODEL 1
REMARK minimizedAffinity -4.88823414
REMARK minimizedRMSD -1
REMARK  1 active torsions:
REMARK  status: ('A' for Active; 'I' for Inactive)
REMARK    1  A    between atoms: C1_2  and  C2_3 
ROOT
ATOM      1  C2  UNL d   1      -0.403  -0.728   0.379  0.00  0.00    -0.077 A 
ATOM      2  C3  UNL d   1      -1.432   0.192   0.622  0.00  0.00     0.002 A 
ATOM      3  C4  UNL d   1      -2.674  -0.245   1.087  0.00  0.00     0.002 A 
ATOM      4  C5  UNL d   1      -2.897  -1.601   1.316  0.00  0.00    -0.004 A 
ATOM      5  C6  UNL d   1      -1.880  -2.524   1.075  0.00  0.00     0.002 A 
ATOM      6  C7  UNL d   1      -0.638  -2.090   0.610  0.00  0.00     0.002 A 
ENDROOT
BRANCH   1   7
ATOM      7  C1  UNL d   1       0.953  -0.254  -0.074  0.00  0.00     0.055 C 
ATOM      8  C   UNL d   1       2.044  -1.240   0.317  0.00  0.00     0.019 C 
ENDBRANCH   1   7
TORSDOF 1
ENDMDL
