MODEL 1
REMARK minimizedAffinity -5.62717295
REMARK minimizedRMSD -1
REMARK  1 active torsions:
REMARK  status: ('A' for Active; 'I' for Inactive)
REMARK    1  A    between atoms: C1_2  and  C2_3 
ROOT
ATOM      1  C2  UNL d   1      -0.665  -1.015   0.991  0.00  0.00    -0.077 A 
ATOM      2  C3  UNL d   1      -1.725  -0.172   1.353  0.00  0.00     0.002 A 
ATOM      3  C4  UNL d   1      -1.664   1.196   1.080  0.00  0.00     0.002 A 
ATOM      4  C5  UNL d   1      -0.548   1.732   0.441  0.00  0.00    -0.004 A 
ATOM      5  C6  UNL d   1       0.512   0.902   0.078  0.00  0.00     0.002 A 
ATOM      6  C7  UNL d   1       0.454  -0.465   0.351  0.00  0.00     0.002 A 
ENDROOT
BRANCH   1   7
ATOM      7  C1  UNL d   1      -0.750  -2.498   1.240  0.00  0.00     0.055 C 
ATOM      8  C   UNL d   1      -2.195  -2.976   1.247  0.00  0.00     0.019 C 
ENDBRANCH   1   7
TORSDOF 1
ENDMDL
