MODEL 1
REMARK minimizedAffinity -4.31388664
REMARK minimizedRMSD -1
REMARK  1 active torsions:
REMARK  status: ('A' for Active; 'I' for Inactive)
REMARK    1  A    between atoms: C1_2  and  C2_3 
ROOT
ATOM      1  C2  UNL d   1       0.066  -0.098   0.132  0.00  0.00    -0.077 A 
ATOM      2  C3  UNL d   1       0.760  -1.099   0.826  0.00  0.00     0.002 A 
ATOM      3  C4  UNL d   1       0.115  -2.283   1.190  0.00  0.00     0.002 A 
ATOM      4  C5  UNL d   1      -1.225  -2.478   0.862  0.00  0.00    -0.004 A 
ATOM      5  C6  UNL d   1      -1.925  -1.487   0.174  0.00  0.00     0.002 A 
ATOM      6  C7  UNL d   1      -1.282  -0.303  -0.190  0.00  0.00     0.002 A 
ENDROOT
BRANCH   1   7
ATOM      7  C1  UNL d   1       0.773   1.158  -0.305  0.00  0.00     0.055 C 
ATOM      8  C   UNL d   1       0.353   1.569  -1.709  0.00  0.00     0.019 C 
ENDBRANCH   1   7
TORSDOF 1
ENDMDL
