MODEL 1
REMARK minimizedAffinity -5.7759552
REMARK minimizedRMSD -1
REMARK  1 active torsions:
REMARK  status: ('A' for Active; 'I' for Inactive)
REMARK    1  A    between atoms: C1_2  and  C2_3 
ROOT
ATOM      1  C2  UNL d   1      -1.460  -0.809   1.005  0.00  0.00    -0.077 A 
ATOM      2  C3  UNL d   1      -0.207  -1.294   0.604  0.00  0.00     0.002 A 
ATOM      3  C4  UNL d   1       0.781  -0.414   0.156  0.00  0.00     0.002 A 
ATOM      4  C5  UNL d   1       0.527   0.956   0.110  0.00  0.00    -0.004 A 
ATOM      5  C6  UNL d   1      -0.717   1.447   0.505  0.00  0.00     0.002 A 
ATOM      6  C7  UNL d   1      -1.705   0.569   0.951  0.00  0.00     0.002 A 
ENDROOT
BRANCH   1   7
ATOM      7  C1  UNL d   1      -2.509  -1.752   1.534  0.00  0.00     0.055 C 
ATOM      8  C   UNL d   1      -1.993  -3.183   1.583  0.00  0.00     0.019 C 
ENDBRANCH   1   7
TORSDOF 1
ENDMDL
