MODEL 1
REMARK minimizedAffinity -6.24061251
REMARK minimizedRMSD -1
REMARK  1 active torsions:
REMARK  status: ('A' for Active; 'I' for Inactive)
REMARK    1  A    between atoms: C1_2  and  C2_3 
ROOT
ATOM      1  C2  UNL d   1      -1.025  -0.565   0.286  0.00  0.00    -0.077 A 
ATOM      2  C3  UNL d   1      -2.016  -0.010   1.107  0.00  0.00     0.002 A 
ATOM      3  C4  UNL d   1      -2.841  -0.835   1.874  0.00  0.00     0.002 A 
ATOM      4  C5  UNL d   1      -2.681  -2.218   1.830  0.00  0.00    -0.004 A 
ATOM      5  C6  UNL d   1      -1.699  -2.780   1.015  0.00  0.00     0.002 A 
ATOM      6  C7  UNL d   1      -0.874  -1.957   0.247  0.00  0.00     0.002 A 
ENDROOT
BRANCH   1   7
ATOM      7  C1  UNL d   1      -0.101   0.325  -0.504  0.00  0.00     0.055 C 
ATOM      8  C   UNL d   1       1.261   0.442   0.164  0.00  0.00     0.019 C 
ENDBRANCH   1   7
TORSDOF 1
ENDMDL
