MODEL 1
REMARK minimizedAffinity -6.02663469
REMARK minimizedRMSD -1
REMARK  1 active torsions:
REMARK  status: ('A' for Active; 'I' for Inactive)
REMARK    1  A    between atoms: C1_2  and  C2_3 
ROOT
ATOM      1  C2  UNL d   1      -0.659  -0.148   0.680  0.00  0.00    -0.077 A 
ATOM      2  C3  UNL d   1      -1.941  -0.061   1.242  0.00  0.00     0.002 A 
ATOM      3  C4  UNL d   1      -2.623  -1.217   1.625  0.00  0.00     0.002 A 
ATOM      4  C5  UNL d   1      -2.032  -2.467   1.456  0.00  0.00    -0.004 A 
ATOM      5  C6  UNL d   1      -0.758  -2.564   0.896  0.00  0.00     0.002 A 
ATOM      6  C7  UNL d   1      -0.075  -1.410   0.510  0.00  0.00     0.002 A 
ENDROOT
BRANCH   1   7
ATOM      7  C1  UNL d   1       0.099   1.100   0.310  0.00  0.00     0.055 C 
ATOM      8  C   UNL d   1       0.404   1.142  -1.180  0.00  0.00     0.019 C 
ENDBRANCH   1   7
TORSDOF 1
ENDMDL
