MODEL 1
REMARK minimizedAffinity -5.51522017
REMARK minimizedRMSD -1
REMARK  1 active torsions:
REMARK  status: ('A' for Active; 'I' for Inactive)
REMARK    1  A    between atoms: C1_2  and  C2_3 
ROOT
ATOM      1  C2  UNL d   1      -0.332  -1.007   0.693  0.00  0.00    -0.077 A 
ATOM      2  C3  UNL d   1      -1.423  -0.173   0.972  0.00  0.00     0.002 A 
ATOM      3  C4  UNL d   1      -2.595  -0.701   1.519  0.00  0.00     0.002 A 
ATOM      4  C5  UNL d   1      -2.684  -2.064   1.794  0.00  0.00    -0.004 A 
ATOM      5  C6  UNL d   1      -1.605  -2.902   1.518  0.00  0.00     0.002 A 
ATOM      6  C7  UNL d   1      -0.433  -2.376   0.971  0.00  0.00     0.002 A 
ENDROOT
BRANCH   1   7
ATOM      7  C1  UNL d   1       0.950  -0.431   0.150  0.00  0.00     0.055 C 
ATOM      8  C   UNL d   1       0.822   1.064  -0.101  0.00  0.00     0.019 C 
ENDBRANCH   1   7
TORSDOF 1
ENDMDL
