MODEL 1
REMARK minimizedAffinity -5.41035414
REMARK minimizedRMSD -1
REMARK  1 active torsions:
REMARK  status: ('A' for Active; 'I' for Inactive)
REMARK    1  A    between atoms: C1_2  and  C2_3 
ROOT
ATOM      1  C2  UNL d   1      -0.526  -0.795   0.659  0.00  0.00    -0.077 A 
ATOM      2  C3  UNL d   1      -1.439   0.227   0.954  0.00  0.00     0.002 A 
ATOM      3  C4  UNL d   1      -2.625  -0.060   1.632  0.00  0.00     0.002 A 
ATOM      4  C5  UNL d   1      -2.907  -1.366   2.026  0.00  0.00    -0.004 A 
ATOM      5  C6  UNL d   1      -2.006  -2.390   1.736  0.00  0.00     0.002 A 
ATOM      6  C7  UNL d   1      -0.820  -2.106   1.057  0.00  0.00     0.002 A 
ENDROOT
BRANCH   1   7
ATOM      7  C1  UNL d   1       0.777  -0.480  -0.029  0.00  0.00     0.055 C 
ATOM      8  C   UNL d   1       0.757   0.913  -0.641  0.00  0.00     0.019 C 
ENDBRANCH   1   7
TORSDOF 1
ENDMDL
