MODEL 1
REMARK minimizedAffinity 9.4675951
REMARK minimizedRMSD -1
REMARK  1 active torsions:
REMARK  status: ('A' for Active; 'I' for Inactive)
REMARK    1  A    between atoms: C1_2  and  C2_3 
ROOT
ATOM      1  C2  UNL d   1      -3.920   2.778  -3.692  0.00  0.00    -0.073 A 
ATOM      2  C3  UNL d   1      -4.847   3.786  -3.981  0.00  0.00    -0.002 A 
ATOM      3  C4  UNL d   1      -5.880   3.554  -4.891  0.00  0.00     0.004 A 
ATOM      4  C5  UNL d   1      -6.000   2.312  -5.515  0.00  0.00    -0.004 A 
ATOM      5  C6  UNL d   1      -5.090   1.288  -5.230  0.00  0.00    -0.075 A 
ATOM      6  C7  UNL d   1      -5.205  -0.052  -5.894  0.00  0.00     0.076 C 
ATOM      7  C8  UNL d   1      -4.055   1.530  -4.317  0.00  0.00     0.001 A 
ENDROOT
BRANCH   1   8
ATOM      8  C1  UNL d   1      -2.807   3.022  -2.706  0.00  0.00     0.053 C 
ATOM      9  C   UNL d   1      -1.445   3.056  -3.380  0.00  0.00     0.018 C 
ENDBRANCH   1   8
TORSDOF 1
ENDMDL
