MODEL 1
REMARK minimizedAffinity 7.41557312
REMARK minimizedRMSD -1
REMARK  1 active torsions:
REMARK  status: ('A' for Active; 'I' for Inactive)
REMARK    1  A    between atoms: C1_2  and  C2_3 
ROOT
ATOM      1  C2  UNL d   1       0.477  -1.305   1.803  0.00  0.00    -0.073 A 
ATOM      2  C3  UNL d   1       1.056  -1.130   3.065  0.00  0.00    -0.002 A 
ATOM      3  C4  UNL d   1       0.354  -0.478   4.079  0.00  0.00     0.004 A 
ATOM      4  C5  UNL d   1      -0.936  -0.000   3.844  0.00  0.00    -0.004 A 
ATOM      5  C6  UNL d   1      -1.536  -0.176   2.593  0.00  0.00    -0.075 A 
ATOM      6  C7  UNL d   1      -2.922   0.333   2.324  0.00  0.00     0.076 C 
ATOM      7  C8  UNL d   1      -0.823  -0.830   1.579  0.00  0.00     0.001 A 
ENDROOT
BRANCH   1   8
ATOM      8  C1  UNL d   1       1.229  -2.015   0.707  0.00  0.00     0.053 C 
ATOM      9  C   UNL d   1       1.887  -1.040  -0.257  0.00  0.00     0.018 C 
ENDBRANCH   1   8
TORSDOF 1
ENDMDL
