MODEL 1
REMARK minimizedAffinity 4.44958258
REMARK minimizedRMSD -1
REMARK  1 active torsions:
REMARK  status: ('A' for Active; 'I' for Inactive)
REMARK    1  A    between atoms: C1_2  and  C2_3 
ROOT
ATOM      1  C2  UNL d   1      -3.803   1.652  -3.666  0.00  0.00    -0.073 A 
ATOM      2  C3  UNL d   1      -4.481   1.541  -4.886  0.00  0.00    -0.002 A 
ATOM      3  C4  UNL d   1      -4.930   0.297  -5.332  0.00  0.00     0.004 A 
ATOM      4  C5  UNL d   1      -4.714  -0.845  -4.562  0.00  0.00    -0.004 A 
ATOM      5  C6  UNL d   1      -4.049  -0.753  -3.335  0.00  0.00    -0.075 A 
ATOM      6  C7  UNL d   1      -3.806  -1.973  -2.495  0.00  0.00     0.076 C 
ATOM      7  C8  UNL d   1      -3.598   0.499  -2.895  0.00  0.00     0.001 A 
ENDROOT
BRANCH   1   8
ATOM      8  C1  UNL d   1      -3.322   2.993  -3.177  0.00  0.00     0.053 C 
ATOM      9  C   UNL d   1      -1.820   3.157  -3.348  0.00  0.00     0.018 C 
ENDBRANCH   1   8
TORSDOF 1
ENDMDL
