MODEL 1
REMARK minimizedAffinity 5.00348186
REMARK minimizedRMSD -1
REMARK  1 active torsions:
REMARK  status: ('A' for Active; 'I' for Inactive)
REMARK    1  A    between atoms: C1_2  and  C2_3 
ROOT
ATOM      1  C2  UNL d   1       1.263  -1.542   1.287  0.00  0.00    -0.073 A 
ATOM      2  C3  UNL d   1       1.934  -1.112   2.437  0.00  0.00    -0.002 A 
ATOM      3  C4  UNL d   1       1.234  -0.485   3.469  0.00  0.00     0.004 A 
ATOM      4  C5  UNL d   1      -0.143  -0.288   3.365  0.00  0.00    -0.004 A 
ATOM      5  C6  UNL d   1      -0.833  -0.721   2.228  0.00  0.00    -0.075 A 
ATOM      6  C7  UNL d   1      -2.314  -0.514   2.099  0.00  0.00     0.076 C 
ATOM      7  C8  UNL d   1      -0.123  -1.347   1.195  0.00  0.00     0.001 A 
ENDROOT
BRANCH   1   8
ATOM      8  C1  UNL d   1       2.013  -2.224   0.173  0.00  0.00     0.053 C 
ATOM      9  C   UNL d   1       2.416  -1.251  -0.924  0.00  0.00     0.018 C 
ENDBRANCH   1   8
TORSDOF 1
ENDMDL
