MODEL 1
REMARK minimizedAffinity 1.80141747
REMARK minimizedRMSD -1
REMARK  1 active torsions:
REMARK  status: ('A' for Active; 'I' for Inactive)
REMARK    1  A    between atoms: C1_2  and  C2_3 
ROOT
ATOM      1  C2  UNL d   1       2.008   0.492  -1.656  0.00  0.00    -0.073 A 
ATOM      2  C3  UNL d   1       2.584   1.268  -0.644  0.00  0.00    -0.002 A 
ATOM      3  C4  UNL d   1       2.624   2.659  -0.758  0.00  0.00     0.004 A 
ATOM      4  C5  UNL d   1       2.081   3.287  -1.878  0.00  0.00    -0.004 A 
ATOM      5  C6  UNL d   1       1.490   2.530  -2.895  0.00  0.00    -0.075 A 
ATOM      6  C7  UNL d   1       0.904   3.190  -4.108  0.00  0.00     0.076 C 
ATOM      7  C8  UNL d   1       1.457   1.134  -2.775  0.00  0.00     0.001 A 
ENDROOT
BRANCH   1   8
ATOM      8  C1  UNL d   1       1.957  -1.009  -1.535  0.00  0.00     0.053 C 
ATOM      9  C   UNL d   1       1.609  -1.455  -0.124  0.00  0.00     0.018 C 
ENDBRANCH   1   8
TORSDOF 1
ENDMDL
