MODEL 1
REMARK minimizedAffinity 0.880050719
REMARK minimizedRMSD -1
REMARK  0 active torsions:
REMARK  status: ('A' for Active; 'I' for Inactive)
ROOT
ATOM      1  C2' OXE d   1       1.007   2.276   0.005  0.00  0.00     0.078 C 
ATOM      2  C1' OXE d   1       2.852   0.414   1.009  0.00  0.00     0.078 C 
ATOM      3  C1  OXE d   1       1.436  -0.052   0.781  0.00  0.00    -0.078 A 
ATOM      4  C2  OXE d   1       0.529   0.878   0.334  0.00  0.00    -0.078 A 
ATOM      5  C3  OXE d   1      -0.778   0.488   0.055  0.00  0.00     0.003 A 
ATOM      6  C4  OXE d   1      -1.214  -0.805   0.371  0.00  0.00    -0.002 A 
ATOM      7  C5  OXE d   1      -0.316  -1.756   0.865  0.00  0.00    -0.002 A 
ATOM      8  C6  OXE d   1       1.019  -1.409   1.035  0.00  0.00     0.003 A 
ENDROOT
TORSDOF 0
ENDMDL
