MODEL 1
REMARK minimizedAffinity -5.18454456
REMARK minimizedRMSD -1
REMARK  0 active torsions:
REMARK  status: ('A' for Active; 'I' for Inactive)
ROOT
ATOM      1  C2' OXE d   1       2.144   1.958   0.383  0.00  0.00     0.078 C 
ATOM      2  C1' OXE d   1       3.404  -0.548   0.260  0.00  0.00     0.078 C 
ATOM      3  C1  OXE d   1       1.902  -0.521   0.395  0.00  0.00    -0.078 A 
ATOM      4  C2  OXE d   1       1.299   0.708   0.502  0.00  0.00    -0.078 A 
ATOM      5  C3  OXE d   1      -0.089   0.791   0.575  0.00  0.00     0.003 A 
ATOM      6  C4  OXE d   1      -0.863  -0.369   0.694  0.00  0.00    -0.002 A 
ATOM      7  C5  OXE d   1      -0.265  -1.632   0.627  0.00  0.00    -0.002 A 
ATOM      8  C6  OXE d   1       1.109  -1.725   0.436  0.00  0.00     0.003 A 
ENDROOT
TORSDOF 0
ENDMDL
