MODEL 1
REMARK minimizedAffinity -5.80604506
REMARK minimizedRMSD -1
REMARK  0 active torsions:
REMARK  status: ('A' for Active; 'I' for Inactive)
ROOT
ATOM      1  C2' OXE d   1       0.753   2.400  -0.128  0.00  0.00     0.078 C 
ATOM      2  C1' OXE d   1      -1.141   0.341  -0.365  0.00  0.00     0.078 C 
ATOM      3  C1  OXE d   1       0.249  -0.030   0.088  0.00  0.00    -0.078 A 
ATOM      4  C2  OXE d   1       1.182   0.977   0.156  0.00  0.00    -0.078 A 
ATOM      5  C3  OXE d   1       2.464   0.698   0.620  0.00  0.00     0.003 A 
ATOM      6  C4  OXE d   1       2.856  -0.622   0.872  0.00  0.00    -0.002 A 
ATOM      7  C5  OXE d   1       1.933  -1.668   0.770  0.00  0.00    -0.002 A 
ATOM      8  C6  OXE d   1       0.617  -1.384   0.422  0.00  0.00     0.003 A 
ENDROOT
TORSDOF 0
ENDMDL
