MODEL 1
REMARK minimizedAffinity -6.2792263
REMARK minimizedRMSD -1
REMARK  0 active torsions:
REMARK  status: ('A' for Active; 'I' for Inactive)
ROOT
ATOM      1  C2' OXE d   1      -0.769  -0.430   0.036  0.00  0.00     0.078 C 
ATOM      2  C1' OXE d   1       0.426  -2.653   1.265  0.00  0.00     0.078 C 
ATOM      3  C1  OXE d   1       1.269  -1.417   1.074  0.00  0.00    -0.078 A 
ATOM      4  C2  OXE d   1       0.690  -0.350   0.429  0.00  0.00    -0.078 A 
ATOM      5  C3  OXE d   1       1.406   0.833   0.276  0.00  0.00     0.003 A 
ATOM      6  C4  OXE d   1       2.758   0.895   0.633  0.00  0.00    -0.002 A 
ATOM      7  C5  OXE d   1       3.379  -0.194   1.255  0.00  0.00    -0.002 A 
ATOM      8  C6  OXE d   1       2.638  -1.340   1.520  0.00  0.00     0.003 A 
ENDROOT
TORSDOF 0
ENDMDL
