MODEL 1
REMARK minimizedAffinity -3.52170491
REMARK minimizedRMSD -1
REMARK  0 active torsions:
REMARK  status: ('A' for Active; 'I' for Inactive)
ROOT
ATOM      1  C2' OXE d   1       3.260  -0.188   0.748  0.00  0.00     0.078 C 
ATOM      2  C1' OXE d   1       1.911   2.233   0.300  0.00  0.00     0.078 C 
ATOM      3  C1  OXE d   1       1.079   0.993   0.515  0.00  0.00    -0.078 A 
ATOM      4  C2  OXE d   1       1.748  -0.195   0.687  0.00  0.00    -0.078 A 
ATOM      5  C3  OXE d   1       1.030  -1.359   0.944  0.00  0.00     0.003 A 
ATOM      6  C4  OXE d   1      -0.369  -1.359   0.876  0.00  0.00    -0.002 A 
ATOM      7  C5  OXE d   1      -1.069  -0.166   0.663  0.00  0.00    -0.002 A 
ATOM      8  C6  OXE d   1      -0.362   1.023   0.523  0.00  0.00     0.003 A 
ENDROOT
TORSDOF 0
ENDMDL
