MODEL 1
REMARK minimizedAffinity -5.00717354
REMARK minimizedRMSD -1
REMARK  0 active torsions:
REMARK  status: ('A' for Active; 'I' for Inactive)
ROOT
ATOM      1  C2' OXE d   1      -0.390  -0.576   0.284  0.00  0.00     0.078 C 
ATOM      2  C1' OXE d   1       0.672  -2.769   1.678  0.00  0.00     0.078 C 
ATOM      3  C1  OXE d   1       1.594  -1.614   1.376  0.00  0.00    -0.078 A 
ATOM      4  C2  OXE d   1       1.078  -0.566   0.653  0.00  0.00    -0.078 A 
ATOM      5  C3  OXE d   1       1.870   0.549   0.395  0.00  0.00     0.003 A 
ATOM      6  C4  OXE d   1       3.229   0.546   0.731  0.00  0.00    -0.002 A 
ATOM      7  C5  OXE d   1       3.785  -0.529   1.433  0.00  0.00    -0.002 A 
ATOM      8  C6  OXE d   1       2.972  -1.596   1.799  0.00  0.00     0.003 A 
ENDROOT
TORSDOF 0
ENDMDL
