MODEL 1
REMARK minimizedAffinity -3.23632216
REMARK minimizedRMSD -1
REMARK  0 active torsions:
REMARK  status: ('A' for Active; 'I' for Inactive)
ROOT
ATOM      1  C2' OXE d   1      -0.921  -0.217  -0.670  0.00  0.00     0.078 C 
ATOM      2  C1' OXE d   1       0.418   2.233  -0.382  0.00  0.00     0.078 C 
ATOM      3  C1  OXE d   1       1.103   0.992   0.133  0.00  0.00    -0.078 A 
ATOM      4  C2  OXE d   1       0.420  -0.196   0.030  0.00  0.00    -0.078 A 
ATOM      5  C3  OXE d   1       1.029  -1.379   0.440  0.00  0.00     0.003 A 
ATOM      6  C4  OXE d   1       2.266  -1.349   1.096  0.00  0.00    -0.002 A 
ATOM      7  C5  OXE d   1       2.961  -0.144   1.247  0.00  0.00    -0.002 A 
ATOM      8  C6  OXE d   1       2.414   1.027   0.735  0.00  0.00     0.003 A 
ENDROOT
TORSDOF 0
ENDMDL
