MODEL 1
REMARK minimizedAffinity -5.38573599
REMARK minimizedRMSD -1
REMARK  0 active torsions:
REMARK  status: ('A' for Active; 'I' for Inactive)
ROOT
ATOM      1  C2' OXE d   1       0.267   2.244   0.431  0.00  0.00     0.078 C 
ATOM      2  C1' OXE d   1      -1.261  -0.094   0.146  0.00  0.00     0.078 C 
ATOM      3  C1  OXE d   1       0.216  -0.247   0.412  0.00  0.00    -0.078 A 
ATOM      4  C2  OXE d   1       0.964   0.902   0.503  0.00  0.00    -0.078 A 
ATOM      5  C3  OXE d   1       2.321   0.819   0.802  0.00  0.00     0.003 A 
ATOM      6  C4  OXE d   1       2.960  -0.426   0.858  0.00  0.00    -0.002 A 
ATOM      7  C5  OXE d   1       2.223  -1.608   0.728  0.00  0.00    -0.002 A 
ATOM      8  C6  OXE d   1       0.846  -1.537   0.547  0.00  0.00     0.003 A 
ENDROOT
TORSDOF 0
ENDMDL
