MODEL 1
REMARK minimizedAffinity -4.0203433
REMARK minimizedRMSD -1
REMARK  0 active torsions:
REMARK  status: ('A' for Active; 'I' for Inactive)
ROOT
ATOM      1  C2' OXE d   1       0.613  -0.328   0.192  0.00  0.00     0.078 C 
ATOM      2  C1' OXE d   1      -2.054  -0.992   0.762  0.00  0.00     0.078 C 
ATOM      3  C1  OXE d   1      -1.776  -0.220  -0.504  0.00  0.00    -0.078 A 
ATOM      4  C2  OXE d   1      -0.474   0.141  -0.751  0.00  0.00    -0.078 A 
ATOM      5  C3  OXE d   1      -0.155   0.805  -1.932  0.00  0.00     0.003 A 
ATOM      6  C4  OXE d   1      -1.167   1.244  -2.794  0.00  0.00    -0.002 A 
ATOM      7  C5  OXE d   1      -2.505   0.922  -2.540  0.00  0.00    -0.002 A 
ATOM      8  C6  OXE d   1      -2.821   0.155  -1.424  0.00  0.00     0.003 A 
ENDROOT
TORSDOF 0
ENDMDL
