MODEL 1
REMARK minimizedAffinity -5.0690217
REMARK minimizedRMSD -1
REMARK  0 active torsions:
REMARK  status: ('A' for Active; 'I' for Inactive)
ROOT
ATOM      1  C2' OXE d   1       0.667   1.449  -0.244  0.00  0.00     0.078 C 
ATOM      2  C1' OXE d   1       2.674  -0.398   0.419  0.00  0.00     0.078 C 
ATOM      3  C1  OXE d   1       1.241  -0.796   0.670  0.00  0.00    -0.078 A 
ATOM      4  C2  OXE d   1       0.268   0.132   0.386  0.00  0.00    -0.078 A 
ATOM      5  C3  OXE d   1      -1.073  -0.203   0.548  0.00  0.00     0.003 A 
ATOM      6  C4  OXE d   1      -1.433  -1.420   1.141  0.00  0.00    -0.002 A 
ATOM      7  C5  OXE d   1      -0.456  -2.364   1.474  0.00  0.00    -0.002 A 
ATOM      8  C6  OXE d   1       0.880  -2.085   1.206  0.00  0.00     0.003 A 
ENDROOT
TORSDOF 0
ENDMDL
