MODEL 1
REMARK minimizedAffinity -2.00944901
REMARK minimizedRMSD -1
REMARK  0 active torsions:
REMARK  status: ('A' for Active; 'I' for Inactive)
ROOT
ATOM      1  C   UNL d   1      -1.331  -0.303   2.291  0.00  0.00     0.020 A 
ATOM      2  C1  UNL d   1      -0.223  -1.032   2.719  0.00  0.00     0.020 A 
ATOM      3  C2  UNL d   1       0.810  -1.321   1.825  0.00  0.00     0.034 A 
ATOM      4  C3  UNL d   1       0.737  -0.881   0.498  0.00  0.00     0.017 A 
ATOM      5  C4  UNL d   1      -0.377  -0.150   0.069  0.00  0.00     0.017 A 
ATOM      6  C5  UNL d   1      -1.408   0.137   0.969  0.00  0.00     0.034 A 
ATOM      7 Cl   UNL d   1      -0.538   0.427  -1.552  0.00  0.00    -0.070 Cl
ATOM      8 Cl1  UNL d   1       2.051  -1.275  -0.553  0.00  0.00    -0.070 Cl
ENDROOT
TORSDOF 0
ENDMDL
