MODEL 1
REMARK minimizedAffinity -3.75001621
REMARK minimizedRMSD -1
REMARK  0 active torsions:
REMARK  status: ('A' for Active; 'I' for Inactive)
ROOT
ATOM      1  C   UNL d   1       0.388  -1.224   2.038  0.00  0.00     0.020 A 
ATOM      2  C1  UNL d   1      -0.500  -0.149   2.051  0.00  0.00     0.020 A 
ATOM      3  C2  UNL d   1      -0.695   0.609   0.895  0.00  0.00     0.034 A 
ATOM      4  C3  UNL d   1      -0.001   0.295  -0.279  0.00  0.00     0.017 A 
ATOM      5  C4  UNL d   1       0.890  -0.784  -0.291  0.00  0.00     0.017 A 
ATOM      6  C5  UNL d   1       1.082  -1.541   0.869  0.00  0.00     0.034 A 
ATOM      7 Cl   UNL d   1       1.782  -1.234  -1.702  0.00  0.00    -0.070 Cl
ATOM      8 Cl1  UNL d   1      -0.292   1.276  -1.671  0.00  0.00    -0.070 Cl
ENDROOT
TORSDOF 0
ENDMDL
