MODEL 1
REMARK minimizedAffinity -2.44503593
REMARK minimizedRMSD -1
REMARK  0 active torsions:
REMARK  status: ('A' for Active; 'I' for Inactive)
ROOT
ATOM      1  C   UNL d   1      -0.928  -0.007   1.376  0.00  0.00     0.020 A 
ATOM      2  C1  UNL d   1      -0.549  -0.767   2.482  0.00  0.00     0.020 A 
ATOM      3  C2  UNL d   1       0.456  -1.729   2.357  0.00  0.00     0.034 A 
ATOM      4  C3  UNL d   1       1.084  -1.934   1.123  0.00  0.00     0.017 A 
ATOM      5  C4  UNL d   1       0.702  -1.171   0.014  0.00  0.00     0.017 A 
ATOM      6  C5  UNL d   1      -0.304  -0.209   0.145  0.00  0.00     0.034 A 
ATOM      7 Cl   UNL d   1       1.432  -1.367  -1.541  0.00  0.00    -0.070 Cl
ATOM      8 Cl1  UNL d   1       2.318  -3.140   1.041  0.00  0.00    -0.070 Cl
ENDROOT
TORSDOF 0
ENDMDL
