MODEL 1
REMARK minimizedAffinity -1.35661662
REMARK minimizedRMSD -1
REMARK  0 active torsions:
REMARK  status: ('A' for Active; 'I' for Inactive)
ROOT
ATOM      1  C   UNL d   1      -0.324  -0.540  -1.046  0.00  0.00     0.020 A 
ATOM      2  C1  UNL d   1      -0.622  -0.676   0.309  0.00  0.00     0.020 A 
ATOM      3  C2  UNL d   1      -0.944   0.450   1.069  0.00  0.00     0.034 A 
ATOM      4  C3  UNL d   1      -0.969   1.717   0.475  0.00  0.00     0.017 A 
ATOM      5  C4  UNL d   1      -0.669   1.853  -0.885  0.00  0.00     0.017 A 
ATOM      6  C5  UNL d   1      -0.347   0.722  -1.642  0.00  0.00     0.034 A 
ATOM      7 Cl   UNL d   1      -0.679   3.383  -1.688  0.00  0.00    -0.070 Cl
ATOM      8 Cl1  UNL d   1      -1.376   3.065   1.476  0.00  0.00    -0.070 Cl
ENDROOT
TORSDOF 0
ENDMDL
