MODEL 1
REMARK minimizedAffinity -0.696381152
REMARK minimizedRMSD -1
REMARK  0 active torsions:
REMARK  status: ('A' for Active; 'I' for Inactive)
ROOT
ATOM      1  C   UNL d   1      -1.121  -0.296   2.223  0.00  0.00     0.020 A 
ATOM      2  C1  UNL d   1      -0.002  -1.055   2.563  0.00  0.00     0.020 A 
ATOM      3  C2  UNL d   1       0.945  -1.378   1.588  0.00  0.00     0.034 A 
ATOM      4  C3  UNL d   1       0.773  -0.943   0.269  0.00  0.00     0.017 A 
ATOM      5  C4  UNL d   1      -0.351  -0.182  -0.071  0.00  0.00     0.017 A 
ATOM      6  C5  UNL d   1      -1.296   0.139   0.909  0.00  0.00     0.034 A 
ATOM      7 Cl   UNL d   1      -0.631   0.391  -1.677  0.00  0.00    -0.070 Cl
ATOM      8 Cl1  UNL d   1       1.983  -1.379  -0.884  0.00  0.00    -0.070 Cl
ENDROOT
TORSDOF 0
ENDMDL
