MODEL 1
REMARK minimizedAffinity -4.00289774
REMARK minimizedRMSD -1
REMARK  0 active torsions:
REMARK  status: ('A' for Active; 'I' for Inactive)
ROOT
ATOM      1  C   UNL d   1      -1.204   0.406   0.633  0.00  0.00     0.020 A 
ATOM      2  C1  UNL d   1      -0.990  -0.089   1.919  0.00  0.00     0.020 A 
ATOM      3  C2  UNL d   1       0.003  -1.045   2.143  0.00  0.00     0.034 A 
ATOM      4  C3  UNL d   1       0.786  -1.509   1.079  0.00  0.00     0.017 A 
ATOM      5  C4  UNL d   1       0.570  -1.011  -0.211  0.00  0.00     0.017 A 
ATOM      6  C5  UNL d   1      -0.425  -0.054  -0.430  0.00  0.00     0.034 A 
ATOM      7 Cl   UNL d   1       1.496  -1.536  -1.573  0.00  0.00    -0.070 Cl
ATOM      8 Cl1  UNL d   1       1.996  -2.691   1.429  0.00  0.00    -0.070 Cl
ENDROOT
TORSDOF 0
ENDMDL
