MODEL 1
REMARK minimizedAffinity -3.02082133
REMARK minimizedRMSD -1
REMARK  0 active torsions:
REMARK  status: ('A' for Active; 'I' for Inactive)
ROOT
ATOM      1  C   UNL d   1      -0.485   3.320  -1.878  0.00  0.00     0.020 A 
ATOM      2  C1  UNL d   1       0.032   2.778  -3.055  0.00  0.00     0.020 A 
ATOM      3  C2  UNL d   1       0.283   1.407  -3.141  0.00  0.00     0.034 A 
ATOM      4  C3  UNL d   1       0.017   0.573  -2.049  0.00  0.00     0.017 A 
ATOM      5  C4  UNL d   1      -0.503   1.117  -0.869  0.00  0.00     0.017 A 
ATOM      6  C5  UNL d   1      -0.752   2.491  -0.788  0.00  0.00     0.034 A 
ATOM      7 Cl   UNL d   1      -0.857   0.151   0.520  0.00  0.00    -0.070 Cl
ATOM      8 Cl1  UNL d   1       0.351  -1.113  -2.226  0.00  0.00    -0.070 Cl
ENDROOT
TORSDOF 0
ENDMDL
