MODEL 1
REMARK minimizedAffinity -1.93553269
REMARK minimizedRMSD -1
REMARK  0 active torsions:
REMARK  status: ('A' for Active; 'I' for Inactive)
ROOT
ATOM      1  C   UNL d   1      -1.058  -0.266   1.869  0.00  0.00     0.020 A 
ATOM      2  C1  UNL d   1      -1.021   0.190   0.552  0.00  0.00     0.020 A 
ATOM      3  C2  UNL d   1      -0.003  -0.232  -0.305  0.00  0.00     0.034 A 
ATOM      4  C3  UNL d   1       0.982  -1.114   0.153  0.00  0.00     0.017 A 
ATOM      5  C4  UNL d   1       0.944  -1.572   1.475  0.00  0.00     0.017 A 
ATOM      6  C5  UNL d   1      -0.078  -1.146   2.329  0.00  0.00     0.034 A 
ATOM      7 Cl   UNL d   1       2.125  -2.661   2.113  0.00  0.00    -0.070 Cl
ATOM      8 Cl1  UNL d   1       2.211  -1.596  -0.961  0.00  0.00    -0.070 Cl
ENDROOT
TORSDOF 0
ENDMDL
