MODEL 1
REMARK minimizedAffinity -1.85556746
REMARK minimizedRMSD -1
REMARK  0 active torsions:
REMARK  status: ('A' for Active; 'I' for Inactive)
ROOT
ATOM      1  C   UNL d   1      -1.238   0.112   1.014  0.00  0.00     0.020 A 
ATOM      2  C1  UNL d   1      -0.805  -0.341   2.259  0.00  0.00     0.020 A 
ATOM      3  C2  UNL d   1       0.278  -1.218   2.346  0.00  0.00     0.034 A 
ATOM      4  C3  UNL d   1       0.932  -1.646   1.185  0.00  0.00     0.017 A 
ATOM      5  C4  UNL d   1       0.496  -1.192  -0.065  0.00  0.00     0.017 A 
ATOM      6  C5  UNL d   1      -0.588  -0.313  -0.146  0.00  0.00     0.034 A 
ATOM      7 Cl   UNL d   1       1.252  -1.676  -1.542  0.00  0.00    -0.070 Cl
ATOM      8 Cl1  UNL d   1       2.264  -2.732   1.366  0.00  0.00    -0.070 Cl
ENDROOT
TORSDOF 0
ENDMDL
