MODEL 1
REMARK minimizedAffinity -1.19506717
REMARK minimizedRMSD -1
REMARK  0 active torsions:
REMARK  status: ('A' for Active; 'I' for Inactive)
ROOT
ATOM      1  C   UNL d   1       0.380  -1.603   2.173  0.00  0.00     0.020 A 
ATOM      2  C1  UNL d   1      -0.586  -0.597   2.157  0.00  0.00     0.020 A 
ATOM      3  C2  UNL d   1      -0.794   0.153   0.997  0.00  0.00     0.034 A 
ATOM      4  C3  UNL d   1      -0.035  -0.102  -0.151  0.00  0.00     0.017 A 
ATOM      5  C4  UNL d   1       0.934  -1.112  -0.134  0.00  0.00     0.017 A 
ATOM      6  C5  UNL d   1       1.138  -1.859   1.029  0.00  0.00     0.034 A 
ATOM      7 Cl   UNL d   1       1.909  -1.484  -1.512  0.00  0.00    -0.070 Cl
ATOM      8 Cl1  UNL d   1      -0.346   0.864  -1.550  0.00  0.00    -0.070 Cl
ENDROOT
TORSDOF 0
ENDMDL
