MODEL 1
REMARK minimizedAffinity 1.79039538
REMARK minimizedRMSD -1
REMARK  0 active torsions:
REMARK  status: ('A' for Active; 'I' for Inactive)
ROOT
ATOM      1  C1  BNZ d   1      -0.149   1.603   1.624  0.00  0.00     0.000 A 
ATOM      2  C2  BNZ d   1      -0.902   2.353   0.760  0.00  0.00     0.000 A 
ATOM      3  C3  BNZ d   1      -2.249   2.492   0.945  0.00  0.00     0.000 A 
ATOM      4  C4  BNZ d   1      -2.848   1.850   1.969  0.00  0.00     0.000 A 
ATOM      5  C5  BNZ d   1      -2.104   1.083   2.844  0.00  0.00     0.000 A 
ATOM      6  C6  BNZ d   1      -0.742   0.977   2.677  0.00  0.00     0.000 A 
ENDROOT
TORSDOF 0
ENDMDL
