MODEL 1
REMARK minimizedAffinity -1.42761111
REMARK minimizedRMSD -1
REMARK  0 active torsions:
REMARK  status: ('A' for Active; 'I' for Inactive)
ROOT
ATOM      1  C1  BNZ d   1      -0.826   1.512   2.644  0.00  0.00     0.000 A 
ATOM      2  C2  BNZ d   1      -1.532   2.686   2.661  0.00  0.00     0.000 A 
ATOM      3  C3  BNZ d   1      -2.683   2.821   1.936  0.00  0.00     0.000 A 
ATOM      4  C4  BNZ d   1      -3.104   1.798   1.165  0.00  0.00     0.000 A 
ATOM      5  C5  BNZ d   1      -2.399   0.611   1.130  0.00  0.00     0.000 A 
ATOM      6  C6  BNZ d   1      -1.262   0.465   1.891  0.00  0.00     0.000 A 
ENDROOT
TORSDOF 0
ENDMDL
