MODEL 1
REMARK minimizedAffinity 6.02530622
REMARK minimizedRMSD -1
REMARK  0 active torsions:
REMARK  status: ('A' for Active; 'I' for Inactive)
ROOT
ATOM      1  C1  BNZ d   1       1.792  -1.446  -0.700  0.00  0.00     0.000 A 
ATOM      2  C2  BNZ d   1       1.615  -0.108  -0.465  0.00  0.00     0.000 A 
ATOM      3  C3  BNZ d   1       1.149   0.719  -1.448  0.00  0.00     0.000 A 
ATOM      4  C4  BNZ d   1       0.899   0.217  -2.674  0.00  0.00     0.000 A 
ATOM      5  C5  BNZ d   1       1.081  -1.128  -2.929  0.00  0.00     0.000 A 
ATOM      6  C6  BNZ d   1       1.513  -1.965  -1.926  0.00  0.00     0.000 A 
ENDROOT
TORSDOF 0
ENDMDL
