MODEL 1
REMARK minimizedAffinity -1.99852431
REMARK minimizedRMSD -1
REMARK  0 active torsions:
REMARK  status: ('A' for Active; 'I' for Inactive)
ROOT
ATOM      1  C1  BNZ d   1      -0.357   1.501  -0.170  0.00  0.00     0.000 A 
ATOM      2  C2  BNZ d   1      -1.409   2.367  -0.028  0.00  0.00     0.000 A 
ATOM      3  C3  BNZ d   1      -2.101   2.440   1.148  0.00  0.00     0.000 A 
ATOM      4  C4  BNZ d   1      -1.768   1.621   2.166  0.00  0.00     0.000 A 
ATOM      5  C5  BNZ d   1      -0.716   0.737   2.036  0.00  0.00     0.000 A 
ATOM      6  C6  BNZ d   1       0.004   0.693   0.864  0.00  0.00     0.000 A 
ENDROOT
TORSDOF 0
ENDMDL
