MODEL 1
REMARK minimizedAffinity -3.30697298
REMARK minimizedRMSD -1
REMARK  0 active torsions:
REMARK  status: ('A' for Active; 'I' for Inactive)
ROOT
ATOM      1  C1  BNZ d   1      -1.151   2.201  -0.461  0.00  0.00     0.000 A 
ATOM      2  C2  BNZ d   1      -2.013   2.257   0.602  0.00  0.00     0.000 A 
ATOM      3  C3  BNZ d   1      -1.774   1.533   1.736  0.00  0.00     0.000 A 
ATOM      4  C4  BNZ d   1      -0.696   0.723   1.791  0.00  0.00     0.000 A 
ATOM      5  C5  BNZ d   1       0.177   0.649   0.724  0.00  0.00     0.000 A 
ATOM      6  C6  BNZ d   1      -0.046   1.409  -0.401  0.00  0.00     0.000 A 
ENDROOT
TORSDOF 0
ENDMDL
