MODEL 1
REMARK minimizedAffinity 8.77073193
REMARK minimizedRMSD -1
REMARK  0 active torsions:
REMARK  status: ('A' for Active; 'I' for Inactive)
ROOT
ATOM      1  C1  BNZ d   1      -0.086  -0.682  -2.580  0.00  0.00     0.000 A 
ATOM      2  C2  BNZ d   1       0.480   0.438  -2.031  0.00  0.00     0.000 A 
ATOM      3  C3  BNZ d   1       1.432   0.335  -1.055  0.00  0.00     0.000 A 
ATOM      4  C4  BNZ d   1       1.787  -0.885  -0.602  0.00  0.00     0.000 A 
ATOM      5  C5  BNZ d   1       1.218  -2.023  -1.138  0.00  0.00     0.000 A 
ATOM      6  C6  BNZ d   1       0.289  -1.916  -2.148  0.00  0.00     0.000 A 
ENDROOT
TORSDOF 0
ENDMDL
