MODEL 1
REMARK minimizedAffinity 2.20900512
REMARK minimizedRMSD -1
REMARK  0 active torsions:
REMARK  status: ('A' for Active; 'I' for Inactive)
ROOT
ATOM      1  C1  BNZ d   1      -1.909   1.889   2.565  0.00  0.00     0.000 A 
ATOM      2  C2  BNZ d   1      -0.749   1.313   2.120  0.00  0.00     0.000 A 
ATOM      3  C3  BNZ d   1      -0.465   1.253   0.784  0.00  0.00     0.000 A 
ATOM      4  C4  BNZ d   1      -1.358   1.731  -0.106  0.00  0.00     0.000 A 
ATOM      5  C5  BNZ d   1      -2.537   2.305   0.326  0.00  0.00     0.000 A 
ATOM      6  C6  BNZ d   1      -2.802   2.400   1.673  0.00  0.00     0.000 A 
ENDROOT
TORSDOF 0
ENDMDL
