MODEL 1
REMARK minimizedAffinity -0.795354843
REMARK minimizedRMSD -1
REMARK  0 active torsions:
REMARK  status: ('A' for Active; 'I' for Inactive)
ROOT
ATOM      1  C1  BNZ d   1      -2.270   1.873   1.938  0.00  0.00     0.000 A 
ATOM      2  C2  BNZ d   1      -1.015   1.383   2.179  0.00  0.00     0.000 A 
ATOM      3  C3  BNZ d   1      -0.105   1.260   1.166  0.00  0.00     0.000 A 
ATOM      4  C4  BNZ d   1      -0.465   1.588  -0.091  0.00  0.00     0.000 A 
ATOM      5  C5  BNZ d   1      -1.730   2.074  -0.352  0.00  0.00     0.000 A 
ATOM      6  C6  BNZ d   1      -2.630   2.234   0.676  0.00  0.00     0.000 A 
ENDROOT
TORSDOF 0
ENDMDL
