MODEL 1
REMARK minimizedAffinity 2.98149991
REMARK minimizedRMSD -1
REMARK  0 active torsions:
REMARK  status: ('A' for Active; 'I' for Inactive)
ROOT
ATOM      1  C1  BNZ d   1       6.000  -2.976  -0.109  0.00  0.00     0.000 A 
ATOM      2  C2  BNZ d   1       5.680  -3.632  -1.268  0.00  0.00     0.000 A 
ATOM      3  C3  BNZ d   1       5.348  -4.958  -1.252  0.00  0.00     0.000 A 
ATOM      4  C4  BNZ d   1       5.375  -5.635  -0.086  0.00  0.00     0.000 A 
ATOM      5  C5  BNZ d   1       5.704  -4.989   1.089  0.00  0.00     0.000 A 
ATOM      6  C6  BNZ d   1       6.000  -3.645   1.076  0.00  0.00     0.000 A 
ENDROOT
TORSDOF 0
ENDMDL
