MODEL 1
REMARK minimizedAffinity 3.56365752
REMARK minimizedRMSD -1
REMARK  0 active torsions:
REMARK  status: ('A' for Active; 'I' for Inactive)
ROOT
ATOM      1  C1  BNZ d   1      -0.516   2.751   2.114  0.00  0.00     0.000 A 
ATOM      2  C2  BNZ d   1      -1.370   3.264   1.175  0.00  0.00     0.000 A 
ATOM      3  C3  BNZ d   1      -2.592   2.693   0.954  0.00  0.00     0.000 A 
ATOM      4  C4  BNZ d   1      -2.942   1.587   1.643  0.00  0.00     0.000 A 
ATOM      5  C5  BNZ d   1      -2.087   1.053   2.587  0.00  0.00     0.000 A 
ATOM      6  C6  BNZ d   1      -0.874   1.653   2.834  0.00  0.00     0.000 A 
ENDROOT
TORSDOF 0
ENDMDL
