MODEL 1
REMARK minimizedAffinity 5.61810923
REMARK minimizedRMSD -1
REMARK  0 active torsions:
REMARK  status: ('A' for Active; 'I' for Inactive)
ROOT
ATOM      1  C1  BNZ d   1      -2.789   1.415   1.971  0.00  0.00     0.000 A 
ATOM      2  C2  BNZ d   1      -1.850   1.035   2.893  0.00  0.00     0.000 A 
ATOM      3  C3  BNZ d   1      -0.641   1.668   2.964  0.00  0.00     0.000 A 
ATOM      4  C4  BNZ d   1      -0.357   2.654   2.088  0.00  0.00     0.000 A 
ATOM      5  C5  BNZ d   1      -1.289   3.043   1.146  0.00  0.00     0.000 A 
ATOM      6  C6  BNZ d   1      -2.520   2.429   1.103  0.00  0.00     0.000 A 
ENDROOT
TORSDOF 0
ENDMDL
