MODEL 1
REMARK minimizedAffinity -0.770518005
REMARK minimizedRMSD -1
REMARK  0 active torsions:
REMARK  status: ('A' for Active; 'I' for Inactive)
ROOT
ATOM      1  C1  BNZ d   1      -2.041  -1.153   3.331  0.00  0.00     0.000 A 
ATOM      2  C2  BNZ d   1      -2.428   0.076   2.868  0.00  0.00     0.000 A 
ATOM      3  C3  BNZ d   1      -1.505   0.973   2.408  0.00  0.00     0.000 A 
ATOM      4  C4  BNZ d   1      -0.195   0.657   2.450  0.00  0.00     0.000 A 
ATOM      5  C5  BNZ d   1       0.212  -0.575   2.923  0.00  0.00     0.000 A 
ATOM      6  C6  BNZ d   1      -0.723  -1.491   3.348  0.00  0.00     0.000 A 
ENDROOT
TORSDOF 0
ENDMDL
