MODEL 1
REMARK minimizedAffinity 1.79493678
REMARK minimizedRMSD -1
REMARK  0 active torsions:
REMARK  status: ('A' for Active; 'I' for Inactive)
ROOT
ATOM      1  C1  BNZ d   1       0.387   1.399  -1.133  0.00  0.00     0.000 A 
ATOM      2  C2  BNZ d   1       0.811   2.621  -1.582  0.00  0.00     0.000 A 
ATOM      3  C3  BNZ d   1       0.547   3.758  -0.870  0.00  0.00     0.000 A 
ATOM      4  C4  BNZ d   1      -0.174   3.675   0.267  0.00  0.00     0.000 A 
ATOM      5  C5  BNZ d   1      -0.617   2.451   0.727  0.00  0.00     0.000 A 
ATOM      6  C6  BNZ d   1      -0.315   1.305   0.028  0.00  0.00     0.000 A 
ENDROOT
TORSDOF 0
ENDMDL
