MODEL 1
REMARK minimizedAffinity -4.09574032
REMARK minimizedRMSD -1
REMARK  1 active torsions:
REMARK  status: ('A' for Active; 'I' for Inactive)
REMARK    1  A    between atoms: C1_2  and  C2_3 
ROOT
ATOM      1  C2  UNL d   1       0.360  -0.594  -0.824  0.00  0.00    -0.081 A 
ATOM      2  C3  UNL d   1      -1.004  -0.328  -0.655  0.00  0.00     0.006 A 
ATOM      3  C4  UNL d   1      -1.467   0.279   0.515  0.00  0.00     0.002 A 
ATOM      4  C5  UNL d   1      -0.574   0.636   1.531  0.00  0.00    -0.080 A 
ATOM      5  C6  UNL d   1      -1.054   1.315   2.779  0.00  0.00     0.076 C 
ATOM      6  C7  UNL d   1       0.787   0.354   1.369  0.00  0.00     0.002 A 
ATOM      7  C8  UNL d   1       1.250  -0.253   0.200  0.00  0.00     0.006 A 
ENDROOT
BRANCH   1   8
ATOM      8  C1  UNL d   1       0.871  -1.189  -2.112  0.00  0.00     0.054 C 
ATOM      9  C   UNL d   1       1.125  -0.112  -3.157  0.00  0.00     0.018 C 
ENDBRANCH   1   8
TORSDOF 1
ENDMDL
