MODEL 1
REMARK minimizedAffinity -0.0202073976
REMARK minimizedRMSD -1
REMARK  1 active torsions:
REMARK  status: ('A' for Active; 'I' for Inactive)
REMARK    1  A    between atoms: C1_2  and  C2_3 
ROOT
ATOM      1  C2  UNL d   1       0.174  -0.323  -0.361  0.00  0.00    -0.081 A 
ATOM      2  C3  UNL d   1      -1.090  -0.440   0.229  0.00  0.00     0.006 A 
ATOM      3  C4  UNL d   1      -1.326   0.074   1.506  0.00  0.00     0.002 A 
ATOM      4  C5  UNL d   1      -0.305   0.720   2.211  0.00  0.00    -0.080 A 
ATOM      5  C6  UNL d   1      -0.554   1.303   3.570  0.00  0.00     0.076 C 
ATOM      6  C7  UNL d   1       0.963   0.822   1.629  0.00  0.00     0.002 A 
ATOM      7  C8  UNL d   1       1.200   0.308   0.352  0.00  0.00     0.006 A 
ENDROOT
BRANCH   1   8
ATOM      8  C1  UNL d   1       0.415  -0.818  -1.764  0.00  0.00     0.054 C 
ATOM      9  C   UNL d   1       0.721   0.332  -2.713  0.00  0.00     0.018 C 
ENDBRANCH   1   8
TORSDOF 1
ENDMDL
