MODEL 1
REMARK minimizedAffinity -5.58663559
REMARK minimizedRMSD -1
REMARK  1 active torsions:
REMARK  status: ('A' for Active; 'I' for Inactive)
REMARK    1  A    between atoms: C1_2  and  C2_3 
ROOT
ATOM      1  C2  UNL d   1       0.052  -0.350  -1.034  0.00  0.00    -0.081 A 
ATOM      2  C3  UNL d   1      -1.266   0.059  -0.799  0.00  0.00     0.006 A 
ATOM      3  C4  UNL d   1      -1.612   0.674   0.407  0.00  0.00     0.002 A 
ATOM      4  C5  UNL d   1      -0.645   0.897   1.393  0.00  0.00    -0.080 A 
ATOM      5  C6  UNL d   1      -0.997   1.584   2.679  0.00  0.00     0.076 C 
ATOM      6  C7  UNL d   1       0.668   0.472   1.165  0.00  0.00     0.002 A 
ATOM      7  C8  UNL d   1       1.015  -0.143  -0.040  0.00  0.00     0.006 A 
ENDROOT
BRANCH   1   8
ATOM      8  C1  UNL d   1       0.442  -0.955  -2.359  0.00  0.00     0.054 C 
ATOM      9  C   UNL d   1       0.886   0.114  -3.346  0.00  0.00     0.018 C 
ENDBRANCH   1   8
TORSDOF 1
ENDMDL
