MODEL 1
REMARK minimizedAffinity -3.93716121
REMARK minimizedRMSD -1
REMARK  1 active torsions:
REMARK  status: ('A' for Active; 'I' for Inactive)
REMARK    1  A    between atoms: C1_2  and  C2_3 
ROOT
ATOM      1  C2  UNL d   1       0.321  -0.551  -0.791  0.00  0.00    -0.081 A 
ATOM      2  C3  UNL d   1      -0.994  -0.123  -0.572  0.00  0.00     0.006 A 
ATOM      3  C4  UNL d   1      -1.335   0.544   0.607  0.00  0.00     0.002 A 
ATOM      4  C5  UNL d   1      -0.365   0.801   1.582  0.00  0.00    -0.080 A 
ATOM      5  C6  UNL d   1      -0.711   1.543   2.839  0.00  0.00     0.076 C 
ATOM      6  C7  UNL d   1       0.945   0.358   1.372  0.00  0.00     0.002 A 
ATOM      7  C8  UNL d   1       1.286  -0.309   0.193  0.00  0.00     0.006 A 
ENDROOT
BRANCH   1   8
ATOM      8  C1  UNL d   1       0.706  -1.213  -2.089  0.00  0.00     0.054 C 
ATOM      9  C   UNL d   1       1.350  -0.221  -3.047  0.00  0.00     0.018 C 
ENDBRANCH   1   8
TORSDOF 1
ENDMDL
