MODEL 1
REMARK minimizedAffinity -2.31581306
REMARK minimizedRMSD -1
REMARK  1 active torsions:
REMARK  status: ('A' for Active; 'I' for Inactive)
REMARK    1  A    between atoms: C1_2  and  C2_3 
ROOT
ATOM      1  C2  UNL d   1       0.036  -0.201  -1.061  0.00  0.00    -0.081 A 
ATOM      2  C3  UNL d   1      -1.295   0.074  -0.721  0.00  0.00     0.006 A 
ATOM      3  C4  UNL d   1      -1.612   0.581   0.541  0.00  0.00     0.002 A 
ATOM      4  C5  UNL d   1      -0.606   0.829   1.480  0.00  0.00    -0.080 A 
ATOM      5  C6  UNL d   1      -0.930   1.402   2.828  0.00  0.00     0.076 C 
ATOM      6  C7  UNL d   1       0.721   0.537   1.147  0.00  0.00     0.002 A 
ATOM      7  C8  UNL d   1       1.039   0.030  -0.114  0.00  0.00     0.006 A 
ENDROOT
BRANCH   1   8
ATOM      8  C1  UNL d   1       0.388  -0.688  -2.444  0.00  0.00     0.054 C 
ATOM      9  C   UNL d   1       0.803   0.465  -3.347  0.00  0.00     0.018 C 
ENDBRANCH   1   8
TORSDOF 1
ENDMDL
