MODEL 1
REMARK minimizedAffinity -4.55454969
REMARK minimizedRMSD -1
REMARK  1 active torsions:
REMARK  status: ('A' for Active; 'I' for Inactive)
REMARK    1  A    between atoms: C1_2  and  C2_3 
ROOT
ATOM      1  C2  UNL d   1       0.337  -0.068  -1.676  0.00  0.00    -0.081 A 
ATOM      2  C3  UNL d   1      -0.510  -1.073  -1.194  0.00  0.00     0.006 A 
ATOM      3  C4  UNL d   1      -1.106  -0.953   0.064  0.00  0.00     0.002 A 
ATOM      4  C5  UNL d   1      -0.873   0.177   0.855  0.00  0.00    -0.080 A 
ATOM      5  C6  UNL d   1      -1.531   0.332   2.194  0.00  0.00     0.076 C 
ATOM      6  C7  UNL d   1      -0.012   1.173   0.381  0.00  0.00     0.002 A 
ATOM      7  C8  UNL d   1       0.585   1.053  -0.876  0.00  0.00     0.006 A 
ENDROOT
BRANCH   1   8
ATOM      8  C1  UNL d   1       0.931  -0.164  -3.059  0.00  0.00     0.054 C 
ATOM      9  C   UNL d   1       2.172   0.707  -3.190  0.00  0.00     0.018 C 
ENDBRANCH   1   8
TORSDOF 1
ENDMDL
