MODEL 1
REMARK minimizedAffinity -3.85149932
REMARK minimizedRMSD -1
REMARK  1 active torsions:
REMARK  status: ('A' for Active; 'I' for Inactive)
REMARK    1  A    between atoms: C1_2  and  C2_3 
ROOT
ATOM      1  C2  UNL d   1       0.043  -0.172  -0.469  0.00  0.00    -0.081 A 
ATOM      2  C3  UNL d   1      -1.279  -0.049  -0.024  0.00  0.00     0.006 A 
ATOM      3  C4  UNL d   1      -1.554   0.452   1.250  0.00  0.00     0.002 A 
ATOM      4  C5  UNL d   1      -0.513   0.845   2.098  0.00  0.00    -0.080 A 
ATOM      5  C6  UNL d   1      -0.796   1.413   3.458  0.00  0.00     0.076 C 
ATOM      6  C7  UNL d   1       0.808   0.705   1.661  0.00  0.00     0.002 A 
ATOM      7  C8  UNL d   1       1.084   0.204   0.387  0.00  0.00     0.006 A 
ENDROOT
BRANCH   1   8
ATOM      8  C1  UNL d   1       0.340  -0.651  -1.867  0.00  0.00     0.054 C 
ATOM      9  C   UNL d   1       1.098   0.401  -2.663  0.00  0.00     0.018 C 
ENDBRANCH   1   8
TORSDOF 1
ENDMDL
