MODEL 1
REMARK minimizedAffinity 1.74795127
REMARK minimizedRMSD -1
REMARK  1 active torsions:
REMARK  status: ('A' for Active; 'I' for Inactive)
REMARK    1  A    between atoms: C1_2  and  C2_3 
ROOT
ATOM      1  C2  UNL d   1       0.024  -0.292  -0.971  0.00  0.00    -0.081 A 
ATOM      2  C3  UNL d   1      -1.269   0.202  -0.759  0.00  0.00     0.006 A 
ATOM      3  C4  UNL d   1      -1.660   0.644   0.508  0.00  0.00     0.002 A 
ATOM      4  C5  UNL d   1      -0.763   0.607   1.580  0.00  0.00    -0.080 A 
ATOM      5  C6  UNL d   1      -1.160   1.106   2.938  0.00  0.00     0.076 C 
ATOM      6  C7  UNL d   1       0.523   0.097   1.373  0.00  0.00     0.002 A 
ATOM      7  C8  UNL d   1       0.914  -0.345   0.107  0.00  0.00     0.006 A 
ENDROOT
BRANCH   1   8
ATOM      8  C1  UNL d   1       0.469  -0.708  -2.349  0.00  0.00     0.054 C 
ATOM      9  C   UNL d   1       0.815   0.500  -3.207  0.00  0.00     0.018 C 
ENDBRANCH   1   8
TORSDOF 1
ENDMDL
