MODEL 1
REMARK minimizedAffinity 3.12750602
REMARK minimizedRMSD -1
REMARK  0 active torsions:
REMARK  status: ('A' for Active; 'I' for Inactive)
ROOT
ATOM      1  C   UNL d   1      -3.015   1.278   2.596  0.00  0.00     0.078 C 
ATOM      2  C1  UNL d   1      -1.558   1.556   2.818  0.00  0.00    -0.077 A 
ATOM      3  C2  UNL d   1      -0.590   1.084   1.924  0.00  0.00    -0.001 A 
ATOM      4  C3  UNL d   1       0.763   1.342   2.148  0.00  0.00     0.003 A 
ATOM      5  C4  UNL d   1       1.161   2.071   3.267  0.00  0.00    -0.005 A 
ATOM      6  C5  UNL d   1       0.204   2.543   4.163  0.00  0.00     0.003 A 
ATOM      7  C6  UNL d   1      -1.149   2.287   3.941  0.00  0.00    -0.001 A 
ENDROOT
TORSDOF 0
ENDMDL
