MODEL 1
REMARK minimizedAffinity 17.3256207
REMARK minimizedRMSD -1
REMARK  0 active torsions:
REMARK  status: ('A' for Active; 'I' for Inactive)
ROOT
ATOM      1  C   UNL d   1      -2.031   6.000  -4.811  0.00  0.00     0.078 C 
ATOM      2  C1  UNL d   1      -2.008   4.501  -4.840  0.00  0.00    -0.077 A 
ATOM      3  C2  UNL d   1      -2.410   3.796  -5.981  0.00  0.00    -0.001 A 
ATOM      4  C3  UNL d   1      -2.392   2.400  -5.991  0.00  0.00     0.003 A 
ATOM      5  C4  UNL d   1      -1.974   1.698  -4.863  0.00  0.00    -0.005 A 
ATOM      6  C5  UNL d   1      -1.574   2.391  -3.722  0.00  0.00     0.003 A 
ATOM      7  C6  UNL d   1      -1.591   3.786  -3.710  0.00  0.00    -0.001 A 
ENDROOT
TORSDOF 0
ENDMDL
