MODEL 1
REMARK minimizedAffinity 8.01819992
REMARK minimizedRMSD -1
REMARK  0 active torsions:
REMARK  status: ('A' for Active; 'I' for Inactive)
ROOT
ATOM      1  C   UNL d   1      -0.208   1.589  -3.759  0.00  0.00     0.078 C 
ATOM      2  C1  UNL d   1      -1.184   2.597  -4.289  0.00  0.00    -0.077 A 
ATOM      3  C2  UNL d   1      -1.458   3.776  -3.585  0.00  0.00    -0.001 A 
ATOM      4  C3  UNL d   1      -2.376   4.700  -4.086  0.00  0.00     0.003 A 
ATOM      5  C4  UNL d   1      -3.028   4.455  -5.293  0.00  0.00    -0.005 A 
ATOM      6  C5  UNL d   1      -2.764   3.283  -6.000  0.00  0.00     0.003 A 
ATOM      7  C6  UNL d   1      -1.846   2.358  -5.500  0.00  0.00    -0.001 A 
ENDROOT
TORSDOF 0
ENDMDL
