MODEL 1
REMARK minimizedAffinity 11.9330282
REMARK minimizedRMSD -1
REMARK  0 active torsions:
REMARK  status: ('A' for Active; 'I' for Inactive)
ROOT
ATOM      1  C   UNL d   1      -3.813   1.198   3.870  0.00  0.00     0.078 C 
ATOM      2  C1  UNL d   1      -2.363   1.279   3.497  0.00  0.00    -0.077 A 
ATOM      3  C2  UNL d   1      -1.931   2.109   2.455  0.00  0.00    -0.001 A 
ATOM      4  C3  UNL d   1      -0.580   2.167   2.112  0.00  0.00     0.003 A 
ATOM      5  C4  UNL d   1       0.352   1.396   2.805  0.00  0.00    -0.005 A 
ATOM      6  C5  UNL d   1      -0.068   0.565   3.841  0.00  0.00     0.003 A 
ATOM      7  C6  UNL d   1      -1.420   0.506   4.186  0.00  0.00    -0.001 A 
ENDROOT
TORSDOF 0
ENDMDL
