MODEL 1
REMARK minimizedAffinity 10.8607702
REMARK minimizedRMSD -1
REMARK  0 active torsions:
REMARK  status: ('A' for Active; 'I' for Inactive)
ROOT
ATOM      1  C   UNL d   1      -2.207   1.398  -3.633  0.00  0.00     0.078 C 
ATOM      2  C1  UNL d   1      -1.756  -0.032  -3.604  0.00  0.00    -0.077 A 
ATOM      3  C2  UNL d   1      -0.503  -0.383  -3.087  0.00  0.00    -0.001 A 
ATOM      4  C3  UNL d   1      -0.093  -1.717  -3.075  0.00  0.00     0.003 A 
ATOM      5  C4  UNL d   1      -0.929  -2.711  -3.580  0.00  0.00    -0.005 A 
ATOM      6  C5  UNL d   1      -2.177  -2.371  -4.098  0.00  0.00     0.003 A 
ATOM      7  C6  UNL d   1      -2.589  -1.037  -4.111  0.00  0.00    -0.001 A 
ENDROOT
TORSDOF 0
ENDMDL
