MODEL 1
REMARK minimizedAffinity 17.8495941
REMARK minimizedRMSD -1
REMARK  0 active torsions:
REMARK  status: ('A' for Active; 'I' for Inactive)
ROOT
ATOM      1  C   UNL d   1      -4.802   3.089   6.000  0.00  0.00     0.078 C 
ATOM      2  C1  UNL d   1      -4.346   1.855   5.280  0.00  0.00    -0.077 A 
ATOM      3  C2  UNL d   1      -4.482   1.739   3.891  0.00  0.00    -0.001 A 
ATOM      4  C3  UNL d   1      -4.062   0.581   3.235  0.00  0.00     0.003 A 
ATOM      5  C4  UNL d   1      -3.504  -0.470   3.960  0.00  0.00    -0.005 A 
ATOM      6  C5  UNL d   1      -3.366  -0.364   5.342  0.00  0.00     0.003 A 
ATOM      7  C6  UNL d   1      -3.786   0.793   6.000  0.00  0.00    -0.001 A 
ENDROOT
TORSDOF 0
ENDMDL
