MODEL 1
REMARK minimizedAffinity 17.8001347
REMARK minimizedRMSD -1
REMARK  0 active torsions:
REMARK  status: ('A' for Active; 'I' for Inactive)
ROOT
ATOM      1  C   UNL d   1      -0.452  -1.525  -3.312  0.00  0.00     0.078 C 
ATOM      2  C1  UNL d   1       0.744  -1.148  -4.135  0.00  0.00    -0.077 A 
ATOM      3  C2  UNL d   1       1.122  -1.909  -5.248  0.00  0.00    -0.001 A 
ATOM      4  C3  UNL d   1       2.243  -1.552  -6.000  0.00  0.00     0.003 A 
ATOM      5  C4  UNL d   1       2.995  -0.435  -5.645  0.00  0.00    -0.005 A 
ATOM      6  C5  UNL d   1       2.628   0.327  -4.538  0.00  0.00     0.003 A 
ATOM      7  C6  UNL d   1       1.508  -0.028  -3.786  0.00  0.00    -0.001 A 
ENDROOT
TORSDOF 0
ENDMDL
