MODEL 1
REMARK minimizedAffinity 0.795099974
REMARK minimizedRMSD -1
REMARK  0 active torsions:
REMARK  status: ('A' for Active; 'I' for Inactive)
ROOT
ATOM      1  C   UNL d   1      -1.260   6.000  -3.380  0.00  0.00     0.078 C 
ATOM      2  C1  UNL d   1      -2.169   5.243  -4.302  0.00  0.00    -0.077 A 
ATOM      3  C2  UNL d   1      -3.059   5.914  -5.149  0.00  0.00    -0.001 A 
ATOM      4  C3  UNL d   1      -3.906   5.196  -5.995  0.00  0.00     0.003 A 
ATOM      5  C4  UNL d   1      -3.873   3.803  -6.000  0.00  0.00    -0.005 A 
ATOM      6  C5  UNL d   1      -2.992   3.126  -5.158  0.00  0.00     0.003 A 
ATOM      7  C6  UNL d   1      -2.144   3.842  -4.312  0.00  0.00    -0.001 A 
ENDROOT
TORSDOF 0
ENDMDL
