MODEL 1
REMARK minimizedAffinity 12.6050606
REMARK minimizedRMSD -1
REMARK  0 active torsions:
REMARK  status: ('A' for Active; 'I' for Inactive)
ROOT
ATOM      1  C   UNL d   1      -2.483  -4.011  -3.387  0.00  0.00     0.078 C 
ATOM      2  C1  UNL d   1      -3.679  -4.045  -4.292  0.00  0.00    -0.077 A 
ATOM      3  C2  UNL d   1      -4.134  -5.250  -4.840  0.00  0.00    -0.001 A 
ATOM      4  C3  UNL d   1      -5.242  -5.265  -5.689  0.00  0.00     0.003 A 
ATOM      5  C4  UNL d   1      -5.903  -4.078  -5.997  0.00  0.00    -0.005 A 
ATOM      6  C5  UNL d   1      -5.457  -2.874  -5.458  0.00  0.00     0.003 A 
ATOM      7  C6  UNL d   1      -4.349  -2.856  -4.609  0.00  0.00    -0.001 A 
ENDROOT
TORSDOF 0
ENDMDL
