MODEL 1
REMARK minimizedAffinity 12.3576689
REMARK minimizedRMSD -1
REMARK  0 active torsions:
REMARK  status: ('A' for Active; 'I' for Inactive)
ROOT
ATOM      1  C   UNL d   1       3.461   1.567   0.706  0.00  0.00     0.078 C 
ATOM      2  C1  UNL d   1       2.635   1.519   1.957  0.00  0.00    -0.077 A 
ATOM      3  C2  UNL d   1       1.243   1.371   1.896  0.00  0.00    -0.001 A 
ATOM      4  C3  UNL d   1       0.486   1.338   3.068  0.00  0.00     0.003 A 
ATOM      5  C4  UNL d   1       1.110   1.453   4.308  0.00  0.00    -0.005 A 
ATOM      6  C5  UNL d   1       2.493   1.603   4.378  0.00  0.00     0.003 A 
ATOM      7  C6  UNL d   1       3.253   1.637   3.208  0.00  0.00    -0.001 A 
ENDROOT
TORSDOF 0
ENDMDL
