MODEL 1
REMARK minimizedAffinity 8.64791203
REMARK minimizedRMSD -1
REMARK  0 active torsions:
REMARK  status: ('A' for Active; 'I' for Inactive)
ROOT
ATOM      1  C   UNL d   1      -6.000   3.609   3.419  0.00  0.00     0.078 C 
ATOM      2  C1  UNL d   1      -5.046   2.658   4.079  0.00  0.00    -0.077 A 
ATOM      3  C2  UNL d   1      -4.631   2.855   5.402  0.00  0.00    -0.001 A 
ATOM      4  C3  UNL d   1      -3.735   1.967   6.000  0.00  0.00     0.003 A 
ATOM      5  C4  UNL d   1      -3.245   0.878   5.282  0.00  0.00    -0.005 A 
ATOM      6  C5  UNL d   1      -3.650   0.676   3.964  0.00  0.00     0.003 A 
ATOM      7  C6  UNL d   1      -4.546   1.562   3.365  0.00  0.00    -0.001 A 
ENDROOT
TORSDOF 0
ENDMDL
