MODEL 1
REMARK minimizedAffinity 16.7029762
REMARK minimizedRMSD -1
REMARK  0 active torsions:
REMARK  status: ('A' for Active; 'I' for Inactive)
ROOT
ATOM      1  C   UNL d   1      -5.226   4.162   5.998  0.00  0.00     0.078 C 
ATOM      2  C1  UNL d   1      -4.721   2.916   5.333  0.00  0.00    -0.077 A 
ATOM      3  C2  UNL d   1      -5.159   2.554   4.053  0.00  0.00    -0.001 A 
ATOM      4  C3  UNL d   1      -4.687   1.387   3.450  0.00  0.00     0.003 A 
ATOM      5  C4  UNL d   1      -3.777   0.572   4.120  0.00  0.00    -0.005 A 
ATOM      6  C5  UNL d   1      -3.337   0.923   5.394  0.00  0.00     0.003 A 
ATOM      7  C6  UNL d   1      -3.807   2.090   5.999  0.00  0.00    -0.001 A 
ENDROOT
TORSDOF 0
ENDMDL
