MODEL 1
REMARK minimizedAffinity 11.483902
REMARK minimizedRMSD -1
REMARK  0 active torsions:
REMARK  status: ('A' for Active; 'I' for Inactive)
ROOT
ATOM      1  C   UNL d   1       0.384   2.050   2.115  0.00  0.00     0.078 C 
ATOM      2  C1  UNL d   1       0.544   1.401   3.457  0.00  0.00    -0.077 A 
ATOM      3  C2  UNL d   1       0.288   0.035   3.633  0.00  0.00    -0.001 A 
ATOM      4  C3  UNL d   1       0.432  -0.554   4.890  0.00  0.00     0.003 A 
ATOM      5  C4  UNL d   1       0.831   0.216   5.982  0.00  0.00    -0.005 A 
ATOM      6  C5  UNL d   1       1.086   1.575   5.817  0.00  0.00     0.003 A 
ATOM      7  C6  UNL d   1       0.943   2.166   4.560  0.00  0.00    -0.001 A 
ENDROOT
TORSDOF 0
ENDMDL
