MODEL 1
REMARK minimizedAffinity 0.487992615
REMARK minimizedRMSD -1
REMARK  0 active torsions:
REMARK  status: ('A' for Active; 'I' for Inactive)
ROOT
ATOM      1  C   UNL d   1      -0.968   5.993  -3.165  0.00  0.00     0.078 C 
ATOM      2  C1  UNL d   1      -1.829   5.276  -4.161  0.00  0.00    -0.077 A 
ATOM      3  C2  UNL d   1      -2.620   5.986  -5.073  0.00  0.00    -0.001 A 
ATOM      4  C3  UNL d   1      -3.424   5.306  -5.989  0.00  0.00     0.003 A 
ATOM      5  C4  UNL d   1      -3.448   3.912  -6.000  0.00  0.00    -0.005 A 
ATOM      6  C5  UNL d   1      -2.666   3.198  -5.094  0.00  0.00     0.003 A 
ATOM      7  C6  UNL d   1      -1.861   3.876  -4.178  0.00  0.00    -0.001 A 
ENDROOT
TORSDOF 0
ENDMDL
