MODEL 1
REMARK minimizedAffinity 5.06245136
REMARK minimizedRMSD -1
REMARK  0 active torsions:
REMARK  status: ('A' for Active; 'I' for Inactive)
ROOT
ATOM      1  C   UNL d   1      -2.266   1.935  -4.001  0.00  0.00     0.078 C 
ATOM      2  C1  UNL d   1      -2.402   3.349  -4.480  0.00  0.00    -0.077 A 
ATOM      3  C2  UNL d   1      -3.237   3.668  -5.558  0.00  0.00    -0.001 A 
ATOM      4  C3  UNL d   1      -3.347   4.988  -6.000  0.00  0.00     0.003 A 
ATOM      5  C4  UNL d   1      -2.623   5.999  -5.371  0.00  0.00    -0.005 A 
ATOM      6  C5  UNL d   1      -1.787   5.691  -4.299  0.00  0.00     0.003 A 
ATOM      7  C6  UNL d   1      -1.677   4.372  -3.856  0.00  0.00    -0.001 A 
ENDROOT
TORSDOF 0
ENDMDL
