MODEL 1
REMARK minimizedAffinity 9.22234917
REMARK minimizedRMSD -1
REMARK  0 active torsions:
REMARK  status: ('A' for Active; 'I' for Inactive)
ROOT
ATOM      1  C   UNL d   1      -5.577   3.322   4.040  0.00  0.00     0.078 C 
ATOM      2  C1  UNL d   1      -4.642   2.173   4.273  0.00  0.00    -0.077 A 
ATOM      3  C2  UNL d   1      -4.243   1.343   3.218  0.00  0.00    -0.001 A 
ATOM      4  C3  UNL d   1      -3.379   0.271   3.451  0.00  0.00     0.003 A 
ATOM      5  C4  UNL d   1      -2.908   0.020   4.738  0.00  0.00    -0.005 A 
ATOM      6  C5  UNL d   1      -3.301   0.840   5.794  0.00  0.00     0.003 A 
ATOM      7  C6  UNL d   1      -4.164   1.912   5.563  0.00  0.00    -0.001 A 
ENDROOT
TORSDOF 0
ENDMDL
