MODEL 1
REMARK minimizedAffinity 6.66260338
REMARK minimizedRMSD -1
REMARK  0 active torsions:
REMARK  status: ('A' for Active; 'I' for Inactive)
ROOT
ATOM      1  C   UNL d   1      -4.711   2.138   4.338  0.00  0.00     0.078 C 
ATOM      2  C1  UNL d   1      -3.822   1.204   3.572  0.00  0.00    -0.077 A 
ATOM      3  C2  UNL d   1      -2.611   1.647   3.026  0.00  0.00    -0.001 A 
ATOM      4  C3  UNL d   1      -1.797   0.770   2.307  0.00  0.00     0.003 A 
ATOM      5  C4  UNL d   1      -2.187  -0.556   2.126  0.00  0.00    -0.005 A 
ATOM      6  C5  UNL d   1      -3.391  -1.005   2.664  0.00  0.00     0.003 A 
ATOM      7  C6  UNL d   1      -4.206  -0.129   3.383  0.00  0.00    -0.001 A 
ENDROOT
TORSDOF 0
ENDMDL
