MODEL 1
REMARK minimizedAffinity -5.00517893
REMARK minimizedRMSD -1
REMARK  1 active torsions:
REMARK  status: ('A' for Active; 'I' for Inactive)
REMARK    1  A    between atoms: C1_2  and  C2_3 
ROOT
ATOM      1  C2  UNL d   1       3.554  -0.017  -1.865  0.00  0.00    -0.081 A 
ATOM      2  C3  UNL d   1       3.098  -1.221  -1.313  0.00  0.00     0.006 A 
ATOM      3  C4  UNL d   1       2.096  -1.218  -0.340  0.00  0.00     0.002 A 
ATOM      4  C5  UNL d   1       1.529  -0.015   0.092  0.00  0.00    -0.080 A 
ATOM      5  C6  UNL d   1       0.431  -0.000   1.114  0.00  0.00     0.076 C 
ATOM      6  C7  UNL d   1       1.997   1.189  -0.447  0.00  0.00     0.002 A 
ATOM      7  C8  UNL d   1       2.999   1.187  -1.419  0.00  0.00     0.006 A 
ENDROOT
BRANCH   1   8
ATOM      8  C1  UNL d   1       4.589  -0.021  -2.961  0.00  0.00     0.054 C 
ATOM      9  C   UNL d   1       6.000  -0.056  -2.391  0.00  0.00     0.018 C 
ENDBRANCH   1   8
TORSDOF 1
ENDMDL
