MODEL 1
REMARK minimizedAffinity -5.28224134
REMARK minimizedRMSD -1
REMARK  1 active torsions:
REMARK  status: ('A' for Active; 'I' for Inactive)
REMARK    1  A    between atoms: C1_2  and  C2_3 
ROOT
ATOM      1  C2  UNL d   1       1.295  -1.203   0.405  0.00  0.00    -0.081 A 
ATOM      2  C3  UNL d   1       2.109  -2.016  -0.393  0.00  0.00     0.006 A 
ATOM      3  C4  UNL d   1       3.002  -1.448  -1.303  0.00  0.00     0.002 A 
ATOM      4  C5  UNL d   1       3.103  -0.058  -1.425  0.00  0.00    -0.080 A 
ATOM      5  C6  UNL d   1       4.080   0.566  -2.377  0.00  0.00     0.076 C 
ATOM      6  C7  UNL d   1       2.277   0.755  -0.640  0.00  0.00     0.002 A 
ATOM      7  C8  UNL d   1       1.383   0.186   0.270  0.00  0.00     0.006 A 
ENDROOT
BRANCH   1   8
ATOM      8  C1  UNL d   1       0.377  -1.813   1.434  0.00  0.00     0.054 C 
ATOM      9  C   UNL d   1      -0.455  -0.747   2.134  0.00  0.00     0.018 C 
ENDBRANCH   1   8
TORSDOF 1
ENDMDL
