MODEL 1
REMARK minimizedAffinity -3.37161803
REMARK minimizedRMSD -1
REMARK  1 active torsions:
REMARK  status: ('A' for Active; 'I' for Inactive)
REMARK    1  A    between atoms: C1_2  and  C2_3 
ROOT
ATOM      1  C2  UNL d   1       2.011  -0.310   0.091  0.00  0.00    -0.081 A 
ATOM      2  C3  UNL d   1       2.459   0.890  -0.473  0.00  0.00     0.006 A 
ATOM      3  C4  UNL d   1       3.578   0.905  -1.310  0.00  0.00     0.002 A 
ATOM      4  C5  UNL d   1       4.262  -0.280  -1.602  0.00  0.00    -0.080 A 
ATOM      5  C6  UNL d   1       5.446  -0.282  -2.523  0.00  0.00     0.076 C 
ATOM      6  C7  UNL d   1       3.824  -1.477  -1.025  0.00  0.00     0.002 A 
ATOM      7  C8  UNL d   1       2.706  -1.492  -0.188  0.00  0.00     0.006 A 
ENDROOT
BRANCH   1   8
ATOM      8  C1  UNL d   1       0.767  -0.340   0.942  0.00  0.00     0.054 C 
ATOM      9  C   UNL d   1       0.072  -1.691   0.859  0.00  0.00     0.018 C 
ENDBRANCH   1   8
TORSDOF 1
ENDMDL
