MODEL 1
REMARK minimizedAffinity -1.3624655
REMARK minimizedRMSD -1
REMARK  1 active torsions:
REMARK  status: ('A' for Active; 'I' for Inactive)
REMARK    1  A    between atoms: C1_2  and  C2_3 
ROOT
ATOM      1  C2  UNL d   1       2.077  -0.646  -0.511  0.00  0.00    -0.081 A 
ATOM      2  C3  UNL d   1       2.680  -1.848  -0.905  0.00  0.00     0.006 A 
ATOM      3  C4  UNL d   1       3.868  -1.837  -1.639  0.00  0.00     0.002 A 
ATOM      4  C5  UNL d   1       4.478  -0.626  -1.985  0.00  0.00    -0.080 A 
ATOM      5  C6  UNL d   1       5.770  -0.601  -2.747  0.00  0.00     0.076 C 
ATOM      6  C7  UNL d   1       3.867   0.574  -1.607  0.00  0.00     0.002 A 
ATOM      7  C8  UNL d   1       2.678   0.564  -0.874  0.00  0.00     0.006 A 
ENDROOT
BRANCH   1   8
ATOM      8  C1  UNL d   1       0.831  -0.655   0.336  0.00  0.00     0.054 C 
ATOM      9  C   UNL d   1       0.650   0.666   1.069  0.00  0.00     0.018 C 
ENDBRANCH   1   8
TORSDOF 1
ENDMDL
