MODEL 1
REMARK minimizedAffinity -0.0394360647
REMARK minimizedRMSD -1
REMARK  1 active torsions:
REMARK  status: ('A' for Active; 'I' for Inactive)
REMARK    1  A    between atoms: C1_2  and  C2_3 
ROOT
ATOM      1  C2  UNL d   1       1.883   0.085  -0.369  0.00  0.00    -0.081 A 
ATOM      2  C3  UNL d   1       2.445  -1.194  -0.460  0.00  0.00     0.006 A 
ATOM      3  C4  UNL d   1       3.488  -1.447  -1.354  0.00  0.00     0.002 A 
ATOM      4  C5  UNL d   1       3.992  -0.425  -2.165  0.00  0.00    -0.080 A 
ATOM      5  C6  UNL d   1       5.131  -0.676  -3.107  0.00  0.00     0.076 C 
ATOM      6  C7  UNL d   1       3.419   0.849  -2.086  0.00  0.00     0.002 A 
ATOM      7  C8  UNL d   1       2.376   1.103  -1.193  0.00  0.00     0.006 A 
ENDROOT
BRANCH   1   8
ATOM      8  C1  UNL d   1       0.802   0.377   0.640  0.00  0.00     0.054 C 
ATOM      9  C   UNL d   1       0.164  -0.905   1.155  0.00  0.00     0.018 C 
ENDBRANCH   1   8
TORSDOF 1
ENDMDL
