MODEL 1
REMARK minimizedAffinity -1.21372724
REMARK minimizedRMSD -1
REMARK  1 active torsions:
REMARK  status: ('A' for Active; 'I' for Inactive)
REMARK    1  A    between atoms: C1_2  and  C2_3 
ROOT
ATOM      1  C2  UNL d   1       1.902  -0.715  -0.213  0.00  0.00    -0.081 A 
ATOM      2  C3  UNL d   1       2.595  -1.892  -0.522  0.00  0.00     0.006 A 
ATOM      3  C4  UNL d   1       3.749  -1.848  -1.310  0.00  0.00     0.002 A 
ATOM      4  C5  UNL d   1       4.232  -0.628  -1.794  0.00  0.00    -0.080 A 
ATOM      5  C6  UNL d   1       5.486  -0.564  -2.615  0.00  0.00     0.076 C 
ATOM      6  C7  UNL d   1       3.530   0.546  -1.500  0.00  0.00     0.002 A 
ATOM      7  C8  UNL d   1       2.376   0.503  -0.713  0.00  0.00     0.006 A 
ENDROOT
BRANCH   1   8
ATOM      8  C1  UNL d   1       0.695  -0.751   0.689  0.00  0.00     0.054 C 
ATOM      9  C   UNL d   1       0.838   0.231   1.843  0.00  0.00     0.018 C 
ENDBRANCH   1   8
TORSDOF 1
ENDMDL
