MODEL 1
REMARK minimizedAffinity 6.9445014
REMARK minimizedRMSD -1
REMARK  1 active torsions:
REMARK  status: ('A' for Active; 'I' for Inactive)
REMARK    1  A    between atoms: C1_2  and  C2_3 
ROOT
ATOM      1  C2  UNL d   1       2.245  -1.070  -0.441  0.00  0.00    -0.081 A 
ATOM      2  C3  UNL d   1       2.422   0.216   0.082  0.00  0.00     0.006 A 
ATOM      3  C4  UNL d   1       1.519   0.733   1.014  0.00  0.00     0.002 A 
ATOM      4  C5  UNL d   1       0.429  -0.031   1.445  0.00  0.00    -0.080 A 
ATOM      5  C6  UNL d   1      -0.530   0.499   2.468  0.00  0.00     0.076 C 
ATOM      6  C7  UNL d   1       0.242  -1.310   0.910  0.00  0.00     0.002 A 
ATOM      7  C8  UNL d   1       1.144  -1.826  -0.023  0.00  0.00     0.006 A 
ENDROOT
BRANCH   1   8
ATOM      8  C1  UNL d   1       3.252  -1.654  -1.398  0.00  0.00     0.054 C 
ATOM      9  C   UNL d   1       2.731  -2.933  -2.038  0.00  0.00     0.018 C 
ENDBRANCH   1   8
TORSDOF 1
ENDMDL
