MODEL 1
REMARK minimizedAffinity -2.20041609
REMARK minimizedRMSD -1
REMARK  1 active torsions:
REMARK  status: ('A' for Active; 'I' for Inactive)
REMARK    1  A    between atoms: C1_2  and  C2_3 
ROOT
ATOM      1  C2  UNL d   1       2.230   0.002  -0.612  0.00  0.00    -0.081 A 
ATOM      2  C3  UNL d   1       2.935   1.157  -0.972  0.00  0.00     0.006 A 
ATOM      3  C4  UNL d   1       4.142   1.061  -1.668  0.00  0.00     0.002 A 
ATOM      4  C5  UNL d   1       4.661  -0.189  -2.022  0.00  0.00    -0.080 A 
ATOM      5  C6  UNL d   1       5.941  -0.305  -2.795  0.00  0.00     0.076 C 
ATOM      6  C7  UNL d   1       3.966  -1.344  -1.646  0.00  0.00     0.002 A 
ATOM      7  C8  UNL d   1       2.759  -1.249  -0.950  0.00  0.00     0.006 A 
ENDROOT
BRANCH   1   8
ATOM      8  C1  UNL d   1       0.895   0.103   0.081  0.00  0.00     0.054 C 
ATOM      9  C   UNL d   1       0.777  -0.915   1.206  0.00  0.00     0.018 C 
ENDBRANCH   1   8
TORSDOF 1
ENDMDL
