MODEL 1
REMARK minimizedAffinity 0.0966998935
REMARK minimizedRMSD -1
REMARK  1 active torsions:
REMARK  status: ('A' for Active; 'I' for Inactive)
REMARK    1  A    between atoms: C1_2  and  C2_3 
ROOT
ATOM      1  C2  UNL d   1       3.641  -0.341  -1.920  0.00  0.00    -0.081 A 
ATOM      2  C3  UNL d   1       2.959   0.684  -1.254  0.00  0.00     0.006 A 
ATOM      3  C4  UNL d   1       2.027   0.384  -0.257  0.00  0.00     0.002 A 
ATOM      4  C5  UNL d   1       1.768  -0.945   0.094  0.00  0.00    -0.080 A 
ATOM      5  C6  UNL d   1       0.792  -1.281   1.183  0.00  0.00     0.076 C 
ATOM      6  C7  UNL d   1       2.437  -1.970  -0.583  0.00  0.00     0.002 A 
ATOM      7  C8  UNL d   1       3.368  -1.670  -1.580  0.00  0.00     0.006 A 
ENDROOT
BRANCH   1   8
ATOM      8  C1  UNL d   1       4.694  -0.017  -2.949  0.00  0.00     0.054 C 
ATOM      9  C   UNL d   1       5.989  -0.767  -2.671  0.00  0.00     0.018 C 
ENDBRANCH   1   8
TORSDOF 1
ENDMDL
