MODEL 1
REMARK minimizedAffinity -1.36285377
REMARK minimizedRMSD -1
REMARK  1 active torsions:
REMARK  status: ('A' for Active; 'I' for Inactive)
REMARK    1  A    between atoms: C1_2  and  C2_3 
ROOT
ATOM      1  C2  UNL d   1       3.212   0.206  -1.678  0.00  0.00    -0.081 A 
ATOM      2  C3  UNL d   1       3.204  -1.052  -1.064  0.00  0.00     0.006 A 
ATOM      3  C4  UNL d   1       2.126  -1.444  -0.267  0.00  0.00     0.002 A 
ATOM      4  C5  UNL d   1       1.035  -0.589  -0.077  0.00  0.00    -0.080 A 
ATOM      5  C6  UNL d   1      -0.142  -1.009   0.752  0.00  0.00     0.076 C 
ATOM      6  C7  UNL d   1       1.051   0.675  -0.677  0.00  0.00     0.002 A 
ATOM      7  C8  UNL d   1       2.129   1.068  -1.473  0.00  0.00     0.006 A 
ENDROOT
BRANCH   1   8
ATOM      8  C1  UNL d   1       4.343   0.606  -2.591  0.00  0.00     0.054 C 
ATOM      9  C   UNL d   1       5.496  -0.385  -2.510  0.00  0.00     0.018 C 
ENDBRANCH   1   8
TORSDOF 1
ENDMDL
