MODEL 1
REMARK minimizedAffinity -0.550182343
REMARK minimizedRMSD -1
REMARK  1 active torsions:
REMARK  status: ('A' for Active; 'I' for Inactive)
REMARK    1  A    between atoms: C1_2  and  C2_3 
ROOT
ATOM      1  C2  UNL d   1       4.363   0.143  -1.484  0.00  0.00    -0.081 A 
ATOM      2  C3  UNL d   1       3.981  -1.124  -1.028  0.00  0.00     0.006 A 
ATOM      3  C4  UNL d   1       2.825  -1.281  -0.259  0.00  0.00     0.002 A 
ATOM      4  C5  UNL d   1       2.029  -0.176   0.060  0.00  0.00    -0.080 A 
ATOM      5  C6  UNL d   1       0.770  -0.336   0.859  0.00  0.00     0.076 C 
ATOM      6  C7  UNL d   1       2.420   1.092  -0.381  0.00  0.00     0.002 A 
ATOM      7  C8  UNL d   1       3.576   1.251  -1.149  0.00  0.00     0.006 A 
ENDROOT
BRANCH   1   8
ATOM      8  C1  UNL d   1       5.573   0.308  -2.367  0.00  0.00     0.054 C 
ATOM      9  C   UNL d   1       5.999  -1.021  -2.975  0.00  0.00     0.018 C 
ENDBRANCH   1   8
TORSDOF 1
ENDMDL
