MODEL 1
REMARK minimizedAffinity 1.15293837
REMARK minimizedRMSD -1
REMARK  1 active torsions:
REMARK  status: ('A' for Active; 'I' for Inactive)
REMARK    1  A    between atoms: C1_2  and  C2_3 
ROOT
ATOM      1  C2  UNL d   1       3.118  -0.109  -1.840  0.00  0.00    -0.081 A 
ATOM      2  C3  UNL d   1       1.964   0.658  -1.637  0.00  0.00     0.006 A 
ATOM      3  C4  UNL d   1       1.101   0.371  -0.577  0.00  0.00     0.002 A 
ATOM      4  C5  UNL d   1       1.380  -0.681   0.302  0.00  0.00    -0.080 A 
ATOM      5  C6  UNL d   1       0.477  -0.980   1.462  0.00  0.00     0.076 C 
ATOM      6  C7  UNL d   1       2.524  -1.458   0.089  0.00  0.00     0.002 A 
ATOM      7  C8  UNL d   1       3.387  -1.172  -0.971  0.00  0.00     0.006 A 
ENDROOT
BRANCH   1   8
ATOM      8  C1  UNL d   1       4.085   0.238  -2.943  0.00  0.00     0.054 C 
ATOM      9  C   UNL d   1       5.423  -0.458  -2.745  0.00  0.00     0.018 C 
ENDBRANCH   1   8
TORSDOF 1
ENDMDL
