MODEL 1
REMARK minimizedAffinity -1.39783478
REMARK minimizedRMSD -1
REMARK  0 active torsions:
REMARK  status: ('A' for Active; 'I' for Inactive)
ROOT
ATOM      1  C   UNL d   1       6.000   4.710   5.997  0.00  0.00     0.020 A 
ATOM      2  C1  UNL d   1       5.540   5.940   5.529  0.00  0.00     0.020 A 
ATOM      3  C2  UNL d   1       4.404   5.998   4.718  0.00  0.00     0.034 A 
ATOM      4  C3  UNL d   1       3.725   4.824   4.373  0.00  0.00     0.017 A 
ATOM      5  C4  UNL d   1       4.187   3.590   4.844  0.00  0.00     0.017 A 
ATOM      6  C5  UNL d   1       5.325   3.538   5.655  0.00  0.00     0.034 A 
ATOM      7 Cl   UNL d   1       3.402   2.099   4.461  0.00  0.00    -0.070 Cl
ATOM      8 Cl1  UNL d   1       2.327   4.970   3.368  0.00  0.00    -0.070 Cl
ENDROOT
TORSDOF 0
ENDMDL
