MODEL 1
REMARK minimizedAffinity 3.38261294
REMARK minimizedRMSD -1
REMARK  0 active torsions:
REMARK  status: ('A' for Active; 'I' for Inactive)
ROOT
ATOM      1  C   UNL d   1      -1.168   1.412  -0.802  0.00  0.00     0.020 A 
ATOM      2  C1  UNL d   1      -1.056   2.802  -0.785  0.00  0.00     0.020 A 
ATOM      3  C2  UNL d   1      -0.010   3.410  -0.087  0.00  0.00     0.034 A 
ATOM      4  C3  UNL d   1       0.928   2.628   0.596  0.00  0.00     0.017 A 
ATOM      5  C4  UNL d   1       0.815   1.233   0.578  0.00  0.00     0.017 A 
ATOM      6  C5  UNL d   1      -0.234   0.630  -0.122  0.00  0.00     0.034 A 
ATOM      7 Cl   UNL d   1       1.934   0.202   1.398  0.00  0.00    -0.070 Cl
ATOM      8 Cl1  UNL d   1       2.196   3.447   1.438  0.00  0.00    -0.070 Cl
ENDROOT
TORSDOF 0
ENDMDL
