MODEL 1
REMARK minimizedAffinity 0.726942182
REMARK minimizedRMSD -1
REMARK  0 active torsions:
REMARK  status: ('A' for Active; 'I' for Inactive)
ROOT
ATOM      1  C   UNL d   1      -5.795   5.393   5.851  0.00  0.00     0.020 A 
ATOM      2  C1  UNL d   1      -5.942   5.949   4.580  0.00  0.00     0.020 A 
ATOM      3  C2  UNL d   1      -5.999   5.119   3.458  0.00  0.00     0.034 A 
ATOM      4  C3  UNL d   1      -5.909   3.730   3.604  0.00  0.00     0.017 A 
ATOM      5  C4  UNL d   1      -5.761   3.174   4.880  0.00  0.00     0.017 A 
ATOM      6  C5  UNL d   1      -5.705   4.009   6.000  0.00  0.00     0.034 A 
ATOM      7 Cl   UNL d   1      -5.643   1.469   5.139  0.00  0.00    -0.070 Cl
ATOM      8 Cl1  UNL d   1      -5.987   2.765   2.173  0.00  0.00    -0.070 Cl
ENDROOT
TORSDOF 0
ENDMDL
