MODEL 1
REMARK minimizedAffinity 4.88602161
REMARK minimizedRMSD -1
REMARK  0 active torsions:
REMARK  status: ('A' for Active; 'I' for Inactive)
ROOT
ATOM      1  C   UNL d   1      -1.426   1.192  -0.543  0.00  0.00     0.020 A 
ATOM      2  C1  UNL d   1      -0.504   0.433   0.176  0.00  0.00     0.020 A 
ATOM      3  C2  UNL d   1       0.526   1.064   0.876  0.00  0.00     0.034 A 
ATOM      4  C3  UNL d   1       0.637   2.460   0.859  0.00  0.00     0.017 A 
ATOM      5  C4  UNL d   1      -0.290   3.221   0.137  0.00  0.00     0.017 A 
ATOM      6  C5  UNL d   1      -1.319   2.583  -0.562  0.00  0.00     0.034 A 
ATOM      7 Cl   UNL d   1      -0.218   4.947   0.069  0.00  0.00    -0.070 Cl
ATOM      8 Cl1  UNL d   1       1.935   3.174   1.748  0.00  0.00    -0.070 Cl
ENDROOT
TORSDOF 0
ENDMDL
