MODEL 1
REMARK minimizedAffinity 9.79946327
REMARK minimizedRMSD -1
REMARK  0 active torsions:
REMARK  status: ('A' for Active; 'I' for Inactive)
ROOT
ATOM      1  C   UNL d   1       1.985   0.330   0.499  0.00  0.00     0.020 A 
ATOM      2  C1  UNL d   1       2.635  -0.349  -0.531  0.00  0.00     0.020 A 
ATOM      3  C2  UNL d   1       1.901  -0.860  -1.603  0.00  0.00     0.034 A 
ATOM      4  C3  UNL d   1       0.512  -0.692  -1.648  0.00  0.00     0.017 A 
ATOM      5  C4  UNL d   1      -0.140  -0.010  -0.614  0.00  0.00     0.017 A 
ATOM      6  C5  UNL d   1       0.601   0.499   0.457  0.00  0.00     0.034 A 
ATOM      7 Cl   UNL d   1      -1.850   0.236  -0.600  0.00  0.00    -0.070 Cl
ATOM      8 Cl1  UNL d   1      -0.333  -1.350  -3.005  0.00  0.00    -0.070 Cl
ENDROOT
TORSDOF 0
ENDMDL
