MODEL 1
REMARK minimizedAffinity 4.81542015
REMARK minimizedRMSD -1
REMARK  0 active torsions:
REMARK  status: ('A' for Active; 'I' for Inactive)
ROOT
ATOM      1  C   UNL d   1       2.501  -2.118  -0.226  0.00  0.00     0.020 A 
ATOM      2  C1  UNL d   1       2.946  -3.413   0.035  0.00  0.00     0.020 A 
ATOM      3  C2  UNL d   1       2.038  -4.473   0.056  0.00  0.00     0.034 A 
ATOM      4  C3  UNL d   1       0.679  -4.240  -0.185  0.00  0.00     0.017 A 
ATOM      5  C4  UNL d   1       0.232  -2.940  -0.446  0.00  0.00     0.017 A 
ATOM      6  C5  UNL d   1       1.147  -1.882  -0.466  0.00  0.00     0.034 A 
ATOM      7 Cl   UNL d   1      -1.429  -2.574  -0.752  0.00  0.00    -0.070 Cl
ATOM      8 Cl1  UNL d   1      -0.389  -5.598  -0.144  0.00  0.00    -0.070 Cl
ENDROOT
TORSDOF 0
ENDMDL
