MODEL 1
REMARK minimizedAffinity 3.73502493
REMARK minimizedRMSD -1
REMARK  0 active torsions:
REMARK  status: ('A' for Active; 'I' for Inactive)
ROOT
ATOM      1  C   UNL d   1       0.538  -4.212   0.730  0.00  0.00     0.020 A 
ATOM      2  C1  UNL d   1       0.043  -4.367  -0.565  0.00  0.00     0.020 A 
ATOM      3  C2  UNL d   1       0.486  -3.525  -1.587  0.00  0.00     0.034 A 
ATOM      4  C3  UNL d   1       1.426  -2.524  -1.317  0.00  0.00     0.017 A 
ATOM      5  C4  UNL d   1       1.922  -2.369  -0.017  0.00  0.00     0.017 A 
ATOM      6  C5  UNL d   1       1.475  -3.215   1.002  0.00  0.00     0.034 A 
ATOM      7 Cl   UNL d   1       3.084  -1.157   0.393  0.00  0.00    -0.070 Cl
ATOM      8 Cl1  UNL d   1       1.929  -1.519  -2.629  0.00  0.00    -0.070 Cl
ENDROOT
TORSDOF 0
ENDMDL
