MODEL 1
REMARK minimizedAffinity 0.323261112
REMARK minimizedRMSD -1
REMARK  0 active torsions:
REMARK  status: ('A' for Active; 'I' for Inactive)
ROOT
ATOM      1  C   UNL d   1       1.803  -3.947  -0.220  0.00  0.00     0.020 A 
ATOM      2  C1  UNL d   1       0.468  -3.560  -0.328  0.00  0.00     0.020 A 
ATOM      3  C2  UNL d   1       0.139  -2.206  -0.422  0.00  0.00     0.034 A 
ATOM      4  C3  UNL d   1       1.146  -1.234  -0.408  0.00  0.00     0.017 A 
ATOM      5  C4  UNL d   1       2.486  -1.623  -0.299  0.00  0.00     0.017 A 
ATOM      6  C5  UNL d   1       2.810  -2.980  -0.205  0.00  0.00     0.034 A 
ATOM      7 Cl   UNL d   1       3.784  -0.482  -0.275  0.00  0.00    -0.070 Cl
ATOM      8 Cl1  UNL d   1       0.667   0.422  -0.528  0.00  0.00    -0.070 Cl
ENDROOT
TORSDOF 0
ENDMDL
