MODEL 1
REMARK minimizedAffinity 5.72905874
REMARK minimizedRMSD -1
REMARK  0 active torsions:
REMARK  status: ('A' for Active; 'I' for Inactive)
ROOT
ATOM      1  C   UNL d   1      -4.561   1.223  -1.329  0.00  0.00     0.020 A 
ATOM      2  C1  UNL d   1      -4.158   0.169  -0.510  0.00  0.00     0.020 A 
ATOM      3  C2  UNL d   1      -2.916  -0.437  -0.713  0.00  0.00     0.034 A 
ATOM      4  C3  UNL d   1      -2.073   0.011  -1.736  0.00  0.00     0.017 A 
ATOM      5  C4  UNL d   1      -2.479   1.069  -2.558  0.00  0.00     0.017 A 
ATOM      6  C5  UNL d   1      -3.723   1.672  -2.351  0.00  0.00     0.034 A 
ATOM      7 Cl   UNL d   1      -1.493   1.676  -3.841  0.00  0.00    -0.070 Cl
ATOM      8 Cl1  UNL d   1      -0.551  -0.784  -1.929  0.00  0.00    -0.070 Cl
ENDROOT
TORSDOF 0
ENDMDL
