MODEL 1
REMARK minimizedAffinity -0.421876252
REMARK minimizedRMSD -1
REMARK  0 active torsions:
REMARK  status: ('A' for Active; 'I' for Inactive)
ROOT
ATOM      1  C   UNL d   1      -5.095  -1.033   0.852  0.00  0.00     0.020 A 
ATOM      2  C1  UNL d   1      -5.911   0.002   0.396  0.00  0.00     0.020 A 
ATOM      3  C2  UNL d   1      -5.499   0.794  -0.677  0.00  0.00     0.034 A 
ATOM      4  C3  UNL d   1      -4.268   0.554  -1.298  0.00  0.00     0.017 A 
ATOM      5  C4  UNL d   1      -3.450  -0.485  -0.840  0.00  0.00     0.017 A 
ATOM      6  C5  UNL d   1      -3.867  -1.276   0.235  0.00  0.00     0.034 A 
ATOM      7 Cl   UNL d   1      -1.918  -0.843  -1.556  0.00  0.00    -0.070 Cl
ATOM      8 Cl1  UNL d   1      -3.823   1.573  -2.621  0.00  0.00    -0.070 Cl
ENDROOT
TORSDOF 0
ENDMDL
