MODEL 1
REMARK minimizedAffinity 0.838118374
REMARK minimizedRMSD -1
REMARK  0 active torsions:
REMARK  status: ('A' for Active; 'I' for Inactive)
ROOT
ATOM      1  C   UNL d   1      -5.066   1.674   1.733  0.00  0.00     0.020 A 
ATOM      2  C1  UNL d   1      -5.999   0.641   1.821  0.00  0.00     0.020 A 
ATOM      3  C2  UNL d   1      -5.861  -0.494   1.019  0.00  0.00     0.034 A 
ATOM      4  C3  UNL d   1      -4.789  -0.599   0.126  0.00  0.00     0.017 A 
ATOM      5  C4  UNL d   1      -3.853   0.437   0.038  0.00  0.00     0.017 A 
ATOM      6  C5  UNL d   1      -3.995   1.572   0.844  0.00  0.00     0.034 A 
ATOM      7 Cl   UNL d   1      -2.503   0.379  -1.040  0.00  0.00    -0.070 Cl
ATOM      8 Cl1  UNL d   1      -4.681  -2.032  -0.835  0.00  0.00    -0.070 Cl
ENDROOT
TORSDOF 0
ENDMDL
