MODEL 1
REMARK minimizedAffinity -1.93548918
REMARK minimizedRMSD -1
REMARK  0 active torsions:
REMARK  status: ('A' for Active; 'I' for Inactive)
ROOT
ATOM      1  C   UNL d   1       2.170  -2.857  -1.188  0.00  0.00     0.020 A 
ATOM      2  C1  UNL d   1       0.805  -3.114  -1.304  0.00  0.00     0.020 A 
ATOM      3  C2  UNL d   1      -0.095  -2.055  -1.445  0.00  0.00     0.034 A 
ATOM      4  C3  UNL d   1       0.370  -0.735  -1.469  0.00  0.00     0.017 A 
ATOM      5  C4  UNL d   1       1.741  -0.479  -1.352  0.00  0.00     0.017 A 
ATOM      6  C5  UNL d   1       2.637  -1.543  -1.212  0.00  0.00     0.034 A 
ATOM      7 Cl   UNL d   1       2.389   1.123  -1.374  0.00  0.00    -0.070 Cl
ATOM      8 Cl1  UNL d   1      -0.799   0.525  -1.646  0.00  0.00    -0.070 Cl
ENDROOT
TORSDOF 0
ENDMDL
