MODEL 1
REMARK minimizedAffinity -4.57019663
REMARK minimizedRMSD -1
REMARK  0 active torsions:
REMARK  status: ('A' for Active; 'I' for Inactive)
ROOT
ATOM      1  C   UNL d   1       3.399  -1.388  -0.910  0.00  0.00     0.020 A 
ATOM      2  C1  UNL d   1       3.193  -0.016  -1.054  0.00  0.00     0.020 A 
ATOM      3  C2  UNL d   1       1.931   0.467  -1.407  0.00  0.00     0.034 A 
ATOM      4  C3  UNL d   1       0.870  -0.422  -1.618  0.00  0.00     0.017 A 
ATOM      5  C4  UNL d   1       1.078  -1.799  -1.473  0.00  0.00     0.017 A 
ATOM      6  C5  UNL d   1       2.344  -2.277  -1.119  0.00  0.00     0.034 A 
ATOM      7 Cl   UNL d   1      -0.181  -2.957  -1.716  0.00  0.00    -0.070 Cl
ATOM      8 Cl1  UNL d   1      -0.663   0.245  -2.052  0.00  0.00    -0.070 Cl
ENDROOT
TORSDOF 0
ENDMDL
