MODEL 1
REMARK minimizedAffinity -3.43149066
REMARK minimizedRMSD -1
REMARK  0 active torsions:
REMARK  status: ('A' for Active; 'I' for Inactive)
ROOT
ATOM      1  C   UNL d   1      -3.741   5.360  -0.232  0.00  0.00     0.020 A 
ATOM      2  C1  UNL d   1      -5.044   5.099   0.189  0.00  0.00     0.020 A 
ATOM      3  C2  UNL d   1      -5.672   3.908  -0.182  0.00  0.00     0.034 A 
ATOM      4  C3  UNL d   1      -4.997   2.975  -0.977  0.00  0.00     0.017 A 
ATOM      5  C4  UNL d   1      -3.689   3.238  -1.400  0.00  0.00     0.017 A 
ATOM      6  C5  UNL d   1      -3.065   4.432  -1.025  0.00  0.00     0.034 A 
ATOM      7 Cl   UNL d   1      -2.793   2.135  -2.382  0.00  0.00    -0.070 Cl
ATOM      8 Cl1  UNL d   1      -5.835   1.523  -1.399  0.00  0.00    -0.070 Cl
ENDROOT
TORSDOF 0
ENDMDL
