MODEL 1
REMARK minimizedAffinity 0.86153084
REMARK minimizedRMSD -1
REMARK  0 active torsions:
REMARK  status: ('A' for Active; 'I' for Inactive)
ROOT
ATOM      1  C   UNL d   1       1.540   0.007   1.619  0.00  0.00     0.020 A 
ATOM      2  C1  UNL d   1       2.854   0.135   1.169  0.00  0.00     0.020 A 
ATOM      3  C2  UNL d   1       3.166  -0.146  -0.163  0.00  0.00     0.034 A 
ATOM      4  C3  UNL d   1       2.164  -0.555  -1.049  0.00  0.00     0.017 A 
ATOM      5  C4  UNL d   1       0.846  -0.683  -0.597  0.00  0.00     0.017 A 
ATOM      6  C5  UNL d   1       0.538  -0.400   0.738  0.00  0.00     0.034 A 
ATOM      7 Cl   UNL d   1      -0.445  -1.183  -1.632  0.00  0.00    -0.070 Cl
ATOM      8 Cl1  UNL d   1       2.622  -0.885  -2.682  0.00  0.00    -0.070 Cl
ENDROOT
TORSDOF 0
ENDMDL
