MODEL 1
REMARK minimizedAffinity -3.36131239
REMARK minimizedRMSD -1
REMARK  0 active torsions:
REMARK  status: ('A' for Active; 'I' for Inactive)
ROOT
ATOM      1  C   UNL d   1      -1.361   1.078   2.024  0.00  0.00     0.020 A 
ATOM      2  C1  UNL d   1      -0.114   0.911   2.624  0.00  0.00     0.020 A 
ATOM      3  C2  UNL d   1       0.029   0.045   3.710  0.00  0.00     0.034 A 
ATOM      4  C3  UNL d   1      -1.078  -0.657   4.201  0.00  0.00     0.017 A 
ATOM      5  C4  UNL d   1      -2.330  -0.488   3.599  0.00  0.00     0.017 A 
ATOM      6  C5  UNL d   1      -2.467   0.380   2.511  0.00  0.00     0.034 A 
ATOM      7 Cl   UNL d   1      -3.743  -1.320   4.148  0.00  0.00    -0.070 Cl
ATOM      8 Cl1  UNL d   1      -0.829  -1.710   5.547  0.00  0.00    -0.070 Cl
ENDROOT
TORSDOF 0
ENDMDL
