MODEL 1
REMARK minimizedAffinity 1.20142734
REMARK minimizedRMSD -1
REMARK  0 active torsions:
REMARK  status: ('A' for Active; 'I' for Inactive)
ROOT
ATOM      1  C   UNL d   1      -2.324   0.013   0.148  0.00  0.00     0.020 A 
ATOM      2  C1  UNL d   1      -2.181   1.346   0.529  0.00  0.00     0.020 A 
ATOM      3  C2  UNL d   1      -2.062   1.677   1.881  0.00  0.00     0.034 A 
ATOM      4  C3  UNL d   1      -2.086   0.673   2.856  0.00  0.00     0.017 A 
ATOM      5  C4  UNL d   1      -2.230  -0.665   2.472  0.00  0.00     0.017 A 
ATOM      6  C5  UNL d   1      -2.348  -0.991   1.118  0.00  0.00     0.034 A 
ATOM      7 Cl   UNL d   1      -2.268  -1.959   3.618  0.00  0.00    -0.070 Cl
ATOM      8 Cl1  UNL d   1      -1.934   1.155   4.509  0.00  0.00    -0.070 Cl
ENDROOT
TORSDOF 0
ENDMDL
