MODEL 1
REMARK minimizedAffinity 2.19506741
REMARK minimizedRMSD -1
REMARK  0 active torsions:
REMARK  status: ('A' for Active; 'I' for Inactive)
ROOT
ATOM      1  C   UNL d   1      -1.125   0.750   2.744  0.00  0.00     0.020 A 
ATOM      2  C1  UNL d   1      -2.214   0.383   1.954  0.00  0.00     0.020 A 
ATOM      3  C2  UNL d   1      -2.024  -0.440   0.842  0.00  0.00     0.034 A 
ATOM      4  C3  UNL d   1      -0.742  -0.899   0.517  0.00  0.00     0.017 A 
ATOM      5  C4  UNL d   1       0.350  -0.531   1.311  0.00  0.00     0.017 A 
ATOM      6  C5  UNL d   1       0.154   0.294   2.424  0.00  0.00     0.034 A 
ATOM      7 Cl   UNL d   1       1.961  -1.058   0.974  0.00  0.00    -0.070 Cl
ATOM      8 Cl1  UNL d   1      -0.580  -1.914  -0.872  0.00  0.00    -0.070 Cl
ENDROOT
TORSDOF 0
ENDMDL
