MODEL 1
REMARK minimizedAffinity -0.639418304
REMARK minimizedRMSD -1
REMARK  0 active torsions:
REMARK  status: ('A' for Active; 'I' for Inactive)
ROOT
ATOM      1  C   UNL d   1      -0.172  -4.571  -2.900  0.00  0.00     0.020 A 
ATOM      2  C1  UNL d   1      -0.205  -4.080  -4.204  0.00  0.00     0.020 A 
ATOM      3  C2  UNL d   1       0.373  -2.844  -4.500  0.00  0.00     0.034 A 
ATOM      4  C3  UNL d   1       0.987  -2.095  -3.489  0.00  0.00     0.017 A 
ATOM      5  C4  UNL d   1       1.020  -2.589  -2.180  0.00  0.00     0.017 A 
ATOM      6  C5  UNL d   1       0.439  -3.827  -1.890  0.00  0.00     0.034 A 
ATOM      7 Cl   UNL d   1       1.759  -1.722  -0.881  0.00  0.00    -0.070 Cl
ATOM      8 Cl1  UNL d   1       1.682  -0.574  -3.926  0.00  0.00    -0.070 Cl
ENDROOT
TORSDOF 0
ENDMDL
