MODEL 1
REMARK minimizedAffinity 7.859478
REMARK minimizedRMSD -1
REMARK  0 active torsions:
REMARK  status: ('A' for Active; 'I' for Inactive)
ROOT
ATOM      1  C   UNL d   1      -2.234   2.238   1.645  0.00  0.00     0.020 A 
ATOM      2  C1  UNL d   1      -1.464   1.217   2.200  0.00  0.00     0.020 A 
ATOM      3  C2  UNL d   1      -1.661  -0.105   1.795  0.00  0.00     0.034 A 
ATOM      4  C3  UNL d   1      -2.631  -0.409   0.833  0.00  0.00     0.017 A 
ATOM      5  C4  UNL d   1      -3.403   0.617   0.276  0.00  0.00     0.017 A 
ATOM      6  C5  UNL d   1      -3.202   1.939   0.686  0.00  0.00     0.034 A 
ATOM      7 Cl   UNL d   1      -4.619   0.319  -0.916  0.00  0.00    -0.070 Cl
ATOM      8 Cl1  UNL d   1      -2.820  -2.065   0.378  0.00  0.00    -0.070 Cl
ENDROOT
TORSDOF 0
ENDMDL
