MODEL 1
REMARK minimizedAffinity 7.59769106
REMARK minimizedRMSD -1
REMARK  0 active torsions:
REMARK  status: ('A' for Active; 'I' for Inactive)
ROOT
ATOM      1  C   UNL d   1      -1.428   1.922   2.489  0.00  0.00     0.020 A 
ATOM      2  C1  UNL d   1      -0.893   0.721   2.952  0.00  0.00     0.020 A 
ATOM      3  C2  UNL d   1      -1.312  -0.490   2.397  0.00  0.00     0.034 A 
ATOM      4  C3  UNL d   1      -2.268  -0.503   1.375  0.00  0.00     0.017 A 
ATOM      5  C4  UNL d   1      -2.805   0.704   0.911  0.00  0.00     0.017 A 
ATOM      6  C5  UNL d   1      -2.382   1.913   1.470  0.00  0.00     0.034 A 
ATOM      7 Cl   UNL d   1      -3.989   0.768  -0.347  0.00  0.00    -0.070 Cl
ATOM      8 Cl1  UNL d   1      -2.739  -2.037   0.735  0.00  0.00    -0.070 Cl
ENDROOT
TORSDOF 0
ENDMDL
