MODEL 1
REMARK minimizedAffinity 2.40895534
REMARK minimizedRMSD -1
REMARK  0 active torsions:
REMARK  status: ('A' for Active; 'I' for Inactive)
ROOT
ATOM      1  C   UNL d   1      -1.256  -4.943  -5.088  0.00  0.00     0.020 A 
ATOM      2  C1  UNL d   1      -0.236  -4.288  -5.777  0.00  0.00     0.020 A 
ATOM      3  C2  UNL d   1       0.138  -2.995  -5.407  0.00  0.00     0.034 A 
ATOM      4  C3  UNL d   1      -0.509  -2.352  -4.345  0.00  0.00     0.017 A 
ATOM      5  C4  UNL d   1      -1.532  -3.010  -3.654  0.00  0.00     0.017 A 
ATOM      6  C5  UNL d   1      -1.902  -4.305  -4.029  0.00  0.00     0.034 A 
ATOM      7 Cl   UNL d   1      -2.376  -2.282  -2.333  0.00  0.00    -0.070 Cl
ATOM      8 Cl1  UNL d   1       0.005  -0.752  -3.941  0.00  0.00    -0.070 Cl
ENDROOT
TORSDOF 0
ENDMDL
