MODEL 1
REMARK minimizedAffinity 1.46206999
REMARK minimizedRMSD -1
REMARK  1 active torsions:
REMARK  status: ('A' for Active; 'I' for Inactive)
REMARK    1  A    between atoms: C1_2  and  C2_3 
ROOT
ATOM      1  C2  UNL d   1      -0.711  -0.348   2.077  0.00  0.00    -0.073 A 
ATOM      2  C3  UNL d   1       0.437   0.084   1.404  0.00  0.00    -0.002 A 
ATOM      3  C4  UNL d   1       1.701  -0.329   1.830  0.00  0.00     0.004 A 
ATOM      4  C5  UNL d   1       1.828  -1.182   2.926  0.00  0.00    -0.004 A 
ATOM      5  C6  UNL d   1       0.692  -1.634   3.604  0.00  0.00    -0.075 A 
ATOM      6  C7  UNL d   1       0.812  -2.550   4.787  0.00  0.00     0.076 C 
ATOM      7  C8  UNL d   1      -0.573  -1.213   3.172  0.00  0.00     0.001 A 
ENDROOT
BRANCH   1   8
ATOM      8  C1  UNL d   1      -2.078   0.089   1.617  0.00  0.00     0.053 C 
ATOM      9  C   UNL d   1      -2.057   0.621   0.193  0.00  0.00     0.018 C 
ENDBRANCH   1   8
TORSDOF 1
ENDMDL
