MODEL 1
REMARK minimizedAffinity -5.8485775
REMARK minimizedRMSD -1
REMARK  1 active torsions:
REMARK  status: ('A' for Active; 'I' for Inactive)
REMARK    1  A    between atoms: C1_2  and  C2_3 
ROOT
ATOM      1  C2  UNL d   1       0.808  -1.795   3.534  0.00  0.00    -0.073 A 
ATOM      2  C3  UNL d   1      -0.252  -2.659   3.830  0.00  0.00    -0.002 A 
ATOM      3  C4  UNL d   1      -1.530  -2.403   3.333  0.00  0.00     0.004 A 
ATOM      4  C5  UNL d   1      -1.761  -1.286   2.530  0.00  0.00    -0.004 A 
ATOM      5  C6  UNL d   1      -0.712  -0.417   2.213  0.00  0.00    -0.075 A 
ATOM      6  C7  UNL d   1      -0.944   0.790   1.352  0.00  0.00     0.076 C 
ATOM      7  C8  UNL d   1       0.569  -0.680   2.718  0.00  0.00     0.001 A 
ENDROOT
BRANCH   1   8
ATOM      8  C1  UNL d   1       2.192  -2.071   4.063  0.00  0.00     0.053 C 
ATOM      9  C   UNL d   1       2.363  -1.584   5.493  0.00  0.00     0.018 C 
ENDBRANCH   1   8
TORSDOF 1
ENDMDL
