MODEL 1
REMARK minimizedAffinity 1.41688442
REMARK minimizedRMSD -1
REMARK  1 active torsions:
REMARK  status: ('A' for Active; 'I' for Inactive)
REMARK    1  A    between atoms: C1_2  and  C2_3 
ROOT
ATOM      1  C2  UNL d   1       2.342  -4.575  -4.329  0.00  0.00    -0.073 A 
ATOM      2  C3  UNL d   1       2.104  -4.902  -2.989  0.00  0.00    -0.002 A 
ATOM      3  C4  UNL d   1       0.935  -5.572  -2.624  0.00  0.00     0.004 A 
ATOM      4  C5  UNL d   1      -0.002  -5.928  -3.594  0.00  0.00    -0.004 A 
ATOM      5  C6  UNL d   1       0.224  -5.621  -4.939  0.00  0.00    -0.075 A 
ATOM      6  C7  UNL d   1      -0.775  -5.995  -5.995  0.00  0.00     0.076 C 
ATOM      7  C8  UNL d   1       1.398  -4.946  -5.298  0.00  0.00     0.001 A 
ENDROOT
BRANCH   1   8
ATOM      8  C1  UNL d   1       3.605  -3.858  -4.729  0.00  0.00     0.053 C 
ATOM      9  C   UNL d   1       3.497  -2.355  -4.521  0.00  0.00     0.018 C 
ENDBRANCH   1   8
TORSDOF 1
ENDMDL
