MODEL 1
REMARK minimizedAffinity 4.60217667
REMARK minimizedRMSD -1
REMARK  1 active torsions:
REMARK  status: ('A' for Active; 'I' for Inactive)
REMARK    1  A    between atoms: C1_2  and  C2_3 
ROOT
ATOM      1  C2  UNL d   1       1.972  -5.366  -5.276  0.00  0.00    -0.073 A 
ATOM      2  C3  UNL d   1       0.826  -5.734  -5.990  0.00  0.00    -0.002 A 
ATOM      3  C4  UNL d   1      -0.370  -5.992  -5.319  0.00  0.00     0.004 A 
ATOM      4  C5  UNL d   1      -0.435  -5.876  -3.931  0.00  0.00    -0.004 A 
ATOM      5  C6  UNL d   1       0.696  -5.497  -3.201  0.00  0.00    -0.075 A 
ATOM      6  C7  UNL d   1       0.643  -5.371  -1.706  0.00  0.00     0.076 C 
ATOM      7  C8  UNL d   1       1.895  -5.243  -3.881  0.00  0.00     0.001 A 
ENDROOT
BRANCH   1   8
ATOM      8  C1  UNL d   1       3.265  -5.081  -5.997  0.00  0.00     0.053 C 
ATOM      9  C   UNL d   1       3.814  -3.704  -5.658  0.00  0.00     0.018 C 
ENDBRANCH   1   8
TORSDOF 1
ENDMDL
