MODEL 1
REMARK minimizedAffinity 14.4412088
REMARK minimizedRMSD -1
REMARK  0 active torsions:
REMARK  status: ('A' for Active; 'I' for Inactive)
ROOT
ATOM      1  C   UNL d   1      -5.978  -5.573   2.391  0.00  0.00    -0.002 A 
ATOM      2  C1  UNL d   1      -5.983  -5.669   3.775  0.00  0.00     0.010 A 
ATOM      3  C2  UNL d   1      -5.985  -4.519   4.567  0.00  0.00     0.041 A 
ATOM      4  C3  UNL d   1      -5.986  -3.258   3.937  0.00  0.00    -0.075 A 
ATOM      5  S   UNL d   1      -5.990  -1.714   4.703  0.00  0.00     0.015 SA
ATOM      6  C4  UNL d   1      -5.986  -0.891   3.211  0.00  0.00     0.022 A 
ATOM      7  C5  UNL d   1      -5.982  -1.758   2.144  0.00  0.00     0.026 A 
ATOM      8  C6  UNL d   1      -5.982  -3.137   2.545  0.00  0.00    -0.082 A 
ATOM      9  C7  UNL d   1      -5.978  -4.322   1.770  0.00  0.00     0.045 A 
ENDROOT
TORSDOF 0
ENDMDL
