MODEL 1
REMARK minimizedAffinity 15.0620327
REMARK minimizedRMSD -1
REMARK  0 active torsions:
REMARK  status: ('A' for Active; 'I' for Inactive)
ROOT
ATOM      1  C   UNL d   1       1.708   1.223   1.706  0.00  0.00    -0.002 A 
ATOM      2  C1  UNL d   1       2.750   0.678   0.970  0.00  0.00     0.010 A 
ATOM      3  C2  UNL d   1       3.923   1.403   0.753  0.00  0.00     0.041 A 
ATOM      4  C3  UNL d   1       4.033   2.699   1.296  0.00  0.00    -0.075 A 
ATOM      5  S   UNL d   1       5.375   3.772   1.160  0.00  0.00     0.015 SA
ATOM      6  C4  UNL d   1       4.597   4.980   2.077  0.00  0.00     0.022 A 
ATOM      7  C5  UNL d   1       3.343   4.591   2.484  0.00  0.00     0.026 A 
ATOM      8  C6  UNL d   1       2.997   3.270   2.041  0.00  0.00    -0.082 A 
ATOM      9  C7  UNL d   1       1.821   2.509   2.242  0.00  0.00     0.045 A 
ENDROOT
TORSDOF 0
ENDMDL
