MODEL 1
REMARK minimizedAffinity 20.7487984
REMARK minimizedRMSD -1
REMARK  0 active torsions:
REMARK  status: ('A' for Active; 'I' for Inactive)
ROOT
ATOM      1  C   UNL d   1       0.987   1.265  -3.291  0.00  0.00    -0.002 A 
ATOM      2  C1  UNL d   1       1.347   2.406  -2.588  0.00  0.00     0.010 A 
ATOM      3  C2  UNL d   1       2.007   2.307  -1.361  0.00  0.00     0.041 A 
ATOM      4  C3  UNL d   1       2.303   1.028  -0.849  0.00  0.00    -0.075 A 
ATOM      5  S   UNL d   1       3.106   0.663   0.633  0.00  0.00     0.015 SA
ATOM      6  C4  UNL d   1       2.990  -1.017   0.367  0.00  0.00     0.022 A 
ATOM      7  C5  UNL d   1       2.358  -1.309  -0.818  0.00  0.00     0.026 A 
ATOM      8  C6  UNL d   1       1.952  -0.136  -1.539  0.00  0.00    -0.082 A 
ATOM      9  C7  UNL d   1       1.283  -0.001  -2.779  0.00  0.00     0.045 A 
ENDROOT
TORSDOF 0
ENDMDL
