MODEL 1
REMARK minimizedAffinity 6.75623417
REMARK minimizedRMSD -1
REMARK  0 active torsions:
REMARK  status: ('A' for Active; 'I' for Inactive)
ROOT
ATOM      1  C   UNL d   1       2.269  -3.838  -3.867  0.00  0.00    -0.002 A 
ATOM      2  C1  UNL d   1       3.141  -4.877  -4.156  0.00  0.00     0.010 A 
ATOM      3  C2  UNL d   1       4.026  -5.353  -3.186  0.00  0.00     0.041 A 
ATOM      4  C3  UNL d   1       4.018  -4.762  -1.908  0.00  0.00    -0.075 A 
ATOM      5  S   UNL d   1       5.011  -5.181  -0.562  0.00  0.00     0.015 SA
ATOM      6  C4  UNL d   1       4.300  -3.990   0.429  0.00  0.00     0.022 A 
ATOM      7  C5  UNL d   1       3.327  -3.281  -0.235  0.00  0.00     0.026 A 
ATOM      8  C6  UNL d   1       3.148  -3.714  -1.592  0.00  0.00    -0.082 A 
ATOM      9  C7  UNL d   1       2.264  -3.254  -2.597  0.00  0.00     0.045 A 
ENDROOT
TORSDOF 0
ENDMDL
