MODEL 1
REMARK minimizedAffinity 4.24747229
REMARK minimizedRMSD -1
REMARK  0 active torsions:
REMARK  status: ('A' for Active; 'I' for Inactive)
ROOT
ATOM      1  C   UNL d   1       1.575   0.021  -4.130  0.00  0.00    -0.002 A 
ATOM      2  C1  UNL d   1       1.776   1.284  -3.592  0.00  0.00     0.010 A 
ATOM      3  C2  UNL d   1       2.364   1.434  -2.334  0.00  0.00     0.041 A 
ATOM      4  C3  UNL d   1       2.752   0.283  -1.621  0.00  0.00    -0.075 A 
ATOM      5  S   UNL d   1       3.492   0.224  -0.065  0.00  0.00     0.015 SA
ATOM      6  C4  UNL d   1       3.560  -1.479  -0.080  0.00  0.00     0.022 A 
ATOM      7  C5  UNL d   1       3.035  -2.007  -1.236  0.00  0.00     0.026 A 
ATOM      8  C6  UNL d   1       2.561  -1.000  -2.144  0.00  0.00    -0.082 A 
ATOM      9  C7  UNL d   1       1.962  -1.119  -3.420  0.00  0.00     0.045 A 
ENDROOT
TORSDOF 0
ENDMDL
