MODEL 1
REMARK minimizedAffinity 16.3674393
REMARK minimizedRMSD -1
REMARK  0 active torsions:
REMARK  status: ('A' for Active; 'I' for Inactive)
ROOT
ATOM      1  C   UNL d   1       2.856   3.356   3.873  0.00  0.00    -0.002 A 
ATOM      2  C1  UNL d   1       2.981   3.327   5.254  0.00  0.00     0.010 A 
ATOM      3  C2  UNL d   1       2.484   2.249   5.990  0.00  0.00     0.041 A 
ATOM      4  C3  UNL d   1       1.856   1.189   5.307  0.00  0.00    -0.075 A 
ATOM      5  S   UNL d   1       1.174  -0.235   6.000  0.00  0.00     0.015 SA
ATOM      6  C4  UNL d   1       0.702  -0.839   4.478  0.00  0.00     0.022 A 
ATOM      7  C5  UNL d   1       1.049   0.012   3.455  0.00  0.00     0.026 A 
ATOM      8  C6  UNL d   1       1.720   1.195   3.916  0.00  0.00    -0.082 A 
ATOM      9  C7  UNL d   1       2.233   2.302   3.199  0.00  0.00     0.045 A 
ENDROOT
TORSDOF 0
ENDMDL
