MODEL 1
REMARK minimizedAffinity 23.3232803
REMARK minimizedRMSD -1
REMARK  0 active torsions:
REMARK  status: ('A' for Active; 'I' for Inactive)
ROOT
ATOM      1  C   UNL d   1       1.559  -1.071  -1.142  0.00  0.00    -0.002 A 
ATOM      2  C1  UNL d   1       1.811  -2.123  -0.273  0.00  0.00     0.010 A 
ATOM      3  C2  UNL d   1       1.059  -3.298  -0.343  0.00  0.00     0.041 A 
ATOM      4  C3  UNL d   1       0.040  -3.398  -1.311  0.00  0.00    -0.075 A 
ATOM      5  S   UNL d   1      -1.008  -4.740  -1.581  0.00  0.00     0.015 SA
ATOM      6  C4  UNL d   1      -1.814  -3.949  -2.857  0.00  0.00     0.022 A 
ATOM      7  C5  UNL d   1      -1.309  -2.691  -3.085  0.00  0.00     0.026 A 
ATOM      8  C6  UNL d   1      -0.232  -2.353  -2.198  0.00  0.00    -0.082 A 
ATOM      9  C7  UNL d   1       0.548  -1.175  -2.101  0.00  0.00     0.045 A 
ENDROOT
TORSDOF 0
ENDMDL
