MODEL 1
REMARK minimizedAffinity 24.1923561
REMARK minimizedRMSD -1
REMARK  0 active torsions:
REMARK  status: ('A' for Active; 'I' for Inactive)
ROOT
ATOM      1  C   UNL d   1       2.579   3.214   3.189  0.00  0.00    -0.002 A 
ATOM      2  C1  UNL d   1       2.143   1.921   3.442  0.00  0.00     0.010 A 
ATOM      3  C2  UNL d   1       2.402   0.894   2.532  0.00  0.00     0.041 A 
ATOM      4  C3  UNL d   1       3.116   1.190   1.354  0.00  0.00    -0.075 A 
ATOM      5  S   UNL d   1       3.550   0.092   0.098  0.00  0.00     0.015 SA
ATOM      6  C4  UNL d   1       4.325   1.314  -0.803  0.00  0.00     0.022 A 
ATOM      7  C5  UNL d   1       4.264   2.535  -0.175  0.00  0.00     0.026 A 
ATOM      8  C6  UNL d   1       3.566   2.484   1.079  0.00  0.00    -0.082 A 
ATOM      9  C7  UNL d   1       3.287   3.504   2.020  0.00  0.00     0.045 A 
ENDROOT
TORSDOF 0
ENDMDL
