MODEL 1
REMARK minimizedAffinity 10.6777058
REMARK minimizedRMSD -1
REMARK  0 active torsions:
REMARK  status: ('A' for Active; 'I' for Inactive)
ROOT
ATOM      1  C   UNL d   1      -0.998  -4.357  -2.359  0.00  0.00    -0.002 A 
ATOM      2  C1  UNL d   1      -1.431  -3.039  -2.328  0.00  0.00     0.010 A 
ATOM      3  C2  UNL d   1      -0.645  -2.047  -1.739  0.00  0.00     0.041 A 
ATOM      4  C3  UNL d   1       0.597  -2.405  -1.178  0.00  0.00    -0.075 A 
ATOM      5  S   UNL d   1       1.729  -1.359  -0.405  0.00  0.00     0.015 SA
ATOM      6  C4  UNL d   1       2.814  -2.636  -0.099  0.00  0.00     0.022 A 
ATOM      7  C5  UNL d   1       2.341  -3.839  -0.568  0.00  0.00     0.026 A 
ATOM      8  C6  UNL d   1       1.055  -3.725  -1.199  0.00  0.00    -0.082 A 
ATOM      9  C7  UNL d   1       0.235  -4.708  -1.802  0.00  0.00     0.045 A 
ENDROOT
TORSDOF 0
ENDMDL
