MODEL 1
REMARK minimizedAffinity 15.7913017
REMARK minimizedRMSD -1
REMARK  0 active torsions:
REMARK  status: ('A' for Active; 'I' for Inactive)
ROOT
ATOM      1  C   UNL d   1      -5.997  -4.015   3.064  0.00  0.00    -0.002 A 
ATOM      2  C1  UNL d   1      -5.998  -3.489   4.348  0.00  0.00     0.010 A 
ATOM      3  C2  UNL d   1      -5.997  -2.108   4.550  0.00  0.00     0.041 A 
ATOM      4  C3  UNL d   1      -5.996  -1.255   3.428  0.00  0.00    -0.075 A 
ATOM      5  S   UNL d   1      -5.996   0.469   3.434  0.00  0.00     0.015 SA
ATOM      6  C4  UNL d   1      -5.996   0.548   1.731  0.00  0.00     0.022 A 
ATOM      7  C5  UNL d   1      -5.995  -0.701   1.157  0.00  0.00     0.026 A 
ATOM      8  C6  UNL d   1      -5.996  -1.761   2.125  0.00  0.00    -0.082 A 
ATOM      9  C7  UNL d   1      -5.997  -3.166   1.954  0.00  0.00     0.045 A 
ENDROOT
TORSDOF 0
ENDMDL
