MODEL 1
REMARK minimizedAffinity 17.0642872
REMARK minimizedRMSD -1
REMARK  0 active torsions:
REMARK  status: ('A' for Active; 'I' for Inactive)
ROOT
ATOM      1  C   UNL d   1      -2.481  -2.418  -3.016  0.00  0.00    -0.002 A 
ATOM      2  C1  UNL d   1      -2.413  -3.741  -2.604  0.00  0.00     0.010 A 
ATOM      3  C2  UNL d   1      -1.329  -4.195  -1.849  0.00  0.00     0.041 A 
ATOM      4  C3  UNL d   1      -0.306  -3.287  -1.511  0.00  0.00    -0.075 A 
ATOM      5  S   UNL d   1       1.116  -3.617  -0.594  0.00  0.00     0.015 SA
ATOM      6  C4  UNL d   1       1.665  -2.009  -0.728  0.00  0.00     0.022 A 
ATOM      7  C5  UNL d   1       0.798  -1.226  -1.451  0.00  0.00     0.026 A 
ATOM      8  C6  UNL d   1      -0.353  -1.949  -1.914  0.00  0.00    -0.082 A 
ATOM      9  C7  UNL d   1      -1.465  -1.520  -2.679  0.00  0.00     0.045 A 
ENDROOT
TORSDOF 0
ENDMDL
