MODEL 1
REMARK minimizedAffinity 21.1318836
REMARK minimizedRMSD -1
REMARK  0 active torsions:
REMARK  status: ('A' for Active; 'I' for Inactive)
ROOT
ATOM      1  C   UNL d   1       0.902   1.737  -3.619  0.00  0.00    -0.002 A 
ATOM      2  C1  UNL d   1       0.863   2.991  -3.026  0.00  0.00     0.010 A 
ATOM      3  C2  UNL d   1       1.478   3.212  -1.791  0.00  0.00     0.041 A 
ATOM      4  C3  UNL d   1       2.139   2.142  -1.158  0.00  0.00    -0.075 A 
ATOM      5  S   UNL d   1       2.963   2.179   0.357  0.00  0.00     0.015 SA
ATOM      6  C4  UNL d   1       3.386   0.531   0.252  0.00  0.00     0.022 A 
ATOM      7  C5  UNL d   1       2.918  -0.049  -0.904  0.00  0.00     0.026 A 
ATOM      8  C6  UNL d   1       2.193   0.870  -1.736  0.00  0.00    -0.082 A 
ATOM      9  C7  UNL d   1       1.559   0.678  -2.987  0.00  0.00     0.045 A 
ENDROOT
TORSDOF 0
ENDMDL
