MODEL 1
REMARK minimizedAffinity 5.19291306
REMARK minimizedRMSD -1
REMARK  0 active torsions:
REMARK  status: ('A' for Active; 'I' for Inactive)
ROOT
ATOM      1  C   UNL d   1      -0.244  -3.483  -2.270  0.00  0.00    -0.002 A 
ATOM      2  C1  UNL d   1       0.358  -3.871  -1.082  0.00  0.00     0.010 A 
ATOM      3  C2  UNL d   1       1.311  -3.055  -0.469  0.00  0.00     0.041 A 
ATOM      4  C3  UNL d   1       1.651  -1.830  -1.076  0.00  0.00    -0.075 A 
ATOM      5  S   UNL d   1       2.791  -0.669  -0.507  0.00  0.00     0.015 SA
ATOM      6  C4  UNL d   1       2.505   0.370  -1.827  0.00  0.00     0.022 A 
ATOM      7  C5  UNL d   1       1.565  -0.141  -2.691  0.00  0.00     0.026 A 
ATOM      8  C6  UNL d   1       1.058  -1.417  -2.273  0.00  0.00    -0.082 A 
ATOM      9  C7  UNL d   1       0.095  -2.267  -2.869  0.00  0.00     0.045 A 
ENDROOT
TORSDOF 0
ENDMDL
