MODEL 1
REMARK minimizedAffinity 0.908595979
REMARK minimizedRMSD -1
REMARK  0 active torsions:
REMARK  status: ('A' for Active; 'I' for Inactive)
ROOT
ATOM      1  C   UNL d   1       1.431  -3.160   0.231  0.00  0.00     0.077 C 
ATOM      2  C1  UNL d   1       2.220  -2.040  -0.380  0.00  0.00    -0.074 A 
ATOM      3  C2  UNL d   1       3.423  -1.613   0.190  0.00  0.00    -0.005 A 
ATOM      4  C3  UNL d   1       4.150  -0.577  -0.395  0.00  0.00     0.006 A 
ATOM      5  C4  UNL d   1       3.682   0.043  -1.555  0.00  0.00    -0.005 A 
ATOM      6  C5  UNL d   1       2.481  -0.371  -2.140  0.00  0.00    -0.074 A 
ATOM      7  C6  UNL d   1       1.968   0.277  -3.392  0.00  0.00     0.077 C 
ATOM      8  C7  UNL d   1       1.760  -1.418  -1.550  0.00  0.00    -0.001 A 
ENDROOT
TORSDOF 0
ENDMDL
