MODEL 1
REMARK minimizedAffinity 9.31714725
REMARK minimizedRMSD -1
REMARK  0 active torsions:
REMARK  status: ('A' for Active; 'I' for Inactive)
ROOT
ATOM      1  C   UNL d   1       3.694   4.651   2.140  0.00  0.00     0.077 C 
ATOM      2  C1  UNL d   1       3.382   3.232   1.768  0.00  0.00    -0.074 A 
ATOM      3  C2  UNL d   1       4.117   2.570   0.779  0.00  0.00    -0.005 A 
ATOM      4  C3  UNL d   1       3.822   1.247   0.451  0.00  0.00     0.006 A 
ATOM      5  C4  UNL d   1       2.791   0.573   1.108  0.00  0.00    -0.005 A 
ATOM      6  C5  UNL d   1       2.046   1.218   2.100  0.00  0.00    -0.074 A 
ATOM      7  C6  UNL d   1       0.941   0.506   2.822  0.00  0.00     0.077 C 
ATOM      8  C7  UNL d   1       2.353   2.546   2.429  0.00  0.00    -0.001 A 
ENDROOT
TORSDOF 0
ENDMDL
