MODEL 1
REMARK minimizedAffinity 4.83355474
REMARK minimizedRMSD -1
REMARK  0 active torsions:
REMARK  status: ('A' for Active; 'I' for Inactive)
ROOT
ATOM      1  C   UNL d   1       5.509  -6.000  -0.426  0.00  0.00     0.077 C 
ATOM      2  C1  UNL d   1       4.498  -4.949  -0.776  0.00  0.00    -0.074 A 
ATOM      3  C2  UNL d   1       4.104  -3.990   0.163  0.00  0.00    -0.005 A 
ATOM      4  C3  UNL d   1       3.170  -3.012  -0.180  0.00  0.00     0.006 A 
ATOM      5  C4  UNL d   1       2.622  -2.983  -1.463  0.00  0.00    -0.005 A 
ATOM      6  C5  UNL d   1       3.005  -3.933  -2.415  0.00  0.00    -0.074 A 
ATOM      7  C6  UNL d   1       2.433  -3.911  -3.802  0.00  0.00     0.077 C 
ATOM      8  C7  UNL d   1       3.949  -4.908  -2.065  0.00  0.00    -0.001 A 
ENDROOT
TORSDOF 0
ENDMDL
