MODEL 1
REMARK minimizedAffinity 14.8628683
REMARK minimizedRMSD -1
REMARK  0 active torsions:
REMARK  status: ('A' for Active; 'I' for Inactive)
ROOT
ATOM      1  C   UNL d   1       1.281   2.243  -2.948  0.00  0.00     0.077 C 
ATOM      2  C1  UNL d   1       1.676   1.292  -1.858  0.00  0.00    -0.074 A 
ATOM      3  C2  UNL d   1       1.665  -0.091  -2.071  0.00  0.00    -0.005 A 
ATOM      4  C3  UNL d   1       2.045  -0.962  -1.050  0.00  0.00     0.006 A 
ATOM      5  C4  UNL d   1       2.438  -0.462   0.192  0.00  0.00    -0.005 A 
ATOM      6  C5  UNL d   1       2.456   0.917   0.423  0.00  0.00    -0.074 A 
ATOM      7  C6  UNL d   1       2.886   1.472   1.748  0.00  0.00     0.077 C 
ATOM      8  C7  UNL d   1       2.080   1.787  -0.610  0.00  0.00    -0.001 A 
ENDROOT
TORSDOF 0
ENDMDL
