MODEL 1
REMARK minimizedAffinity 10.8013029
REMARK minimizedRMSD -1
REMARK  0 active torsions:
REMARK  status: ('A' for Active; 'I' for Inactive)
ROOT
ATOM      1  C   UNL d   1      -6.000  -4.264   5.974  0.00  0.00     0.077 C 
ATOM      2  C1  UNL d   1      -5.992  -3.973   4.503  0.00  0.00    -0.074 A 
ATOM      3  C2  UNL d   1      -5.997  -5.010   3.564  0.00  0.00    -0.005 A 
ATOM      4  C3  UNL d   1      -5.999  -4.723   2.199  0.00  0.00     0.006 A 
ATOM      5  C4  UNL d   1      -5.996  -3.399   1.759  0.00  0.00    -0.005 A 
ATOM      6  C5  UNL d   1      -5.991  -2.349   2.683  0.00  0.00    -0.074 A 
ATOM      7  C6  UNL d   1      -5.998  -0.920   2.227  0.00  0.00     0.077 C 
ATOM      8  C7  UNL d   1      -5.997  -2.645   4.053  0.00  0.00    -0.001 A 
ENDROOT
TORSDOF 0
ENDMDL
