MODEL 1
REMARK minimizedAffinity 2.48797202
REMARK minimizedRMSD -1
REMARK  0 active torsions:
REMARK  status: ('A' for Active; 'I' for Inactive)
ROOT
ATOM      1  C   UNL d   1       2.110  -4.133  -3.582  0.00  0.00     0.077 C 
ATOM      2  C1  UNL d   1       3.019  -4.407  -2.420  0.00  0.00    -0.074 A 
ATOM      3  C2  UNL d   1       3.616  -5.660  -2.254  0.00  0.00    -0.005 A 
ATOM      4  C3  UNL d   1       4.467  -5.897  -1.175  0.00  0.00     0.006 A 
ATOM      5  C4  UNL d   1       4.729  -4.884  -0.251  0.00  0.00    -0.005 A 
ATOM      6  C5  UNL d   1       4.141  -3.624  -0.402  0.00  0.00    -0.074 A 
ATOM      7  C6  UNL d   1       4.420  -2.521   0.576  0.00  0.00     0.077 C 
ATOM      8  C7  UNL d   1       3.293  -3.392  -1.493  0.00  0.00    -0.001 A 
ENDROOT
TORSDOF 0
ENDMDL
