MODEL 1
REMARK minimizedAffinity 11.7412281
REMARK minimizedRMSD -1
REMARK  0 active torsions:
REMARK  status: ('A' for Active; 'I' for Inactive)
ROOT
ATOM      1  C   UNL d   1       3.100   3.367   5.607  0.00  0.00     0.077 C 
ATOM      2  C1  UNL d   1       2.455   2.348   4.715  0.00  0.00    -0.074 A 
ATOM      3  C2  UNL d   1       2.420   2.527   3.329  0.00  0.00    -0.005 A 
ATOM      4  C3  UNL d   1       1.824   1.566   2.511  0.00  0.00     0.006 A 
ATOM      5  C4  UNL d   1       1.259   0.419   3.071  0.00  0.00    -0.005 A 
ATOM      6  C5  UNL d   1       1.286   0.224   4.455  0.00  0.00    -0.074 A 
ATOM      7  C6  UNL d   1       0.692  -1.008   5.072  0.00  0.00     0.077 C 
ATOM      8  C7  UNL d   1       1.892   1.190   5.269  0.00  0.00    -0.001 A 
ENDROOT
TORSDOF 0
ENDMDL
