MODEL 1
REMARK minimizedAffinity 10.1401329
REMARK minimizedRMSD -1
REMARK  0 active torsions:
REMARK  status: ('A' for Active; 'I' for Inactive)
ROOT
ATOM      1  C   UNL d   1      -1.830  -6.000  -5.612  0.00  0.00     0.077 C 
ATOM      2  C1  UNL d   1      -1.456  -5.392  -4.293  0.00  0.00    -0.074 A 
ATOM      3  C2  UNL d   1      -0.507  -6.000  -3.465  0.00  0.00    -0.005 A 
ATOM      4  C3  UNL d   1      -0.161  -5.418  -2.245  0.00  0.00     0.006 A 
ATOM      5  C4  UNL d   1      -0.760  -4.223  -1.843  0.00  0.00    -0.005 A 
ATOM      6  C5  UNL d   1      -1.710  -3.600  -2.658  0.00  0.00    -0.074 A 
ATOM      7  C6  UNL d   1      -2.356  -2.311  -2.245  0.00  0.00     0.077 C 
ATOM      8  C7  UNL d   1      -2.047  -4.188  -3.885  0.00  0.00    -0.001 A 
ENDROOT
TORSDOF 0
ENDMDL
