MODEL 1
REMARK minimizedAffinity 19.5516624
REMARK minimizedRMSD -1
REMARK  0 active torsions:
REMARK  status: ('A' for Active; 'I' for Inactive)
ROOT
ATOM      1  C   UNL d   1      -1.981  -5.416  -1.500  0.00  0.00     0.077 C 
ATOM      2  C1  UNL d   1      -1.223  -4.154  -1.786  0.00  0.00    -0.074 A 
ATOM      3  C2  UNL d   1      -1.615  -3.298  -2.820  0.00  0.00    -0.005 A 
ATOM      4  C3  UNL d   1      -0.906  -2.123  -3.068  0.00  0.00     0.006 A 
ATOM      5  C4  UNL d   1       0.201  -1.792  -2.285  0.00  0.00    -0.005 A 
ATOM      6  C5  UNL d   1       0.607  -2.635  -1.246  0.00  0.00    -0.074 A 
ATOM      7  C6  UNL d   1       1.789  -2.289  -0.389  0.00  0.00     0.077 C 
ATOM      8  C7  UNL d   1      -0.115  -3.810  -0.999  0.00  0.00    -0.001 A 
ENDROOT
TORSDOF 0
ENDMDL
