MODEL 1
REMARK minimizedAffinity 10.5815544
REMARK minimizedRMSD -1
REMARK  0 active torsions:
REMARK  status: ('A' for Active; 'I' for Inactive)
ROOT
ATOM      1  C   UNL d   1       1.491  -1.092  -1.501  0.00  0.00     0.077 C 
ATOM      2  C1  UNL d   1       0.263  -1.884  -1.836  0.00  0.00    -0.074 A 
ATOM      3  C2  UNL d   1      -0.978  -1.256  -1.991  0.00  0.00    -0.005 A 
ATOM      4  C3  UNL d   1      -2.110  -2.005  -2.312  0.00  0.00     0.006 A 
ATOM      5  C4  UNL d   1      -2.014  -3.387  -2.481  0.00  0.00    -0.005 A 
ATOM      6  C5  UNL d   1      -0.782  -4.032  -2.332  0.00  0.00    -0.074 A 
ATOM      7  C6  UNL d   1      -0.659  -5.515  -2.520  0.00  0.00     0.077 C 
ATOM      8  C7  UNL d   1       0.353  -3.271  -2.016  0.00  0.00    -0.001 A 
ENDROOT
TORSDOF 0
ENDMDL
