MODEL 1
REMARK minimizedAffinity 7.39349031
REMARK minimizedRMSD -1
REMARK  0 active torsions:
REMARK  status: ('A' for Active; 'I' for Inactive)
ROOT
ATOM      1  C   UNL d   1      -1.889  -5.281  -1.204  0.00  0.00     0.077 C 
ATOM      2  C1  UNL d   1      -0.885  -4.179  -1.373  0.00  0.00    -0.074 A 
ATOM      3  C2  UNL d   1      -1.218  -3.001  -2.050  0.00  0.00    -0.005 A 
ATOM      4  C3  UNL d   1      -0.277  -1.981  -2.191  0.00  0.00     0.006 A 
ATOM      5  C4  UNL d   1       1.003  -2.127  -1.656  0.00  0.00    -0.005 A 
ATOM      6  C5  UNL d   1       1.353  -3.297  -0.974  0.00  0.00    -0.074 A 
ATOM      7  C6  UNL d   1       2.722  -3.466  -0.385  0.00  0.00     0.077 C 
ATOM      8  C7  UNL d   1       0.401  -4.315  -0.831  0.00  0.00    -0.001 A 
ENDROOT
TORSDOF 0
ENDMDL
