MODEL 1
REMARK minimizedAffinity 17.4272385
REMARK minimizedRMSD -1
REMARK  0 active torsions:
REMARK  status: ('A' for Active; 'I' for Inactive)
ROOT
ATOM      1  C   UNL d   1       1.765   2.084   2.425  0.00  0.00     0.077 C 
ATOM      2  C1  UNL d   1       2.527   2.411   3.675  0.00  0.00    -0.074 A 
ATOM      3  C2  UNL d   1       3.341   1.456   4.291  0.00  0.00    -0.005 A 
ATOM      4  C3  UNL d   1       4.050   1.777   5.449  0.00  0.00     0.006 A 
ATOM      5  C4  UNL d   1       3.953   3.055   6.000  0.00  0.00    -0.005 A 
ATOM      6  C5  UNL d   1       3.144   4.024   5.397  0.00  0.00    -0.074 A 
ATOM      7  C6  UNL d   1       3.036   5.406   5.971  0.00  0.00     0.077 C 
ATOM      8  C7  UNL d   1       2.440   3.695   4.230  0.00  0.00    -0.001 A 
ENDROOT
TORSDOF 0
ENDMDL
