MODEL 1
REMARK minimizedAffinity 8.06149387
REMARK minimizedRMSD -1
REMARK  0 active torsions:
REMARK  status: ('A' for Active; 'I' for Inactive)
ROOT
ATOM      1  C   UNL d   1       1.758  -1.964  -1.051  0.00  0.00     0.077 C 
ATOM      2  C1  UNL d   1       0.571  -2.674  -1.629  0.00  0.00    -0.074 A 
ATOM      3  C2  UNL d   1       0.407  -4.053  -1.462  0.00  0.00    -0.005 A 
ATOM      4  C3  UNL d   1      -0.707  -4.699  -1.997  0.00  0.00     0.006 A 
ATOM      5  C4  UNL d   1      -1.668  -3.974  -2.703  0.00  0.00    -0.005 A 
ATOM      6  C5  UNL d   1      -1.522  -2.594  -2.878  0.00  0.00    -0.074 A 
ATOM      7  C6  UNL d   1      -2.551  -1.798  -3.625  0.00  0.00     0.077 C 
ATOM      8  C7  UNL d   1      -0.403  -1.951  -2.332  0.00  0.00    -0.001 A 
ENDROOT
TORSDOF 0
ENDMDL
