MODEL 1
REMARK minimizedAffinity 11.1997805
REMARK minimizedRMSD -1
REMARK  0 active torsions:
REMARK  status: ('A' for Active; 'I' for Inactive)
ROOT
ATOM      1  C   UNL d   1       1.065  -1.381  -1.452  0.00  0.00     0.077 C 
ATOM      2  C1  UNL d   1      -0.137  -2.150  -1.916  0.00  0.00    -0.074 A 
ATOM      3  C2  UNL d   1      -1.287  -1.489  -2.357  0.00  0.00    -0.005 A 
ATOM      4  C3  UNL d   1      -2.393  -2.217  -2.794  0.00  0.00     0.006 A 
ATOM      5  C4  UNL d   1      -2.360  -3.612  -2.796  0.00  0.00    -0.005 A 
ATOM      6  C5  UNL d   1      -1.218  -4.291  -2.360  0.00  0.00    -0.074 A 
ATOM      7  C6  UNL d   1      -1.162  -5.790  -2.364  0.00  0.00     0.077 C 
ATOM      8  C7  UNL d   1      -0.108  -3.552  -1.928  0.00  0.00    -0.001 A 
ENDROOT
TORSDOF 0
ENDMDL
