MODEL 1
REMARK minimizedAffinity 6.9666276
REMARK minimizedRMSD -1
REMARK  0 active torsions:
REMARK  status: ('A' for Active; 'I' for Inactive)
ROOT
ATOM      1  C   UNL d   1       1.797   4.401  -1.882  0.00  0.00     0.077 C 
ATOM      2  C1  UNL d   1       1.703   2.934  -2.178  0.00  0.00    -0.074 A 
ATOM      3  C2  UNL d   1       0.974   2.467  -3.276  0.00  0.00    -0.005 A 
ATOM      4  C3  UNL d   1       0.904   1.100  -3.544  0.00  0.00     0.006 A 
ATOM      5  C4  UNL d   1       1.561   0.187  -2.718  0.00  0.00    -0.005 A 
ATOM      6  C5  UNL d   1       2.296   0.636  -1.616  0.00  0.00    -0.074 A 
ATOM      7  C6  UNL d   1       3.017  -0.331  -0.723  0.00  0.00     0.077 C 
ATOM      8  C7  UNL d   1       2.367   2.011  -1.357  0.00  0.00    -0.001 A 
ENDROOT
TORSDOF 0
ENDMDL
