MODEL 1
REMARK minimizedAffinity 2.08426523
REMARK minimizedRMSD -1
REMARK  0 active torsions:
REMARK  status: ('A' for Active; 'I' for Inactive)
ROOT
ATOM      1  C   UNL d   1      -0.398  -3.377  -2.227  0.00  0.00     0.077 C 
ATOM      2  C1  UNL d   1       0.675  -2.408  -1.826  0.00  0.00    -0.074 A 
ATOM      3  C2  UNL d   1       1.641  -2.758  -0.877  0.00  0.00    -0.005 A 
ATOM      4  C3  UNL d   1       2.639  -1.850  -0.521  0.00  0.00     0.006 A 
ATOM      5  C4  UNL d   1       2.681  -0.586  -1.110  0.00  0.00    -0.005 A 
ATOM      6  C5  UNL d   1       1.724  -0.219  -2.062  0.00  0.00    -0.074 A 
ATOM      7  C6  UNL d   1       1.761   1.132  -2.712  0.00  0.00     0.077 C 
ATOM      8  C7  UNL d   1       0.729  -1.139  -2.419  0.00  0.00    -0.001 A 
ENDROOT
TORSDOF 0
ENDMDL
