MODEL 1
REMARK minimizedAffinity 14.7263126
REMARK minimizedRMSD -1
REMARK  0 active torsions:
REMARK  status: ('A' for Active; 'I' for Inactive)
ROOT
ATOM      1  C   UNL d   1       3.981   1.755  -0.018  0.00  0.00     0.077 C 
ATOM      2  C1  UNL d   1       2.981   1.031  -0.870  0.00  0.00    -0.074 A 
ATOM      3  C2  UNL d   1       2.462   1.621  -2.027  0.00  0.00    -0.005 A 
ATOM      4  C3  UNL d   1       1.540   0.932  -2.815  0.00  0.00     0.006 A 
ATOM      5  C4  UNL d   1       1.128  -0.351  -2.454  0.00  0.00    -0.005 A 
ATOM      6  C5  UNL d   1       1.636  -0.957  -1.300  0.00  0.00    -0.074 A 
ATOM      7  C6  UNL d   1       1.211  -2.340  -0.903  0.00  0.00     0.077 C 
ATOM      8  C7  UNL d   1       2.568  -0.261  -0.518  0.00  0.00    -0.001 A 
ENDROOT
TORSDOF 0
ENDMDL
