MODEL 1
REMARK minimizedAffinity -4.21459627
REMARK minimizedRMSD -1
REMARK  0 active torsions:
REMARK  status: ('A' for Active; 'I' for Inactive)
ROOT
ATOM      1  C   UNL d   1       0.067  -2.906  -0.574  0.00  0.00     0.077 C 
ATOM      2  C1  UNL d   1       0.763  -1.592  -0.767  0.00  0.00    -0.074 A 
ATOM      3  C2  UNL d   1       1.761  -1.442  -1.735  0.00  0.00    -0.005 A 
ATOM      4  C3  UNL d   1       2.393  -0.211  -1.910  0.00  0.00     0.006 A 
ATOM      5  C4  UNL d   1       2.034   0.881  -1.118  0.00  0.00    -0.005 A 
ATOM      6  C5  UNL d   1       1.038   0.750  -0.145  0.00  0.00    -0.074 A 
ATOM      7  C6  UNL d   1       0.634   1.917   0.707  0.00  0.00     0.077 C 
ATOM      8  C7  UNL d   1       0.403  -0.488   0.019  0.00  0.00    -0.001 A 
ENDROOT
TORSDOF 0
ENDMDL
