MODEL 1
REMARK minimizedAffinity 13.0357399
REMARK minimizedRMSD -1
REMARK  0 active torsions:
REMARK  status: ('A' for Active; 'I' for Inactive)
ROOT
ATOM      1  C1  DEN d   1      -0.425   0.874   1.666  0.00  0.00     0.130 A 
ATOM      2  C2  DEN d   1      -0.409  -0.000   2.836  0.00  0.00    -0.031 A 
ATOM      3  C3  DEN d   1       0.808  -0.833   2.768  0.00  0.00     0.027 A 
ATOM      4  C4  DEN d   1       2.663  -0.851   0.975  0.00  0.00     0.027 A 
ATOM      5  C5  DEN d   1       3.081  -0.294  -0.213  0.00  0.00    -0.003 A 
ATOM      6  C6  DEN d   1       2.349   0.659  -0.870  0.00  0.00     0.001 A 
ATOM      7  C7  DEN d   1       1.181   1.117  -0.320  0.00  0.00     0.017 A 
ATOM      8  C8  DEN d   1       0.749   0.555   0.874  0.00  0.00    -0.094 A 
ATOM      9  C9  DEN d   1       1.510  -0.399   1.530  0.00  0.00    -0.072 A 
ENDROOT
TORSDOF 0
ENDMDL
