MODEL 1
REMARK minimizedAffinity 17.4922504
REMARK minimizedRMSD -1
REMARK  0 active torsions:
REMARK  status: ('A' for Active; 'I' for Inactive)
ROOT
ATOM      1  C1  DEN d   1      -1.240   0.106   1.896  0.00  0.00     0.130 A 
ATOM      2  C2  DEN d   1      -1.293   1.565   1.946  0.00  0.00    -0.031 A 
ATOM      3  C3  DEN d   1      -0.092   2.040   2.663  0.00  0.00     0.027 A 
ATOM      4  C4  DEN d   1       1.835   0.667   3.690  0.00  0.00     0.027 A 
ATOM      5  C5  DEN d   1       2.314  -0.605   3.908  0.00  0.00    -0.003 A 
ATOM      6  C6  DEN d   1       1.632  -1.722   3.504  0.00  0.00     0.001 A 
ATOM      7  C7  DEN d   1       0.453  -1.586   2.820  0.00  0.00     0.017 A 
ATOM      8  C8  DEN d   1      -0.041  -0.307   2.603  0.00  0.00    -0.094 A 
ATOM      9  C9  DEN d   1       0.670   0.810   3.008  0.00  0.00    -0.072 A 
ENDROOT
TORSDOF 0
ENDMDL
