MODEL 1
REMARK minimizedAffinity 15.3557968
REMARK minimizedRMSD -1
REMARK  0 active torsions:
REMARK  status: ('A' for Active; 'I' for Inactive)
ROOT
ATOM      1  C1  DEN d   1      -0.156   1.491   4.457  0.00  0.00     0.130 A 
ATOM      2  C2  DEN d   1      -0.376   2.521   3.446  0.00  0.00    -0.031 A 
ATOM      3  C3  DEN d   1      -0.075   1.934   2.124  0.00  0.00     0.027 A 
ATOM      4  C4  DEN d   1       0.701  -0.458   1.550  0.00  0.00     0.027 A 
ATOM      5  C5  DEN d   1       1.037  -1.685   2.076  0.00  0.00    -0.003 A 
ATOM      6  C6  DEN d   1       1.032  -1.928   3.424  0.00  0.00     0.001 A 
ATOM      7  C7  DEN d   1       0.640  -0.942   4.290  0.00  0.00     0.017 A 
ATOM      8  C8  DEN d   1       0.307   0.301   3.767  0.00  0.00    -0.094 A 
ATOM      9  C9  DEN d   1       0.306   0.523   2.401  0.00  0.00    -0.072 A 
ENDROOT
TORSDOF 0
ENDMDL
