MODEL 1
REMARK minimizedAffinity 9.81624222
REMARK minimizedRMSD -1
REMARK  0 active torsions:
REMARK  status: ('A' for Active; 'I' for Inactive)
ROOT
ATOM      1  C1  DEN d   1       1.252  -0.839   1.312  0.00  0.00     0.130 A 
ATOM      2  C2  DEN d   1       2.579  -0.230   1.275  0.00  0.00    -0.031 A 
ATOM      3  C3  DEN d   1       2.547   0.987   2.111  0.00  0.00     0.027 A 
ATOM      4  C4  DEN d   1       0.582   1.979   3.456  0.00  0.00     0.027 A 
ATOM      5  C5  DEN d   1      -0.746   1.821   3.785  0.00  0.00    -0.003 A 
ATOM      6  C6  DEN d   1      -1.504   0.793   3.291  0.00  0.00     0.001 A 
ATOM      7  C7  DEN d   1      -0.927  -0.143   2.474  0.00  0.00     0.017 A 
ATOM      8  C8  DEN d   1       0.410   0.013   2.132  0.00  0.00    -0.094 A 
ATOM      9  C9  DEN d   1       1.162   1.052   2.652  0.00  0.00    -0.072 A 
ENDROOT
TORSDOF 0
ENDMDL
