MODEL 1
REMARK minimizedAffinity 10.0850229
REMARK minimizedRMSD -1
REMARK  0 active torsions:
REMARK  status: ('A' for Active; 'I' for Inactive)
ROOT
ATOM      1  C1  DEN d   1       2.614  -0.525   2.963  0.00  0.00     0.130 A 
ATOM      2  C2  DEN d   1       1.232  -0.118   3.201  0.00  0.00    -0.031 A 
ATOM      3  C3  DEN d   1       0.641   0.270   1.905  0.00  0.00     0.027 A 
ATOM      4  C4  DEN d   1       1.724   0.276  -0.436  0.00  0.00     0.027 A 
ATOM      5  C5  DEN d   1       2.882   0.023  -1.138  0.00  0.00    -0.003 A 
ATOM      6  C6  DEN d   1       4.032  -0.393  -0.522  0.00  0.00     0.001 A 
ATOM      7  C7  DEN d   1       4.037  -0.614   0.830  0.00  0.00     0.017 A 
ATOM      8  C8  DEN d   1       2.876  -0.355   1.545  0.00  0.00    -0.094 A 
ATOM      9  C9  DEN d   1       1.719   0.055   0.903  0.00  0.00    -0.072 A 
ENDROOT
TORSDOF 0
ENDMDL
