MODEL 1
REMARK minimizedAffinity 11.7290659
REMARK minimizedRMSD -1
REMARK  0 active torsions:
REMARK  status: ('A' for Active; 'I' for Inactive)
ROOT
ATOM      1  C1  DEN d   1       0.003   0.706   3.643  0.00  0.00     0.130 A 
ATOM      2  C2  DEN d   1      -1.254   0.891   2.924  0.00  0.00    -0.031 A 
ATOM      3  C3  DEN d   1      -1.024   0.546   1.506  0.00  0.00     0.027 A 
ATOM      4  C4  DEN d   1       1.145  -0.258   0.364  0.00  0.00     0.027 A 
ATOM      5  C5  DEN d   1       2.475  -0.555   0.563  0.00  0.00    -0.003 A 
ATOM      6  C6  DEN d   1       3.077  -0.422   1.786  0.00  0.00     0.001 A 
ATOM      7  C7  DEN d   1       2.337  -0.022   2.867  0.00  0.00     0.017 A 
ATOM      8  C8  DEN d   1       0.998   0.286   2.673  0.00  0.00    -0.094 A 
ATOM      9  C9  DEN d   1       0.404   0.134   1.431  0.00  0.00    -0.072 A 
ENDROOT
TORSDOF 0
ENDMDL
