MODEL 1
REMARK minimizedAffinity 17.2061462
REMARK minimizedRMSD -1
REMARK  0 active torsions:
REMARK  status: ('A' for Active; 'I' for Inactive)
ROOT
ATOM      1  C1  DEN d   1       3.723   0.300   3.823  0.00  0.00     0.130 A 
ATOM      2  C2  DEN d   1       5.077   0.738   4.151  0.00  0.00    -0.031 A 
ATOM      3  C3  DEN d   1       4.974   1.895   5.063  0.00  0.00     0.027 A 
ATOM      4  C4  DEN d   1       2.861   3.042   5.998  0.00  0.00     0.027 A 
ATOM      5  C5  DEN d   1       1.484   3.032   5.993  0.00  0.00    -0.003 A 
ATOM      6  C6  DEN d   1       0.762   2.141   5.244  0.00  0.00     0.001 A 
ATOM      7  C7  DEN d   1       1.415   1.191   4.503  0.00  0.00     0.017 A 
ATOM      8  C8  DEN d   1       2.804   1.199   4.497  0.00  0.00    -0.094 A 
ATOM      9  C9  DEN d   1       3.515   2.101   5.271  0.00  0.00    -0.072 A 
ENDROOT
TORSDOF 0
ENDMDL
