MODEL 1
REMARK minimizedAffinity 7.4391222
REMARK minimizedRMSD -1
REMARK  0 active torsions:
REMARK  status: ('A' for Active; 'I' for Inactive)
ROOT
ATOM      1  C1  DEN d   1      -5.364   2.268  -1.226  0.00  0.00     0.130 A 
ATOM      2  C2  DEN d   1      -5.473   1.413  -0.048  0.00  0.00    -0.031 A 
ATOM      3  C3  DEN d   1      -5.741   2.277   1.120  0.00  0.00     0.027 A 
ATOM      4  C4  DEN d   1      -6.000   4.841   1.215  0.00  0.00     0.027 A 
ATOM      5  C5  DEN d   1      -5.977   6.000   0.471  0.00  0.00    -0.003 A 
ATOM      6  C6  DEN d   1      -5.717   5.999  -0.874  0.00  0.00     0.001 A 
ATOM      7  C7  DEN d   1      -5.514   4.811  -1.525  0.00  0.00     0.017 A 
ATOM      8  C8  DEN d   1      -5.528   3.640  -0.781  0.00  0.00    -0.094 A 
ATOM      9  C9  DEN d   1      -5.804   3.660   0.576  0.00  0.00    -0.072 A 
ENDROOT
TORSDOF 0
ENDMDL
