MODEL 1
REMARK minimizedAffinity 4.37128305
REMARK minimizedRMSD -1
REMARK  0 active torsions:
REMARK  status: ('A' for Active; 'I' for Inactive)
ROOT
ATOM      1  C   UNL d   1       5.044  -5.983   1.961  0.00  0.00     0.020 A 
ATOM      2  C1  UNL d   1       3.650  -5.991   1.967  0.00  0.00     0.020 A 
ATOM      3  C2  UNL d   1       2.956  -5.996   3.179  0.00  0.00     0.034 A 
ATOM      4  C3  UNL d   1       3.657  -5.992   4.391  0.00  0.00     0.017 A 
ATOM      5  C4  UNL d   1       5.057  -5.983   4.384  0.00  0.00     0.017 A 
ATOM      6  C5  UNL d   1       5.746  -5.978   3.167  0.00  0.00     0.034 A 
ATOM      7 Cl   UNL d   1       5.991  -5.977   5.838  0.00  0.00    -0.070 Cl
ATOM      8 Cl1  UNL d   1       2.736  -5.998   5.852  0.00  0.00    -0.070 Cl
ENDROOT
TORSDOF 0
ENDMDL
