MODEL 1
REMARK minimizedAffinity 1.61557138
REMARK minimizedRMSD -1
REMARK  0 active torsions:
REMARK  status: ('A' for Active; 'I' for Inactive)
ROOT
ATOM      1  C   UNL d   1      -3.105   0.416   1.950  0.00  0.00     0.020 A 
ATOM      2  C1  UNL d   1      -3.386   1.761   2.188  0.00  0.00     0.020 A 
ATOM      3  C2  UNL d   1      -2.440   2.570   2.821  0.00  0.00     0.034 A 
ATOM      4  C3  UNL d   1      -1.209   2.036   3.218  0.00  0.00     0.017 A 
ATOM      5  C4  UNL d   1      -0.928   0.686   2.979  0.00  0.00     0.017 A 
ATOM      6  C5  UNL d   1      -1.879  -0.120   2.345  0.00  0.00     0.034 A 
ATOM      7 Cl   UNL d   1       0.569  -0.045   3.440  0.00  0.00    -0.070 Cl
ATOM      8 Cl1  UNL d   1      -0.086   3.095   3.995  0.00  0.00    -0.070 Cl
ENDROOT
TORSDOF 0
ENDMDL
