MODEL 1
REMARK minimizedAffinity 6.51729345
REMARK minimizedRMSD -1
REMARK  0 active torsions:
REMARK  status: ('A' for Active; 'I' for Inactive)
ROOT
ATOM      1  C   UNL d   1      -4.280  -4.238  -6.000  0.00  0.00     0.020 A 
ATOM      2  C1  UNL d   1      -3.173  -5.085  -5.999  0.00  0.00     0.020 A 
ATOM      3  C2  UNL d   1      -1.883  -4.549  -5.999  0.00  0.00     0.034 A 
ATOM      4  C3  UNL d   1      -1.698  -3.162  -5.999  0.00  0.00     0.017 A 
ATOM      5  C4  UNL d   1      -2.810  -2.312  -5.999  0.00  0.00     0.017 A 
ATOM      6  C5  UNL d   1      -4.099  -2.854  -6.000  0.00  0.00     0.034 A 
ATOM      7 Cl   UNL d   1      -2.661  -0.590  -6.000  0.00  0.00    -0.070 Cl
ATOM      8 Cl1  UNL d   1      -0.075  -2.568  -5.998  0.00  0.00    -0.070 Cl
ENDROOT
TORSDOF 0
ENDMDL
