MODEL 1
REMARK minimizedAffinity -2.45219159
REMARK minimizedRMSD -1
REMARK  0 active torsions:
REMARK  status: ('A' for Active; 'I' for Inactive)
ROOT
ATOM      1  C   UNL d   1      -1.905  -0.568   1.622  0.00  0.00     0.020 A 
ATOM      2  C1  UNL d   1      -2.393   0.737   1.671  0.00  0.00     0.020 A 
ATOM      3  C2  UNL d   1      -1.626   1.747   2.255  0.00  0.00     0.034 A 
ATOM      4  C3  UNL d   1      -0.368   1.454   2.792  0.00  0.00     0.017 A 
ATOM      5  C4  UNL d   1       0.121   0.144   2.743  0.00  0.00     0.017 A 
ATOM      6  C5  UNL d   1      -0.651  -0.864   2.157  0.00  0.00     0.034 A 
ATOM      7 Cl   UNL d   1       1.665  -0.295   3.385  0.00  0.00    -0.070 Cl
ATOM      8 Cl1  UNL d   1       0.527   2.753   3.499  0.00  0.00    -0.070 Cl
ENDROOT
TORSDOF 0
ENDMDL
