MODEL 1
REMARK minimizedAffinity 3.34462523
REMARK minimizedRMSD -1
REMARK  0 active torsions:
REMARK  status: ('A' for Active; 'I' for Inactive)
ROOT
ATOM      1  C   UNL d   1      -1.139   0.525   1.336  0.00  0.00     0.020 A 
ATOM      2  C1  UNL d   1      -0.989   0.483   2.721  0.00  0.00     0.020 A 
ATOM      3  C2  UNL d   1      -2.058   0.828   3.550  0.00  0.00     0.034 A 
ATOM      4  C3  UNL d   1      -3.282   1.218   2.994  0.00  0.00     0.017 A 
ATOM      5  C4  UNL d   1      -3.432   1.260   1.603  0.00  0.00     0.017 A 
ATOM      6  C5  UNL d   1      -2.357   0.913   0.778  0.00  0.00     0.034 A 
ATOM      7 Cl   UNL d   1      -4.911   1.731   0.843  0.00  0.00    -0.070 Cl
ATOM      8 Cl1  UNL d   1      -4.562   1.631   4.079  0.00  0.00    -0.070 Cl
ENDROOT
TORSDOF 0
ENDMDL
