MODEL 1
REMARK minimizedAffinity 10.7916641
REMARK minimizedRMSD -1
REMARK  0 active torsions:
REMARK  status: ('A' for Active; 'I' for Inactive)
ROOT
ATOM      1  C   UNL d   1      -1.466   1.204   2.230  0.00  0.00     0.020 A 
ATOM      2  C1  UNL d   1      -1.062  -0.095   1.926  0.00  0.00     0.020 A 
ATOM      3  C2  UNL d   1      -1.939  -0.965   1.274  0.00  0.00     0.034 A 
ATOM      4  C3  UNL d   1      -3.224  -0.536   0.924  0.00  0.00     0.017 A 
ATOM      5  C4  UNL d   1      -3.629   0.768   1.230  0.00  0.00     0.017 A 
ATOM      6  C5  UNL d   1      -2.747   1.635   1.882  0.00  0.00     0.034 A 
ATOM      7 Cl   UNL d   1      -5.199   1.369   0.829  0.00  0.00    -0.070 Cl
ATOM      8 Cl1  UNL d   1      -4.256  -1.665   0.120  0.00  0.00    -0.070 Cl
ENDROOT
TORSDOF 0
ENDMDL
