MODEL 1
REMARK minimizedAffinity 6.26204538
REMARK minimizedRMSD -1
REMARK  0 active torsions:
REMARK  status: ('A' for Active; 'I' for Inactive)
ROOT
ATOM      1  C   UNL d   1      -4.156   0.995   1.713  0.00  0.00     0.020 A 
ATOM      2  C1  UNL d   1      -4.641  -0.050   0.928  0.00  0.00     0.020 A 
ATOM      3  C2  UNL d   1      -3.798  -1.105   0.572  0.00  0.00     0.034 A 
ATOM      4  C3  UNL d   1      -2.465  -1.117   1.000  0.00  0.00     0.017 A 
ATOM      5  C4  UNL d   1      -1.980  -0.067   1.788  0.00  0.00     0.017 A 
ATOM      6  C5  UNL d   1      -2.828   0.987   2.142  0.00  0.00     0.034 A 
ATOM      7 Cl   UNL d   1      -0.348  -0.011   2.355  0.00  0.00    -0.070 Cl
ATOM      8 Cl1  UNL d   1      -1.479  -2.453   0.523  0.00  0.00    -0.070 Cl
ENDROOT
TORSDOF 0
ENDMDL
