MODEL 1
REMARK minimizedAffinity 11.8294821
REMARK minimizedRMSD -1
REMARK  0 active torsions:
REMARK  status: ('A' for Active; 'I' for Inactive)
ROOT
ATOM      1  C   UNL d   1      -1.963   0.484   1.589  0.00  0.00     0.020 A 
ATOM      2  C1  UNL d   1      -2.934   1.357   1.101  0.00  0.00     0.020 A 
ATOM      3  C2  UNL d   1      -4.006   0.863   0.356  0.00  0.00     0.034 A 
ATOM      4  C3  UNL d   1      -4.110  -0.509   0.096  0.00  0.00     0.017 A 
ATOM      5  C4  UNL d   1      -3.135  -1.385   0.587  0.00  0.00     0.017 A 
ATOM      6  C5  UNL d   1      -2.063  -0.884   1.333  0.00  0.00     0.034 A 
ATOM      7 Cl   UNL d   1      -3.195  -3.089   0.307  0.00  0.00    -0.070 Cl
ATOM      8 Cl1  UNL d   1      -5.463  -1.051  -0.832  0.00  0.00    -0.070 Cl
ENDROOT
TORSDOF 0
ENDMDL
