MODEL 1
REMARK minimizedAffinity 7.80503368
REMARK minimizedRMSD -1
REMARK  0 active torsions:
REMARK  status: ('A' for Active; 'I' for Inactive)
ROOT
ATOM      1  C   UNL d   1      -4.143   0.756   0.387  0.00  0.00     0.020 A 
ATOM      2  C1  UNL d   1      -5.217   0.641   1.268  0.00  0.00     0.020 A 
ATOM      3  C2  UNL d   1      -4.986   0.398   2.623  0.00  0.00     0.034 A 
ATOM      4  C3  UNL d   1      -3.677   0.270   3.103  0.00  0.00     0.017 A 
ATOM      5  C4  UNL d   1      -2.599   0.386   2.218  0.00  0.00     0.017 A 
ATOM      6  C5  UNL d   1      -2.836   0.629   0.861  0.00  0.00     0.034 A 
ATOM      7 Cl   UNL d   1      -0.956   0.240   2.735  0.00  0.00    -0.070 Cl
ATOM      8 Cl1  UNL d   1      -3.466  -0.029   4.791  0.00  0.00    -0.070 Cl
ENDROOT
TORSDOF 0
ENDMDL
