MODEL 1
REMARK minimizedAffinity 4.38352442
REMARK minimizedRMSD -1
REMARK  0 active torsions:
REMARK  status: ('A' for Active; 'I' for Inactive)
ROOT
ATOM      1  C   UNL d   1       5.523  -5.997   1.460  0.00  0.00     0.020 A 
ATOM      2  C1  UNL d   1       5.986  -5.998   2.776  0.00  0.00     0.020 A 
ATOM      3  C2  UNL d   1       5.076  -5.999   3.836  0.00  0.00     0.034 A 
ATOM      4  C3  UNL d   1       3.700  -5.999   3.582  0.00  0.00     0.017 A 
ATOM      5  C4  UNL d   1       3.236  -5.998   2.262  0.00  0.00     0.017 A 
ATOM      6  C5  UNL d   1       4.151  -5.997   1.204  0.00  0.00     0.034 A 
ATOM      7 Cl   UNL d   1       1.553  -5.997   1.870  0.00  0.00    -0.070 Cl
ATOM      8 Cl1  UNL d   1       2.633  -6.000   4.941  0.00  0.00    -0.070 Cl
ENDROOT
TORSDOF 0
ENDMDL
