MODEL 1
REMARK minimizedAffinity 2.88129878
REMARK minimizedRMSD -1
REMARK  0 active torsions:
REMARK  status: ('A' for Active; 'I' for Inactive)
ROOT
ATOM      1  C   UNL d   1       4.462  -6.000   1.329  0.00  0.00     0.020 A 
ATOM      2  C1  UNL d   1       5.078  -6.000   2.581  0.00  0.00     0.020 A 
ATOM      3  C2  UNL d   1       4.301  -6.000   3.741  0.00  0.00     0.034 A 
ATOM      4  C3  UNL d   1       2.904  -5.999   3.653  0.00  0.00     0.017 A 
ATOM      5  C4  UNL d   1       2.287  -5.999   2.396  0.00  0.00     0.017 A 
ATOM      6  C5  UNL d   1       3.070  -6.000   1.238  0.00  0.00     0.034 A 
ATOM      7 Cl   UNL d   1       0.569  -5.999   2.207  0.00  0.00    -0.070 Cl
ATOM      8 Cl1  UNL d   1       2.005  -6.000   5.128  0.00  0.00    -0.070 Cl
ENDROOT
TORSDOF 0
ENDMDL
