MODEL 1
REMARK minimizedAffinity 4.22911358
REMARK minimizedRMSD -1
REMARK  0 active torsions:
REMARK  status: ('A' for Active; 'I' for Inactive)
ROOT
ATOM      1  C   UNL d   1      -0.955   0.103   2.291  0.00  0.00     0.020 A 
ATOM      2  C1  UNL d   1      -1.422   1.371   2.634  0.00  0.00     0.020 A 
ATOM      3  C2  UNL d   1      -2.713   1.761   2.274  0.00  0.00     0.034 A 
ATOM      4  C3  UNL d   1      -3.542   0.883   1.567  0.00  0.00     0.017 A 
ATOM      5  C4  UNL d   1      -3.073  -0.390   1.222  0.00  0.00     0.017 A 
ATOM      6  C5  UNL d   1      -1.779  -0.776   1.586  0.00  0.00     0.034 A 
ATOM      7 Cl   UNL d   1      -4.038  -1.529   0.351  0.00  0.00    -0.070 Cl
ATOM      8 Cl1  UNL d   1      -5.128   1.432   1.154  0.00  0.00    -0.070 Cl
ENDROOT
TORSDOF 0
ENDMDL
