MODEL 1
REMARK minimizedAffinity 0.901565313
REMARK minimizedRMSD -1
REMARK  0 active torsions:
REMARK  status: ('A' for Active; 'I' for Inactive)
ROOT
ATOM      1  C   UNL d   1       1.621   0.853  -0.265  0.00  0.00     0.020 A 
ATOM      2  C1  UNL d   1       2.887   0.680  -0.821  0.00  0.00     0.020 A 
ATOM      3  C2  UNL d   1       3.951   0.259  -0.019  0.00  0.00     0.034 A 
ATOM      4  C3  UNL d   1       3.749   0.011   1.343  0.00  0.00     0.017 A 
ATOM      5  C4  UNL d   1       2.478   0.186   1.901  0.00  0.00     0.017 A 
ATOM      6  C5  UNL d   1       1.417   0.607   1.094  0.00  0.00     0.034 A 
ATOM      7 Cl   UNL d   1       2.152  -0.100   3.574  0.00  0.00    -0.070 Cl
ATOM      8 Cl1  UNL d   1       5.109  -0.506   2.275  0.00  0.00    -0.070 Cl
ENDROOT
TORSDOF 0
ENDMDL
