MODEL 1
REMARK minimizedAffinity 7.04707479
REMARK minimizedRMSD -1
REMARK  0 active torsions:
REMARK  status: ('A' for Active; 'I' for Inactive)
ROOT
ATOM      1  C   UNL d   1      -3.612   1.242   1.859  0.00  0.00     0.020 A 
ATOM      2  C1  UNL d   1      -3.063   0.114   1.251  0.00  0.00     0.020 A 
ATOM      3  C2  UNL d   1      -1.707  -0.179   1.416  0.00  0.00     0.034 A 
ATOM      4  C3  UNL d   1      -0.896   0.658   2.191  0.00  0.00     0.017 A 
ATOM      5  C4  UNL d   1      -1.448   1.790   2.801  0.00  0.00     0.017 A 
ATOM      6  C5  UNL d   1      -2.806   2.078   2.633  0.00  0.00     0.034 A 
ATOM      7 Cl   UNL d   1      -0.510   2.870   3.772  0.00  0.00    -0.070 Cl
ATOM      8 Cl1  UNL d   1       0.772   0.236   2.353  0.00  0.00    -0.070 Cl
ENDROOT
TORSDOF 0
ENDMDL
