MODEL 1
REMARK minimizedAffinity 9.33699512
REMARK minimizedRMSD -1
REMARK  0 active torsions:
REMARK  status: ('A' for Active; 'I' for Inactive)
ROOT
ATOM      1  C   UNL d   1      -0.978   0.966   1.686  0.00  0.00     0.020 A 
ATOM      2  C1  UNL d   1      -1.204   0.236   0.520  0.00  0.00     0.020 A 
ATOM      3  C2  UNL d   1      -2.484  -0.242   0.233  0.00  0.00     0.034 A 
ATOM      4  C3  UNL d   1      -3.543   0.009   1.113  0.00  0.00     0.017 A 
ATOM      5  C4  UNL d   1      -3.315   0.742   2.283  0.00  0.00     0.017 A 
ATOM      6  C5  UNL d   1      -2.031   1.219   2.565  0.00  0.00     0.034 A 
ATOM      7 Cl   UNL d   1      -4.572   1.092   3.417  0.00  0.00    -0.070 Cl
ATOM      8 Cl1  UNL d   1      -5.100  -0.613   0.695  0.00  0.00    -0.070 Cl
ENDROOT
TORSDOF 0
ENDMDL
