MODEL 1
REMARK minimizedAffinity 4.99188137
REMARK minimizedRMSD -1
REMARK  0 active torsions:
REMARK  status: ('A' for Active; 'I' for Inactive)
ROOT
ATOM      1  C   UNL d   1      -0.401   1.959   2.962  0.00  0.00     0.020 A 
ATOM      2  C1  UNL d   1      -0.186   1.412   1.697  0.00  0.00     0.020 A 
ATOM      3  C2  UNL d   1      -1.194   0.672   1.076  0.00  0.00     0.034 A 
ATOM      4  C3  UNL d   1      -2.422   0.478   1.719  0.00  0.00     0.017 A 
ATOM      5  C4  UNL d   1      -2.637   1.027   2.988  0.00  0.00     0.017 A 
ATOM      6  C5  UNL d   1      -1.624   1.767   3.605  0.00  0.00     0.034 A 
ATOM      7 Cl   UNL d   1      -4.126   0.830   3.844  0.00  0.00    -0.070 Cl
ATOM      8 Cl1  UNL d   1      -3.624  -0.448   0.892  0.00  0.00    -0.070 Cl
ENDROOT
TORSDOF 0
ENDMDL
