MODEL 1
REMARK minimizedAffinity 2.57587576
REMARK minimizedRMSD -1
REMARK  0 active torsions:
REMARK  status: ('A' for Active; 'I' for Inactive)
ROOT
ATOM      1  C   UNL d   1      -0.998   0.671   1.697  0.00  0.00     0.020 A 
ATOM      2  C1  UNL d   1      -0.902   0.774   3.085  0.00  0.00     0.020 A 
ATOM      3  C2  UNL d   1      -2.054   0.705   3.871  0.00  0.00     0.034 A 
ATOM      4  C3  UNL d   1      -3.306   0.532   3.272  0.00  0.00     0.017 A 
ATOM      5  C4  UNL d   1      -3.402   0.428   1.879  0.00  0.00     0.017 A 
ATOM      6  C5  UNL d   1      -2.245   0.498   1.096  0.00  0.00     0.034 A 
ATOM      7 Cl   UNL d   1      -4.912   0.214   1.067  0.00  0.00    -0.070 Cl
ATOM      8 Cl1  UNL d   1      -4.688   0.455   4.306  0.00  0.00    -0.070 Cl
ENDROOT
TORSDOF 0
ENDMDL
