MODEL 1
REMARK minimizedAffinity 5.22726679
REMARK minimizedRMSD -1
REMARK  0 active torsions:
REMARK  status: ('A' for Active; 'I' for Inactive)
ROOT
ATOM      1  C   UNL d   1       5.445  -5.977   1.735  0.00  0.00     0.020 A 
ATOM      2  C1  UNL d   1       4.067  -5.976   1.528  0.00  0.00     0.020 A 
ATOM      3  C2  UNL d   1       3.196  -5.958   2.620  0.00  0.00     0.034 A 
ATOM      4  C3  UNL d   1       3.704  -5.941   3.924  0.00  0.00     0.017 A 
ATOM      5  C4  UNL d   1       5.088  -5.942   4.131  0.00  0.00     0.017 A 
ATOM      6  C5  UNL d   1       5.955  -5.961   3.034  0.00  0.00     0.034 A 
ATOM      7 Cl   UNL d   1       5.789  -5.922   5.711  0.00  0.00    -0.070 Cl
ATOM      8 Cl1  UNL d   1       2.570  -5.919   5.228  0.00  0.00    -0.070 Cl
ENDROOT
TORSDOF 0
ENDMDL
