MODEL 1
REMARK minimizedAffinity -1.61196172
REMARK minimizedRMSD -1
REMARK  1 active torsions:
REMARK  status: ('A' for Active; 'I' for Inactive)
REMARK    1  A    between atoms: C1_2  and  C2_3 
ROOT
ATOM      1  C2  UNL d   1       2.182  -3.858  -3.648  0.00  0.00    -0.081 A 
ATOM      2  C3  UNL d   1       3.461  -4.145  -3.154  0.00  0.00     0.006 A 
ATOM      3  C4  UNL d   1       4.596  -3.839  -3.908  0.00  0.00     0.002 A 
ATOM      4  C5  UNL d   1       4.473  -3.236  -5.164  0.00  0.00    -0.080 A 
ATOM      5  C6  UNL d   1       5.685  -2.875  -5.970  0.00  0.00     0.076 C 
ATOM      6  C7  UNL d   1       3.195  -2.966  -5.665  0.00  0.00     0.002 A 
ATOM      7  C8  UNL d   1       2.060  -3.272  -4.912  0.00  0.00     0.006 A 
ENDROOT
BRANCH   1   8
ATOM      8  C1  UNL d   1       0.959  -4.127  -2.810  0.00  0.00     0.054 C 
ATOM      9  C   UNL d   1       1.328  -4.776  -1.483  0.00  0.00     0.018 C 
ENDBRANCH   1   8
TORSDOF 1
ENDMDL
