MODEL 1
REMARK minimizedAffinity -2.67112064
REMARK minimizedRMSD -1
REMARK  1 active torsions:
REMARK  status: ('A' for Active; 'I' for Inactive)
REMARK    1  A    between atoms: C1_2  and  C2_3 
ROOT
ATOM      1  C2  UNL d   1      -1.930   1.961  -3.529  0.00  0.00    -0.081 A 
ATOM      2  C3  UNL d   1      -2.987   1.049  -3.415  0.00  0.00     0.006 A 
ATOM      3  C4  UNL d   1      -4.303   1.501  -3.301  0.00  0.00     0.002 A 
ATOM      4  C5  UNL d   1      -4.587   2.871  -3.307  0.00  0.00    -0.080 A 
ATOM      5  C6  UNL d   1      -5.999   3.369  -3.216  0.00  0.00     0.076 C 
ATOM      6  C7  UNL d   1      -3.530   3.783  -3.404  0.00  0.00     0.002 A 
ATOM      7  C8  UNL d   1      -2.213   3.332  -3.517  0.00  0.00     0.006 A 
ENDROOT
BRANCH   1   8
ATOM      8  C1  UNL d   1      -0.516   1.476  -3.718  0.00  0.00     0.054 C 
ATOM      9  C   UNL d   1       0.493   2.529  -3.280  0.00  0.00     0.018 C 
ENDBRANCH   1   8
TORSDOF 1
ENDMDL
