MODEL 1
REMARK minimizedAffinity 7.68590879
REMARK minimizedRMSD -1
REMARK  1 active torsions:
REMARK  status: ('A' for Active; 'I' for Inactive)
REMARK    1  A    between atoms: C1_2  and  C2_3 
ROOT
ATOM      1  C2  UNL d   1       1.103  -2.737  -2.561  0.00  0.00    -0.081 A 
ATOM      2  C3  UNL d   1       0.835  -2.473  -1.212  0.00  0.00     0.006 A 
ATOM      3  C4  UNL d   1       0.611  -3.522  -0.316  0.00  0.00     0.002 A 
ATOM      4  C5  UNL d   1       0.659  -4.850  -0.753  0.00  0.00    -0.080 A 
ATOM      5  C6  UNL d   1       0.451  -5.986   0.204  0.00  0.00     0.076 C 
ATOM      6  C7  UNL d   1       0.909  -5.113  -2.104  0.00  0.00     0.002 A 
ATOM      7  C8  UNL d   1       1.133  -4.065  -3.000  0.00  0.00     0.006 A 
ENDROOT
BRANCH   1   8
ATOM      8  C1  UNL d   1       1.409  -1.611  -3.516  0.00  0.00     0.054 C 
ATOM      9  C   UNL d   1       2.885  -1.586  -3.886  0.00  0.00     0.018 C 
ENDBRANCH   1   8
TORSDOF 1
ENDMDL
