MODEL 1
REMARK minimizedAffinity 12.1478996
REMARK minimizedRMSD -1
REMARK  1 active torsions:
REMARK  status: ('A' for Active; 'I' for Inactive)
REMARK    1  A    between atoms: C1_2  and  C2_3 
ROOT
ATOM      1  C2  UNL d   1       2.891  -2.609   3.187  0.00  0.00    -0.081 A 
ATOM      2  C3  UNL d   1       3.364  -3.796   3.760  0.00  0.00     0.006 A 
ATOM      3  C4  UNL d   1       4.361  -4.540   3.124  0.00  0.00     0.002 A 
ATOM      4  C5  UNL d   1       4.906  -4.107   1.911  0.00  0.00    -0.080 A 
ATOM      5  C6  UNL d   1       5.998  -4.881   1.234  0.00  0.00     0.076 C 
ATOM      6  C7  UNL d   1       4.422  -2.930   1.331  0.00  0.00     0.002 A 
ATOM      7  C8  UNL d   1       3.425  -2.186   1.965  0.00  0.00     0.006 A 
ENDROOT
BRANCH   1   8
ATOM      8  C1  UNL d   1       1.863  -1.770   3.902  0.00  0.00     0.054 C 
ATOM      9  C   UNL d   1       1.852  -2.062   5.396  0.00  0.00     0.018 C 
ENDBRANCH   1   8
TORSDOF 1
ENDMDL
