MODEL 1
REMARK minimizedAffinity 10.6802959
REMARK minimizedRMSD -1
REMARK  1 active torsions:
REMARK  status: ('A' for Active; 'I' for Inactive)
REMARK    1  A    between atoms: C1_2  and  C2_3 
ROOT
ATOM      1  C2  UNL d   1       3.607  -4.685  -4.738  0.00  0.00    -0.081 A 
ATOM      2  C3  UNL d   1       4.743  -4.676  -5.556  0.00  0.00     0.006 A 
ATOM      3  C4  UNL d   1       5.304  -3.467  -5.976  0.00  0.00     0.002 A 
ATOM      4  C5  UNL d   1       4.744  -2.249  -5.578  0.00  0.00    -0.080 A 
ATOM      5  C6  UNL d   1       5.355  -0.944  -5.996  0.00  0.00     0.076 C 
ATOM      6  C7  UNL d   1       3.599  -2.257  -4.775  0.00  0.00     0.002 A 
ATOM      7  C8  UNL d   1       3.037  -3.465  -4.356  0.00  0.00     0.006 A 
ENDROOT
BRANCH   1   8
ATOM      8  C1  UNL d   1       3.037  -5.985  -4.231  0.00  0.00     0.054 C 
ATOM      9  C   UNL d   1       1.834  -5.748  -3.330  0.00  0.00     0.018 C 
ENDBRANCH   1   8
TORSDOF 1
ENDMDL
