MODEL 1
REMARK minimizedAffinity 10.2647457
REMARK minimizedRMSD -1
REMARK  1 active torsions:
REMARK  status: ('A' for Active; 'I' for Inactive)
REMARK    1  A    between atoms: C1_2  and  C2_3 
ROOT
ATOM      1  C2  UNL d   1      -1.502   0.093  -1.271  0.00  0.00    -0.081 A 
ATOM      2  C3  UNL d   1      -1.046   1.121  -0.437  0.00  0.00     0.006 A 
ATOM      3  C4  UNL d   1      -0.336   0.826   0.729  0.00  0.00     0.002 A 
ATOM      4  C5  UNL d   1      -0.062  -0.501   1.076  0.00  0.00    -0.080 A 
ATOM      5  C6  UNL d   1       0.726  -0.831   2.309  0.00  0.00     0.076 C 
ATOM      6  C7  UNL d   1      -0.533  -1.530   0.253  0.00  0.00     0.002 A 
ATOM      7  C8  UNL d   1      -1.244  -1.235  -0.913  0.00  0.00     0.006 A 
ENDROOT
BRANCH   1   8
ATOM      8  C1  UNL d   1      -2.212   0.410  -2.562  0.00  0.00     0.054 C 
ATOM      9  C   UNL d   1      -2.983   1.719  -2.462  0.00  0.00     0.018 C 
ENDBRANCH   1   8
TORSDOF 1
ENDMDL
