MODEL 1
REMARK minimizedAffinity 12.3168926
REMARK minimizedRMSD -1
REMARK  1 active torsions:
REMARK  status: ('A' for Active; 'I' for Inactive)
REMARK    1  A    between atoms: C1_2  and  C2_3 
ROOT
ATOM      1  C2  UNL d   1      -1.156   0.455  -0.457  0.00  0.00    -0.081 A 
ATOM      2  C3  UNL d   1      -1.074  -0.243   0.754  0.00  0.00     0.006 A 
ATOM      3  C4  UNL d   1      -0.595  -1.554   0.784  0.00  0.00     0.002 A 
ATOM      4  C5  UNL d   1      -0.182  -2.187  -0.393  0.00  0.00    -0.080 A 
ATOM      5  C6  UNL d   1       0.363  -3.584  -0.370  0.00  0.00     0.076 C 
ATOM      6  C7  UNL d   1      -0.281  -1.496  -1.606  0.00  0.00     0.002 A 
ATOM      7  C8  UNL d   1      -0.761  -0.185  -1.637  0.00  0.00     0.006 A 
ENDROOT
BRANCH   1   8
ATOM      8  C1  UNL d   1      -1.612   1.892  -0.485  0.00  0.00     0.054 C 
ATOM      9  C   UNL d   1      -0.699   2.778   0.351  0.00  0.00     0.018 C 
ENDBRANCH   1   8
TORSDOF 1
ENDMDL
