MODEL 1
REMARK minimizedAffinity -1.36854041
REMARK minimizedRMSD -1
REMARK  1 active torsions:
REMARK  status: ('A' for Active; 'I' for Inactive)
REMARK    1  A    between atoms: C1_2  and  C2_3 
ROOT
ATOM      1  C2  UNL d   1       5.979  -3.757  -4.786  0.00  0.00    -0.081 A 
ATOM      2  C3  UNL d   1       5.988  -3.042  -3.582  0.00  0.00     0.006 A 
ATOM      3  C4  UNL d   1       5.998  -1.645  -3.589  0.00  0.00     0.002 A 
ATOM      4  C5  UNL d   1       5.990  -0.941  -4.797  0.00  0.00    -0.080 A 
ATOM      5  C6  UNL d   1       5.969   0.559  -4.818  0.00  0.00     0.076 C 
ATOM      6  C7  UNL d   1       5.998  -1.655  -6.000  0.00  0.00     0.002 A 
ATOM      7  C8  UNL d   1       5.990  -3.052  -5.994  0.00  0.00     0.006 A 
ENDROOT
BRANCH   1   8
ATOM      8  C1  UNL d   1       5.903  -5.263  -4.782  0.00  0.00     0.054 C 
ATOM      9  C   UNL d   1       6.000  -5.818  -3.368  0.00  0.00     0.018 C 
ENDBRANCH   1   8
TORSDOF 1
ENDMDL
