MODEL 1
REMARK minimizedAffinity -5.27550364
REMARK minimizedRMSD -1
REMARK  1 active torsions:
REMARK  status: ('A' for Active; 'I' for Inactive)
REMARK    1  A    between atoms: C1_2  and  C2_3 
ROOT
ATOM      1  C2  UNL d   1       0.573   0.277   0.141  0.00  0.00    -0.081 A 
ATOM      2  C3  UNL d   1       0.683  -1.073   0.496  0.00  0.00     0.006 A 
ATOM      3  C4  UNL d   1       1.812  -1.537   1.174  0.00  0.00     0.002 A 
ATOM      4  C5  UNL d   1       2.846  -0.659   1.515  0.00  0.00    -0.080 A 
ATOM      5  C6  UNL d   1       4.051  -1.138   2.269  0.00  0.00     0.076 C 
ATOM      6  C7  UNL d   1       2.745   0.686   1.144  0.00  0.00     0.002 A 
ATOM      7  C8  UNL d   1       1.616   1.151   0.466  0.00  0.00     0.006 A 
ENDROOT
BRANCH   1   8
ATOM      8  C1  UNL d   1      -0.673   0.793  -0.533  0.00  0.00     0.054 C 
ATOM      9  C   UNL d   1      -1.690  -0.320  -0.744  0.00  0.00     0.018 C 
ENDBRANCH   1   8
TORSDOF 1
ENDMDL
