MODEL 1
REMARK minimizedAffinity -2.45370388
REMARK minimizedRMSD -1
REMARK  0 active torsions:
REMARK  status: ('A' for Active; 'I' for Inactive)
ROOT
ATOM      1  C   UNL d   1       0.364   2.236   2.196  0.00  0.00     0.172 C 
ATOM      2  N   UNL d   1       0.216   1.056   1.378  0.00  0.00    -0.070 N 
ATOM      3  C1  UNL d   1       0.816   0.844   0.165  0.00  0.00    -0.004 A 
ATOM      4  C2  UNL d   1       0.423  -0.396  -0.290  0.00  0.00    -0.047 A 
ATOM      5  C3  UNL d   1      -0.444  -0.949   0.682  0.00  0.00    -0.047 A 
ATOM      6  C4  UNL d   1      -0.555  -0.029   1.704  0.00  0.00    -0.004 A 
ENDROOT
TORSDOF 0
ENDMDL
