MODEL 1
REMARK minimizedAffinity -2.78295159
REMARK minimizedRMSD -1
REMARK  0 active torsions:
REMARK  status: ('A' for Active; 'I' for Inactive)
ROOT
ATOM      1  C   UNL d   1       0.902   1.790   2.566  0.00  0.00     0.172 C 
ATOM      2  N   UNL d   1       0.397   0.906   1.541  0.00  0.00    -0.070 N 
ATOM      3  C1  UNL d   1      -0.741   0.150   1.628  0.00  0.00    -0.004 A 
ATOM      4  C2  UNL d   1      -0.874  -0.551   0.449  0.00  0.00    -0.047 A 
ATOM      5  C3  UNL d   1       0.223  -0.204  -0.375  0.00  0.00    -0.047 A 
ATOM      6  C4  UNL d   1       0.994   0.700   0.325  0.00  0.00    -0.004 A 
ENDROOT
TORSDOF 0
ENDMDL
