MODEL 1
REMARK minimizedAffinity -2.44550824
REMARK minimizedRMSD -1
REMARK  0 active torsions:
REMARK  status: ('A' for Active; 'I' for Inactive)
ROOT
ATOM      1  C   UNL d   1      -1.312  -1.378  -2.086  0.00  0.00     0.172 C 
ATOM      2  N   UNL d   1      -0.790  -0.687  -0.930  0.00  0.00    -0.070 N 
ATOM      3  C1  UNL d   1       0.273  -1.093  -0.169  0.00  0.00    -0.004 A 
ATOM      4  C2  UNL d   1       0.453  -0.166   0.835  0.00  0.00    -0.047 A 
ATOM      5  C3  UNL d   1      -0.538   0.832   0.672  0.00  0.00    -0.047 A 
ATOM      6  C4  UNL d   1      -1.294   0.484  -0.428  0.00  0.00    -0.004 A 
ENDROOT
TORSDOF 0
ENDMDL
