MODEL 1
REMARK minimizedAffinity -3.24786615
REMARK minimizedRMSD -1
REMARK  0 active torsions:
REMARK  status: ('A' for Active; 'I' for Inactive)
ROOT
ATOM      1  C   UNL d   1      -0.246  -1.238  -0.484  0.00  0.00     0.172 C 
ATOM      2  N   UNL d   1       0.167  -0.089   0.288  0.00  0.00    -0.070 N 
ATOM      3  C1  UNL d   1       1.390   0.522   0.216  0.00  0.00    -0.004 A 
ATOM      4  C2  UNL d   1       1.388   1.575   1.106  0.00  0.00    -0.047 A 
ATOM      5  C3  UNL d   1       0.120   1.596   1.734  0.00  0.00    -0.047 A 
ATOM      6  C4  UNL d   1      -0.616   0.555   1.209  0.00  0.00    -0.004 A 
ENDROOT
TORSDOF 0
ENDMDL
