MODEL 1
REMARK minimizedAffinity -2.45751238
REMARK minimizedRMSD -1
REMARK  0 active torsions:
REMARK  status: ('A' for Active; 'I' for Inactive)
ROOT
ATOM      1  C   UNL d   1       0.953   1.858   1.493  0.00  0.00     0.172 C 
ATOM      2  N   UNL d   1       0.366   0.730   0.810  0.00  0.00    -0.070 N 
ATOM      3  C1  UNL d   1      -0.533  -0.152   1.349  0.00  0.00    -0.004 A 
ATOM      4  C2  UNL d   1      -0.849  -1.079   0.380  0.00  0.00    -0.047 A 
ATOM      5  C3  UNL d   1      -0.115  -0.743  -0.782  0.00  0.00    -0.047 A 
ATOM      6  C4  UNL d   1       0.629   0.380  -0.489  0.00  0.00    -0.004 A 
ENDROOT
TORSDOF 0
ENDMDL
