MODEL 1
REMARK minimizedAffinity -3.06031013
REMARK minimizedRMSD -1
REMARK  0 active torsions:
REMARK  status: ('A' for Active; 'I' for Inactive)
ROOT
ATOM      1  C   UNL d   1       0.007  -1.127  -0.213  0.00  0.00     0.172 C 
ATOM      2  N   UNL d   1      -0.995  -1.111  -1.253  0.00  0.00    -0.070 N 
ATOM      3  C1  UNL d   1      -1.820  -2.153  -1.583  0.00  0.00    -0.004 A 
ATOM      4  C2  UNL d   1      -2.627  -1.739  -2.620  0.00  0.00    -0.047 A 
ATOM      5  C3  UNL d   1      -2.275  -0.403  -2.925  0.00  0.00    -0.047 A 
ATOM      6  C4  UNL d   1      -1.261  -0.039  -2.064  0.00  0.00    -0.004 A 
ENDROOT
TORSDOF 0
ENDMDL
