MODEL 1
REMARK minimizedAffinity -2.56960464
REMARK minimizedRMSD -1
REMARK  0 active torsions:
REMARK  status: ('A' for Active; 'I' for Inactive)
ROOT
ATOM      1  C   UNL d   1      -0.735  -0.869  -0.577  0.00  0.00     0.172 C 
ATOM      2  N   UNL d   1      -0.258   0.092   0.389  0.00  0.00    -0.070 N 
ATOM      3  C1  UNL d   1      -0.889   0.433   1.556  0.00  0.00    -0.004 A 
ATOM      4  C2  UNL d   1      -0.115   1.378   2.194  0.00  0.00    -0.047 A 
ATOM      5  C3  UNL d   1       1.020   1.614   1.383  0.00  0.00    -0.047 A 
ATOM      6  C4  UNL d   1       0.906   0.805   0.272  0.00  0.00    -0.004 A 
ENDROOT
TORSDOF 0
ENDMDL
