MODEL 1
REMARK minimizedAffinity -2.83461285
REMARK minimizedRMSD -1
REMARK  0 active torsions:
REMARK  status: ('A' for Active; 'I' for Inactive)
ROOT
ATOM      1  C   UNL d   1      -0.782  -1.001  -0.591  0.00  0.00     0.172 C 
ATOM      2  N   UNL d   1      -0.394  -0.006   0.381  0.00  0.00    -0.070 N 
ATOM      3  C1  UNL d   1       0.892   0.357   0.682  0.00  0.00    -0.004 A 
ATOM      4  C2  UNL d   1       0.838   1.332   1.654  0.00  0.00    -0.047 A 
ATOM      5  C3  UNL d   1      -0.527   1.563   1.948  0.00  0.00    -0.047 A 
ATOM      6  C4  UNL d   1      -1.268   0.721   1.146  0.00  0.00    -0.004 A 
ENDROOT
TORSDOF 0
ENDMDL
