MODEL 1
REMARK minimizedAffinity -0.631124437
REMARK minimizedRMSD -1
REMARK  0 active torsions:
REMARK  status: ('A' for Active; 'I' for Inactive)
ROOT
ATOM      1  C   UNL d   1      -0.092  -0.630  -0.529  0.00  0.00     0.172 C 
ATOM      2  N   UNL d   1      -1.101  -1.207  -1.387  0.00  0.00    -0.070 N 
ATOM      3  C1  UNL d   1      -1.147  -1.097  -2.751  0.00  0.00    -0.004 A 
ATOM      4  C2  UNL d   1      -2.257  -1.784  -3.192  0.00  0.00    -0.047 A 
ATOM      5  C3  UNL d   1      -2.901  -2.325  -2.054  0.00  0.00    -0.047 A 
ATOM      6  C4  UNL d   1      -2.164  -1.952  -0.950  0.00  0.00    -0.004 A 
ENDROOT
TORSDOF 0
ENDMDL
