MODEL 1
REMARK minimizedAffinity -0.535808861
REMARK minimizedRMSD -1
REMARK  0 active torsions:
REMARK  status: ('A' for Active; 'I' for Inactive)
ROOT
ATOM      1  C   UNL d   1       0.283   1.687   2.062  0.00  0.00     0.172 C 
ATOM      2  N   UNL d   1      -0.118   0.679   1.109  0.00  0.00    -0.070 N 
ATOM      3  C1  UNL d   1       0.664   0.171   0.106  0.00  0.00    -0.004 A 
ATOM      4  C2  UNL d   1      -0.081  -0.764  -0.579  0.00  0.00    -0.047 A 
ATOM      5  C3  UNL d   1      -1.356  -0.819   0.033  0.00  0.00    -0.047 A 
ATOM      6  C4  UNL d   1      -1.352   0.084   1.075  0.00  0.00    -0.004 A 
ENDROOT
TORSDOF 0
ENDMDL
