MODEL 1
REMARK minimizedAffinity -1.18235135
REMARK minimizedRMSD -1
REMARK  0 active torsions:
REMARK  status: ('A' for Active; 'I' for Inactive)
ROOT
ATOM      1  C   UNL d   1      -1.808  -1.227  -1.671  0.00  0.00     0.172 C 
ATOM      2  N   UNL d   1      -1.226  -0.493  -0.571  0.00  0.00    -0.070 N 
ATOM      3  C1  UNL d   1      -1.687   0.697  -0.073  0.00  0.00    -0.004 A 
ATOM      4  C2  UNL d   1      -0.862   1.065   0.968  0.00  0.00    -0.047 A 
ATOM      5  C3  UNL d   1       0.128   0.063   1.099  0.00  0.00    -0.047 A 
ATOM      6  C4  UNL d   1      -0.121  -0.890   0.134  0.00  0.00    -0.004 A 
ENDROOT
TORSDOF 0
ENDMDL
