MODEL 1
REMARK minimizedAffinity -2.47266912
REMARK minimizedRMSD -1
REMARK  0 active torsions:
REMARK  status: ('A' for Active; 'I' for Inactive)
ROOT
ATOM      1  C   UNL d   1       0.026  -0.751  -0.542  0.00  0.00     0.172 C 
ATOM      2  N   UNL d   1      -0.845  -1.025  -1.661  0.00  0.00    -0.070 N 
ATOM      3  C1  UNL d   1      -0.567  -0.752  -2.974  0.00  0.00    -0.004 A 
ATOM      4  C2  UNL d   1      -1.646  -1.162  -3.727  0.00  0.00    -0.047 A 
ATOM      5  C3  UNL d   1      -2.605  -1.700  -2.836  0.00  0.00    -0.047 A 
ATOM      6  C4  UNL d   1      -2.083  -1.602  -1.564  0.00  0.00    -0.004 A 
ENDROOT
TORSDOF 0
ENDMDL
