MODEL 1
REMARK minimizedAffinity -1.80764318
REMARK minimizedRMSD -1
REMARK  0 active torsions:
REMARK  status: ('A' for Active; 'I' for Inactive)
ROOT
ATOM      1  C   UNL d   1      -1.292  -1.596  -1.885  0.00  0.00     0.172 C 
ATOM      2  N   UNL d   1      -0.742  -0.931  -0.727  0.00  0.00    -0.070 N 
ATOM      3  C1  UNL d   1       0.162  -1.469   0.149  0.00  0.00    -0.004 A 
ATOM      4  C2  UNL d   1       0.433  -0.521   1.111  0.00  0.00    -0.047 A 
ATOM      5  C3  UNL d   1      -0.334   0.627   0.803  0.00  0.00    -0.047 A 
ATOM      6  C4  UNL d   1      -1.053   0.346  -0.340  0.00  0.00    -0.004 A 
ENDROOT
TORSDOF 0
ENDMDL
