MODEL 1
REMARK minimizedAffinity -2.26989198
REMARK minimizedRMSD -1
REMARK  0 active torsions:
REMARK  status: ('A' for Active; 'I' for Inactive)
ROOT
ATOM      1  C   UNL d   1      -0.132  -1.741  -0.683  0.00  0.00     0.172 C 
ATOM      2  N   UNL d   1      -1.380  -1.782  -1.409  0.00  0.00    -0.070 N 
ATOM      3  C1  UNL d   1      -1.533  -1.534  -2.747  0.00  0.00    -0.004 A 
ATOM      4  C2  UNL d   1      -2.870  -1.674  -3.052  0.00  0.00    -0.047 A 
ATOM      5  C3  UNL d   1      -3.543  -2.017  -1.855  0.00  0.00    -0.047 A 
ATOM      6  C4  UNL d   1      -2.597  -2.077  -0.854  0.00  0.00    -0.004 A 
ENDROOT
TORSDOF 0
ENDMDL
