MODEL 1
REMARK minimizedAffinity -1.71978557
REMARK minimizedRMSD -1
REMARK  0 active torsions:
REMARK  status: ('A' for Active; 'I' for Inactive)
ROOT
ATOM      1  C   UNL d   1      -0.340  -0.889  -0.568  0.00  0.00     0.172 C 
ATOM      2  N   UNL d   1      -0.049   0.134   0.410  0.00  0.00    -0.070 N 
ATOM      3  C1  UNL d   1      -0.854   0.486   1.460  0.00  0.00    -0.004 A 
ATOM      4  C2  UNL d   1      -0.223   1.495   2.155  0.00  0.00    -0.047 A 
ATOM      5  C3  UNL d   1       1.002   1.759   1.499  0.00  0.00    -0.047 A 
ATOM      6  C4  UNL d   1       1.085   0.902   0.422  0.00  0.00    -0.004 A 
ENDROOT
TORSDOF 0
ENDMDL
