MODEL 1
REMARK minimizedAffinity -2.96127844
REMARK minimizedRMSD -1
REMARK  0 active torsions:
REMARK  status: ('A' for Active; 'I' for Inactive)
ROOT
ATOM      1  C   UNL d   1      -0.743  -1.254  -0.215  0.00  0.00     0.172 C 
ATOM      2  N   UNL d   1      -0.233  -0.090   0.471  0.00  0.00    -0.070 N 
ATOM      3  C1  UNL d   1       1.067   0.339   0.458  0.00  0.00    -0.004 A 
ATOM      4  C2  UNL d   1       1.143   1.478   1.230  0.00  0.00    -0.047 A 
ATOM      5  C3  UNL d   1      -0.156   1.742   1.725  0.00  0.00    -0.047 A 
ATOM      6  C4  UNL d   1      -0.989   0.756   1.239  0.00  0.00    -0.004 A 
ENDROOT
TORSDOF 0
ENDMDL
