MODEL 1
REMARK minimizedAffinity 6.1260972
REMARK minimizedRMSD -1
REMARK  1 active torsions:
REMARK  status: ('A' for Active; 'I' for Inactive)
REMARK    1  A    between atoms: C1_2  and  C2_3 
ROOT
ATOM      1  C2  UNL d   1      -3.829   1.356  -2.472  0.00  0.00    -0.077 A 
ATOM      2  C3  UNL d   1      -3.308   0.190  -3.051  0.00  0.00     0.002 A 
ATOM      3  C4  UNL d   1      -3.874  -1.054  -2.766  0.00  0.00     0.002 A 
ATOM      4  C5  UNL d   1      -4.966  -1.144  -1.905  0.00  0.00    -0.004 A 
ATOM      5  C6  UNL d   1      -5.490   0.009  -1.322  0.00  0.00     0.002 A 
ATOM      6  C7  UNL d   1      -4.925   1.253  -1.605  0.00  0.00     0.002 A 
ENDROOT
BRANCH   1   7
ATOM      7  C1  UNL d   1      -3.252   2.703  -2.816  0.00  0.00     0.055 C 
ATOM      8  C   UNL d   1      -2.728   3.415  -1.577  0.00  0.00     0.019 C 
ENDBRANCH   1   7
TORSDOF 1
ENDMDL
