MODEL 1
REMARK minimizedAffinity 13.1947088
REMARK minimizedRMSD -1
REMARK  1 active torsions:
REMARK  status: ('A' for Active; 'I' for Inactive)
REMARK    1  A    between atoms: C1_2  and  C2_3 
ROOT
ATOM      1  C2  UNL d   1      -5.197  -3.247  -4.751  0.00  0.00    -0.077 A 
ATOM      2  C3  UNL d   1      -5.961  -3.867  -5.750  0.00  0.00     0.002 A 
ATOM      3  C4  UNL d   1      -5.826  -5.235  -5.995  0.00  0.00     0.002 A 
ATOM      4  C5  UNL d   1      -4.932  -5.994  -5.243  0.00  0.00    -0.004 A 
ATOM      5  C6  UNL d   1      -4.167  -5.386  -4.249  0.00  0.00     0.002 A 
ATOM      6  C7  UNL d   1      -4.299  -4.019  -4.004  0.00  0.00     0.002 A 
ENDROOT
BRANCH   1   7
ATOM      7  C1  UNL d   1      -5.377  -1.781  -4.452  0.00  0.00     0.055 C 
ATOM      8  C   UNL d   1      -4.291  -1.270  -3.516  0.00  0.00     0.019 C 
ENDBRANCH   1   7
TORSDOF 1
ENDMDL
