MODEL 1
REMARK minimizedAffinity 2.16190672
REMARK minimizedRMSD -1
REMARK  1 active torsions:
REMARK  status: ('A' for Active; 'I' for Inactive)
REMARK    1  A    between atoms: C1_2  and  C2_3 
ROOT
ATOM      1  C2  UNL d   1       1.360  -1.377   1.051  0.00  0.00    -0.077 A 
ATOM      2  C3  UNL d   1       0.109  -0.824   0.746  0.00  0.00     0.002 A 
ATOM      3  C4  UNL d   1      -1.039  -1.618   0.771  0.00  0.00     0.002 A 
ATOM      4  C5  UNL d   1      -0.948  -2.968   1.103  0.00  0.00    -0.004 A 
ATOM      5  C6  UNL d   1       0.293  -3.528   1.406  0.00  0.00     0.002 A 
ATOM      6  C7  UNL d   1       1.441  -2.736   1.381  0.00  0.00     0.002 A 
ENDROOT
BRANCH   1   7
ATOM      7  C1  UNL d   1       2.593  -0.511   1.074  0.00  0.00     0.055 C 
ATOM      8  C   UNL d   1       2.522   0.523   2.188  0.00  0.00     0.019 C 
ENDBRANCH   1   7
TORSDOF 1
ENDMDL
