MODEL 1
REMARK minimizedAffinity -0.208155513
REMARK minimizedRMSD -1
REMARK  0 active torsions:
REMARK  status: ('A' for Active; 'I' for Inactive)
ROOT
ATOM      1  C   UNL d   1       2.296  -5.165   1.071  0.00  0.00     0.078 C 
ATOM      2  C1  UNL d   1       1.339  -4.119   0.585  0.00  0.00    -0.077 A 
ATOM      3  C2  UNL d   1       0.745  -3.215   1.475  0.00  0.00    -0.001 A 
ATOM      4  C3  UNL d   1      -0.152  -2.252   1.009  0.00  0.00     0.003 A 
ATOM      5  C4  UNL d   1      -0.464  -2.185  -0.347  0.00  0.00    -0.005 A 
ATOM      6  C5  UNL d   1       0.120  -3.081  -1.240  0.00  0.00     0.003 A 
ATOM      7  C6  UNL d   1       1.017  -4.044  -0.776  0.00  0.00    -0.001 A 
ENDROOT
TORSDOF 0
ENDMDL
