MODEL 1
REMARK minimizedAffinity 0.593193889
REMARK minimizedRMSD -1
REMARK  0 active torsions:
REMARK  status: ('A' for Active; 'I' for Inactive)
ROOT
ATOM      1  C   UNL d   1       2.063  -1.846   3.000  0.00  0.00     0.078 C 
ATOM      2  C1  UNL d   1       3.438  -2.237   3.455  0.00  0.00    -0.077 A 
ATOM      3  C2  UNL d   1       4.544  -2.101   2.606  0.00  0.00    -0.001 A 
ATOM      4  C3  UNL d   1       5.816  -2.478   3.039  0.00  0.00     0.003 A 
ATOM      5  C4  UNL d   1       5.994  -2.994   4.322  0.00  0.00    -0.005 A 
ATOM      6  C5  UNL d   1       4.899  -3.135   5.172  0.00  0.00     0.003 A 
ATOM      7  C6  UNL d   1       3.626  -2.758   4.741  0.00  0.00    -0.001 A 
ENDROOT
TORSDOF 0
ENDMDL
