MODEL 1
REMARK minimizedAffinity 5.02668762
REMARK minimizedRMSD -1
REMARK  0 active torsions:
REMARK  status: ('A' for Active; 'I' for Inactive)
ROOT
ATOM      1  C   UNL d   1       1.853  -3.043   4.311  0.00  0.00     0.078 C 
ATOM      2  C1  UNL d   1       1.306  -2.430   3.057  0.00  0.00    -0.077 A 
ATOM      3  C2  UNL d   1       0.390  -3.122   2.255  0.00  0.00    -0.001 A 
ATOM      4  C3  UNL d   1      -0.103  -2.543   1.085  0.00  0.00     0.003 A 
ATOM      5  C4  UNL d   1       0.315  -1.269   0.705  0.00  0.00    -0.005 A 
ATOM      6  C5  UNL d   1       1.228  -0.573   1.495  0.00  0.00     0.003 A 
ATOM      7  C6  UNL d   1       1.722  -1.151   2.666  0.00  0.00    -0.001 A 
ENDROOT
TORSDOF 0
ENDMDL
