MODEL 1
REMARK minimizedAffinity 7.83290195
REMARK minimizedRMSD -1
REMARK  0 active torsions:
REMARK  status: ('A' for Active; 'I' for Inactive)
ROOT
ATOM      1  C   UNL d   1      -1.876   4.520  -1.318  0.00  0.00     0.078 C 
ATOM      2  C1  UNL d   1      -2.939   4.169  -0.320  0.00  0.00    -0.077 A 
ATOM      3  C2  UNL d   1      -4.265   4.580  -0.504  0.00  0.00    -0.001 A 
ATOM      4  C3  UNL d   1      -5.242   4.255   0.438  0.00  0.00     0.003 A 
ATOM      5  C4  UNL d   1      -4.903   3.519   1.572  0.00  0.00    -0.005 A 
ATOM      6  C5  UNL d   1      -3.586   3.108   1.765  0.00  0.00     0.003 A 
ATOM      7  C6  UNL d   1      -2.608   3.432   0.823  0.00  0.00    -0.001 A 
ENDROOT
TORSDOF 0
ENDMDL
