MODEL 1
REMARK minimizedAffinity -0.496623844
REMARK minimizedRMSD -1
REMARK  0 active torsions:
REMARK  status: ('A' for Active; 'I' for Inactive)
ROOT
ATOM      1  C   UNL d   1      -1.226  -0.129  -0.212  0.00  0.00     0.078 C 
ATOM      2  C1  UNL d   1      -0.673  -1.486  -0.530  0.00  0.00    -0.077 A 
ATOM      3  C2  UNL d   1       0.157  -2.157   0.376  0.00  0.00    -0.001 A 
ATOM      4  C3  UNL d   1       0.673  -3.416   0.063  0.00  0.00     0.003 A 
ATOM      5  C4  UNL d   1       0.365  -4.014  -1.157  0.00  0.00    -0.005 A 
ATOM      6  C5  UNL d   1      -0.458  -3.353  -2.066  0.00  0.00     0.003 A 
ATOM      7  C6  UNL d   1      -0.975  -2.095  -1.755  0.00  0.00    -0.001 A 
ENDROOT
TORSDOF 0
ENDMDL
