MODEL 1
REMARK minimizedAffinity -2.0530622
REMARK minimizedRMSD -1
REMARK  0 active torsions:
REMARK  status: ('A' for Active; 'I' for Inactive)
ROOT
ATOM      1  C   UNL d   1       2.846   1.404   1.421  0.00  0.00     0.078 C 
ATOM      2  C1  UNL d   1       2.032   0.148   1.517  0.00  0.00    -0.077 A 
ATOM      3  C2  UNL d   1       2.155  -0.709   2.618  0.00  0.00    -0.001 A 
ATOM      4  C3  UNL d   1       1.398  -1.880   2.689  0.00  0.00     0.003 A 
ATOM      5  C4  UNL d   1       0.513  -2.205   1.662  0.00  0.00    -0.005 A 
ATOM      6  C5  UNL d   1       0.386  -1.359   0.562  0.00  0.00     0.003 A 
ATOM      7  C6  UNL d   1       1.142  -0.188   0.489  0.00  0.00    -0.001 A 
ENDROOT
TORSDOF 0
ENDMDL
