MODEL 1
REMARK minimizedAffinity -2.83359504
REMARK minimizedRMSD -1
REMARK  1 active torsions:
REMARK  status: ('A' for Active; 'I' for Inactive)
REMARK    1  A    between atoms: C1_2  and  C2_3 
ROOT
ATOM      1  C2  UNL d   1      -2.257   5.928  -3.528  0.00  0.00    -0.081 A 
ATOM      2  C3  UNL d   1      -1.035   5.975  -2.846  0.00  0.00     0.006 A 
ATOM      3  C4  UNL d   1       0.171   5.982  -3.551  0.00  0.00     0.002 A 
ATOM      4  C5  UNL d   1       0.174   5.949  -4.950  0.00  0.00    -0.080 A 
ATOM      5  C6  UNL d   1       1.461   5.986  -5.720  0.00  0.00     0.076 C 
ATOM      6  C7  UNL d   1      -1.046   5.883  -5.631  0.00  0.00     0.002 A 
ATOM      7  C8  UNL d   1      -2.251   5.876  -4.926  0.00  0.00     0.006 A 
ENDROOT
BRANCH   1   8
ATOM      8  C1  UNL d   1      -3.559   5.986  -2.772  0.00  0.00     0.054 C 
ATOM      9  C   UNL d   1      -3.329   5.944  -1.268  0.00  0.00     0.018 C 
ENDBRANCH   1   8
TORSDOF 1
ENDMDL
