MODEL 1
REMARK minimizedAffinity -2.71773553
REMARK minimizedRMSD -1
REMARK  1 active torsions:
REMARK  status: ('A' for Active; 'I' for Inactive)
REMARK    1  A    between atoms: C1_2  and  C2_3 
ROOT
ATOM      1  C2  UNL d   1      -1.063   5.906  -4.882  0.00  0.00    -0.081 A 
ATOM      2  C3  UNL d   1      -2.415   5.978  -5.238  0.00  0.00     0.006 A 
ATOM      3  C4  UNL d   1      -3.407   5.996  -4.254  0.00  0.00     0.002 A 
ATOM      4  C5  UNL d   1      -3.063   5.950  -2.899  0.00  0.00    -0.080 A 
ATOM      5  C6  UNL d   1      -4.116   5.999  -1.832  0.00  0.00     0.076 C 
ATOM      6  C7  UNL d   1      -1.713   5.860  -2.543  0.00  0.00     0.002 A 
ATOM      7  C8  UNL d   1      -0.721   5.842  -3.527  0.00  0.00     0.006 A 
ENDROOT
BRANCH   1   8
ATOM      8  C1  UNL d   1       0.011   5.952  -5.938  0.00  0.00     0.054 C 
ATOM      9  C   UNL d   1       1.400   5.945  -5.316  0.00  0.00     0.018 C 
ENDBRANCH   1   8
TORSDOF 1
ENDMDL
