MODEL 1
REMARK minimizedAffinity -1.08504212
REMARK minimizedRMSD -1
REMARK  1 active torsions:
REMARK  status: ('A' for Active; 'I' for Inactive)
REMARK    1  A    between atoms: C1_2  and  C2_3 
ROOT
ATOM      1  C2  UNL d   1       0.097   5.932  -4.976  0.00  0.00    -0.081 A 
ATOM      2  C3  UNL d   1      -1.147   5.852  -5.615  0.00  0.00     0.006 A 
ATOM      3  C4  UNL d   1      -2.328   5.850  -4.869  0.00  0.00     0.002 A 
ATOM      4  C5  UNL d   1      -2.286   5.936  -3.473  0.00  0.00    -0.080 A 
ATOM      5  C6  UNL d   1      -3.547   5.966  -2.663  0.00  0.00     0.076 C 
ATOM      6  C7  UNL d   1      -1.043   5.998  -2.834  0.00  0.00     0.002 A 
ATOM      7  C8  UNL d   1       0.138   5.999  -3.579  0.00  0.00     0.006 A 
ENDROOT
BRANCH   1   8
ATOM      8  C1  UNL d   1       1.369   5.999  -5.780  0.00  0.00     0.054 C 
ATOM      9  C   UNL d   1       2.595   5.995  -4.878  0.00  0.00     0.018 C 
ENDBRANCH   1   8
TORSDOF 1
ENDMDL
