MODEL 1
REMARK minimizedAffinity 5.77427197
REMARK minimizedRMSD -1
REMARK  1 active torsions:
REMARK  status: ('A' for Active; 'I' for Inactive)
REMARK    1  A    between atoms: C1_2  and  C2_3 
ROOT
ATOM      1  C2  UNL d   1       4.090   4.291  -5.157  0.00  0.00    -0.081 A 
ATOM      2  C3  UNL d   1       3.028   3.647  -4.512  0.00  0.00     0.006 A 
ATOM      3  C4  UNL d   1       1.729   4.151  -4.611  0.00  0.00     0.002 A 
ATOM      4  C5  UNL d   1       1.469   5.301  -5.364  0.00  0.00    -0.080 A 
ATOM      5  C6  UNL d   1       0.075   5.835  -5.504  0.00  0.00     0.076 C 
ATOM      6  C7  UNL d   1       2.534   5.955  -5.994  0.00  0.00     0.002 A 
ATOM      7  C8  UNL d   1       3.833   5.452  -5.894  0.00  0.00     0.006 A 
ENDROOT
BRANCH   1   8
ATOM      8  C1  UNL d   1       5.482   3.713  -5.105  0.00  0.00     0.054 C 
ATOM      9  C   UNL d   1       5.609   2.675  -3.999  0.00  0.00     0.018 C 
ENDBRANCH   1   8
TORSDOF 1
ENDMDL
