MODEL 1
REMARK minimizedAffinity 2.68318534
REMARK minimizedRMSD -1
REMARK  1 active torsions:
REMARK  status: ('A' for Active; 'I' for Inactive)
REMARK    1  A    between atoms: C1_2  and  C2_3 
ROOT
ATOM      1  C2  UNL d   1      -1.589   5.937  -4.297  0.00  0.00    -0.081 A 
ATOM      2  C3  UNL d   1      -1.173   5.941  -5.634  0.00  0.00     0.006 A 
ATOM      3  C4  UNL d   1       0.187   5.956  -5.952  0.00  0.00     0.002 A 
ATOM      4  C5  UNL d   1       1.153   5.959  -4.940  0.00  0.00    -0.080 A 
ATOM      5  C6  UNL d   1       2.616   5.944  -5.268  0.00  0.00     0.076 C 
ATOM      6  C7  UNL d   1       0.737   5.972  -3.605  0.00  0.00     0.002 A 
ATOM      7  C8  UNL d   1      -0.623   5.957  -3.286  0.00  0.00     0.006 A 
ENDROOT
BRANCH   1   8
ATOM      8  C1  UNL d   1      -3.054   5.855  -3.951  0.00  0.00     0.054 C 
ATOM      9  C   UNL d   1      -3.924   5.960  -5.196  0.00  0.00     0.018 C 
ENDBRANCH   1   8
TORSDOF 1
ENDMDL
