MODEL 1
REMARK minimizedAffinity 5.58240557
REMARK minimizedRMSD -1
REMARK  1 active torsions:
REMARK  status: ('A' for Active; 'I' for Inactive)
REMARK    1  A    between atoms: C1_2  and  C2_3 
ROOT
ATOM      1  C2  UNL d   1       1.117   0.826   1.347  0.00  0.00    -0.081 A 
ATOM      2  C3  UNL d   1       1.079   1.933   0.490  0.00  0.00     0.006 A 
ATOM      3  C4  UNL d   1       2.258   2.594   0.137  0.00  0.00     0.002 A 
ATOM      4  C5  UNL d   1       3.493   2.156   0.627  0.00  0.00    -0.080 A 
ATOM      5  C6  UNL d   1       4.768   2.839   0.231  0.00  0.00     0.076 C 
ATOM      6  C7  UNL d   1       3.528   1.061   1.497  0.00  0.00     0.002 A 
ATOM      7  C8  UNL d   1       2.350   0.400   1.852  0.00  0.00     0.006 A 
ENDROOT
BRANCH   1   8
ATOM      8  C1  UNL d   1      -0.145   0.071   1.679  0.00  0.00     0.054 C 
ATOM      9  C   UNL d   1      -1.062  -0.033   0.469  0.00  0.00     0.018 C 
ENDBRANCH   1   8
TORSDOF 1
ENDMDL
