MODEL 1
REMARK minimizedAffinity -0.750582159
REMARK minimizedRMSD -1
REMARK  1 active torsions:
REMARK  status: ('A' for Active; 'I' for Inactive)
REMARK    1  A    between atoms: C1_2  and  C2_3 
ROOT
ATOM      1  C2  UNL d   1       0.008   5.905  -4.812  0.00  0.00    -0.081 A 
ATOM      2  C3  UNL d   1       0.285   5.919  -3.439  0.00  0.00     0.006 A 
ATOM      3  C4  UNL d   1      -0.754   5.961  -2.508  0.00  0.00     0.002 A 
ATOM      4  C5  UNL d   1      -2.087   5.981  -2.932  0.00  0.00    -0.080 A 
ATOM      5  C6  UNL d   1      -3.214   5.996  -1.941  0.00  0.00     0.076 C 
ATOM      6  C7  UNL d   1      -2.364   5.985  -4.303  0.00  0.00     0.002 A 
ATOM      7  C8  UNL d   1      -1.324   5.944  -5.235  0.00  0.00     0.006 A 
ENDROOT
BRANCH   1   8
ATOM      8  C1  UNL d   1       1.125   5.795  -5.818  0.00  0.00     0.054 C 
ATOM      9  C   UNL d   1       2.485   5.964  -5.156  0.00  0.00     0.018 C 
ENDBRANCH   1   8
TORSDOF 1
ENDMDL
