MODEL 1
REMARK minimizedAffinity 2.69194722
REMARK minimizedRMSD -1
REMARK  1 active torsions:
REMARK  status: ('A' for Active; 'I' for Inactive)
REMARK    1  A    between atoms: C1_2  and  C2_3 
ROOT
ATOM      1  C2  UNL d   1      -0.119  -1.553  -3.385  0.00  0.00    -0.081 A 
ATOM      2  C3  UNL d   1      -1.100  -1.905  -4.321  0.00  0.00     0.006 A 
ATOM      3  C4  UNL d   1      -2.408  -2.172  -3.909  0.00  0.00     0.002 A 
ATOM      4  C5  UNL d   1      -2.758  -2.084  -2.558  0.00  0.00    -0.080 A 
ATOM      5  C6  UNL d   1      -4.166  -2.338  -2.107  0.00  0.00     0.076 C 
ATOM      6  C7  UNL d   1      -1.775  -1.749  -1.621  0.00  0.00     0.002 A 
ATOM      7  C8  UNL d   1      -0.467  -1.483  -2.032  0.00  0.00     0.006 A 
ENDROOT
BRANCH   1   8
ATOM      8  C1  UNL d   1       1.277  -1.201  -3.833  0.00  0.00     0.054 C 
ATOM      9  C   UNL d   1       1.285  -0.686  -5.265  0.00  0.00     0.018 C 
ENDBRANCH   1   8
TORSDOF 1
ENDMDL
