MODEL 1
REMARK minimizedAffinity 2.12955952
REMARK minimizedRMSD -1
REMARK  2 active torsions:
REMARK  status: ('A' for Active; 'I' for Inactive)
REMARK    1  A    between atoms: C1_2  and  C2_3 
REMARK    2  A    between atoms: C2_3  and  C3_4 
ROOT
ATOM      1  C3  UNL d   1       1.474  -1.185   0.289  0.00  0.00    -0.075 A 
ATOM      2  C4  UNL d   1       0.451  -1.183   1.248  0.00  0.00     0.002 A 
ATOM      3  C5  UNL d   1       0.726  -1.505   2.578  0.00  0.00     0.002 A 
ATOM      4  C6  UNL d   1       2.022  -1.842   2.962  0.00  0.00    -0.004 A 
ATOM      5  C7  UNL d   1       3.043  -1.863   2.015  0.00  0.00     0.002 A 
ATOM      6  C8  UNL d   1       2.772  -1.537   0.685  0.00  0.00     0.002 A 
ENDROOT
BRANCH   1   7
ATOM      7  C2  UNL d   1       1.189  -0.809  -1.145  0.00  0.00     0.056 C 
BRANCH   7   8
ATOM      8  C1  UNL d   1       0.868   0.676  -1.349  0.00  0.00     0.007 C 
ATOM      9  C   UNL d   1       1.968   1.602  -0.846  0.00  0.00     0.009 C 
ENDBRANCH   7   8
ENDBRANCH   1   7
TORSDOF 2
ENDMDL
