MODEL 1
REMARK minimizedAffinity -2.44502616
REMARK minimizedRMSD -1
REMARK  2 active torsions:
REMARK  status: ('A' for Active; 'I' for Inactive)
REMARK    1  A    between atoms: C1_2  and  C2_3 
REMARK    2  A    between atoms: C2_3  and  C3_4 
ROOT
ATOM      1  C3  UNL d   1       3.491  -2.583   2.507  0.00  0.00    -0.075 A 
ATOM      2  C4  UNL d   1       3.725  -3.950   2.715  0.00  0.00     0.002 A 
ATOM      3  C5  UNL d   1       4.147  -4.416   3.960  0.00  0.00     0.002 A 
ATOM      4  C6  UNL d   1       4.350  -3.521   5.009  0.00  0.00    -0.004 A 
ATOM      5  C7  UNL d   1       4.136  -2.159   4.810  0.00  0.00     0.002 A 
ATOM      6  C8  UNL d   1       3.709  -1.691   3.566  0.00  0.00     0.002 A 
ENDROOT
BRANCH   1   7
ATOM      7  C2  UNL d   1       3.005  -2.077   1.170  0.00  0.00     0.056 C 
BRANCH   7   8
ATOM      8  C1  UNL d   1       1.591  -2.541   0.803  0.00  0.00     0.007 C 
ATOM      9  C   UNL d   1       0.558  -2.223   1.876  0.00  0.00     0.009 C 
ENDBRANCH   7   8
ENDBRANCH   1   7
TORSDOF 2
ENDMDL
