MODEL 1
REMARK minimizedAffinity 6.65359259
REMARK minimizedRMSD -1
REMARK  2 active torsions:
REMARK  status: ('A' for Active; 'I' for Inactive)
REMARK    1  A    between atoms: C1_2  and  C2_3 
REMARK    2  A    between atoms: C2_3  and  C3_4 
ROOT
ATOM      1  C3  UNL d   1       3.726   0.379  -0.215  0.00  0.00    -0.075 A 
ATOM      2  C4  UNL d   1       3.798   1.738   0.124  0.00  0.00     0.002 A 
ATOM      3  C5  UNL d   1       4.931   2.252   0.756  0.00  0.00     0.002 A 
ATOM      4  C6  UNL d   1       6.000   1.413   1.066  0.00  0.00    -0.004 A 
ATOM      5  C7  UNL d   1       5.932   0.058   0.749  0.00  0.00     0.002 A 
ATOM      6  C8  UNL d   1       4.801  -0.457   0.113  0.00  0.00     0.002 A 
ENDROOT
BRANCH   1   7
ATOM      7  C2  UNL d   1       2.515  -0.177  -0.925  0.00  0.00     0.056 C 
BRANCH   7   8
ATOM      8  C1  UNL d   1       1.506  -0.859   0.004  0.00  0.00     0.007 C 
ATOM      9  C   UNL d   1       0.283  -0.000   0.297  0.00  0.00     0.009 C 
ENDBRANCH   7   8
ENDBRANCH   1   7
TORSDOF 2
ENDMDL
