MODEL 1
REMARK minimizedAffinity 1.02194309
REMARK minimizedRMSD -1
REMARK  2 active torsions:
REMARK  status: ('A' for Active; 'I' for Inactive)
REMARK    1  A    between atoms: C1_2  and  C2_3 
REMARK    2  A    between atoms: C2_3  and  C3_4 
ROOT
ATOM      1  C3  UNL d   1       1.523  -3.573   2.249  0.00  0.00    -0.075 A 
ATOM      2  C4  UNL d   1       2.245  -3.760   1.061  0.00  0.00     0.002 A 
ATOM      3  C5  UNL d   1       3.584  -4.151   1.100  0.00  0.00     0.002 A 
ATOM      4  C6  UNL d   1       4.219  -4.349   2.324  0.00  0.00    -0.004 A 
ATOM      5  C7  UNL d   1       3.516  -4.150   3.510  0.00  0.00     0.002 A 
ATOM      6  C8  UNL d   1       2.176  -3.763   3.474  0.00  0.00     0.002 A 
ENDROOT
BRANCH   1   7
ATOM      7  C2  UNL d   1       0.066  -3.178   2.213  0.00  0.00     0.056 C 
BRANCH   7   8
ATOM      8  C1  UNL d   1      -0.333  -2.166   3.292  0.00  0.00     0.007 C 
ATOM      9  C   UNL d   1      -0.737  -0.812   2.725  0.00  0.00     0.009 C 
ENDBRANCH   7   8
ENDBRANCH   1   7
TORSDOF 2
ENDMDL
