MODEL 1
REMARK minimizedAffinity 5.53747034
REMARK minimizedRMSD -1
REMARK  2 active torsions:
REMARK  status: ('A' for Active; 'I' for Inactive)
REMARK    1  A    between atoms: C1_2  and  C2_3 
REMARK    2  A    between atoms: C2_3  and  C3_4 
ROOT
ATOM      1  C3  UNL d   1      -3.002   0.208  -4.930  0.00  0.00    -0.075 A 
ATOM      2  C4  UNL d   1      -2.386  -1.002  -5.281  0.00  0.00     0.002 A 
ATOM      3  C5  UNL d   1      -1.881  -1.851  -4.295  0.00  0.00     0.002 A 
ATOM      4  C6  UNL d   1      -1.975  -1.497  -2.951  0.00  0.00    -0.004 A 
ATOM      5  C7  UNL d   1      -2.570  -0.289  -2.593  0.00  0.00     0.002 A 
ATOM      6  C8  UNL d   1      -3.080   0.560  -3.576  0.00  0.00     0.002 A 
ENDROOT
BRANCH   1   7
ATOM      7  C2  UNL d   1      -3.577   1.117  -5.990  0.00  0.00     0.056 C 
BRANCH   7   8
ATOM      8  C1  UNL d   1      -5.108   1.173  -6.000  0.00  0.00     0.007 C 
ATOM      9  C   UNL d   1      -5.756   0.003  -5.273  0.00  0.00     0.009 C 
ENDBRANCH   7   8
ENDBRANCH   1   7
TORSDOF 2
ENDMDL
