MODEL 1
REMARK minimizedAffinity 1.38111186
REMARK minimizedRMSD -1
REMARK  2 active torsions:
REMARK  status: ('A' for Active; 'I' for Inactive)
REMARK    1  A    between atoms: C1_2  and  C2_3 
REMARK    2  A    between atoms: C2_3  and  C3_4 
ROOT
ATOM      1  C3  UNL d   1      -4.451   0.369  -4.910  0.00  0.00    -0.075 A 
ATOM      2  C4  UNL d   1      -3.541   0.389  -5.977  0.00  0.00     0.002 A 
ATOM      3  C5  UNL d   1      -2.384  -0.389  -5.936  0.00  0.00     0.002 A 
ATOM      4  C6  UNL d   1      -2.116  -1.187  -4.825  0.00  0.00    -0.004 A 
ATOM      5  C7  UNL d   1      -3.005  -1.202  -3.752  0.00  0.00     0.002 A 
ATOM      6  C8  UNL d   1      -4.166  -0.428  -3.793  0.00  0.00     0.002 A 
ENDROOT
BRANCH   1   7
ATOM      7  C2  UNL d   1      -5.720   1.186  -4.961  0.00  0.00     0.056 C 
BRANCH   7   8
ATOM      8  C1  UNL d   1      -5.519   2.671  -4.637  0.00  0.00     0.007 C 
ATOM      9  C   UNL d   1      -5.999   3.597  -5.747  0.00  0.00     0.009 C 
ENDBRANCH   7   8
ENDBRANCH   1   7
TORSDOF 2
ENDMDL
