MODEL 1
REMARK minimizedAffinity -4.29594707
REMARK minimizedRMSD -1
REMARK  2 active torsions:
REMARK  status: ('A' for Active; 'I' for Inactive)
REMARK    1  A    between atoms: C1_2  and  C2_3 
REMARK    2  A    between atoms: C2_3  and  C3_4 
ROOT
ATOM      1  C3  UNL d   1       4.642   3.528  -5.910  0.00  0.00    -0.075 A 
ATOM      2  C4  UNL d   1       3.241   3.526  -5.978  0.00  0.00     0.002 A 
ATOM      3  C5  UNL d   1       2.531   4.727  -5.987  0.00  0.00     0.002 A 
ATOM      4  C6  UNL d   1       3.209   5.942  -5.917  0.00  0.00    -0.004 A 
ATOM      5  C7  UNL d   1       4.600   5.955  -5.832  0.00  0.00     0.002 A 
ATOM      6  C8  UNL d   1       5.313   4.755  -5.828  0.00  0.00     0.002 A 
ENDROOT
BRANCH   1   7
ATOM      7  C2  UNL d   1       5.417   2.232  -5.930  0.00  0.00     0.056 C 
BRANCH   7   8
ATOM      8  C1  UNL d   1       4.960   1.215  -4.880  0.00  0.00     0.007 C 
ATOM      9  C   UNL d   1       3.822   0.325  -5.361  0.00  0.00     0.009 C 
ENDBRANCH   7   8
ENDBRANCH   1   7
TORSDOF 2
ENDMDL
