MODEL 1
REMARK minimizedAffinity 6.56281424
REMARK minimizedRMSD -1
REMARK  2 active torsions:
REMARK  status: ('A' for Active; 'I' for Inactive)
REMARK    1  A    between atoms: C1_2  and  C2_3 
REMARK    2  A    between atoms: C2_3  and  C3_4 
ROOT
ATOM      1  C3  UNL d   1       2.331  -2.858   1.411  0.00  0.00    -0.075 A 
ATOM      2  C4  UNL d   1       2.475  -3.804   0.386  0.00  0.00     0.002 A 
ATOM      3  C5  UNL d   1       3.401  -4.841   0.503  0.00  0.00     0.002 A 
ATOM      4  C6  UNL d   1       4.202  -4.938   1.639  0.00  0.00    -0.004 A 
ATOM      5  C7  UNL d   1       4.079  -3.994   2.657  0.00  0.00     0.002 A 
ATOM      6  C8  UNL d   1       3.150  -2.958   2.544  0.00  0.00     0.002 A 
ENDROOT
BRANCH   1   7
ATOM      7  C2  UNL d   1       1.310  -1.751   1.303  0.00  0.00     0.056 C 
BRANCH   7   8
ATOM      8  C1  UNL d   1       0.621  -1.407   2.628  0.00  0.00     0.007 C 
ATOM      9  C   UNL d   1      -0.712  -2.120   2.814  0.00  0.00     0.009 C 
ENDBRANCH   7   8
ENDBRANCH   1   7
TORSDOF 2
ENDMDL
