MODEL 1
REMARK minimizedAffinity 27.5776939
REMARK minimizedRMSD -1
REMARK  0 active torsions:
REMARK  status: ('A' for Active; 'I' for Inactive)
ROOT
ATOM      1  C   UNL d   1       1.872  -0.436  -1.664  0.00  0.00    -0.002 A 
ATOM      2  C1  UNL d   1       2.776  -0.009  -2.626  0.00  0.00     0.010 A 
ATOM      3  C2  UNL d   1       3.629   1.067  -2.371  0.00  0.00     0.041 A 
ATOM      4  C3  UNL d   1       3.558   1.712  -1.121  0.00  0.00    -0.075 A 
ATOM      5  S   UNL d   1       4.504   3.051  -0.587  0.00  0.00     0.015 SA
ATOM      6  C4  UNL d   1       3.730   3.087   0.932  0.00  0.00     0.022 A 
ATOM      7  C5  UNL d   1       2.771   2.109   1.045  0.00  0.00     0.026 A 
ATOM      8  C6  UNL d   1       2.656   1.300  -0.136  0.00  0.00    -0.082 A 
ATOM      9  C7  UNL d   1       1.805   0.207  -0.424  0.00  0.00     0.045 A 
ENDROOT
TORSDOF 0
ENDMDL
