MODEL 1
REMARK minimizedAffinity 4.43502378
REMARK minimizedRMSD -1
REMARK  0 active torsions:
REMARK  status: ('A' for Active; 'I' for Inactive)
ROOT
ATOM      1  C   UNL d   1      -1.040  -2.456  -0.812  0.00  0.00    -0.002 A 
ATOM      2  C1  UNL d   1      -0.510  -3.738  -0.857  0.00  0.00     0.010 A 
ATOM      3  C2  UNL d   1      -0.483  -4.536   0.288  0.00  0.00     0.041 A 
ATOM      4  C3  UNL d   1      -1.005  -4.020   1.491  0.00  0.00    -0.075 A 
ATOM      5  S   UNL d   1      -1.079  -4.817   3.018  0.00  0.00     0.015 SA
ATOM      6  C4  UNL d   1      -1.817  -3.476   3.766  0.00  0.00     0.022 A 
ATOM      7  C5  UNL d   1      -2.010  -2.436   2.887  0.00  0.00     0.026 A 
ATOM      8  C6  UNL d   1      -1.545  -2.733   1.561  0.00  0.00    -0.082 A 
ATOM      9  C7  UNL d   1      -1.557  -1.948   0.383  0.00  0.00     0.045 A 
ENDROOT
TORSDOF 0
ENDMDL
