MODEL 1
REMARK minimizedAffinity 11.681839
REMARK minimizedRMSD -1
REMARK  0 active torsions:
REMARK  status: ('A' for Active; 'I' for Inactive)
ROOT
ATOM      1  C   UNL d   1       2.033   0.873  -2.265  0.00  0.00    -0.002 A 
ATOM      2  C1  UNL d   1       1.580   0.182  -1.150  0.00  0.00     0.010 A 
ATOM      3  C2  UNL d   1       2.001   0.546   0.131  0.00  0.00     0.041 A 
ATOM      4  C3  UNL d   1       2.892   1.628   0.273  0.00  0.00    -0.075 A 
ATOM      5  S   UNL d   1       3.541   2.252   1.743  0.00  0.00     0.015 SA
ATOM      6  C4  UNL d   1       4.434   3.452   0.926  0.00  0.00     0.022 A 
ATOM      7  C5  UNL d   1       4.253   3.392  -0.435  0.00  0.00     0.026 A 
ATOM      8  C6  UNL d   1       3.360   2.340  -0.834  0.00  0.00    -0.082 A 
ATOM      9  C7  UNL d   1       2.916   1.946  -2.119  0.00  0.00     0.045 A 
ENDROOT
TORSDOF 0
ENDMDL
