MODEL 1
REMARK minimizedAffinity 14.5983686
REMARK minimizedRMSD -1
REMARK  0 active torsions:
REMARK  status: ('A' for Active; 'I' for Inactive)
ROOT
ATOM      1  C   UNL d   1      -1.280  -2.259   0.027  0.00  0.00    -0.002 A 
ATOM      2  C1  UNL d   1      -1.914  -1.718   1.136  0.00  0.00     0.010 A 
ATOM      3  C2  UNL d   1      -2.004  -2.441   2.327  0.00  0.00     0.041 A 
ATOM      4  C3  UNL d   1      -1.438  -3.730   2.386  0.00  0.00    -0.075 A 
ATOM      5  S   UNL d   1      -1.426  -4.799   3.739  0.00  0.00     0.015 SA
ATOM      6  C4  UNL d   1      -0.578  -6.000   2.876  0.00  0.00     0.022 A 
ATOM      7  C5  UNL d   1      -0.303  -5.612   1.587  0.00  0.00     0.026 A 
ATOM      8  C6  UNL d   1      -0.794  -4.297   1.283  0.00  0.00    -0.082 A 
ATOM      9  C7  UNL d   1      -0.720  -3.538   0.090  0.00  0.00     0.045 A 
ENDROOT
TORSDOF 0
ENDMDL
