MODEL 1
REMARK minimizedAffinity 18.0675278
REMARK minimizedRMSD -1
REMARK  0 active torsions:
REMARK  status: ('A' for Active; 'I' for Inactive)
ROOT
ATOM      1  C   UNL d   1      -0.752  -5.826   1.157  0.00  0.00    -0.002 A 
ATOM      2  C1  UNL d   1      -0.789  -6.000  -0.219  0.00  0.00     0.010 A 
ATOM      3  C2  UNL d   1      -1.148  -4.944  -1.059  0.00  0.00     0.041 A 
ATOM      4  C3  UNL d   1      -1.471  -3.697  -0.487  0.00  0.00    -0.075 A 
ATOM      5  S   UNL d   1      -1.938  -2.261  -1.319  0.00  0.00     0.015 SA
ATOM      6  C4  UNL d   1      -2.100  -1.384   0.133  0.00  0.00     0.022 A 
ATOM      7  C5  UNL d   1      -1.808  -2.152   1.235  0.00  0.00     0.026 A 
ATOM      8  C6  UNL d   1      -1.441  -3.498   0.896  0.00  0.00    -0.082 A 
ATOM      9  C7  UNL d   1      -1.074  -4.588   1.721  0.00  0.00     0.045 A 
ENDROOT
TORSDOF 0
ENDMDL
