MODEL 1
REMARK minimizedAffinity 16.2185135
REMARK minimizedRMSD -1
REMARK  0 active torsions:
REMARK  status: ('A' for Active; 'I' for Inactive)
ROOT
ATOM      1  C   UNL d   1       2.300   0.014  -2.083  0.00  0.00    -0.002 A 
ATOM      2  C1  UNL d   1       3.111   0.529  -3.084  0.00  0.00     0.010 A 
ATOM      3  C2  UNL d   1       3.907   1.652  -2.846  0.00  0.00     0.041 A 
ATOM      4  C3  UNL d   1       3.874   2.253  -1.572  0.00  0.00    -0.075 A 
ATOM      5  S   UNL d   1       4.763   3.635  -1.051  0.00  0.00     0.015 SA
ATOM      6  C4  UNL d   1       4.088   3.574   0.512  0.00  0.00     0.022 A 
ATOM      7  C5  UNL d   1       3.203   2.531   0.651  0.00  0.00     0.026 A 
ATOM      8  C6  UNL d   1       3.066   1.752  -0.548  0.00  0.00    -0.082 A 
ATOM      9  C7  UNL d   1       2.270   0.613  -0.820  0.00  0.00     0.045 A 
ENDROOT
TORSDOF 0
ENDMDL
