MODEL 1
REMARK minimizedAffinity 11.2257595
REMARK minimizedRMSD -1
REMARK  0 active torsions:
REMARK  status: ('A' for Active; 'I' for Inactive)
ROOT
ATOM      1  C   UNL d   1      -4.804   2.921   5.955  0.00  0.00    -0.002 A 
ATOM      2  C1  UNL d   1      -5.997   2.213   5.999  0.00  0.00     0.010 A 
ATOM      3  C2  UNL d   1      -5.996   0.818   5.938  0.00  0.00     0.041 A 
ATOM      4  C3  UNL d   1      -4.766   0.140   5.833  0.00  0.00    -0.075 A 
ATOM      5  S   UNL d   1      -4.522  -1.564   5.744  0.00  0.00     0.015 SA
ATOM      6  C4  UNL d   1      -2.829  -1.392   5.647  0.00  0.00     0.022 A 
ATOM      7  C5  UNL d   1      -2.442  -0.073   5.679  0.00  0.00     0.026 A 
ATOM      8  C6  UNL d   1      -3.552   0.832   5.788  0.00  0.00    -0.082 A 
ATOM      9  C7  UNL d   1      -3.585   2.246   5.851  0.00  0.00     0.045 A 
ENDROOT
TORSDOF 0
ENDMDL
