MODEL 1
REMARK minimizedAffinity 15.0624361
REMARK minimizedRMSD -1
REMARK  0 active torsions:
REMARK  status: ('A' for Active; 'I' for Inactive)
ROOT
ATOM      1  C   UNL d   1      -0.826  -1.187  -1.588  0.00  0.00    -0.002 A 
ATOM      2  C1  UNL d   1      -0.882  -1.869  -2.795  0.00  0.00     0.010 A 
ATOM      3  C2  UNL d   1      -0.717  -3.254  -2.837  0.00  0.00     0.041 A 
ATOM      4  C3  UNL d   1      -0.496  -3.951  -1.632  0.00  0.00    -0.075 A 
ATOM      5  S   UNL d   1      -0.267  -5.649  -1.440  0.00  0.00     0.015 SA
ATOM      6  C4  UNL d   1      -0.091  -5.510   0.249  0.00  0.00     0.022 A 
ATOM      7  C5  UNL d   1      -0.201  -4.207   0.673  0.00  0.00     0.026 A 
ATOM      8  C6  UNL d   1      -0.436  -3.287  -0.404  0.00  0.00    -0.082 A 
ATOM      9  C7  UNL d   1      -0.606  -1.881  -0.395  0.00  0.00     0.045 A 
ENDROOT
TORSDOF 0
ENDMDL
