MODEL 1
REMARK minimizedAffinity 26.5205517
REMARK minimizedRMSD -1
REMARK  0 active torsions:
REMARK  status: ('A' for Active; 'I' for Inactive)
ROOT
ATOM      1  C   UNL d   1      -0.751  -3.935   0.991  0.00  0.00    -0.002 A 
ATOM      2  C1  UNL d   1      -0.508  -4.986   0.119  0.00  0.00     0.010 A 
ATOM      3  C2  UNL d   1      -0.640  -4.810  -1.260  0.00  0.00     0.041 A 
ATOM      4  C3  UNL d   1      -1.021  -3.546  -1.752  0.00  0.00    -0.075 A 
ATOM      5  S   UNL d   1      -1.244  -3.096  -3.401  0.00  0.00     0.015 SA
ATOM      6  C4  UNL d   1      -1.665  -1.498  -2.987  0.00  0.00     0.022 A 
ATOM      7  C5  UNL d   1      -1.642  -1.294  -1.627  0.00  0.00     0.026 A 
ATOM      8  C6  UNL d   1      -1.270  -2.471  -0.893  0.00  0.00    -0.082 A 
ATOM      9  C7  UNL d   1      -1.129  -2.682   0.500  0.00  0.00     0.045 A 
ENDROOT
TORSDOF 0
ENDMDL
