MODEL 1
REMARK minimizedAffinity 18.8790817
REMARK minimizedRMSD -1
REMARK  0 active torsions:
REMARK  status: ('A' for Active; 'I' for Inactive)
ROOT
ATOM      1  C   UNL d   1       0.814   3.368  -5.375  0.00  0.00    -0.002 A 
ATOM      2  C1  UNL d   1       0.904   2.642  -4.196  0.00  0.00     0.010 A 
ATOM      3  C2  UNL d   1      -0.237   2.085  -3.616  0.00  0.00     0.041 A 
ATOM      4  C3  UNL d   1      -1.483   2.272  -4.248  0.00  0.00    -0.075 A 
ATOM      5  S   UNL d   1      -3.014   1.682  -3.720  0.00  0.00     0.015 SA
ATOM      6  C4  UNL d   1      -3.824   2.379  -5.048  0.00  0.00     0.022 A 
ATOM      7  C5  UNL d   1      -2.962   3.050  -5.883  0.00  0.00     0.026 A 
ATOM      8  C6  UNL d   1      -1.598   2.998  -5.436  0.00  0.00    -0.082 A 
ATOM      9  C7  UNL d   1      -0.423   3.551  -5.999  0.00  0.00     0.045 A 
ENDROOT
TORSDOF 0
ENDMDL
