MODEL 1
REMARK minimizedAffinity 17.6748924
REMARK minimizedRMSD -1
REMARK  0 active torsions:
REMARK  status: ('A' for Active; 'I' for Inactive)
ROOT
ATOM      1  C   UNL d   1      -5.164   4.298   3.462  0.00  0.00    -0.002 A 
ATOM      2  C1  UNL d   1      -5.998   5.364   3.152  0.00  0.00     0.010 A 
ATOM      3  C2  UNL d   1      -5.960   5.950   1.885  0.00  0.00     0.041 A 
ATOM      4  C3  UNL d   1      -5.062   5.441   0.926  0.00  0.00    -0.075 A 
ATOM      5  S   UNL d   1      -4.842   6.000  -0.691  0.00  0.00     0.015 SA
ATOM      6  C4  UNL d   1      -3.637   4.837  -1.008  0.00  0.00     0.022 A 
ATOM      7  C5  UNL d   1      -3.396   4.034   0.082  0.00  0.00     0.026 A 
ATOM      8  C6  UNL d   1      -4.213   4.369   1.214  0.00  0.00    -0.082 A 
ATOM      9  C7  UNL d   1      -4.275   3.797   2.508  0.00  0.00     0.045 A 
ENDROOT
TORSDOF 0
ENDMDL
