MODEL 1
REMARK minimizedAffinity 24.1288261
REMARK minimizedRMSD -1
REMARK  0 active torsions:
REMARK  status: ('A' for Active; 'I' for Inactive)
ROOT
ATOM      1  C   UNL d   1       3.932   4.544   5.972  0.00  0.00    -0.002 A 
ATOM      2  C1  UNL d   1       5.311   4.393   6.000  0.00  0.00     0.010 A 
ATOM      3  C2  UNL d   1       5.999   3.939   4.873  0.00  0.00     0.041 A 
ATOM      4  C3  UNL d   1       5.271   3.639   3.705  0.00  0.00    -0.075 A 
ATOM      5  S   UNL d   1       5.901   3.070   2.204  0.00  0.00     0.015 SA
ATOM      6  C4  UNL d   1       4.354   3.016   1.490  0.00  0.00     0.022 A 
ATOM      7  C5  UNL d   1       3.370   3.418   2.361  0.00  0.00     0.026 A 
ATOM      8  C6  UNL d   1       3.882   3.785   3.652  0.00  0.00    -0.082 A 
ATOM      9  C7  UNL d   1       3.213   4.245   4.811  0.00  0.00     0.045 A 
ENDROOT
TORSDOF 0
ENDMDL
