MODEL 1
REMARK minimizedAffinity 9.45702076
REMARK minimizedRMSD -1
REMARK  0 active torsions:
REMARK  status: ('A' for Active; 'I' for Inactive)
ROOT
ATOM      1  C   UNL d   1      -1.827  -1.301  -1.948  0.00  0.00    -0.002 A 
ATOM      2  C1  UNL d   1      -2.923  -0.663  -1.384  0.00  0.00     0.010 A 
ATOM      3  C2  UNL d   1      -3.292   0.617  -1.801  0.00  0.00     0.041 A 
ATOM      4  C3  UNL d   1      -2.535   1.251  -2.807  0.00  0.00    -0.075 A 
ATOM      5  S   UNL d   1      -2.802   2.817  -3.477  0.00  0.00     0.015 SA
ATOM      6  C4  UNL d   1      -1.468   2.675  -4.529  0.00  0.00     0.022 A 
ATOM      7  C5  UNL d   1      -0.824   1.469  -4.386  0.00  0.00     0.026 A 
ATOM      8  C6  UNL d   1      -1.429   0.628  -3.391  0.00  0.00    -0.082 A 
ATOM      9  C7  UNL d   1      -1.079  -0.670  -2.946  0.00  0.00     0.045 A 
ENDROOT
TORSDOF 0
ENDMDL
