MODEL 1
REMARK minimizedAffinity -4.75554848
REMARK minimizedRMSD -1
REMARK  1 active torsions:
REMARK  status: ('A' for Active; 'I' for Inactive)
REMARK    1  A    between atoms: C3_4  and  O_7 
ROOT
ATOM      1  C   UNL d   1      -0.840   0.180  -0.118  0.00  0.00    -0.033 A 
ATOM      2  C1  UNL d   1      -1.600  -0.580   0.773  0.00  0.00     0.039 A 
ATOM      3  C2  UNL d   1      -1.169  -1.853   1.151  0.00  0.00    -0.080 A 
ATOM      4  C3  UNL d   1       0.021  -2.354   0.632  0.00  0.00     0.150 A 
ATOM      5  C4  UNL d   1       0.785  -1.601  -0.254  0.00  0.00    -0.007 A 
ATOM      6  C5  UNL d   1       0.353  -0.330  -0.631  0.00  0.00     0.039 A 
ENDROOT
BRANCH   4   7
ATOM      7  O   UNL d   1       0.480  -3.593   0.967  0.00  0.00    -0.526 OA
ATOM      8  H5  UNL d   1      -0.165  -4.009   1.564  0.00  0.00     0.418 HD
ENDBRANCH   4   7
TORSDOF 1
ENDMDL
