MODEL 1
REMARK minimizedAffinity -2.66942286
REMARK minimizedRMSD -1
REMARK  1 active torsions:
REMARK  status: ('A' for Active; 'I' for Inactive)
REMARK    1  A    between atoms: C3_4  and  O_7 
ROOT
ATOM      1  C   UNL d   1       0.269   0.569  -0.540  0.00  0.00    -0.033 A 
ATOM      2  C1  UNL d   1       1.002  -0.284  -1.368  0.00  0.00     0.039 A 
ATOM      3  C2  UNL d   1       1.129  -1.636  -1.044  0.00  0.00    -0.080 A 
ATOM      4  C3  UNL d   1       0.518  -2.122   0.109  0.00  0.00     0.150 A 
ATOM      5  C4  UNL d   1      -0.216  -1.279   0.937  0.00  0.00    -0.007 A 
ATOM      6  C5  UNL d   1      -0.341   0.071   0.612  0.00  0.00     0.039 A 
ENDROOT
BRANCH   4   7
ATOM      7  O   UNL d   1       0.619  -3.433   0.470  0.00  0.00    -0.526 OA
ATOM      8  H5  UNL d   1       1.179  -3.889  -0.180  0.00  0.00     0.418 HD
ENDBRANCH   4   7
TORSDOF 1
ENDMDL
