MODEL 1
REMARK minimizedAffinity -3.23659968
REMARK minimizedRMSD -1
REMARK  1 active torsions:
REMARK  status: ('A' for Active; 'I' for Inactive)
REMARK    1  A    between atoms: C3_4  and  O_7 
ROOT
ATOM      1  C   UNL d   1      -0.169   0.444   0.105  0.00  0.00    -0.033 A 
ATOM      2  C1  UNL d   1      -0.920  -0.151   1.121  0.00  0.00     0.039 A 
ATOM      3  C2  UNL d   1      -0.855  -1.531   1.322  0.00  0.00    -0.080 A 
ATOM      4  C3  UNL d   1      -0.037  -2.303   0.502  0.00  0.00     0.150 A 
ATOM      5  C4  UNL d   1       0.717  -1.716  -0.509  0.00  0.00    -0.007 A 
ATOM      6  C5  UNL d   1       0.650  -0.338  -0.709  0.00  0.00     0.039 A 
ENDROOT
BRANCH   4   7
ATOM      7  O   UNL d   1       0.056  -3.655   0.657  0.00  0.00    -0.526 OA
ATOM      8  H5  UNL d   1      -0.542  -3.924   1.375  0.00  0.00     0.418 HD
ENDBRANCH   4   7
TORSDOF 1
ENDMDL
