MODEL 1
REMARK minimizedAffinity -4.74874306
REMARK minimizedRMSD -1
REMARK  1 active torsions:
REMARK  status: ('A' for Active; 'I' for Inactive)
REMARK    1  A    between atoms: C3_4  and  O_7 
ROOT
ATOM      1  C   UNL d   1      -0.043  -3.753  -0.881  0.00  0.00    -0.033 A 
ATOM      2  C1  UNL d   1       0.285  -3.054  -2.045  0.00  0.00     0.039 A 
ATOM      3  C2  UNL d   1       0.444  -1.668  -2.007  0.00  0.00    -0.080 A 
ATOM      4  C3  UNL d   1       0.273  -0.993  -0.802  0.00  0.00     0.150 A 
ATOM      5  C4  UNL d   1      -0.050  -1.683   0.362  0.00  0.00    -0.007 A 
ATOM      6  C5  UNL d   1      -0.209  -3.068   0.322  0.00  0.00     0.039 A 
ENDROOT
BRANCH   4   7
ATOM      7  O   UNL d   1       0.413   0.361  -0.716  0.00  0.00    -0.526 OA
ATOM      8  H5  UNL d   1       0.608   0.706  -1.603  0.00  0.00     0.418 HD
ENDBRANCH   4   7
TORSDOF 1
ENDMDL
