MODEL 1
REMARK minimizedAffinity -5.43881702
REMARK minimizedRMSD -1
REMARK  1 active torsions:
REMARK  status: ('A' for Active; 'I' for Inactive)
REMARK    1  A    between atoms: C3_4  and  O_7 
ROOT
ATOM      1  C   UNL d   1      -0.367  -2.712   1.173  0.00  0.00    -0.033 A 
ATOM      2  C1  UNL d   1      -1.057  -1.627   1.717  0.00  0.00     0.039 A 
ATOM      3  C2  UNL d   1      -0.913  -0.355   1.158  0.00  0.00    -0.080 A 
ATOM      4  C3  UNL d   1      -0.079  -0.183   0.058  0.00  0.00     0.150 A 
ATOM      5  C4  UNL d   1       0.609  -1.261  -0.492  0.00  0.00    -0.007 A 
ATOM      6  C5  UNL d   1       0.464  -2.529   0.068  0.00  0.00     0.039 A 
ENDROOT
BRANCH   4   7
ATOM      7  O   UNL d   1       0.097   1.040  -0.519  0.00  0.00    -0.526 OA
ATOM      8  H5  UNL d   1      -0.417   1.694  -0.016  0.00  0.00     0.418 HD
ENDBRANCH   4   7
TORSDOF 1
ENDMDL
