MODEL 1
REMARK minimizedAffinity -4.26590014
REMARK minimizedRMSD -1
REMARK  1 active torsions:
REMARK  status: ('A' for Active; 'I' for Inactive)
REMARK    1  A    between atoms: C3_4  and  O_7 
ROOT
ATOM      1  C   UNL d   1      -0.933   0.060   0.446  0.00  0.00    -0.033 A 
ATOM      2  C1  UNL d   1       0.295  -0.450   0.022  0.00  0.00     0.039 A 
ATOM      3  C2  UNL d   1       0.533  -1.825   0.057  0.00  0.00    -0.080 A 
ATOM      4  C3  UNL d   1      -0.466  -2.679   0.518  0.00  0.00     0.150 A 
ATOM      5  C4  UNL d   1      -1.694  -2.179   0.939  0.00  0.00    -0.007 A 
ATOM      6  C5  UNL d   1      -1.928  -0.805   0.903  0.00  0.00     0.039 A 
ENDROOT
BRANCH   4   7
ATOM      7  O   UNL d   1      -0.279  -4.028   0.576  0.00  0.00    -0.526 OA
ATOM      8  H5  UNL d   1       0.626  -4.227   0.281  0.00  0.00     0.418 HD
ENDBRANCH   4   7
TORSDOF 1
ENDMDL
