MODEL 1
REMARK minimizedAffinity -4.79331255
REMARK minimizedRMSD -1
REMARK  1 active torsions:
REMARK  status: ('A' for Active; 'I' for Inactive)
REMARK    1  A    between atoms: C3_4  and  O_7 
ROOT
ATOM      1  C   UNL d   1      -0.647   0.234   0.426  0.00  0.00    -0.033 A 
ATOM      2  C1  UNL d   1       0.345  -0.354  -0.361  0.00  0.00     0.039 A 
ATOM      3  C2  UNL d   1       0.661  -1.704  -0.195  0.00  0.00    -0.080 A 
ATOM      4  C3  UNL d   1      -0.020  -2.453   0.760  0.00  0.00     0.150 A 
ATOM      5  C4  UNL d   1      -1.012  -1.874   1.546  0.00  0.00    -0.007 A 
ATOM      6  C5  UNL d   1      -1.326  -0.526   1.379  0.00  0.00     0.039 A 
ENDROOT
BRANCH   4   7
ATOM      7  O   UNL d   1       0.257  -3.772   0.962  0.00  0.00    -0.526 OA
ATOM      8  H5  UNL d   1       0.983  -4.028   0.369  0.00  0.00     0.418 HD
ENDBRANCH   4   7
TORSDOF 1
ENDMDL
