MODEL 1
REMARK minimizedAffinity -1.76240671
REMARK minimizedRMSD -1
REMARK  1 active torsions:
REMARK  status: ('A' for Active; 'I' for Inactive)
REMARK    1  A    between atoms: C3_4  and  O_7 
ROOT
ATOM      1  C   UNL d   1       0.785   1.497  -1.295  0.00  0.00    -0.033 A 
ATOM      2  C1  UNL d   1       1.793   2.441  -1.498  0.00  0.00     0.039 A 
ATOM      3  C2  UNL d   1       2.371   3.093  -0.407  0.00  0.00    -0.080 A 
ATOM      4  C3  UNL d   1       1.934   2.791   0.880  0.00  0.00     0.150 A 
ATOM      5  C4  UNL d   1       0.933   1.848   1.089  0.00  0.00    -0.007 A 
ATOM      6  C5  UNL d   1       0.356   1.199  -0.002  0.00  0.00     0.039 A 
ENDROOT
BRANCH   4   7
ATOM      7  O   UNL d   1       2.464   3.404   1.975  0.00  0.00    -0.526 OA
ATOM      8  H5  UNL d   1       3.125   4.052   1.676  0.00  0.00     0.418 HD
ENDBRANCH   4   7
TORSDOF 1
ENDMDL
