MODEL 1
REMARK minimizedAffinity -2.22330141
REMARK minimizedRMSD -1
REMARK  1 active torsions:
REMARK  status: ('A' for Active; 'I' for Inactive)
REMARK    1  A    between atoms: C3_4  and  O_7 
ROOT
ATOM      1  C   UNL d   1       0.298   1.052  -1.278  0.00  0.00    -0.033 A 
ATOM      2  C1  UNL d   1       0.675   0.060  -2.185  0.00  0.00     0.039 A 
ATOM      3  C2  UNL d   1       0.917  -1.240  -1.740  0.00  0.00    -0.080 A 
ATOM      4  C3  UNL d   1       0.778  -1.536  -0.387  0.00  0.00     0.150 A 
ATOM      5  C4  UNL d   1       0.400  -0.554   0.522  0.00  0.00    -0.007 A 
ATOM      6  C5  UNL d   1       0.159   0.745   0.076  0.00  0.00     0.039 A 
ENDROOT
BRANCH   4   7
ATOM      7  O   UNL d   1       1.009  -2.790   0.096  0.00  0.00    -0.526 OA
ATOM      8  H5  UNL d   1       1.290  -3.357  -0.642  0.00  0.00     0.418 HD
ENDBRANCH   4   7
TORSDOF 1
ENDMDL
