MODEL 1
REMARK minimizedAffinity -4.44026756
REMARK minimizedRMSD -1
REMARK  1 active torsions:
REMARK  status: ('A' for Active; 'I' for Inactive)
REMARK    1  A    between atoms: C3_4  and  O_7 
ROOT
ATOM      1  C   UNL d   1       1.948   2.981  -0.631  0.00  0.00    -0.033 A 
ATOM      2  C1  UNL d   1       2.471   3.988   0.183  0.00  0.00     0.039 A 
ATOM      3  C2  UNL d   1       2.208   3.988   1.554  0.00  0.00    -0.080 A 
ATOM      4  C3  UNL d   1       1.423   2.976   2.099  0.00  0.00     0.150 A 
ATOM      5  C4  UNL d   1       0.902   1.967   1.295  0.00  0.00    -0.007 A 
ATOM      6  C5  UNL d   1       1.165   1.970  -0.074  0.00  0.00     0.039 A 
ENDROOT
BRANCH   4   7
ATOM      7  O   UNL d   1       1.135   2.936   3.431  0.00  0.00    -0.526 OA
ATOM      8  H5  UNL d   1       1.538   3.712   3.856  0.00  0.00     0.418 HD
ENDBRANCH   4   7
TORSDOF 1
ENDMDL
