MODEL 1
REMARK minimizedAffinity -3.14994884
REMARK minimizedRMSD -1
REMARK  1 active torsions:
REMARK  status: ('A' for Active; 'I' for Inactive)
REMARK    1  A    between atoms: C3_4  and  O_7 
ROOT
ATOM      1  C   UNL d   1      -1.153  -2.622   1.122  0.00  0.00    -0.033 A 
ATOM      2  C1  UNL d   1      -0.611  -2.391  -0.143  0.00  0.00     0.039 A 
ATOM      3  C2  UNL d   1      -0.212  -1.105  -0.511  0.00  0.00    -0.080 A 
ATOM      4  C3  UNL d   1      -0.360  -0.059   0.396  0.00  0.00     0.150 A 
ATOM      5  C4  UNL d   1      -0.896  -0.282   1.660  0.00  0.00    -0.007 A 
ATOM      6  C5  UNL d   1      -1.294  -1.567   2.025  0.00  0.00     0.039 A 
ENDROOT
BRANCH   4   7
ATOM      7  O   UNL d   1       0.011   1.215   0.081  0.00  0.00    -0.526 OA
ATOM      8  H5  UNL d   1       0.337   1.223  -0.834  0.00  0.00     0.418 HD
ENDBRANCH   4   7
TORSDOF 1
ENDMDL
