MODEL 1
REMARK minimizedAffinity -4.61865997
REMARK minimizedRMSD -1
REMARK  1 active torsions:
REMARK  status: ('A' for Active; 'I' for Inactive)
REMARK    1  A    between atoms: C3_4  and  O_7 
ROOT
ATOM      1  C   UNL d   1      -0.786   0.060   0.261  0.00  0.00    -0.033 A 
ATOM      2  C1  UNL d   1      -1.277  -0.672   1.344  0.00  0.00     0.039 A 
ATOM      3  C2  UNL d   1      -0.847  -1.984   1.553  0.00  0.00    -0.080 A 
ATOM      4  C3  UNL d   1       0.072  -2.551   0.674  0.00  0.00     0.150 A 
ATOM      5  C4  UNL d   1       0.567  -1.826  -0.404  0.00  0.00    -0.007 A 
ATOM      6  C5  UNL d   1       0.136  -0.516  -0.612  0.00  0.00     0.039 A 
ENDROOT
BRANCH   4   7
ATOM      7  O   UNL d   1       0.516  -3.829   0.835  0.00  0.00    -0.526 OA
ATOM      8  H5  UNL d   1       0.067  -4.217   1.605  0.00  0.00     0.418 HD
ENDBRANCH   4   7
TORSDOF 1
ENDMDL
