MODEL 1
REMARK minimizedAffinity -5.71115971
REMARK minimizedRMSD -1
REMARK  1 active torsions:
REMARK  status: ('A' for Active; 'I' for Inactive)
REMARK    1  A    between atoms: C3_4  and  O_7 
ROOT
ATOM      1  C   UNL d   1      -0.862   0.229   0.536  0.00  0.00    -0.033 A 
ATOM      2  C1  UNL d   1      -1.659  -0.687   1.225  0.00  0.00     0.039 A 
ATOM      3  C2  UNL d   1      -1.298  -2.035   1.267  0.00  0.00    -0.080 A 
ATOM      4  C3  UNL d   1      -0.139  -2.453   0.619  0.00  0.00     0.150 A 
ATOM      5  C4  UNL d   1       0.662  -1.545  -0.066  0.00  0.00    -0.007 A 
ATOM      6  C5  UNL d   1       0.299  -0.199  -0.108  0.00  0.00     0.039 A 
ENDROOT
BRANCH   4   7
ATOM      7  O   UNL d   1       0.252  -3.759   0.628  0.00  0.00    -0.526 OA
ATOM      8  H5  UNL d   1      -0.413  -4.276   1.115  0.00  0.00     0.418 HD
ENDBRANCH   4   7
TORSDOF 1
ENDMDL
