MODEL 1
REMARK minimizedAffinity -2.77124858
REMARK minimizedRMSD -1
REMARK  1 active torsions:
REMARK  status: ('A' for Active; 'I' for Inactive)
REMARK    1  A    between atoms: C3_4  and  O_7 
ROOT
ATOM      1  C   UNL d   1       1.941   3.787   0.134  0.00  0.00    -0.033 A 
ATOM      2  C1  UNL d   1       2.600   3.014  -0.824  0.00  0.00     0.039 A 
ATOM      3  C2  UNL d   1       1.955   1.920  -1.404  0.00  0.00    -0.080 A 
ATOM      4  C3  UNL d   1       0.653   1.611  -1.020  0.00  0.00     0.150 A 
ATOM      5  C4  UNL d   1      -0.010   2.379  -0.069  0.00  0.00    -0.007 A 
ATOM      6  C5  UNL d   1       0.636   3.470   0.511  0.00  0.00     0.039 A 
ENDROOT
BRANCH   4   7
ATOM      7  O   UNL d   1      -0.015   0.550  -1.555  0.00  0.00    -0.526 OA
ATOM      8  H5  UNL d   1       0.577   0.094  -2.176  0.00  0.00     0.418 HD
ENDBRANCH   4   7
TORSDOF 1
ENDMDL
