MODEL 1
REMARK minimizedAffinity -5.00765657
REMARK minimizedRMSD -1
REMARK  1 active torsions:
REMARK  status: ('A' for Active; 'I' for Inactive)
REMARK    1  A    between atoms: C3_4  and  O_7 
ROOT
ATOM      1  C   UNL d   1       0.750  -0.725  -0.383  0.00  0.00    -0.033 A 
ATOM      2  C1  UNL d   1       0.423  -2.082  -0.418  0.00  0.00     0.039 A 
ATOM      3  C2  UNL d   1      -0.610  -2.573   0.383  0.00  0.00    -0.080 A 
ATOM      4  C3  UNL d   1      -1.308  -1.699   1.212  0.00  0.00     0.150 A 
ATOM      5  C4  UNL d   1      -0.989  -0.345   1.248  0.00  0.00    -0.007 A 
ATOM      6  C5  UNL d   1       0.044   0.144   0.449  0.00  0.00     0.039 A 
ENDROOT
BRANCH   4   7
ATOM      7  O   UNL d   1      -2.321  -2.132   2.014  0.00  0.00    -0.526 OA
ATOM      8  H5  UNL d   1      -2.409  -3.094   1.905  0.00  0.00     0.418 HD
ENDBRANCH   4   7
TORSDOF 1
ENDMDL
