MODEL 1
REMARK minimizedAffinity 3.29253888
REMARK minimizedRMSD -1
REMARK  0 active torsions:
REMARK  status: ('A' for Active; 'I' for Inactive)
ROOT
ATOM      1  C   UNL d   1       4.127   2.314  -0.147  0.00  0.00     0.023 A 
ATOM      2  C1  UNL d   1       5.453   2.698  -0.345  0.00  0.00     0.003 A 
ATOM      3  C2  UNL d   1       5.992   3.755   0.391  0.00  0.00     0.048 A 
ATOM      4  C3  UNL d   1       5.200   4.424   1.323  0.00  0.00     0.023 A 
ATOM      5  C4  UNL d   1       3.872   4.043   1.524  0.00  0.00     0.048 A 
ATOM      6  C5  UNL d   1       3.337   2.985   0.786  0.00  0.00     0.003 A 
ATOM      7  I   UNL d   1       6.000   5.999   2.418  0.00  0.00    -0.146 I 
ENDROOT
TORSDOF 0
ENDMDL
