MODEL 1
REMARK minimizedAffinity -2.70783448
REMARK minimizedRMSD -1
REMARK  0 active torsions:
REMARK  status: ('A' for Active; 'I' for Inactive)
ROOT
ATOM      1  C   UNL d   1       3.015  -1.214  -1.272  0.00  0.00     0.023 A 
ATOM      2  C1  UNL d   1       2.936   0.142  -0.953  0.00  0.00     0.003 A 
ATOM      3  C2  UNL d   1       1.762   0.664  -0.405  0.00  0.00     0.048 A 
ATOM      4  C3  UNL d   1       0.672  -0.175  -0.178  0.00  0.00     0.023 A 
ATOM      5  C4  UNL d   1       0.747  -1.532  -0.495  0.00  0.00     0.048 A 
ATOM      6  C5  UNL d   1       1.922  -2.050  -1.044  0.00  0.00     0.003 A 
ATOM      7  I   UNL d   1      -1.076   0.600   0.637  0.00  0.00    -0.146 I 
ENDROOT
TORSDOF 0
ENDMDL
