MODEL 1
REMARK minimizedAffinity 1.24771011
REMARK minimizedRMSD -1
REMARK  0 active torsions:
REMARK  status: ('A' for Active; 'I' for Inactive)
ROOT
ATOM      1  C   UNL d   1       0.737  -0.620  -1.022  0.00  0.00     0.023 A 
ATOM      2  C1  UNL d   1      -0.382  -1.325  -0.579  0.00  0.00     0.003 A 
ATOM      3  C2  UNL d   1      -0.938  -1.043   0.670  0.00  0.00     0.048 A 
ATOM      4  C3  UNL d   1      -0.369  -0.053   1.472  0.00  0.00     0.023 A 
ATOM      5  C4  UNL d   1       0.750   0.656   1.032  0.00  0.00     0.048 A 
ATOM      6  C5  UNL d   1       1.303   0.369  -0.217  0.00  0.00     0.003 A 
ATOM      7  I   UNL d   1      -1.195   0.370   3.332  0.00  0.00    -0.146 I 
ENDROOT
TORSDOF 0
ENDMDL
