MODEL 1
REMARK minimizedAffinity -1.74645281
REMARK minimizedRMSD -1
REMARK  0 active torsions:
REMARK  status: ('A' for Active; 'I' for Inactive)
ROOT
ATOM      1  C   UNL d   1       2.806  -1.313  -1.636  0.00  0.00     0.023 A 
ATOM      2  C1  UNL d   1       3.043  -0.026  -1.153  0.00  0.00     0.003 A 
ATOM      3  C2  UNL d   1       2.013   0.694  -0.544  0.00  0.00     0.048 A 
ATOM      4  C3  UNL d   1       0.748   0.120  -0.420  0.00  0.00     0.023 A 
ATOM      5  C4  UNL d   1       0.506  -1.167  -0.901  0.00  0.00     0.048 A 
ATOM      6  C5  UNL d   1       1.539  -1.883  -1.510  0.00  0.00     0.003 A 
ATOM      7  I   UNL d   1      -0.787   1.190   0.486  0.00  0.00    -0.146 I 
ENDROOT
TORSDOF 0
ENDMDL
