MODEL 1
REMARK minimizedAffinity -4.8957777
REMARK minimizedRMSD -1
REMARK  0 active torsions:
REMARK  status: ('A' for Active; 'I' for Inactive)
ROOT
ATOM      1  C   UNL d   1       2.946  -0.895  -1.323  0.00  0.00     0.023 A 
ATOM      2  C1  UNL d   1       2.552   0.443  -1.364  0.00  0.00     0.003 A 
ATOM      3  C2  UNL d   1       1.374   0.844  -0.731  0.00  0.00     0.048 A 
ATOM      4  C3  UNL d   1       0.594  -0.097  -0.060  0.00  0.00     0.023 A 
ATOM      5  C4  UNL d   1       0.985  -1.436  -0.016  0.00  0.00     0.048 A 
ATOM      6  C5  UNL d   1       2.163  -1.833  -0.650  0.00  0.00     0.003 A 
ATOM      7  I   UNL d   1      -1.160   0.498   0.882  0.00  0.00    -0.146 I 
ENDROOT
TORSDOF 0
ENDMDL
