MODEL 1
REMARK minimizedAffinity 0.0475806147
REMARK minimizedRMSD -1
REMARK  0 active torsions:
REMARK  status: ('A' for Active; 'I' for Inactive)
ROOT
ATOM      1  C   UNL d   1      -2.130   0.906   3.615  0.00  0.00     0.023 A 
ATOM      2  C1  UNL d   1      -2.425  -0.349   3.081  0.00  0.00     0.003 A 
ATOM      3  C2  UNL d   1      -1.884  -0.731   1.852  0.00  0.00     0.048 A 
ATOM      4  C3  UNL d   1      -1.048   0.146   1.162  0.00  0.00     0.023 A 
ATOM      5  C4  UNL d   1      -0.750   1.403   1.692  0.00  0.00     0.048 A 
ATOM      6  C5  UNL d   1      -1.294   1.781   2.921  0.00  0.00     0.003 A 
ATOM      7  I   UNL d   1      -0.242  -0.420  -0.668  0.00  0.00    -0.146 I 
ENDROOT
TORSDOF 0
ENDMDL
