MODEL 1
REMARK minimizedAffinity -3.70785904
REMARK minimizedRMSD -1
REMARK  0 active torsions:
REMARK  status: ('A' for Active; 'I' for Inactive)
ROOT
ATOM      1  C   UNL d   1       2.943  -1.115  -2.033  0.00  0.00     0.023 A 
ATOM      2  C1  UNL d   1       2.932   0.183  -1.523  0.00  0.00     0.003 A 
ATOM      3  C2  UNL d   1       1.860   0.618  -0.741  0.00  0.00     0.048 A 
ATOM      4  C3  UNL d   1       0.803  -0.250  -0.471  0.00  0.00     0.023 A 
ATOM      5  C4  UNL d   1       0.810  -1.551  -0.978  0.00  0.00     0.048 A 
ATOM      6  C5  UNL d   1       1.883  -1.981  -1.761  0.00  0.00     0.003 A 
ATOM      7  I   UNL d   1      -0.792   0.395   0.694  0.00  0.00    -0.146 I 
ENDROOT
TORSDOF 0
ENDMDL
