MODEL 1
REMARK minimizedAffinity -0.697147727
REMARK minimizedRMSD -1
REMARK  0 active torsions:
REMARK  status: ('A' for Active; 'I' for Inactive)
ROOT
ATOM      1  C   UNL d   1       2.569  -1.079  -1.022  0.00  0.00     0.023 A 
ATOM      2  C1  UNL d   1       1.937  -2.266  -0.650  0.00  0.00     0.003 A 
ATOM      3  C2  UNL d   1       0.669  -2.230  -0.066  0.00  0.00     0.048 A 
ATOM      4  C3  UNL d   1       0.038  -1.004   0.142  0.00  0.00     0.023 A 
ATOM      5  C4  UNL d   1       0.666   0.186  -0.230  0.00  0.00     0.048 A 
ATOM      6  C5  UNL d   1       1.935   0.145  -0.813  0.00  0.00     0.003 A 
ATOM      7  I   UNL d   1      -1.849  -0.947   1.010  0.00  0.00    -0.146 I 
ENDROOT
TORSDOF 0
ENDMDL
