MODEL 1
REMARK minimizedAffinity -4.0330286
REMARK minimizedRMSD -1
REMARK  0 active torsions:
REMARK  status: ('A' for Active; 'I' for Inactive)
ROOT
ATOM      1  C   UNL d   1       2.403  -1.313  -1.649  0.00  0.00     0.023 A 
ATOM      2  C1  UNL d   1       1.264  -2.086  -1.417  0.00  0.00     0.003 A 
ATOM      3  C2  UNL d   1       0.219  -1.577  -0.645  0.00  0.00     0.048 A 
ATOM      4  C3  UNL d   1       0.317  -0.294  -0.108  0.00  0.00     0.023 A 
ATOM      5  C4  UNL d   1       1.453   0.484  -0.338  0.00  0.00     0.048 A 
ATOM      6  C5  UNL d   1       2.497  -0.030  -1.110  0.00  0.00     0.003 A 
ATOM      7  I   UNL d   1      -1.239   0.467   1.042  0.00  0.00    -0.146 I 
ENDROOT
TORSDOF 0
ENDMDL
