MODEL 1
REMARK minimizedAffinity -5.34715986
REMARK minimizedRMSD -1
REMARK  0 active torsions:
REMARK  status: ('A' for Active; 'I' for Inactive)
ROOT
ATOM      1  C   UNL d   1       2.632   0.505  -2.288  0.00  0.00     0.023 A 
ATOM      2  C1  UNL d   1       1.537   1.362  -2.399  0.00  0.00     0.003 A 
ATOM      3  C2  UNL d   1       0.503   1.302  -1.462  0.00  0.00     0.048 A 
ATOM      4  C3  UNL d   1       0.571   0.384  -0.415  0.00  0.00     0.023 A 
ATOM      5  C4  UNL d   1       1.666  -0.475  -0.299  0.00  0.00     0.048 A 
ATOM      6  C5  UNL d   1       2.696  -0.412  -1.239  0.00  0.00     0.003 A 
ATOM      7  I   UNL d   1      -0.966   0.293   0.980  0.00  0.00    -0.146 I 
ENDROOT
TORSDOF 0
ENDMDL
