MODEL 1
REMARK minimizedAffinity -4.8795681
REMARK minimizedRMSD -1
REMARK  0 active torsions:
REMARK  status: ('A' for Active; 'I' for Inactive)
ROOT
ATOM      1  C   UNL d   1       2.623   0.840  -2.173  0.00  0.00     0.023 A 
ATOM      2  C1  UNL d   1       1.593   1.764  -2.349  0.00  0.00     0.003 A 
ATOM      3  C2  UNL d   1       0.458   1.711  -1.538  0.00  0.00     0.048 A 
ATOM      4  C3  UNL d   1       0.359   0.730  -0.551  0.00  0.00     0.023 A 
ATOM      5  C4  UNL d   1       1.388  -0.196  -0.370  0.00  0.00     0.048 A 
ATOM      6  C5  UNL d   1       2.520  -0.139  -1.184  0.00  0.00     0.003 A 
ATOM      7  I   UNL d   1      -1.329   0.649   0.658  0.00  0.00    -0.146 I 
ENDROOT
TORSDOF 0
ENDMDL
