MODEL 1
REMARK minimizedAffinity -3.0942452
REMARK minimizedRMSD -1
REMARK  0 active torsions:
REMARK  status: ('A' for Active; 'I' for Inactive)
ROOT
ATOM      1  C   UNL d   1       0.800  -2.097  -0.477  0.00  0.00     0.023 A 
ATOM      2  C1  UNL d   1      -0.002  -1.078   0.038  0.00  0.00     0.003 A 
ATOM      3  C2  UNL d   1       0.175   0.238  -0.394  0.00  0.00     0.048 A 
ATOM      4  C3  UNL d   1       1.154   0.528  -1.343  0.00  0.00     0.023 A 
ATOM      5  C4  UNL d   1       1.958  -0.488  -1.862  0.00  0.00     0.048 A 
ATOM      6  C5  UNL d   1       1.779  -1.802  -1.426  0.00  0.00     0.003 A 
ATOM      7  I   UNL d   1       1.419   2.486  -1.988  0.00  0.00    -0.146 I 
ENDROOT
TORSDOF 0
ENDMDL
