MODEL 1
REMARK minimizedAffinity -3.50017118
REMARK minimizedRMSD -1
REMARK  0 active torsions:
REMARK  status: ('A' for Active; 'I' for Inactive)
ROOT
ATOM      1  C   UNL d   1       3.615  -0.343  -2.012  0.00  0.00     0.023 A 
ATOM      2  C1  UNL d   1       2.805   0.764  -2.266  0.00  0.00     0.003 A 
ATOM      3  C2  UNL d   1       1.576   0.895  -1.615  0.00  0.00     0.048 A 
ATOM      4  C3  UNL d   1       1.164  -0.083  -0.711  0.00  0.00     0.023 A 
ATOM      5  C4  UNL d   1       1.972  -1.192  -0.454  0.00  0.00     0.048 A 
ATOM      6  C5  UNL d   1       3.199  -1.320  -1.107  0.00  0.00     0.003 A 
ATOM      7  I   UNL d   1      -0.664   0.110   0.258  0.00  0.00    -0.146 I 
ENDROOT
TORSDOF 0
ENDMDL
