MODEL 1
REMARK minimizedAffinity -3.8574245
REMARK minimizedRMSD -1
REMARK  0 active torsions:
REMARK  status: ('A' for Active; 'I' for Inactive)
ROOT
ATOM      1  C   UNL d   1       1.880  -1.011  -1.847  0.00  0.00     0.023 A 
ATOM      2  C1  UNL d   1       0.955  -1.896  -1.293  0.00  0.00     0.003 A 
ATOM      3  C2  UNL d   1       0.016  -1.437  -0.367  0.00  0.00     0.048 A 
ATOM      4  C3  UNL d   1       0.008  -0.092   0.002  0.00  0.00     0.023 A 
ATOM      5  C4  UNL d   1       0.932   0.797  -0.550  0.00  0.00     0.048 A 
ATOM      6  C5  UNL d   1       1.869   0.334  -1.475  0.00  0.00     0.003 A 
ATOM      7  I   UNL d   1      -1.387   0.593   1.381  0.00  0.00    -0.146 I 
ENDROOT
TORSDOF 0
ENDMDL
