MODEL 1
REMARK minimizedAffinity -4.29788923
REMARK minimizedRMSD -1
REMARK  0 active torsions:
REMARK  status: ('A' for Active; 'I' for Inactive)
ROOT
ATOM      1  C   UNL d   1       2.989  -1.137  -1.285  0.00  0.00     0.023 A 
ATOM      2  C1  UNL d   1       2.917  -0.094  -0.361  0.00  0.00     0.003 A 
ATOM      3  C2  UNL d   1       1.708   0.194   0.276  0.00  0.00     0.048 A 
ATOM      4  C3  UNL d   1       0.575  -0.566  -0.016  0.00  0.00     0.023 A 
ATOM      5  C4  UNL d   1       0.643  -1.610  -0.939  0.00  0.00     0.048 A 
ATOM      6  C5  UNL d   1       1.854  -1.893  -1.574  0.00  0.00     0.003 A 
ATOM      7  I   UNL d   1      -1.225  -0.139   0.931  0.00  0.00    -0.146 I 
ENDROOT
TORSDOF 0
ENDMDL
