MODEL 1
REMARK minimizedAffinity -2.62339544
REMARK minimizedRMSD -1
REMARK  0 active torsions:
REMARK  status: ('A' for Active; 'I' for Inactive)
ROOT
ATOM      1  C   UNL d   1      -0.850  -1.946  -0.874  0.00  0.00     0.023 A 
ATOM      2  C1  UNL d   1      -0.958  -0.671  -0.317  0.00  0.00     0.003 A 
ATOM      3  C2  UNL d   1       0.192   0.071  -0.041  0.00  0.00     0.048 A 
ATOM      4  C3  UNL d   1       1.447  -0.466  -0.325  0.00  0.00     0.023 A 
ATOM      5  C4  UNL d   1       1.560  -1.741  -0.884  0.00  0.00     0.048 A 
ATOM      6  C5  UNL d   1       0.408  -2.480  -1.157  0.00  0.00     0.003 A 
ATOM      7  I   UNL d   1       3.160   0.637   0.084  0.00  0.00    -0.146 I 
ENDROOT
TORSDOF 0
ENDMDL
