MODEL 1
REMARK minimizedAffinity 14.0317402
REMARK minimizedRMSD -1
REMARK  0 active torsions:
REMARK  status: ('A' for Active; 'I' for Inactive)
ROOT
ATOM      1  N1  IND d   1      -5.896  -2.239  -5.491  0.00  0.00    -0.196 N 
ATOM      2  C2  IND d   1      -5.313  -1.512  -4.491  0.00  0.00     0.054 A 
ATOM      3  C3  IND d   1      -4.684  -2.331  -3.619  0.00  0.00    -0.031 A 
ATOM      4  C4  IND d   1      -4.397  -4.888  -3.693  0.00  0.00     0.051 A 
ATOM      5  C5  IND d   1      -4.783  -5.996  -4.394  0.00  0.00    -0.031 A 
ATOM      6  C6  IND d   1      -5.574  -5.905  -5.522  0.00  0.00     0.015 A 
ATOM      7  C7  IND d   1      -6.000  -4.698  -5.998  0.00  0.00    -0.016 A 
ATOM      8  C8  IND d   1      -5.616  -3.572  -5.284  0.00  0.00    -0.047 A 
ATOM      9  C9  IND d   1      -4.849  -3.660  -4.115  0.00  0.00    -0.096 A 
ATOM     10  HN1 IND d   1      -6.360  -1.918  -6.140  0.00  0.00     0.298 HD
ENDROOT
TORSDOF 0
ENDMDL
