MODEL 1
REMARK minimizedAffinity 12.0106058
REMARK minimizedRMSD -1
REMARK  0 active torsions:
REMARK  status: ('A' for Active; 'I' for Inactive)
ROOT
ATOM      1  N1  IND d   1      -5.972  -2.354  -5.527  0.00  0.00    -0.196 N 
ATOM      2  C2  IND d   1      -5.138  -1.547  -4.805  0.00  0.00     0.054 A 
ATOM      3  C3  IND d   1      -4.148  -2.276  -4.243  0.00  0.00    -0.031 A 
ATOM      4  C4  IND d   1      -3.644  -4.791  -4.459  0.00  0.00     0.051 A 
ATOM      5  C5  IND d   1      -4.145  -5.949  -4.985  0.00  0.00    -0.031 A 
ATOM      6  C6  IND d   1      -5.303  -5.968  -5.735  0.00  0.00     0.015 A 
ATOM      7  C7  IND d   1      -5.999  -4.822  -5.999  0.00  0.00    -0.016 A 
ATOM      8  C8  IND d   1      -5.497  -3.646  -5.461  0.00  0.00    -0.047 A 
ATOM      9  C9  IND d   1      -4.346  -3.627  -4.663  0.00  0.00    -0.096 A 
ATOM     10  HN1 IND d   1      -6.675  -2.099  -5.952  0.00  0.00     0.298 HD
ENDROOT
TORSDOF 0
ENDMDL
