MODEL 1
REMARK minimizedAffinity 7.59430075
REMARK minimizedRMSD -1
REMARK  0 active torsions:
REMARK  status: ('A' for Active; 'I' for Inactive)
ROOT
ATOM      1  N1  IND d   1       1.507  -3.541   1.579  0.00  0.00    -0.196 N 
ATOM      2  C2  IND d   1       1.901  -2.289   1.962  0.00  0.00     0.054 A 
ATOM      3  C3  IND d   1       2.089  -1.504   0.878  0.00  0.00    -0.031 A 
ATOM      4  C4  IND d   1       1.712  -2.035  -1.613  0.00  0.00     0.051 A 
ATOM      5  C5  IND d   1       1.390  -3.059  -2.459  0.00  0.00    -0.031 A 
ATOM      6  C6  IND d   1       1.081  -4.321  -1.992  0.00  0.00     0.015 A 
ATOM      7  C7  IND d   1       1.073  -4.604  -0.656  0.00  0.00    -0.016 A 
ATOM      8  C8  IND d   1       1.406  -3.569   0.206  0.00  0.00    -0.047 A 
ATOM      9  C9  IND d   1       1.762  -2.297  -0.264  0.00  0.00    -0.096 A 
ATOM     10  HN1 IND d   1       1.350  -4.201   2.108  0.00  0.00     0.298 HD
ENDROOT
TORSDOF 0
ENDMDL
