MODEL 1
REMARK minimizedAffinity -4.00527954
REMARK minimizedRMSD -1
REMARK  0 active torsions:
REMARK  status: ('A' for Active; 'I' for Inactive)
ROOT
ATOM      1  N1  IND d   1       0.427  -1.863   3.491  0.00  0.00    -0.196 N 
ATOM      2  C2  IND d   1       0.852  -1.602   2.218  0.00  0.00     0.054 A 
ATOM      3  C3  IND d   1       2.170  -1.876   2.096  0.00  0.00    -0.031 A 
ATOM      4  C4  IND d   1       3.804  -2.856   3.828  0.00  0.00     0.051 A 
ATOM      5  C5  IND d   1       3.888  -3.223   5.142  0.00  0.00    -0.031 A 
ATOM      6  C6  IND d   1       2.801  -3.157   5.989  0.00  0.00     0.015 A 
ATOM      7  C7  IND d   1       1.580  -2.730   5.549  0.00  0.00    -0.016 A 
ATOM      8  C8  IND d   1       1.492  -2.350   4.217  0.00  0.00    -0.047 A 
ATOM      9  C9  IND d   1       2.603  -2.374   3.364  0.00  0.00    -0.096 A 
ATOM     10  HN1 IND d   1      -0.370  -1.743   3.788  0.00  0.00     0.298 HD
ENDROOT
TORSDOF 0
ENDMDL
