MODEL 1
REMARK minimizedAffinity 14.9866304
REMARK minimizedRMSD -1
REMARK  0 active torsions:
REMARK  status: ('A' for Active; 'I' for Inactive)
ROOT
ATOM      1  N1  IND d   1       1.276  -0.257   3.428  0.00  0.00    -0.196 N 
ATOM      2  C2  IND d   1       1.015  -1.542   3.043  0.00  0.00     0.054 A 
ATOM      3  C3  IND d   1       1.357  -1.724   1.748  0.00  0.00    -0.031 A 
ATOM      4  C4  IND d   1       2.457  -0.080   0.100  0.00  0.00     0.051 A 
ATOM      5  C5  IND d   1       2.853   1.223  -0.018  0.00  0.00    -0.031 A 
ATOM      6  C6  IND d   1       2.744   2.116   1.028  0.00  0.00     0.015 A 
ATOM      7  C7  IND d   1       2.243   1.735   2.241  0.00  0.00    -0.016 A 
ATOM      8  C8  IND d   1       1.833   0.415   2.363  0.00  0.00    -0.047 A 
ATOM      9  C9  IND d   1       1.902  -0.485   1.291  0.00  0.00    -0.096 A 
ATOM     10  HN1 IND d   1       1.118   0.076   4.205  0.00  0.00     0.298 HD
ENDROOT
TORSDOF 0
ENDMDL
