MODEL 1
REMARK minimizedAffinity 7.502666
REMARK minimizedRMSD -1
REMARK  0 active torsions:
REMARK  status: ('A' for Active; 'I' for Inactive)
ROOT
ATOM      1  N1  IND d   1      -2.524   2.231   1.604  0.00  0.00    -0.196 N 
ATOM      2  C2  IND d   1      -1.992   2.136   0.348  0.00  0.00     0.054 A 
ATOM      3  C3  IND d   1      -2.773   2.785  -0.544  0.00  0.00    -0.031 A 
ATOM      4  C4  IND d   1      -4.915   4.157  -0.150  0.00  0.00     0.051 A 
ATOM      5  C5  IND d   1      -5.809   4.502   0.825  0.00  0.00    -0.031 A 
ATOM      6  C6  IND d   1      -5.649   4.102   2.136  0.00  0.00     0.015 A 
ATOM      7  C7  IND d   1      -4.578   3.348   2.525  0.00  0.00    -0.016 A 
ATOM      8  C8  IND d   1      -3.672   2.990   1.537  0.00  0.00    -0.047 A 
ATOM      9  C9  IND d   1      -3.851   3.357   0.197  0.00  0.00    -0.096 A 
ATOM     10  HN1 IND d   1      -2.197   1.876   2.316  0.00  0.00     0.298 HD
ENDROOT
TORSDOF 0
ENDMDL
