MODEL 1
REMARK minimizedAffinity 11.6266394
REMARK minimizedRMSD -1
REMARK  0 active torsions:
REMARK  status: ('A' for Active; 'I' for Inactive)
ROOT
ATOM      1  N1  IND d   1       2.568  -5.567   2.454  0.00  0.00    -0.196 N 
ATOM      2  C2  IND d   1       1.839  -4.732   3.255  0.00  0.00     0.054 A 
ATOM      3  C3  IND d   1       2.562  -3.635   3.573  0.00  0.00    -0.031 A 
ATOM      4  C4  IND d   1       4.924  -2.954   2.807  0.00  0.00     0.051 A 
ATOM      5  C5  IND d   1       6.000  -3.411   2.099  0.00  0.00    -0.031 A 
ATOM      6  C6  IND d   1       5.986  -4.633   1.458  0.00  0.00     0.015 A 
ATOM      7  C7  IND d   1       4.886  -5.442   1.492  0.00  0.00    -0.016 A 
ATOM      8  C8  IND d   1       3.794  -4.985   2.216  0.00  0.00    -0.047 A 
ATOM      9  C9  IND d   1       3.817  -3.765   2.904  0.00  0.00    -0.096 A 
ATOM     10  HN1 IND d   1       2.305  -6.327   2.150  0.00  0.00     0.298 HD
ENDROOT
TORSDOF 0
ENDMDL
