MODEL 1
REMARK minimizedAffinity 16.8281574
REMARK minimizedRMSD -1
REMARK  0 active torsions:
REMARK  status: ('A' for Active; 'I' for Inactive)
ROOT
ATOM      1  N1  IND d   1       4.918  -2.621   2.269  0.00  0.00    -0.196 N 
ATOM      2  C2  IND d   1       6.000  -3.016   3.005  0.00  0.00     0.054 A 
ATOM      3  C3  IND d   1       5.608  -3.441   4.227  0.00  0.00    -0.031 A 
ATOM      4  C4  IND d   1       3.233  -3.670   5.195  0.00  0.00     0.051 A 
ATOM      5  C5  IND d   1       1.924  -3.400   4.911  0.00  0.00    -0.031 A 
ATOM      6  C6  IND d   1       1.537  -2.847   3.707  0.00  0.00     0.015 A 
ATOM      7  C7  IND d   1       2.449  -2.554   2.733  0.00  0.00    -0.016 A 
ATOM      8  C8  IND d   1       3.780  -2.820   3.020  0.00  0.00    -0.047 A 
ATOM      9  C9  IND d   1       4.183  -3.341   4.257  0.00  0.00    -0.096 A 
ATOM     10  HN1 IND d   1       4.943  -2.301   1.471  0.00  0.00     0.298 HD
ENDROOT
TORSDOF 0
ENDMDL
