MODEL 1
REMARK minimizedAffinity 10.6253567
REMARK minimizedRMSD -1
REMARK  0 active torsions:
REMARK  status: ('A' for Active; 'I' for Inactive)
ROOT
ATOM      1  N1  IND d   1       5.055  -4.817   1.808  0.00  0.00    -0.196 N 
ATOM      2  C2  IND d   1       5.997  -3.875   2.116  0.00  0.00     0.054 A 
ATOM      3  C3  IND d   1       5.497  -2.981   2.999  0.00  0.00    -0.031 A 
ATOM      4  C4  IND d   1       3.194  -2.930   4.147  0.00  0.00     0.051 A 
ATOM      5  C5  IND d   1       1.981  -3.560   4.158  0.00  0.00    -0.031 A 
ATOM      6  C6  IND d   1       1.727  -4.665   3.372  0.00  0.00     0.015 A 
ATOM      7  C7  IND d   1       2.684  -5.191   2.551  0.00  0.00    -0.016 A 
ATOM      8  C8  IND d   1       3.915  -4.549   2.532  0.00  0.00    -0.047 A 
ATOM      9  C9  IND d   1       4.165  -3.402   3.296  0.00  0.00    -0.096 A 
ATOM     10  HN1 IND d   1       5.158  -5.467   1.255  0.00  0.00     0.298 HD
ENDROOT
TORSDOF 0
ENDMDL
