MODEL 1
REMARK minimizedAffinity -3.673769
REMARK minimizedRMSD -1
REMARK  0 active torsions:
REMARK  status: ('A' for Active; 'I' for Inactive)
ROOT
ATOM      1  C2' OXE d   1       0.264   1.479   0.003  0.00  0.00     0.078 C 
ATOM      2  C1' OXE d   1       2.994   1.969   0.435  0.00  0.00     0.078 C 
ATOM      3  C1  OXE d   1       2.454   2.177  -0.957  0.00  0.00    -0.078 A 
ATOM      4  C2  OXE d   1       1.127   1.890  -1.170  0.00  0.00    -0.078 A 
ATOM      5  C3  OXE d   1       0.565   2.117  -2.424  0.00  0.00     0.003 A 
ATOM      6  C4  OXE d   1       1.372   2.488  -3.506  0.00  0.00    -0.002 A 
ATOM      7  C5  OXE d   1       2.734   2.747  -3.319  0.00  0.00    -0.002 A 
ATOM      8  C6  OXE d   1       3.281   2.638  -2.045  0.00  0.00     0.003 A 
ENDROOT
TORSDOF 0
ENDMDL
