MODEL 1
REMARK minimizedAffinity -2.75833106
REMARK minimizedRMSD -1
REMARK  0 active torsions:
REMARK  status: ('A' for Active; 'I' for Inactive)
ROOT
ATOM      1  C2' OXE d   1       3.819   1.779  -3.858  0.00  0.00     0.078 C 
ATOM      2  C1' OXE d   1       3.077   2.464  -1.238  0.00  0.00     0.078 C 
ATOM      3  C1  OXE d   1       2.008   2.492  -2.302  0.00  0.00    -0.078 A 
ATOM      4  C2  OXE d   1       2.390   2.201  -3.590  0.00  0.00    -0.078 A 
ATOM      5  C3  OXE d   1       1.433   2.159  -4.600  0.00  0.00     0.003 A 
ATOM      6  C4  OXE d   1       0.116   2.560  -4.345  0.00  0.00    -0.002 A 
ATOM      7  C5  OXE d   1      -0.285   2.898  -3.049  0.00  0.00    -0.002 A 
ATOM      8  C6  OXE d   1       0.637   2.829  -2.010  0.00  0.00     0.003 A 
ENDROOT
TORSDOF 0
ENDMDL
