MODEL 1
REMARK minimizedAffinity -2.44428682
REMARK minimizedRMSD -1
REMARK  0 active torsions:
REMARK  status: ('A' for Active; 'I' for Inactive)
ROOT
ATOM      1  C2' OXE d   1       1.130  -1.975  -0.133  0.00  0.00     0.078 C 
ATOM      2  C1' OXE d   1      -1.431  -2.694   0.765  0.00  0.00     0.078 C 
ATOM      3  C1  OXE d   1      -1.165  -1.235   0.493  0.00  0.00    -0.078 A 
ATOM      4  C2  OXE d   1       0.104  -0.886   0.098  0.00  0.00    -0.078 A 
ATOM      5  C3  OXE d   1       0.388   0.439  -0.218  0.00  0.00     0.003 A 
ATOM      6  C4  OXE d   1      -0.563   1.442   0.009  0.00  0.00    -0.002 A 
ATOM      7  C5  OXE d   1      -1.850   1.113   0.448  0.00  0.00    -0.002 A 
ATOM      8  C6  OXE d   1      -2.179  -0.223   0.653  0.00  0.00     0.003 A 
ENDROOT
TORSDOF 0
ENDMDL
