MODEL 1
REMARK minimizedAffinity 2.70239043
REMARK minimizedRMSD -1
REMARK  0 active torsions:
REMARK  status: ('A' for Active; 'I' for Inactive)
ROOT
ATOM      1  C2' OXE d   1       3.534   1.338   1.371  0.00  0.00     0.078 C 
ATOM      2  C1' OXE d   1       3.861   2.322  -1.238  0.00  0.00     0.078 C 
ATOM      3  C1  OXE d   1       3.850   3.319  -0.106  0.00  0.00    -0.078 A 
ATOM      4  C2  OXE d   1       3.643   2.834   1.162  0.00  0.00    -0.078 A 
ATOM      5  C3  OXE d   1       3.678   3.704   2.248  0.00  0.00     0.003 A 
ATOM      6  C4  OXE d   1       3.768   5.087   2.045  0.00  0.00    -0.002 A 
ATOM      7  C5  OXE d   1       3.940   5.605   0.757  0.00  0.00    -0.002 A 
ATOM      8  C6  OXE d   1       4.026   4.734  -0.323  0.00  0.00     0.003 A 
ENDROOT
TORSDOF 0
ENDMDL
