MODEL 1
REMARK minimizedAffinity -2.8279922
REMARK minimizedRMSD -1
REMARK  0 active torsions:
REMARK  status: ('A' for Active; 'I' for Inactive)
ROOT
ATOM      1  C2' OXE d   1       0.436   0.763  -0.787  0.00  0.00     0.078 C 
ATOM      2  C1' OXE d   1       2.052  -0.615   1.049  0.00  0.00     0.078 C 
ATOM      3  C1  OXE d   1       0.629  -1.085   0.872  0.00  0.00    -0.078 A 
ATOM      4  C2  OXE d   1      -0.168  -0.375   0.006  0.00  0.00    -0.078 A 
ATOM      5  C3  OXE d   1      -1.472  -0.799  -0.235  0.00  0.00     0.003 A 
ATOM      6  C4  OXE d   1      -2.026  -1.847   0.511  0.00  0.00    -0.002 A 
ATOM      7  C5  OXE d   1      -1.243  -2.557   1.427  0.00  0.00    -0.002 A 
ATOM      8  C6  OXE d   1       0.095  -2.217   1.588  0.00  0.00     0.003 A 
ENDROOT
TORSDOF 0
ENDMDL
