MODEL 1
REMARK minimizedAffinity -0.670557976
REMARK minimizedRMSD -1
REMARK  0 active torsions:
REMARK  status: ('A' for Active; 'I' for Inactive)
ROOT
ATOM      1  C2' OXE d   1       3.308   3.208   1.299  0.00  0.00     0.078 C 
ATOM      2  C1' OXE d   1       1.229   1.512   0.475  0.00  0.00     0.078 C 
ATOM      3  C1  OXE d   1       2.401   0.891   1.193  0.00  0.00    -0.078 A 
ATOM      4  C2  OXE d   1       3.436   1.721   1.551  0.00  0.00    -0.078 A 
ATOM      5  C3  OXE d   1       4.516   1.209   2.264  0.00  0.00     0.003 A 
ATOM      6  C4  OXE d   1       4.630  -0.169   2.484  0.00  0.00    -0.002 A 
ATOM      7  C5  OXE d   1       3.607  -1.038   2.092  0.00  0.00    -0.002 A 
ATOM      8  C6  OXE d   1       2.468  -0.520   1.485  0.00  0.00     0.003 A 
ENDROOT
TORSDOF 0
ENDMDL
