MODEL 1
REMARK minimizedAffinity 5.24102163
REMARK minimizedRMSD -1
REMARK  0 active torsions:
REMARK  status: ('A' for Active; 'I' for Inactive)
ROOT
ATOM      1  C2' OXE d   1       0.011   0.011  -1.841  0.00  0.00     0.078 C 
ATOM      2  C1' OXE d   1      -0.380   1.913   0.186  0.00  0.00     0.078 C 
ATOM      3  C1  OXE d   1      -1.182   0.637   0.254  0.00  0.00    -0.078 A 
ATOM      4  C2  OXE d   1      -1.018  -0.268  -0.768  0.00  0.00    -0.078 A 
ATOM      5  C3  OXE d   1      -1.693  -1.485  -0.725  0.00  0.00     0.003 A 
ATOM      6  C4  OXE d   1      -2.650  -1.730   0.266  0.00  0.00    -0.002 A 
ATOM      7  C5  OXE d   1      -2.862  -0.805   1.294  0.00  0.00    -0.002 A 
ATOM      8  C6  OXE d   1      -2.107   0.362   1.326  0.00  0.00     0.003 A 
ENDROOT
TORSDOF 0
ENDMDL
