MODEL 1
REMARK minimizedAffinity 0.62651509
REMARK minimizedRMSD -1
REMARK  0 active torsions:
REMARK  status: ('A' for Active; 'I' for Inactive)
ROOT
ATOM      1  C2' OXE d   1       4.351   0.059   1.771  0.00  0.00     0.078 C 
ATOM      2  C1' OXE d   1       3.229   2.620   1.518  0.00  0.00     0.078 C 
ATOM      3  C1  OXE d   1       2.446   1.452   0.973  0.00  0.00    -0.078 A 
ATOM      4  C2  OXE d   1       3.024   0.208   1.059  0.00  0.00    -0.078 A 
ATOM      5  C3  OXE d   1       2.320  -0.911   0.622  0.00  0.00     0.003 A 
ATOM      6  C4  OXE d   1       1.098  -0.763  -0.044  0.00  0.00    -0.002 A 
ATOM      7  C5  OXE d   1       0.510   0.499  -0.179  0.00  0.00    -0.002 A 
ATOM      8  C6  OXE d   1       1.150   1.609   0.361  0.00  0.00     0.003 A 
ENDROOT
TORSDOF 0
ENDMDL
