MODEL 1
REMARK minimizedAffinity -3.54878306
REMARK minimizedRMSD -1
REMARK  0 active torsions:
REMARK  status: ('A' for Active; 'I' for Inactive)
ROOT
ATOM      1  C2' OXE d   1      -3.016   0.424   0.896  0.00  0.00     0.078 C 
ATOM      2  C1' OXE d   1      -1.997  -2.183   0.682  0.00  0.00     0.078 C 
ATOM      3  C1  OXE d   1      -1.031  -1.036   0.531  0.00  0.00    -0.078 A 
ATOM      4  C2  OXE d   1      -1.546   0.237   0.590  0.00  0.00    -0.078 A 
ATOM      5  C3  OXE d   1      -0.689   1.331   0.511  0.00  0.00     0.003 A 
ATOM      6  C4  OXE d   1       0.668   1.150   0.218  0.00  0.00    -0.002 A 
ATOM      7  C5  OXE d   1       1.206  -0.137   0.114  0.00  0.00    -0.002 A 
ATOM      8  C6  OXE d   1       0.380  -1.239   0.310  0.00  0.00     0.003 A 
ENDROOT
TORSDOF 0
ENDMDL
