MODEL 1
REMARK minimizedAffinity 0.661521733
REMARK minimizedRMSD -1
REMARK  0 active torsions:
REMARK  status: ('A' for Active; 'I' for Inactive)
ROOT
ATOM      1  C2' OXE d   1       4.101  -0.141   1.508  0.00  0.00     0.078 C 
ATOM      2  C1' OXE d   1       3.230   2.514   1.778  0.00  0.00     0.078 C 
ATOM      3  C1  OXE d   1       2.305   1.536   1.098  0.00  0.00    -0.078 A 
ATOM      4  C2  OXE d   1       2.758   0.250   0.929  0.00  0.00    -0.078 A 
ATOM      5  C3  OXE d   1       1.923  -0.706   0.357  0.00  0.00     0.003 A 
ATOM      6  C4  OXE d   1       0.687  -0.334  -0.185  0.00  0.00    -0.002 A 
ATOM      7  C5  OXE d   1       0.223   0.979  -0.059  0.00  0.00    -0.002 A 
ATOM      8  C6  OXE d   1       0.999   1.915   0.617  0.00  0.00     0.003 A 
ENDROOT
TORSDOF 0
ENDMDL
