MODEL 1
REMARK minimizedAffinity -3.35650587
REMARK minimizedRMSD -1
REMARK  0 active torsions:
REMARK  status: ('A' for Active; 'I' for Inactive)
ROOT
ATOM      1  C2' OXE d   1      -1.767  -2.213   0.735  0.00  0.00     0.078 C 
ATOM      2  C1' OXE d   1      -2.929   0.337   0.915  0.00  0.00     0.078 C 
ATOM      3  C1  OXE d   1      -1.466   0.254   0.556  0.00  0.00    -0.078 A 
ATOM      4  C2  OXE d   1      -0.895  -0.995   0.516  0.00  0.00    -0.078 A 
ATOM      5  C3  OXE d   1       0.437  -1.132   0.136  0.00  0.00     0.003 A 
ATOM      6  C4  OXE d   1       1.240  -0.001  -0.055  0.00  0.00    -0.002 A 
ATOM      7  C5  OXE d   1       0.687   1.282   0.020  0.00  0.00    -0.002 A 
ATOM      8  C6  OXE d   1      -0.671   1.425   0.282  0.00  0.00     0.003 A 
ENDROOT
TORSDOF 0
ENDMDL
