MODEL 1
REMARK minimizedAffinity -2.36280346
REMARK minimizedRMSD -1
REMARK  0 active torsions:
REMARK  status: ('A' for Active; 'I' for Inactive)
ROOT
ATOM      1  C2' OXE d   1      -1.819  -2.411   0.548  0.00  0.00     0.078 C 
ATOM      2  C1' OXE d   1      -2.995   0.129   0.762  0.00  0.00     0.078 C 
ATOM      3  C1  OXE d   1      -1.509   0.061   0.516  0.00  0.00    -0.078 A 
ATOM      4  C2  OXE d   1      -0.934  -1.186   0.459  0.00  0.00    -0.078 A 
ATOM      5  C3  OXE d   1       0.425  -1.307   0.181  0.00  0.00     0.003 A 
ATOM      6  C4  OXE d   1       1.238  -0.170   0.110  0.00  0.00    -0.002 A 
ATOM      7  C5  OXE d   1       0.679   1.109   0.205  0.00  0.00    -0.002 A 
ATOM      8  C6  OXE d   1      -0.696   1.242   0.365  0.00  0.00     0.003 A 
ENDROOT
TORSDOF 0
ENDMDL
