MODEL 1
REMARK minimizedAffinity -4.93801641
REMARK minimizedRMSD -1
REMARK  0 active torsions:
REMARK  status: ('A' for Active; 'I' for Inactive)
ROOT
ATOM      1  C2' OXE d   1       0.285   0.946  -0.619  0.00  0.00     0.078 C 
ATOM      2  C1' OXE d   1       2.166  -0.175   1.137  0.00  0.00     0.078 C 
ATOM      3  C1  OXE d   1       0.874  -0.922   0.920  0.00  0.00    -0.078 A 
ATOM      4  C2  OXE d   1      -0.060  -0.342   0.095  0.00  0.00    -0.078 A 
ATOM      5  C3  OXE d   1      -1.247  -1.015  -0.182  0.00  0.00     0.003 A 
ATOM      6  C4  OXE d   1      -1.563  -2.202   0.490  0.00  0.00    -0.002 A 
ATOM      7  C5  OXE d   1      -0.642  -2.789   1.365  0.00  0.00    -0.002 A 
ATOM      8  C6  OXE d   1       0.595  -2.185   1.558  0.00  0.00     0.003 A 
ENDROOT
TORSDOF 0
ENDMDL
