MODEL 1
REMARK minimizedAffinity -4.32283497
REMARK minimizedRMSD -1
REMARK  0 active torsions:
REMARK  status: ('A' for Active; 'I' for Inactive)
ROOT
ATOM      1  C2' OXE d   1       1.778  -0.686   0.953  0.00  0.00     0.078 C 
ATOM      2  C1' OXE d   1       0.108   0.637  -0.875  0.00  0.00     0.078 C 
ATOM      3  C1  OXE d   1      -0.494  -0.468  -0.044  0.00  0.00    -0.078 A 
ATOM      4  C2  OXE d   1       0.341  -1.141   0.814  0.00  0.00    -0.078 A 
ATOM      5  C3  OXE d   1      -0.175  -2.133   1.644  0.00  0.00     0.003 A 
ATOM      6  C4  OXE d   1      -1.503  -2.555   1.502  0.00  0.00    -0.002 A 
ATOM      7  C5  OXE d   1      -2.361  -1.909   0.605  0.00  0.00    -0.002 A 
ATOM      8  C6  OXE d   1      -1.885  -0.838  -0.143  0.00  0.00     0.003 A 
ENDROOT
TORSDOF 0
ENDMDL
