MODEL 1
REMARK minimizedAffinity -5.30303097
REMARK minimizedRMSD -1
REMARK  0 active torsions:
REMARK  status: ('A' for Active; 'I' for Inactive)
ROOT
ATOM      1  C2' OXE d   1      -2.191   0.422   0.720  0.00  0.00     0.078 C 
ATOM      2  C1' OXE d   1      -1.750  -2.334   1.017  0.00  0.00     0.078 C 
ATOM      3  C1  OXE d   1      -0.543  -1.434   0.924  0.00  0.00    -0.078 A 
ATOM      4  C2  OXE d   1      -0.768  -0.093   0.731  0.00  0.00    -0.078 A 
ATOM      5  C3  OXE d   1       0.309   0.788   0.693  0.00  0.00     0.003 A 
ATOM      6  C4  OXE d   1       1.622   0.303   0.694  0.00  0.00    -0.002 A 
ATOM      7  C5  OXE d   1       1.873  -1.064   0.849  0.00  0.00    -0.002 A 
ATOM      8  C6  OXE d   1       0.805  -1.940   1.007  0.00  0.00     0.003 A 
ENDROOT
TORSDOF 0
ENDMDL
