MODEL 1
REMARK minimizedAffinity -1.11481917
REMARK minimizedRMSD -1
REMARK  0 active torsions:
REMARK  status: ('A' for Active; 'I' for Inactive)
ROOT
ATOM      1  C2' OXE d   1      -0.404  -1.416   0.518  0.00  0.00     0.078 C 
ATOM      2  C1' OXE d   1      -1.234   1.253   0.258  0.00  0.00     0.078 C 
ATOM      3  C1  OXE d   1      -0.158   0.757  -0.675  0.00  0.00    -0.078 A 
ATOM      4  C2  OXE d   1       0.275  -0.537  -0.510  0.00  0.00    -0.078 A 
ATOM      5  C3  OXE d   1       1.227  -1.062  -1.379  0.00  0.00     0.003 A 
ATOM      6  C4  OXE d   1       1.858  -0.239  -2.320  0.00  0.00    -0.002 A 
ATOM      7  C5  OXE d   1       1.460   1.093  -2.478  0.00  0.00    -0.002 A 
ATOM      8  C6  OXE d   1       0.426   1.593  -1.694  0.00  0.00     0.003 A 
ENDROOT
TORSDOF 0
ENDMDL
