MODEL 1
REMARK minimizedAffinity -1.20667112
REMARK minimizedRMSD -1
REMARK  0 active torsions:
REMARK  status: ('A' for Active; 'I' for Inactive)
ROOT
ATOM      1  C2' OXE d   1       0.246  -1.359   0.233  0.00  0.00     0.078 C 
ATOM      2  C1' OXE d   1       0.306   1.152  -1.021  0.00  0.00     0.078 C 
ATOM      3  C1  OXE d   1       1.436   0.807  -0.084  0.00  0.00    -0.078 A 
ATOM      4  C2  OXE d   1       1.375  -0.405   0.561  0.00  0.00    -0.078 A 
ATOM      5  C3  OXE d   1       2.419  -0.796   1.394  0.00  0.00     0.003 A 
ATOM      6  C4  OXE d   1       3.454   0.096   1.699  0.00  0.00    -0.002 A 
ATOM      7  C5  OXE d   1       3.515   1.351   1.084  0.00  0.00    -0.002 A 
ATOM      8  C6  OXE d   1       2.539   1.704   0.159  0.00  0.00     0.003 A 
ENDROOT
TORSDOF 0
ENDMDL
