MODEL 1
REMARK minimizedAffinity -4.06848526
REMARK minimizedRMSD -1
REMARK  0 active torsions:
REMARK  status: ('A' for Active; 'I' for Inactive)
ROOT
ATOM      1  C2' OXE d   1       1.024  -2.129   0.754  0.00  0.00     0.078 C 
ATOM      2  C1' OXE d   1      -1.694  -2.825   0.845  0.00  0.00     0.078 C 
ATOM      3  C1  OXE d   1      -1.347  -1.363   0.725  0.00  0.00    -0.078 A 
ATOM      4  C2  OXE d   1      -0.014  -1.027   0.728  0.00  0.00    -0.078 A 
ATOM      5  C3  OXE d   1       0.362   0.303   0.565  0.00  0.00     0.003 A 
ATOM      6  C4  OXE d   1      -0.603   1.316   0.552  0.00  0.00    -0.002 A 
ATOM      7  C5  OXE d   1      -1.966   1.000   0.588  0.00  0.00    -0.002 A 
ATOM      8  C6  OXE d   1      -2.354  -0.335   0.632  0.00  0.00     0.003 A 
ENDROOT
TORSDOF 0
ENDMDL
