MODEL 1
REMARK minimizedAffinity 4.09718084
REMARK minimizedRMSD -1
REMARK  1 active torsions:
REMARK  status: ('A' for Active; 'I' for Inactive)
REMARK    1  A    between atoms: N_2  and  C1_3 
ROOT
ATOM      1  C1  UNL d   1       4.845   1.863  -1.163  0.00  0.00     0.143 A 
ATOM      2  C2  UNL d   1       5.999   1.322  -0.587  0.00  0.00    -0.057 A 
ATOM      3  C3  UNL d   1       6.000   0.035  -0.035  0.00  0.00     0.033 A 
ATOM      4  C4  UNL d   1       4.834  -0.724  -0.023  0.00  0.00    -0.042 A 
ATOM      5  C5  UNL d   1       3.669  -0.196  -0.567  0.00  0.00     0.033 A 
ATOM      6  C6  UNL d   1       3.676   1.086  -1.123  0.00  0.00    -0.057 A 
ENDROOT
BRANCH   1   7
ATOM      7  N   UNL d   1       4.754   3.173  -1.639  0.00  0.00    -0.732 N 
ATOM      8  C   UNL d   1       4.785   4.294  -0.724  0.00  0.00     0.284 C 
ATOM      9  H3  UNL d   1       5.295   3.316  -2.489  0.00  0.00     0.395 HD
ENDBRANCH   1   7
TORSDOF 1
ENDMDL
