MODEL 1
REMARK minimizedAffinity 6.39246178
REMARK minimizedRMSD -1
REMARK  1 active torsions:
REMARK  status: ('A' for Active; 'I' for Inactive)
REMARK    1  A    between atoms: N_2  and  C1_3 
ROOT
ATOM      1  C1  UNL d   1       4.913   3.405  -0.951  0.00  0.00     0.143 A 
ATOM      2  C2  UNL d   1       5.100   3.624   0.418  0.00  0.00    -0.057 A 
ATOM      3  C3  UNL d   1       5.624   4.832   0.895  0.00  0.00     0.033 A 
ATOM      4  C4  UNL d   1       6.000   5.833   0.005  0.00  0.00    -0.042 A 
ATOM      5  C5  UNL d   1       5.847   5.627  -1.361  0.00  0.00     0.033 A 
ATOM      6  C6  UNL d   1       5.316   4.422  -1.830  0.00  0.00    -0.057 A 
ENDROOT
BRANCH   1   7
ATOM      7  N   UNL d   1       4.488   2.189  -1.492  0.00  0.00    -0.732 N 
ATOM      8  C   UNL d   1       4.376   1.010  -0.660  0.00  0.00     0.284 C 
ATOM      9  H3  UNL d   1       3.725   2.304  -2.155  0.00  0.00     0.395 HD
ENDBRANCH   1   7
TORSDOF 1
ENDMDL
