MODEL 1
REMARK minimizedAffinity 12.9257507
REMARK minimizedRMSD -1
REMARK  1 active torsions:
REMARK  status: ('A' for Active; 'I' for Inactive)
REMARK    1  A    between atoms: N_2  and  C1_3 
ROOT
ATOM      1  C1  UNL d   1       0.399   1.317   2.055  0.00  0.00     0.143 A 
ATOM      2  C2  UNL d   1      -0.238   0.666   0.994  0.00  0.00    -0.057 A 
ATOM      3  C3  UNL d   1      -1.117   1.349   0.145  0.00  0.00     0.033 A 
ATOM      4  C4  UNL d   1      -1.396   2.694   0.360  0.00  0.00    -0.042 A 
ATOM      5  C5  UNL d   1      -0.793   3.357   1.423  0.00  0.00     0.033 A 
ATOM      6  C6  UNL d   1       0.088   2.670   2.264  0.00  0.00    -0.057 A 
ENDROOT
BRANCH   1   7
ATOM      7  N   UNL d   1       1.206   0.670   2.994  0.00  0.00    -0.732 N 
ATOM      8  C   UNL d   1       1.086  -0.756   3.211  0.00  0.00     0.284 C 
ATOM      9  H3  UNL d   1       2.165   1.009   2.981  0.00  0.00     0.395 HD
ENDBRANCH   1   7
TORSDOF 1
ENDMDL
