MODEL 1
REMARK minimizedAffinity 5.31237411
REMARK minimizedRMSD -1
REMARK  1 active torsions:
REMARK  status: ('A' for Active; 'I' for Inactive)
REMARK    1  A    between atoms: N_2  and  C1_3 
ROOT
ATOM      1  C1  UNL d   1       0.689   2.255   2.156  0.00  0.00     0.143 A 
ATOM      2  C2  UNL d   1       0.025   3.481   2.041  0.00  0.00    -0.057 A 
ATOM      3  C3  UNL d   1      -1.135   3.609   1.267  0.00  0.00     0.033 A 
ATOM      4  C4  UNL d   1      -1.636   2.515   0.568  0.00  0.00    -0.042 A 
ATOM      5  C5  UNL d   1      -0.978   1.293   0.647  0.00  0.00     0.033 A 
ATOM      6  C6  UNL d   1       0.176   1.170   1.428  0.00  0.00    -0.057 A 
ENDROOT
BRANCH   1   7
ATOM      7  N   UNL d   1       1.901   2.087   2.831  0.00  0.00    -0.732 N 
ATOM      8  C   UNL d   1       2.754   3.222   3.106  0.00  0.00     0.284 C 
ATOM      9  H3  UNL d   1       1.828   1.425   3.600  0.00  0.00     0.395 HD
ENDBRANCH   1   7
TORSDOF 1
ENDMDL
