MODEL 1
REMARK minimizedAffinity -1.14887524
REMARK minimizedRMSD -1
REMARK  0 active torsions:
REMARK  status: ('A' for Active; 'I' for Inactive)
ROOT
ATOM      1  C   UNL d   1       0.130   3.158   0.854  0.00  0.00    -0.002 A 
ATOM      2  C1  UNL d   1       1.499   2.953   0.953  0.00  0.00     0.010 A 
ATOM      3  C2  UNL d   1       2.033   1.665   0.878  0.00  0.00     0.041 A 
ATOM      4  C3  UNL d   1       1.158   0.575   0.697  0.00  0.00    -0.075 A 
ATOM      5  S   UNL d   1       1.585  -1.091   0.576  0.00  0.00     0.015 SA
ATOM      6  C4  UNL d   1      -0.039  -1.570   0.387  0.00  0.00     0.022 A 
ATOM      7  C5  UNL d   1      -0.900  -0.498   0.415  0.00  0.00     0.026 A 
ATOM      8  C6  UNL d   1      -0.224   0.756   0.593  0.00  0.00    -0.082 A 
ATOM      9  C7  UNL d   1      -0.733   2.074   0.674  0.00  0.00     0.045 A 
ENDROOT
TORSDOF 0
ENDMDL
