MODEL 1
REMARK minimizedAffinity -3.57641101
REMARK minimizedRMSD -1
REMARK  0 active torsions:
REMARK  status: ('A' for Active; 'I' for Inactive)
ROOT
ATOM      1  C   UNL d   1      -1.453   2.983   0.406  0.00  0.00    -0.002 A 
ATOM      2  C1  UNL d   1      -1.709   1.632   0.217  0.00  0.00     0.010 A 
ATOM      3  C2  UNL d   1      -0.662   0.710   0.171  0.00  0.00     0.041 A 
ATOM      4  C3  UNL d   1       0.661   1.172   0.320  0.00  0.00    -0.075 A 
ATOM      5  S   UNL d   1       2.101   0.226   0.298  0.00  0.00     0.015 SA
ATOM      6  C4  UNL d   1       3.091   1.592   0.540  0.00  0.00     0.022 A 
ATOM      7  C5  UNL d   1       2.357   2.750   0.636  0.00  0.00     0.026 A 
ATOM      8  C6  UNL d   1       0.944   2.528   0.512  0.00  0.00    -0.082 A 
ATOM      9  C7  UNL d   1      -0.140   3.438   0.553  0.00  0.00     0.045 A 
ENDROOT
TORSDOF 0
ENDMDL
