MODEL 1
REMARK minimizedAffinity -3.92800236
REMARK minimizedRMSD -1
REMARK  0 active torsions:
REMARK  status: ('A' for Active; 'I' for Inactive)
ROOT
ATOM      1  C   UNL d   1       0.748   3.616   0.255  0.00  0.00    -0.002 A 
ATOM      2  C1  UNL d   1       1.901   2.858   0.105  0.00  0.00     0.010 A 
ATOM      3  C2  UNL d   1       1.837   1.463   0.095  0.00  0.00     0.041 A 
ATOM      4  C3  UNL d   1       0.583   0.837   0.238  0.00  0.00    -0.075 A 
ATOM      5  S   UNL d   1       0.263  -0.857   0.255  0.00  0.00     0.015 SA
ATOM      6  C4  UNL d   1      -1.411  -0.614   0.461  0.00  0.00     0.022 A 
ATOM      7  C5  UNL d   1      -1.735   0.721   0.518  0.00  0.00     0.026 A 
ATOM      8  C6  UNL d   1      -0.591   1.579   0.390  0.00  0.00    -0.082 A 
ATOM      9  C7  UNL d   1      -0.494   2.992   0.397  0.00  0.00     0.045 A 
ENDROOT
TORSDOF 0
ENDMDL
