MODEL 1
REMARK minimizedAffinity 0.79292649
REMARK minimizedRMSD -1
REMARK  0 active torsions:
REMARK  status: ('A' for Active; 'I' for Inactive)
ROOT
ATOM      1  C   UNL d   1      -2.152   1.772   1.342  0.00  0.00    -0.002 A 
ATOM      2  C1  UNL d   1      -1.144   2.683   1.058  0.00  0.00     0.010 A 
ATOM      3  C2  UNL d   1       0.095   2.247   0.584  0.00  0.00     0.041 A 
ATOM      4  C3  UNL d   1       0.305   0.867   0.396  0.00  0.00    -0.075 A 
ATOM      5  S   UNL d   1       1.741   0.103  -0.175  0.00  0.00     0.015 SA
ATOM      6  C4  UNL d   1       1.051  -1.451  -0.058  0.00  0.00     0.022 A 
ATOM      7  C5  UNL d   1      -0.243  -1.406   0.405  0.00  0.00     0.026 A 
ATOM      8  C6  UNL d   1      -0.694  -0.070   0.674  0.00  0.00    -0.082 A 
ATOM      9  C7  UNL d   1      -1.939   0.404   1.154  0.00  0.00     0.045 A 
ENDROOT
TORSDOF 0
ENDMDL
