MODEL 1
REMARK minimizedAffinity -5.29346514
REMARK minimizedRMSD -1
REMARK  0 active torsions:
REMARK  status: ('A' for Active; 'I' for Inactive)
ROOT
ATOM      1  C   UNL d   1       0.383   3.588   0.360  0.00  0.00    -0.002 A 
ATOM      2  C1  UNL d   1       1.593   3.043  -0.047  0.00  0.00     0.010 A 
ATOM      3  C2  UNL d   1       1.723   1.665  -0.234  0.00  0.00     0.041 A 
ATOM      4  C3  UNL d   1       0.607   0.837  -0.005  0.00  0.00    -0.075 A 
ATOM      5  S   UNL d   1       0.533  -0.877  -0.171  0.00  0.00     0.015 SA
ATOM      6  C4  UNL d   1      -1.106  -0.926   0.295  0.00  0.00     0.022 A 
ATOM      7  C5  UNL d   1      -1.600   0.326   0.574  0.00  0.00     0.026 A 
ATOM      8  C6  UNL d   1      -0.621   1.363   0.405  0.00  0.00    -0.082 A 
ATOM      9  C7  UNL d   1      -0.722   2.764   0.587  0.00  0.00     0.045 A 
ENDROOT
TORSDOF 0
ENDMDL
