MODEL 1
REMARK minimizedAffinity -1.52994061
REMARK minimizedRMSD -1
REMARK  0 active torsions:
REMARK  status: ('A' for Active; 'I' for Inactive)
ROOT
ATOM      1  C   UNL d   1       0.377  -2.803  -0.675  0.00  0.00    -0.002 A 
ATOM      2  C1  UNL d   1      -0.783  -2.925  -1.427  0.00  0.00     0.010 A 
ATOM      3  C2  UNL d   1      -1.734  -1.903  -1.436  0.00  0.00     0.041 A 
ATOM      4  C3  UNL d   1      -1.497  -0.744  -0.670  0.00  0.00    -0.075 A 
ATOM      5  S   UNL d   1      -2.521   0.636  -0.529  0.00  0.00     0.015 SA
ATOM      6  C4  UNL d   1      -1.442   1.421   0.531  0.00  0.00     0.022 A 
ATOM      7  C5  UNL d   1      -0.323   0.662   0.783  0.00  0.00     0.026 A 
ATOM      8  C6  UNL d   1      -0.336  -0.598   0.094  0.00  0.00    -0.082 A 
ATOM      9  C7  UNL d   1       0.609  -1.652   0.083  0.00  0.00     0.045 A 
ENDROOT
TORSDOF 0
ENDMDL
