MODEL 1
REMARK minimizedAffinity -0.930630505
REMARK minimizedRMSD -1
REMARK  0 active torsions:
REMARK  status: ('A' for Active; 'I' for Inactive)
ROOT
ATOM      1  O1  BZF d   1      -0.184  -2.380  -0.862  0.00  0.00    -0.204 OA
ATOM      2  C2  BZF d   1       0.951  -2.850  -1.495  0.00  0.00     0.174 A 
ATOM      3  C3  BZF d   1       1.782  -1.834  -1.804  0.00  0.00    -0.012 A 
ATOM      4  C3A BZF d   1       1.169  -0.665  -1.254  0.00  0.00    -0.107 A 
ATOM      5  C4  BZF d   1       1.523   0.654  -1.219  0.00  0.00     0.055 A 
ATOM      6  C5  BZF d   1       0.668   1.553  -0.667  0.00  0.00    -0.016 A 
ATOM      7  C6  BZF d   1      -0.551   1.171  -0.145  0.00  0.00     0.022 A 
ATOM      8  C7  BZF d   1      -0.944  -0.126  -0.151  0.00  0.00     0.029 A 
ATOM      9  C7A BZF d   1      -0.067  -1.042  -0.679  0.00  0.00     0.058 A 
ENDROOT
TORSDOF 0
ENDMDL
