MODEL 1
REMARK minimizedAffinity -3.52212572
REMARK minimizedRMSD -1
REMARK  0 active torsions:
REMARK  status: ('A' for Active; 'I' for Inactive)
ROOT
ATOM      1  O1  BZF d   1       0.399  -0.054  -0.898  0.00  0.00    -0.204 OA
ATOM      2  C2  BZF d   1       0.870  -0.954   0.038  0.00  0.00     0.174 A 
ATOM      3  C3  BZF d   1       0.367  -0.681   1.259  0.00  0.00    -0.012 A 
ATOM      4  C3A BZF d   1      -0.544   0.403   1.058  0.00  0.00    -0.107 A 
ATOM      5  C4  BZF d   1      -1.364   1.108   1.892  0.00  0.00     0.055 A 
ATOM      6  C5  BZF d   1      -2.071   2.156   1.393  0.00  0.00    -0.016 A 
ATOM      7  C6  BZF d   1      -1.978   2.530   0.069  0.00  0.00     0.022 A 
ATOM      8  C7  BZF d   1      -1.181   1.858  -0.798  0.00  0.00     0.029 A 
ATOM      9  C7A BZF d   1      -0.491   0.778  -0.305  0.00  0.00     0.058 A 
ENDROOT
TORSDOF 0
ENDMDL
