MODEL 1
REMARK minimizedAffinity -0.977879822
REMARK minimizedRMSD -1
REMARK  0 active torsions:
REMARK  status: ('A' for Active; 'I' for Inactive)
ROOT
ATOM      1  O1  BZF d   1      -1.596   0.943   2.226  0.00  0.00    -0.204 OA
ATOM      2  C2  BZF d   1      -2.068   2.049   1.546  0.00  0.00     0.174 A 
ATOM      3  C3  BZF d   1      -1.550   2.103   0.302  0.00  0.00    -0.012 A 
ATOM      4  C3A BZF d   1      -0.773   0.909   0.166  0.00  0.00    -0.107 A 
ATOM      5  C4  BZF d   1      -0.027   0.385  -0.850  0.00  0.00     0.055 A 
ATOM      6  C5  BZF d   1       0.667  -0.764  -0.636  0.00  0.00    -0.016 A 
ATOM      7  C6  BZF d   1       0.642  -1.411   0.583  0.00  0.00     0.022 A 
ATOM      8  C7  BZF d   1      -0.088  -0.932   1.619  0.00  0.00     0.029 A 
ATOM      9  C7A BZF d   1      -0.816   0.211   1.396  0.00  0.00     0.058 A 
ENDROOT
TORSDOF 0
ENDMDL
