MODEL 1
REMARK minimizedAffinity -4.1642437
REMARK minimizedRMSD -1
REMARK  0 active torsions:
REMARK  status: ('A' for Active; 'I' for Inactive)
ROOT
ATOM      1  O1  BZF d   1      -0.493   0.043  -1.675  0.00  0.00    -0.204 OA
ATOM      2  C2  BZF d   1       0.372  -1.031  -1.591  0.00  0.00     0.174 A 
ATOM      3  C3  BZF d   1       0.849  -1.164  -0.337  0.00  0.00    -0.012 A 
ATOM      4  C3A BZF d   1       0.174  -0.163   0.431  0.00  0.00    -0.107 A 
ATOM      5  C4  BZF d   1       0.211   0.193   1.748  0.00  0.00     0.055 A 
ATOM      6  C5  BZF d   1      -0.518   1.262   2.164  0.00  0.00    -0.016 A 
ATOM      7  C6  BZF d   1      -1.289   2.000   1.290  0.00  0.00     0.022 A 
ATOM      8  C7  BZF d   1      -1.361   1.681  -0.026  0.00  0.00     0.029 A 
ATOM      9  C7A BZF d   1      -0.652   0.581  -0.443  0.00  0.00     0.058 A 
ENDROOT
TORSDOF 0
ENDMDL
