MODEL 1
REMARK minimizedAffinity -4.92034817
REMARK minimizedRMSD -1
REMARK  0 active torsions:
REMARK  status: ('A' for Active; 'I' for Inactive)
ROOT
ATOM      1  O1  BZF d   1       0.388  -0.148  -0.979  0.00  0.00    -0.204 OA
ATOM      2  C2  BZF d   1       0.820  -1.014   0.007  0.00  0.00     0.174 A 
ATOM      3  C3  BZF d   1       0.404  -0.601   1.222  0.00  0.00    -0.012 A 
ATOM      4  C3A BZF d   1      -0.411   0.547   0.970  0.00  0.00    -0.107 A 
ATOM      5  C4  BZF d   1      -1.121   1.390   1.777  0.00  0.00     0.055 A 
ATOM      6  C5  BZF d   1      -1.751   2.459   1.224  0.00  0.00    -0.016 A 
ATOM      7  C6  BZF d   1      -1.688   2.719  -0.129  0.00  0.00     0.022 A 
ATOM      8  C7  BZF d   1      -1.001   1.909  -0.971  0.00  0.00     0.029 A 
ATOM      9  C7A BZF d   1      -0.391   0.809  -0.419  0.00  0.00     0.058 A 
ENDROOT
TORSDOF 0
ENDMDL
