MODEL 1
REMARK minimizedAffinity -0.653931618
REMARK minimizedRMSD -1
REMARK  0 active torsions:
REMARK  status: ('A' for Active; 'I' for Inactive)
ROOT
ATOM      1  O1  BZF d   1       0.229   0.233  -1.522  0.00  0.00    -0.204 OA
ATOM      2  C2  BZF d   1       0.374   0.343  -0.152  0.00  0.00     0.174 A 
ATOM      3  C3  BZF d   1       0.816  -0.816   0.377  0.00  0.00    -0.012 A 
ATOM      4  C3A BZF d   1       1.044  -1.678  -0.742  0.00  0.00    -0.107 A 
ATOM      5  C4  BZF d   1       1.501  -2.959  -0.862  0.00  0.00     0.055 A 
ATOM      6  C5  BZF d   1       1.537  -3.535  -2.093  0.00  0.00    -0.016 A 
ATOM      7  C6  BZF d   1       1.119  -2.861  -3.222  0.00  0.00     0.022 A 
ATOM      8  C7  BZF d   1       0.662  -1.587  -3.153  0.00  0.00     0.029 A 
ATOM      9  C7A BZF d   1       0.656  -0.991  -1.916  0.00  0.00     0.058 A 
ENDROOT
TORSDOF 0
ENDMDL
