MODEL 1
REMARK minimizedAffinity -5.84336281
REMARK minimizedRMSD -1
REMARK  0 active torsions:
REMARK  status: ('A' for Active; 'I' for Inactive)
ROOT
ATOM      1  O1  BZF d   1      -1.376   1.201   2.172  0.00  0.00    -0.204 OA
ATOM      2  C2  BZF d   1      -1.879   2.202   1.364  0.00  0.00     0.174 A 
ATOM      3  C3  BZF d   1      -1.404   2.085   0.107  0.00  0.00    -0.012 A 
ATOM      4  C3A BZF d   1      -0.624   0.886   0.109  0.00  0.00    -0.107 A 
ATOM      5  C4  BZF d   1       0.090   0.228  -0.852  0.00  0.00     0.055 A 
ATOM      6  C5  BZF d   1       0.799  -0.878  -0.507  0.00  0.00    -0.016 A 
ATOM      7  C6  BZF d   1       0.820  -1.352   0.789  0.00  0.00     0.022 A 
ATOM      8  C7  BZF d   1       0.124  -0.737   1.775  0.00  0.00     0.029 A 
ATOM      9  C7A BZF d   1      -0.620   0.363   1.423  0.00  0.00     0.058 A 
ENDROOT
TORSDOF 0
ENDMDL
