MODEL 1
REMARK minimizedAffinity -5.11465025
REMARK minimizedRMSD -1
REMARK  0 active torsions:
REMARK  status: ('A' for Active; 'I' for Inactive)
ROOT
ATOM      1  O1  BZF d   1      -0.769   3.486  -0.216  0.00  0.00    -0.204 OA
ATOM      2  C2  BZF d   1      -1.627   3.510   0.866  0.00  0.00     0.174 A 
ATOM      3  C3  BZF d   1      -1.714   2.290   1.435  0.00  0.00    -0.012 A 
ATOM      4  C3A BZF d   1      -0.785   1.473   0.716  0.00  0.00    -0.107 A 
ATOM      5  C4  BZF d   1      -0.407   0.165   0.824  0.00  0.00     0.055 A 
ATOM      6  C5  BZF d   1       0.471  -0.345  -0.080  0.00  0.00    -0.016 A 
ATOM      7  C6  BZF d   1       0.985   0.422  -1.105  0.00  0.00     0.022 A 
ATOM      8  C7  BZF d   1       0.643   1.725  -1.249  0.00  0.00     0.029 A 
ATOM      9  C7A BZF d   1      -0.218   2.252  -0.318  0.00  0.00     0.058 A 
ENDROOT
TORSDOF 0
ENDMDL
