MODEL 1
REMARK minimizedAffinity -6.04207659
REMARK minimizedRMSD -1
REMARK  0 active torsions:
REMARK  status: ('A' for Active; 'I' for Inactive)
ROOT
ATOM      1  O1  BZF d   1       0.965   0.414  -0.696  0.00  0.00    -0.204 OA
ATOM      2  C2  BZF d   1       1.087  -0.709   0.099  0.00  0.00     0.174 A 
ATOM      3  C3  BZF d   1       0.328  -0.594   1.209  0.00  0.00    -0.012 A 
ATOM      4  C3A BZF d   1      -0.378   0.640   1.055  0.00  0.00    -0.107 A 
ATOM      5  C4  BZF d   1      -1.297   1.298   1.822  0.00  0.00     0.055 A 
ATOM      6  C5  BZF d   1      -1.737   2.520   1.423  0.00  0.00    -0.016 A 
ATOM      7  C6  BZF d   1      -1.277   3.116   0.268  0.00  0.00     0.022 A 
ATOM      8  C7  BZF d   1      -0.369   2.500  -0.528  0.00  0.00     0.029 A 
ATOM      9  C7A BZF d   1       0.053   1.251  -0.145  0.00  0.00     0.058 A 
ENDROOT
TORSDOF 0
ENDMDL
