MODEL 1
REMARK minimizedAffinity -3.4089396
REMARK minimizedRMSD -1
REMARK  0 active torsions:
REMARK  status: ('A' for Active; 'I' for Inactive)
ROOT
ATOM      1  O1  BZF d   1      -0.389  -0.497   1.952  0.00  0.00    -0.204 OA
ATOM      2  C2  BZF d   1      -1.187   0.534   2.409  0.00  0.00     0.174 A 
ATOM      3  C3  BZF d   1      -1.203   1.554   1.526  0.00  0.00    -0.012 A 
ATOM      4  C3A BZF d   1      -0.436   1.096   0.409  0.00  0.00    -0.107 A 
ATOM      5  C4  BZF d   1      -0.101   1.654  -0.792  0.00  0.00     0.055 A 
ATOM      6  C5  BZF d   1       0.722   0.972  -1.631  0.00  0.00    -0.016 A 
ATOM      7  C6  BZF d   1       1.234  -0.266  -1.299  0.00  0.00     0.022 A 
ATOM      8  C7  BZF d   1       0.926  -0.862  -0.121  0.00  0.00     0.029 A 
ATOM      9  C7A BZF d   1       0.068  -0.190   0.714  0.00  0.00     0.058 A 
ENDROOT
TORSDOF 0
ENDMDL
