MODEL 1
REMARK minimizedAffinity -3.47154093
REMARK minimizedRMSD -1
REMARK  0 active torsions:
REMARK  status: ('A' for Active; 'I' for Inactive)
ROOT
ATOM      1  O1  BZF d   1       1.083  -0.614   0.646  0.00  0.00    -0.204 OA
ATOM      2  C2  BZF d   1       1.345  -0.501  -0.706  0.00  0.00     0.174 A 
ATOM      3  C3  BZF d   1       0.405   0.250  -1.315  0.00  0.00    -0.012 A 
ATOM      4  C3A BZF d   1      -0.451   0.707  -0.263  0.00  0.00    -0.107 A 
ATOM      5  C4  BZF d   1      -1.559   1.505  -0.233  0.00  0.00     0.055 A 
ATOM      6  C5  BZF d   1      -2.204   1.696   0.947  0.00  0.00    -0.016 A 
ATOM      7  C6  BZF d   1      -1.772   1.102   2.115  0.00  0.00     0.022 A 
ATOM      8  C7  BZF d   1      -0.675   0.306   2.137  0.00  0.00     0.029 A 
ATOM      9  C7A BZF d   1      -0.002   0.138   0.951  0.00  0.00     0.058 A 
ENDROOT
TORSDOF 0
ENDMDL
