MODEL 1
REMARK minimizedAffinity -5.22172689
REMARK minimizedRMSD -1
REMARK  0 active torsions:
REMARK  status: ('A' for Active; 'I' for Inactive)
ROOT
ATOM      1  O1  BZF d   1       1.116   1.065  -1.283  0.00  0.00    -0.204 OA
ATOM      2  C2  BZF d   1       1.227  -0.256  -0.895  0.00  0.00     0.174 A 
ATOM      3  C3  BZF d   1       0.358  -0.539   0.096  0.00  0.00    -0.012 A 
ATOM      4  C3A BZF d   1      -0.405   0.658   0.281  0.00  0.00    -0.107 A 
ATOM      5  C4  BZF d   1      -1.434   0.997   1.112  0.00  0.00     0.055 A 
ATOM      6  C5  BZF d   1      -1.907   2.271   1.092  0.00  0.00    -0.016 A 
ATOM      7  C6  BZF d   1      -1.372   3.231   0.259  0.00  0.00     0.022 A 
ATOM      8  C7  BZF d   1      -0.354   2.941  -0.588  0.00  0.00     0.029 A 
ATOM      9  C7A BZF d   1       0.104   1.646  -0.593  0.00  0.00     0.058 A 
ENDROOT
TORSDOF 0
ENDMDL
