MODEL 1
REMARK minimizedAffinity -4.25346518
REMARK minimizedRMSD -1
REMARK  0 active torsions:
REMARK  status: ('A' for Active; 'I' for Inactive)
ROOT
ATOM      1  O1  BZF d   1       0.020   2.205  -0.904  0.00  0.00    -0.204 OA
ATOM      2  C2  BZF d   1      -0.807   3.245  -0.526  0.00  0.00     0.174 A 
ATOM      3  C3  BZF d   1      -1.501   2.925   0.585  0.00  0.00    -0.012 A 
ATOM      4  C3A BZF d   1      -1.015   1.637   0.974  0.00  0.00    -0.107 A 
ATOM      5  C4  BZF d   1      -1.306   0.797   2.011  0.00  0.00     0.055 A 
ATOM      6  C5  BZF d   1      -0.706  -0.421   2.063  0.00  0.00    -0.016 A 
ATOM      7  C6  BZF d   1       0.186  -0.833   1.095  0.00  0.00     0.022 A 
ATOM      8  C7  BZF d   1       0.510  -0.033   0.050  0.00  0.00     0.029 A 
ATOM      9  C7A BZF d   1      -0.070   1.211   0.012  0.00  0.00     0.058 A 
ENDROOT
TORSDOF 0
ENDMDL
