MODEL 1
REMARK minimizedAffinity -5.33225203
REMARK minimizedRMSD -1
REMARK  0 active torsions:
REMARK  status: ('A' for Active; 'I' for Inactive)
ROOT
ATOM      1  O1  BZF d   1       0.977   1.620  -1.231  0.00  0.00    -0.204 OA
ATOM      2  C2  BZF d   1       1.318   0.282  -1.194  0.00  0.00     0.174 A 
ATOM      3  C3  BZF d   1       0.571  -0.377  -0.285  0.00  0.00    -0.012 A 
ATOM      4  C3A BZF d   1      -0.355   0.592   0.215  0.00  0.00    -0.107 A 
ATOM      5  C4  BZF d   1      -1.366   0.539   1.131  0.00  0.00     0.055 A 
ATOM      6  C5  BZF d   1      -2.032   1.680   1.447  0.00  0.00    -0.016 A 
ATOM      7  C6  BZF d   1      -1.710   2.892   0.871  0.00  0.00     0.022 A 
ATOM      8  C7  BZF d   1      -0.718   2.994  -0.046  0.00  0.00     0.029 A 
ATOM      9  C7A BZF d   1      -0.065   1.836  -0.392  0.00  0.00     0.058 A 
ENDROOT
TORSDOF 0
ENDMDL
