MODEL 1
REMARK minimizedAffinity 4.40488958
REMARK minimizedRMSD -1
REMARK  1 active torsions:
REMARK  status: ('A' for Active; 'I' for Inactive)
REMARK    1  A    between atoms: C3_4  and  O_7 
ROOT
ATOM      1  C   UNL d   1       0.516   2.115   0.732  0.00  0.00    -0.033 A 
ATOM      2  C1  UNL d   1       1.828   2.585   0.817  0.00  0.00     0.039 A 
ATOM      3  C2  UNL d   1       2.184   3.783   0.195  0.00  0.00    -0.080 A 
ATOM      4  C3  UNL d   1       1.219   4.501  -0.507  0.00  0.00     0.150 A 
ATOM      5  C4  UNL d   1      -0.091   4.041  -0.592  0.00  0.00    -0.007 A 
ATOM      6  C5  UNL d   1      -0.444   2.844   0.029  0.00  0.00     0.039 A 
ENDROOT
BRANCH   4   7
ATOM      7  O   UNL d   1       1.520   5.673  -1.135  0.00  0.00    -0.526 OA
ATOM      8  H5  UNL d   1       2.468   5.852  -1.015  0.00  0.00     0.418 HD
ENDBRANCH   4   7
TORSDOF 1
ENDMDL
