MODEL 1
REMARK minimizedAffinity 4.78559732
REMARK minimizedRMSD -1
REMARK  1 active torsions:
REMARK  status: ('A' for Active; 'I' for Inactive)
REMARK    1  A    between atoms: C3_4  and  O_7 
ROOT
ATOM      1  C   UNL d   1       1.008  -0.938   1.724  0.00  0.00    -0.033 A 
ATOM      2  C1  UNL d   1       1.806  -0.780   2.859  0.00  0.00     0.039 A 
ATOM      3  C2  UNL d   1       3.182  -1.006   2.785  0.00  0.00    -0.080 A 
ATOM      4  C3  UNL d   1       3.747  -1.388   1.571  0.00  0.00     0.150 A 
ATOM      5  C4  UNL d   1       2.959  -1.543   0.436  0.00  0.00    -0.007 A 
ATOM      6  C5  UNL d   1       1.585  -1.318   0.512  0.00  0.00     0.039 A 
ENDROOT
BRANCH   4   7
ATOM      7  O   UNL d   1       5.084  -1.624   1.451  0.00  0.00    -0.526 OA
ATOM      8  H5  UNL d   1       5.497  -1.505   2.322  0.00  0.00     0.418 HD
ENDBRANCH   4   7
TORSDOF 1
ENDMDL
