MODEL 1
REMARK minimizedAffinity 4.03251028
REMARK minimizedRMSD -1
REMARK  1 active torsions:
REMARK  status: ('A' for Active; 'I' for Inactive)
REMARK    1  A    between atoms: C3_4  and  O_7 
ROOT
ATOM      1  C   UNL d   1      -1.178   3.898  -1.514  0.00  0.00    -0.033 A 
ATOM      2  C1  UNL d   1      -1.182   5.242  -1.890  0.00  0.00     0.039 A 
ATOM      3  C2  UNL d   1       0.012   5.965  -1.919  0.00  0.00    -0.080 A 
ATOM      4  C3  UNL d   1       1.202   5.332  -1.571  0.00  0.00     0.150 A 
ATOM      5  C4  UNL d   1       1.214   3.992  -1.199  0.00  0.00    -0.007 A 
ATOM      6  C5  UNL d   1       0.020   3.272  -1.170  0.00  0.00     0.039 A 
ENDROOT
BRANCH   4   7
ATOM      7  O   UNL d   1       2.392   5.997  -1.579  0.00  0.00    -0.526 OA
ATOM      8  H5  UNL d   1       2.226   6.922  -1.829  0.00  0.00     0.418 HD
ENDBRANCH   4   7
TORSDOF 1
ENDMDL
