MODEL 1
REMARK minimizedAffinity -2.9601109
REMARK minimizedRMSD -1
REMARK  1 active torsions:
REMARK  status: ('A' for Active; 'I' for Inactive)
REMARK    1  A    between atoms: C3_4  and  O_7 
ROOT
ATOM      1  C   UNL d   1      -4.883   5.782   1.499  0.00  0.00    -0.033 A 
ATOM      2  C1  UNL d   1      -3.503   6.000   1.494  0.00  0.00     0.039 A 
ATOM      3  C2  UNL d   1      -2.624   4.915   1.495  0.00  0.00    -0.080 A 
ATOM      4  C3  UNL d   1      -3.136   3.621   1.498  0.00  0.00     0.150 A 
ATOM      5  C4  UNL d   1      -4.508   3.397   1.499  0.00  0.00    -0.007 A 
ATOM      6  C5  UNL d   1      -5.385   4.481   1.500  0.00  0.00     0.039 A 
ENDROOT
BRANCH   4   7
ATOM      7  O   UNL d   1      -2.317   2.531   1.504  0.00  0.00    -0.526 OA
ATOM      8  H5  UNL d   1      -1.395   2.839   1.532  0.00  0.00     0.418 HD
ENDBRANCH   4   7
TORSDOF 1
ENDMDL
