MODEL 1
REMARK minimizedAffinity 4.75859833
REMARK minimizedRMSD -1
REMARK  1 active torsions:
REMARK  status: ('A' for Active; 'I' for Inactive)
REMARK    1  A    between atoms: C3_4  and  O_7 
ROOT
ATOM      1  C   UNL d   1       0.122   6.000  -2.037  0.00  0.00    -0.033 A 
ATOM      2  C1  UNL d   1      -1.034   5.229  -1.904  0.00  0.00     0.039 A 
ATOM      3  C2  UNL d   1      -0.941   3.888  -1.525  0.00  0.00    -0.080 A 
ATOM      4  C3  UNL d   1       0.312   3.331  -1.283  0.00  0.00     0.150 A 
ATOM      5  C4  UNL d   1       1.467   4.095  -1.410  0.00  0.00    -0.007 A 
ATOM      6  C5  UNL d   1       1.373   5.433  -1.789  0.00  0.00     0.039 A 
ENDROOT
BRANCH   4   7
ATOM      7  O   UNL d   1       0.453   2.026  -0.916  0.00  0.00    -0.526 OA
ATOM      8  H5  UNL d   1      -0.428   1.615  -0.896  0.00  0.00     0.418 HD
ENDBRANCH   4   7
TORSDOF 1
ENDMDL
