MODEL 1
REMARK minimizedAffinity 7.21496344
REMARK minimizedRMSD -1
REMARK  1 active torsions:
REMARK  status: ('A' for Active; 'I' for Inactive)
REMARK    1  A    between atoms: C3_4  and  O_7 
ROOT
ATOM      1  C   UNL d   1      -1.422   5.874  -2.320  0.00  0.00    -0.033 A 
ATOM      2  C1  UNL d   1      -0.035   5.886  -2.165  0.00  0.00     0.039 A 
ATOM      3  C2  UNL d   1       0.623   4.760  -1.664  0.00  0.00    -0.080 A 
ATOM      4  C3  UNL d   1      -0.117   3.631  -1.325  0.00  0.00     0.150 A 
ATOM      5  C4  UNL d   1      -1.499   3.611  -1.481  0.00  0.00    -0.007 A 
ATOM      6  C5  UNL d   1      -2.154   4.736  -1.980  0.00  0.00     0.039 A 
ENDROOT
BRANCH   4   7
ATOM      7  O   UNL d   1       0.480   2.510  -0.829  0.00  0.00    -0.526 OA
ATOM      8  H5  UNL d   1       1.434   2.680  -0.749  0.00  0.00     0.418 HD
ENDBRANCH   4   7
TORSDOF 1
ENDMDL
