MODEL 1
REMARK minimizedAffinity -0.734348953
REMARK minimizedRMSD -1
REMARK  2 active torsions:
REMARK  status: ('A' for Active; 'I' for Inactive)
REMARK    1  A    between atoms: C2'_3  and  C1'_4 
REMARK    2  A    between atoms: C1'_4  and  C1_5 
ROOT
ATOM      1  C1  I4B d   1      -2.576   1.030   1.810  0.00  0.00    -0.075 A 
ATOM      2  C2  I4B d   1      -2.565   0.784   3.160  0.00  0.00     0.003 A 
ATOM      3  C3  I4B d   1      -3.127  -0.411   3.672  0.00  0.00     0.002 A 
ATOM      4  C4  I4B d   1      -3.729  -1.303   2.808  0.00  0.00    -0.004 A 
ATOM      5  C5  I4B d   1      -3.719  -1.063   1.437  0.00  0.00     0.002 A 
ATOM      6  C6  I4B d   1      -3.128   0.105   0.933  0.00  0.00     0.003 A 
ENDROOT
BRANCH   1   7
ATOM      7  C1' I4B d   1      -2.004   2.317   1.307  0.00  0.00     0.060 C 
BRANCH   7   8
ATOM      8  C2' I4B d   1      -2.139   2.331  -0.202  0.00  0.00    -0.013 C 
ATOM      9  C4' I4B d   1      -2.998   3.479  -0.662  0.00  0.00     0.013 C 
ATOM     10  C3' I4B d   1      -0.762   2.415  -0.790  0.00  0.00     0.013 C 
ENDBRANCH   7   8
ENDBRANCH   1   7
TORSDOF 2
ENDMDL
