MODEL 1
REMARK minimizedAffinity 1.08087087
REMARK minimizedRMSD -1
REMARK  2 active torsions:
REMARK  status: ('A' for Active; 'I' for Inactive)
REMARK    1  A    between atoms: C2'_3  and  C1'_4 
REMARK    2  A    between atoms: C1'_4  and  C1_5 
ROOT
ATOM      1  C1  I4B d   1      -3.214   1.169   0.161  0.00  0.00    -0.075 A 
ATOM      2  C2  I4B d   1      -4.239   1.924  -0.350  0.00  0.00     0.003 A 
ATOM      3  C3  I4B d   1      -4.196   3.337  -0.262  0.00  0.00     0.002 A 
ATOM      4  C4  I4B d   1      -3.140   3.946   0.385  0.00  0.00    -0.004 A 
ATOM      5  C5  I4B d   1      -2.090   3.179   0.882  0.00  0.00     0.002 A 
ATOM      6  C6  I4B d   1      -2.121   1.782   0.759  0.00  0.00     0.003 A 
ENDROOT
BRANCH   1   7
ATOM      7  C1' I4B d   1      -3.308  -0.322   0.081  0.00  0.00     0.060 C 
BRANCH   7   8
ATOM      8  C2' I4B d   1      -2.357  -0.906   1.106  0.00  0.00    -0.013 C 
ATOM      9  C4' I4B d   1      -2.907  -0.769   2.501  0.00  0.00     0.013 C 
ATOM     10  C3' I4B d   1      -2.123  -2.345   0.754  0.00  0.00     0.013 C 
ENDBRANCH   7   8
ENDBRANCH   1   7
TORSDOF 2
ENDMDL
