MODEL 1
REMARK minimizedAffinity 3.73105621
REMARK minimizedRMSD -1
REMARK  2 active torsions:
REMARK  status: ('A' for Active; 'I' for Inactive)
REMARK    1  A    between atoms: C2'_3  and  C1'_4 
REMARK    2  A    between atoms: C1'_4  and  C1_5 
ROOT
ATOM      1  C1  I4B d   1       5.108   1.302   3.578  0.00  0.00    -0.075 A 
ATOM      2  C2  I4B d   1       5.995   1.969   4.386  0.00  0.00     0.003 A 
ATOM      3  C3  I4B d   1       6.000   3.384   4.423  0.00  0.00     0.002 A 
ATOM      4  C4  I4B d   1       5.142   4.089   3.604  0.00  0.00    -0.004 A 
ATOM      5  C5  I4B d   1       4.228   3.411   2.802  0.00  0.00     0.002 A 
ATOM      6  C6  I4B d   1       4.202   2.009   2.798  0.00  0.00     0.003 A 
ENDROOT
BRANCH   1   7
ATOM      7  C1' I4B d   1       5.152  -0.193   3.538  0.00  0.00     0.060 C 
BRANCH   7   8
ATOM      8  C2' I4B d   1       4.898  -0.704   4.942  0.00  0.00    -0.013 C 
ATOM      9  C4' I4B d   1       3.550  -1.367   5.045  0.00  0.00     0.013 C 
ATOM     10  C3' I4B d   1       6.000  -1.660   5.292  0.00  0.00     0.013 C 
ENDBRANCH   7   8
ENDBRANCH   1   7
TORSDOF 2
ENDMDL
