MODEL 1
REMARK minimizedAffinity 4.76667643
REMARK minimizedRMSD -1
REMARK  2 active torsions:
REMARK  status: ('A' for Active; 'I' for Inactive)
REMARK    1  A    between atoms: C2'_3  and  C1'_4 
REMARK    2  A    between atoms: C1'_4  and  C1_5 
ROOT
ATOM      1  C1  I4B d   1       5.234   0.379   3.600  0.00  0.00    -0.075 A 
ATOM      2  C2  I4B d   1       4.478  -0.327   4.502  0.00  0.00     0.003 A 
ATOM      3  C3  I4B d   1       3.722  -1.446   4.078  0.00  0.00     0.002 A 
ATOM      4  C4  I4B d   1       3.712  -1.792   2.742  0.00  0.00    -0.004 A 
ATOM      5  C5  I4B d   1       4.497  -1.089   1.832  0.00  0.00     0.002 A 
ATOM      6  C6  I4B d   1       5.273  -0.005   2.266  0.00  0.00     0.003 A 
ENDROOT
BRANCH   1   7
ATOM      7  C1' I4B d   1       5.994   1.576   4.076  0.00  0.00     0.060 C 
BRANCH   7   8
ATOM      8  C2' I4B d   1       5.863   2.660   3.026  0.00  0.00    -0.013 C 
ATOM      9  C4' I4B d   1       4.549   2.558   2.297  0.00  0.00     0.013 C 
ATOM     10  C3' I4B d   1       6.000   3.987   3.712  0.00  0.00     0.013 C 
ENDBRANCH   7   8
ENDBRANCH   1   7
TORSDOF 2
ENDMDL
