MODEL 1
REMARK minimizedAffinity 13.54284
REMARK minimizedRMSD -1
REMARK  2 active torsions:
REMARK  status: ('A' for Active; 'I' for Inactive)
REMARK    1  A    between atoms: C2'_3  and  C1'_4 
REMARK    2  A    between atoms: C1'_4  and  C1_5 
ROOT
ATOM      1  C1  I4B d   1       5.488   2.823   3.858  0.00  0.00    -0.075 A 
ATOM      2  C2  I4B d   1       5.983   1.557   4.053  0.00  0.00     0.003 A 
ATOM      3  C3  I4B d   1       5.503   0.476   3.275  0.00  0.00     0.002 A 
ATOM      4  C4  I4B d   1       4.498   0.694   2.355  0.00  0.00    -0.004 A 
ATOM      5  C5  I4B d   1       4.014   1.982   2.142  0.00  0.00     0.002 A 
ATOM      6  C6  I4B d   1       4.520   3.055   2.890  0.00  0.00     0.003 A 
ENDROOT
BRANCH   1   7
ATOM      7  C1' I4B d   1       5.994   3.936   4.720  0.00  0.00     0.060 C 
BRANCH   7   8
ATOM      8  C2' I4B d   1       5.182   5.175   4.405  0.00  0.00    -0.013 C 
ATOM      9  C4' I4B d   1       4.885   5.963   5.654  0.00  0.00     0.013 C 
ATOM     10  C3' I4B d   1       5.956   5.998   3.418  0.00  0.00     0.013 C 
ENDBRANCH   7   8
ENDBRANCH   1   7
TORSDOF 2
ENDMDL
