MODEL 1
REMARK minimizedAffinity 7.19396639
REMARK minimizedRMSD -1
REMARK  2 active torsions:
REMARK  status: ('A' for Active; 'I' for Inactive)
REMARK    1  A    between atoms: C2'_3  and  C1'_4 
REMARK    2  A    between atoms: C1'_4  and  C1_5 
ROOT
ATOM      1  C1  I4B d   1       3.968   0.492   3.904  0.00  0.00    -0.075 A 
ATOM      2  C2  I4B d   1       3.779   1.580   3.089  0.00  0.00     0.003 A 
ATOM      3  C3  I4B d   1       4.717   2.640   3.086  0.00  0.00     0.002 A 
ATOM      4  C4  I4B d   1       5.796   2.595   3.945  0.00  0.00    -0.004 A 
ATOM      5  C5  I4B d   1       5.998   1.481   4.755  0.00  0.00     0.002 A 
ATOM      6  C6  I4B d   1       5.085   0.417   4.726  0.00  0.00     0.003 A 
ENDROOT
BRANCH   1   7
ATOM      7  C1' I4B d   1       2.940  -0.595   3.906  0.00  0.00     0.060 C 
BRANCH   7   8
ATOM      8  C2' I4B d   1       3.399  -1.674   2.947  0.00  0.00    -0.013 C 
ATOM      9  C4' I4B d   1       2.389  -2.787   2.854  0.00  0.00     0.013 C 
ATOM     10  C3' I4B d   1       3.628  -1.036   1.609  0.00  0.00     0.013 C 
ENDBRANCH   7   8
ENDBRANCH   1   7
TORSDOF 2
ENDMDL
