MODEL 1
REMARK minimizedAffinity 0.312441945
REMARK minimizedRMSD -1
REMARK  2 active torsions:
REMARK  status: ('A' for Active; 'I' for Inactive)
REMARK    1  A    between atoms: C2'_3  and  C1'_4 
REMARK    2  A    between atoms: C1'_4  and  C1_5 
ROOT
ATOM      1  C1  I4B d   1      -3.634   1.540   0.088  0.00  0.00    -0.075 A 
ATOM      2  C2  I4B d   1      -4.533   2.498   0.485  0.00  0.00     0.003 A 
ATOM      3  C3  I4B d   1      -4.183   3.869   0.437  0.00  0.00     0.002 A 
ATOM      4  C4  I4B d   1      -2.914   4.232   0.034  0.00  0.00    -0.004 A 
ATOM      5  C5  I4B d   1      -2.011   3.261  -0.390  0.00  0.00     0.002 A 
ATOM      6  C6  I4B d   1      -2.377   1.908  -0.375  0.00  0.00     0.003 A 
ENDROOT
BRANCH   1   7
ATOM      7  C1' I4B d   1      -4.026   0.100   0.184  0.00  0.00     0.060 C 
BRANCH   7   8
ATOM      8  C2' I4B d   1      -2.929  -0.634   0.929  0.00  0.00    -0.013 C 
ATOM      9  C4' I4B d   1      -3.305  -0.858   2.370  0.00  0.00     0.013 C 
ATOM     10  C3' I4B d   1      -2.681  -1.934   0.225  0.00  0.00     0.013 C 
ENDBRANCH   7   8
ENDBRANCH   1   7
TORSDOF 2
ENDMDL
