MODEL 1
REMARK minimizedAffinity 2.67817545
REMARK minimizedRMSD -1
REMARK  1 active torsions:
REMARK  status: ('A' for Active; 'I' for Inactive)
REMARK    1  A    between atoms: C1_2  and  C2_3 
ROOT
ATOM      1  C2  UNL d   1       0.528   5.465   4.725  0.00  0.00    -0.076 A 
ATOM      2  C3  UNL d   1      -0.100   5.999   5.864  0.00  0.00     0.004 A 
ATOM      3  C4  UNL d   1      -1.487   5.966   5.999  0.00  0.00    -0.003 A 
ATOM      4  C5  UNL d   1      -2.268   5.398   4.999  0.00  0.00     0.000 A 
ATOM      5  C6  UNL d   1      -1.660   4.848   3.870  0.00  0.00     0.000 A 
ATOM      6  C7  UNL d   1      -0.262   4.859   3.726  0.00  0.00    -0.073 A 
ATOM      7  C8  UNL d   1       0.340   4.257   2.485  0.00  0.00     0.078 C 
ENDROOT
BRANCH   1   8
ATOM      8  C1  UNL d   1       2.034   5.554   4.621  0.00  0.00     0.053 C 
ATOM      9  C   UNL d   1       2.683   6.000   5.922  0.00  0.00     0.018 C 
ENDBRANCH   1   8
TORSDOF 1
ENDMDL
