MODEL 1
REMARK minimizedAffinity 2.8236897
REMARK minimizedRMSD -1
REMARK  1 active torsions:
REMARK  status: ('A' for Active; 'I' for Inactive)
REMARK    1  A    between atoms: C1_2  and  C2_3 
ROOT
ATOM      1  C2  UNL d   1       0.821   5.449   4.734  0.00  0.00    -0.076 A 
ATOM      2  C3  UNL d   1       0.174   6.000   5.854  0.00  0.00     0.004 A 
ATOM      3  C4  UNL d   1      -1.210   5.919   5.995  0.00  0.00    -0.003 A 
ATOM      4  C5  UNL d   1      -1.970   5.285   5.019  0.00  0.00     0.000 A 
ATOM      5  C6  UNL d   1      -1.344   4.718   3.910  0.00  0.00     0.000 A 
ATOM      6  C7  UNL d   1       0.052   4.776   3.760  0.00  0.00    -0.073 A 
ATOM      7  C8  UNL d   1       0.675   4.153   2.541  0.00  0.00     0.078 C 
ENDROOT
BRANCH   1   8
ATOM      8  C1  UNL d   1       2.322   5.591   4.622  0.00  0.00     0.053 C 
ATOM      9  C   UNL d   1       2.976   5.932   5.952  0.00  0.00     0.018 C 
ENDBRANCH   1   8
TORSDOF 1
ENDMDL
