MODEL 1
REMARK minimizedAffinity 8.45126438
REMARK minimizedRMSD -1
REMARK  1 active torsions:
REMARK  status: ('A' for Active; 'I' for Inactive)
REMARK    1  A    between atoms: C1_2  and  C2_3 
ROOT
ATOM      1  C2  UNL d   1       1.470   5.476   4.510  0.00  0.00    -0.076 A 
ATOM      2  C3  UNL d   1       0.798   6.000   5.629  0.00  0.00     0.004 A 
ATOM      3  C4  UNL d   1      -0.593   5.976   5.707  0.00  0.00    -0.003 A 
ATOM      4  C5  UNL d   1      -1.336   5.426   4.667  0.00  0.00     0.000 A 
ATOM      5  C6  UNL d   1      -0.686   4.886   3.558  0.00  0.00     0.000 A 
ATOM      6  C7  UNL d   1       0.717   4.888   3.471  0.00  0.00    -0.073 A 
ATOM      7  C8  UNL d   1       1.365   4.297   2.249  0.00  0.00     0.078 C 
ENDROOT
BRANCH   1   8
ATOM      8  C1  UNL d   1       2.979   5.555   4.469  0.00  0.00     0.053 C 
ATOM      9  C   UNL d   1       3.576   5.991   5.798  0.00  0.00     0.018 C 
ENDBRANCH   1   8
TORSDOF 1
ENDMDL
