MODEL 1
REMARK minimizedAffinity 9.24549198
REMARK minimizedRMSD -1
REMARK  1 active torsions:
REMARK  status: ('A' for Active; 'I' for Inactive)
REMARK    1  A    between atoms: C1_2  and  C2_3 
ROOT
ATOM      1  C2  UNL d   1      -3.147   3.726   5.953  0.00  0.00    -0.076 A 
ATOM      2  C3  UNL d   1      -1.824   3.252   5.951  0.00  0.00     0.004 A 
ATOM      3  C4  UNL d   1      -0.745   4.134   5.916  0.00  0.00    -0.003 A 
ATOM      4  C5  UNL d   1      -0.973   5.506   5.884  0.00  0.00     0.000 A 
ATOM      5  C6  UNL d   1      -2.279   5.994   5.903  0.00  0.00     0.000 A 
ATOM      6  C7  UNL d   1      -3.377   5.119   5.955  0.00  0.00    -0.073 A 
ATOM      7  C8  UNL d   1      -4.764   5.700   5.968  0.00  0.00     0.078 C 
ENDROOT
BRANCH   1   8
ATOM      8  C1  UNL d   1      -4.277   2.721   5.964  0.00  0.00     0.053 C 
ATOM      9  C   UNL d   1      -3.778   1.284   5.976  0.00  0.00     0.018 C 
ENDBRANCH   1   8
TORSDOF 1
ENDMDL
