MODEL 1
REMARK minimizedAffinity 7.19378805
REMARK minimizedRMSD -1
REMARK  1 active torsions:
REMARK  status: ('A' for Active; 'I' for Inactive)
REMARK    1  A    between atoms: C1_2  and  C2_3 
ROOT
ATOM      1  C2  UNL d   1      -2.182   4.395   4.114  0.00  0.00    -0.076 A 
ATOM      2  C3  UNL d   1      -0.923   4.360   3.490  0.00  0.00     0.004 A 
ATOM      3  C4  UNL d   1       0.137   5.128   3.970  0.00  0.00    -0.003 A 
ATOM      4  C5  UNL d   1      -0.045   5.942   5.082  0.00  0.00     0.000 A 
ATOM      5  C6  UNL d   1      -1.283   5.975   5.724  0.00  0.00     0.000 A 
ATOM      6  C7  UNL d   1      -2.357   5.195   5.263  0.00  0.00    -0.073 A 
ATOM      7  C8  UNL d   1      -3.671   5.275   5.990  0.00  0.00     0.078 C 
ENDROOT
BRANCH   1   8
ATOM      8  C1  UNL d   1      -3.302   3.561   3.532  0.00  0.00     0.053 C 
ATOM      9  C   UNL d   1      -3.232   2.106   3.967  0.00  0.00     0.018 C 
ENDBRANCH   1   8
TORSDOF 1
ENDMDL
