MODEL 1
REMARK minimizedAffinity -1.15016997
REMARK minimizedRMSD -1
REMARK  1 active torsions:
REMARK  status: ('A' for Active; 'I' for Inactive)
REMARK    1  A    between atoms: C1_2  and  C2_3 
ROOT
ATOM      1  C2  UNL d   1      -0.930   5.475   5.344  0.00  0.00    -0.076 A 
ATOM      2  C3  UNL d   1      -2.058   5.998   6.000  0.00  0.00     0.004 A 
ATOM      3  C4  UNL d   1      -3.331   5.881   5.442  0.00  0.00    -0.003 A 
ATOM      4  C5  UNL d   1      -3.496   5.238   4.220  0.00  0.00     0.000 A 
ATOM      5  C6  UNL d   1      -2.390   4.698   3.565  0.00  0.00     0.000 A 
ATOM      6  C7  UNL d   1      -1.103   4.793   4.120  0.00  0.00    -0.073 A 
ATOM      7  C8  UNL d   1       0.055   4.197   3.367  0.00  0.00     0.078 C 
ENDROOT
BRANCH   1   8
ATOM      8  C1  UNL d   1       0.428   5.656   5.983  0.00  0.00     0.053 C 
ATOM      9  C   UNL d   1       1.508   5.999   4.970  0.00  0.00     0.018 C 
ENDBRANCH   1   8
TORSDOF 1
ENDMDL
