MODEL 1
REMARK minimizedAffinity 9.04603958
REMARK minimizedRMSD -1
REMARK  0 active torsions:
REMARK  status: ('A' for Active; 'I' for Inactive)
ROOT
ATOM      1  O1  BZF d   1       0.388   4.763  -1.169  0.00  0.00    -0.204 OA
ATOM      2  C2  BZF d   1       0.388   6.000  -0.553  0.00  0.00     0.174 A 
ATOM      3  C3  BZF d   1       0.031   5.889   0.743  0.00  0.00    -0.012 A 
ATOM      4  C3A BZF d   1      -0.116   4.484   0.973  0.00  0.00    -0.107 A 
ATOM      5  C4  BZF d   1      -0.443   3.742   2.072  0.00  0.00     0.055 A 
ATOM      6  C5  BZF d   1      -0.573   2.396   1.945  0.00  0.00    -0.016 A 
ATOM      7  C6  BZF d   1      -0.389   1.759   0.735  0.00  0.00     0.022 A 
ATOM      8  C7  BZF d   1      -0.059   2.452  -0.382  0.00  0.00     0.029 A 
ATOM      9  C7A BZF d   1       0.105   3.810  -0.250  0.00  0.00     0.058 A 
ENDROOT
TORSDOF 0
ENDMDL
