MODEL 1
REMARK minimizedAffinity 2.65808678
REMARK minimizedRMSD -1
REMARK  0 active torsions:
REMARK  status: ('A' for Active; 'I' for Inactive)
ROOT
ATOM      1  O1  BZF d   1       1.751   5.398  -0.247  0.00  0.00    -0.204 OA
ATOM      2  C2  BZF d   1       0.594   5.314  -0.997  0.00  0.00     0.174 A 
ATOM      3  C3  BZF d   1      -0.256   4.411  -0.466  0.00  0.00    -0.012 A 
ATOM      4  C3A BZF d   1       0.373   3.967   0.739  0.00  0.00    -0.107 A 
ATOM      5  C4  BZF d   1       0.012   3.082   1.715  0.00  0.00     0.055 A 
ATOM      6  C5  BZF d   1       0.885   2.818   2.723  0.00  0.00    -0.016 A 
ATOM      7  C6  BZF d   1       2.126   3.417   2.784  0.00  0.00     0.022 A 
ATOM      8  C7  BZF d   1       2.526   4.305   1.842  0.00  0.00     0.029 A 
ATOM      9  C7A BZF d   1       1.634   4.598   0.840  0.00  0.00     0.058 A 
ENDROOT
TORSDOF 0
ENDMDL
