MODEL 1
REMARK minimizedAffinity 8.77539062
REMARK minimizedRMSD -1
REMARK  0 active torsions:
REMARK  status: ('A' for Active; 'I' for Inactive)
ROOT
ATOM      1  O1  BZF d   1       1.568   5.221  -0.078  0.00  0.00    -0.204 OA
ATOM      2  C2  BZF d   1       0.421   4.845  -0.750  0.00  0.00     0.174 A 
ATOM      3  C3  BZF d   1      -0.250   3.900  -0.060  0.00  0.00    -0.012 A 
ATOM      4  C3A BZF d   1       0.478   3.738   1.161  0.00  0.00    -0.107 A 
ATOM      5  C4  BZF d   1       0.298   2.952   2.263  0.00  0.00     0.055 A 
ATOM      6  C5  BZF d   1       1.230   2.979   3.252  0.00  0.00    -0.016 A 
ATOM      7  C6  BZF d   1       2.354   3.774   3.169  0.00  0.00     0.022 A 
ATOM      8  C7  BZF d   1       2.573   4.574   2.097  0.00  0.00     0.029 A 
ATOM      9  C7A BZF d   1       1.617   4.574   1.111  0.00  0.00     0.058 A 
ENDROOT
TORSDOF 0
ENDMDL
