MODEL 1
REMARK minimizedAffinity 10.9044189
REMARK minimizedRMSD -1
REMARK  0 active torsions:
REMARK  status: ('A' for Active; 'I' for Inactive)
ROOT
ATOM      1  O1  BZF d   1       4.509  -3.620  -2.720  0.00  0.00    -0.204 OA
ATOM      2  C2  BZF d   1       5.328  -3.002  -3.644  0.00  0.00     0.174 A 
ATOM      3  C3  BZF d   1       6.000  -1.978  -3.079  0.00  0.00    -0.012 A 
ATOM      4  C3A BZF d   1       5.643  -2.013  -1.693  0.00  0.00    -0.107 A 
ATOM      5  C4  BZF d   1       6.000  -1.259  -0.613  0.00  0.00     0.055 A 
ATOM      6  C5  BZF d   1       5.416  -1.508   0.589  0.00  0.00    -0.016 A 
ATOM      7  C6  BZF d   1       4.468  -2.499   0.744  0.00  0.00     0.022 A 
ATOM      8  C7  BZF d   1       4.086  -3.277  -0.298  0.00  0.00     0.029 A 
ATOM      9  C7A BZF d   1       4.699  -3.049  -1.506  0.00  0.00     0.058 A 
ENDROOT
TORSDOF 0
ENDMDL
