MODEL 1
REMARK minimizedAffinity 12.8818321
REMARK minimizedRMSD -1
REMARK  0 active torsions:
REMARK  status: ('A' for Active; 'I' for Inactive)
ROOT
ATOM      1  O1  BZF d   1      -3.033  -1.228   4.081  0.00  0.00    -0.204 OA
ATOM      2  C2  BZF d   1      -4.218  -0.726   3.578  0.00  0.00     0.174 A 
ATOM      3  C3  BZF d   1      -4.100   0.588   3.297  0.00  0.00    -0.012 A 
ATOM      4  C3A BZF d   1      -2.730   0.908   3.559  0.00  0.00    -0.107 A 
ATOM      5  C4  BZF d   1      -1.997   2.055   3.453  0.00  0.00     0.055 A 
ATOM      6  C5  BZF d   1      -0.700   2.049   3.858  0.00  0.00    -0.016 A 
ATOM      7  C6  BZF d   1      -0.106   0.918   4.377  0.00  0.00     0.022 A 
ATOM      8  C7  BZF d   1      -0.792  -0.245   4.497  0.00  0.00     0.029 A 
ATOM      9  C7A BZF d   1      -2.093  -0.252   4.058  0.00  0.00     0.058 A 
ENDROOT
TORSDOF 0
ENDMDL
