MODEL 1
REMARK minimizedAffinity 6.86232567
REMARK minimizedRMSD -1
REMARK  0 active torsions:
REMARK  status: ('A' for Active; 'I' for Inactive)
ROOT
ATOM      1  O1  BZF d   1       1.086   2.250   0.709  0.00  0.00    -0.204 OA
ATOM      2  C2  BZF d   1       0.827   2.033   2.049  0.00  0.00     0.174 A 
ATOM      3  C3  BZF d   1       0.290   3.133   2.616  0.00  0.00    -0.012 A 
ATOM      4  C3A BZF d   1       0.123   4.066   1.544  0.00  0.00    -0.107 A 
ATOM      5  C4  BZF d   1      -0.378   5.334   1.473  0.00  0.00     0.055 A 
ATOM      6  C5  BZF d   1      -0.331   5.998   0.288  0.00  0.00    -0.016 A 
ATOM      7  C6  BZF d   1       0.214   5.426  -0.843  0.00  0.00     0.022 A 
ATOM      8  C7  BZF d   1       0.718   4.168  -0.823  0.00  0.00     0.029 A 
ATOM      9  C7A BZF d   1       0.642   3.483   0.365  0.00  0.00     0.058 A 
ENDROOT
TORSDOF 0
ENDMDL
