MODEL 1
REMARK minimizedAffinity 5.53126097
REMARK minimizedRMSD -1
REMARK  0 active torsions:
REMARK  status: ('A' for Active; 'I' for Inactive)
ROOT
ATOM      1  C   UNL d   1       1.372  -0.419   2.857  0.00  0.00     0.023 A 
ATOM      2  C1  UNL d   1       0.461   0.487   3.401  0.00  0.00     0.003 A 
ATOM      3  C2  UNL d   1      -0.793   0.657   2.812  0.00  0.00     0.048 A 
ATOM      4  C3  UNL d   1      -1.130  -0.082   1.678  0.00  0.00     0.023 A 
ATOM      5  C4  UNL d   1      -0.222  -0.990   1.131  0.00  0.00     0.048 A 
ATOM      6  C5  UNL d   1       1.031  -1.156   1.723  0.00  0.00     0.003 A 
ATOM      7  I   UNL d   1      -2.996   0.169   0.799  0.00  0.00    -0.146 I 
ENDROOT
TORSDOF 0
ENDMDL
