MODEL 1
REMARK minimizedAffinity 7.27388048
REMARK minimizedRMSD -1
REMARK  0 active torsions:
REMARK  status: ('A' for Active; 'I' for Inactive)
ROOT
ATOM      1  C   UNL d   1       5.999   6.000   4.949  0.00  0.00     0.023 A 
ATOM      2  C1  UNL d   1       5.256   5.405   5.969  0.00  0.00     0.003 A 
ATOM      3  C2  UNL d   1       4.026   4.810   5.682  0.00  0.00     0.048 A 
ATOM      4  C3  UNL d   1       3.545   4.812   4.373  0.00  0.00     0.023 A 
ATOM      5  C4  UNL d   1       4.286   5.405   3.349  0.00  0.00     0.048 A 
ATOM      6  C5  UNL d   1       5.515   6.000   3.641  0.00  0.00     0.003 A 
ATOM      7  I   UNL d   1       1.715   3.926   3.944  0.00  0.00    -0.146 I 
ENDROOT
TORSDOF 0
ENDMDL
