MODEL 1
REMARK minimizedAffinity 9.26622295
REMARK minimizedRMSD -1
REMARK  0 active torsions:
REMARK  status: ('A' for Active; 'I' for Inactive)
ROOT
ATOM      1  C   UNL d   1      -1.188   1.522  -4.245  0.00  0.00     0.023 A 
ATOM      2  C1  UNL d   1      -1.469   2.882  -4.111  0.00  0.00     0.003 A 
ATOM      3  C2  UNL d   1      -0.579   3.833  -4.614  0.00  0.00     0.048 A 
ATOM      4  C3  UNL d   1       0.590   3.418  -5.250  0.00  0.00     0.023 A 
ATOM      5  C4  UNL d   1       0.875   2.059  -5.387  0.00  0.00     0.048 A 
ATOM      6  C5  UNL d   1      -0.017   1.111  -4.882  0.00  0.00     0.003 A 
ATOM      7  I   UNL d   1       1.916   4.832  -5.999  0.00  0.00    -0.146 I 
ENDROOT
TORSDOF 0
ENDMDL
