MODEL 1
REMARK minimizedAffinity 4.46773291
REMARK minimizedRMSD -1
REMARK  0 active torsions:
REMARK  status: ('A' for Active; 'I' for Inactive)
ROOT
ATOM      1  C   UNL d   1       5.942   5.912   4.968  0.00  0.00     0.023 A 
ATOM      2  C1  UNL d   1       5.539   5.929   3.633  0.00  0.00     0.003 A 
ATOM      3  C2  UNL d   1       4.231   5.577   3.293  0.00  0.00     0.048 A 
ATOM      4  C3  UNL d   1       3.331   5.212   4.294  0.00  0.00     0.023 A 
ATOM      5  C4  UNL d   1       3.730   5.195   5.632  0.00  0.00     0.048 A 
ATOM      6  C5  UNL d   1       5.039   5.546   5.966  0.00  0.00     0.003 A 
ATOM      7  I   UNL d   1       1.383   4.689   3.791  0.00  0.00    -0.146 I 
ENDROOT
TORSDOF 0
ENDMDL
