MODEL 1
REMARK minimizedAffinity 1.54635262
REMARK minimizedRMSD -1
REMARK  0 active torsions:
REMARK  status: ('A' for Active; 'I' for Inactive)
ROOT
ATOM      1  C   UNL d   1       1.236   4.773   4.699  0.00  0.00     0.023 A 
ATOM      2  C1  UNL d   1       2.142   4.301   3.750  0.00  0.00     0.003 A 
ATOM      3  C2  UNL d   1       3.492   4.649   3.837  0.00  0.00     0.048 A 
ATOM      4  C3  UNL d   1       3.928   5.470   4.876  0.00  0.00     0.023 A 
ATOM      5  C4  UNL d   1       3.025   5.945   5.828  0.00  0.00     0.048 A 
ATOM      6  C5  UNL d   1       1.677   5.595   5.737  0.00  0.00     0.003 A 
ATOM      7  I   UNL d   1       5.936   5.990   5.007  0.00  0.00    -0.146 I 
ENDROOT
TORSDOF 0
ENDMDL
