MODEL 1
REMARK minimizedAffinity 2.05255008
REMARK minimizedRMSD -1
REMARK  0 active torsions:
REMARK  status: ('A' for Active; 'I' for Inactive)
ROOT
ATOM      1  C   UNL d   1       1.192   5.260   4.894  0.00  0.00     0.023 A 
ATOM      2  C1  UNL d   1       1.891   4.945   3.729  0.00  0.00     0.003 A 
ATOM      3  C2  UNL d   1       3.270   5.157   3.662  0.00  0.00     0.048 A 
ATOM      4  C3  UNL d   1       3.943   5.684   4.763  0.00  0.00     0.023 A 
ATOM      5  C4  UNL d   1       3.248   6.000   5.932  0.00  0.00     0.048 A 
ATOM      6  C5  UNL d   1       1.869   5.787   5.994  0.00  0.00     0.003 A 
ATOM      7  I   UNL d   1       5.995   6.000   4.666  0.00  0.00    -0.146 I 
ENDROOT
TORSDOF 0
ENDMDL
