MODEL 1
REMARK minimizedAffinity 13.4872932
REMARK minimizedRMSD -1
REMARK  0 active torsions:
REMARK  status: ('A' for Active; 'I' for Inactive)
ROOT
ATOM      1  C   UNL d   1       5.991   4.167  -1.246  0.00  0.00     0.023 A 
ATOM      2  C1  UNL d   1       4.905   4.308  -0.382  0.00  0.00     0.003 A 
ATOM      3  C2  UNL d   1       3.825   3.427  -0.467  0.00  0.00     0.048 A 
ATOM      4  C3  UNL d   1       3.838   2.407  -1.418  0.00  0.00     0.023 A 
ATOM      5  C4  UNL d   1       4.923   2.262  -2.285  0.00  0.00     0.048 A 
ATOM      6  C5  UNL d   1       6.000   3.145  -2.196  0.00  0.00     0.003 A 
ATOM      7  I   UNL d   1       2.231   1.095  -1.547  0.00  0.00    -0.146 I 
ENDROOT
TORSDOF 0
ENDMDL
