MODEL 1
REMARK minimizedAffinity 10.6183119
REMARK minimizedRMSD -1
REMARK  0 active torsions:
REMARK  status: ('A' for Active; 'I' for Inactive)
ROOT
ATOM      1  C   UNL d   1       4.426   4.441  -0.740  0.00  0.00     0.023 A 
ATOM      2  C1  UNL d   1       4.843   5.499   0.068  0.00  0.00     0.003 A 
ATOM      3  C2  UNL d   1       4.860   5.355   1.457  0.00  0.00     0.048 A 
ATOM      4  C3  UNL d   1       4.461   4.148   2.031  0.00  0.00     0.023 A 
ATOM      5  C4  UNL d   1       4.044   3.087   1.227  0.00  0.00     0.048 A 
ATOM      6  C5  UNL d   1       4.027   3.236  -0.161  0.00  0.00     0.003 A 
ATOM      7  I   UNL d   1       4.486   3.931   4.098  0.00  0.00    -0.146 I 
ENDROOT
TORSDOF 0
ENDMDL
