MODEL 1
REMARK minimizedAffinity 3.77776694
REMARK minimizedRMSD -1
REMARK  0 active torsions:
REMARK  status: ('A' for Active; 'I' for Inactive)
ROOT
ATOM      1  C   UNL d   1       5.179   0.375   3.760  0.00  0.00     0.023 A 
ATOM      2  C1  UNL d   1       5.959   1.149   4.619  0.00  0.00     0.003 A 
ATOM      3  C2  UNL d   1       5.402   2.257   5.262  0.00  0.00     0.048 A 
ATOM      4  C3  UNL d   1       4.064   2.583   5.043  0.00  0.00     0.023 A 
ATOM      5  C4  UNL d   1       3.280   1.810   4.186  0.00  0.00     0.048 A 
ATOM      6  C5  UNL d   1       3.841   0.705   3.544  0.00  0.00     0.003 A 
ATOM      7  I   UNL d   1       3.233   4.230   6.000  0.00  0.00    -0.146 I 
ENDROOT
TORSDOF 0
ENDMDL
