MODEL 1
REMARK minimizedAffinity 11.2497244
REMARK minimizedRMSD -1
REMARK  0 active torsions:
REMARK  status: ('A' for Active; 'I' for Inactive)
ROOT
ATOM      1  C   UNL d   1      -2.849  -0.405  -1.069  0.00  0.00     0.023 A 
ATOM      2  C1  UNL d   1      -3.222  -0.982   0.145  0.00  0.00     0.003 A 
ATOM      3  C2  UNL d   1      -2.544  -2.106   0.622  0.00  0.00     0.048 A 
ATOM      4  C3  UNL d   1      -1.493  -2.646  -0.119  0.00  0.00     0.023 A 
ATOM      5  C4  UNL d   1      -1.116  -2.071  -1.334  0.00  0.00     0.048 A 
ATOM      6  C5  UNL d   1      -1.798  -0.949  -1.807  0.00  0.00     0.003 A 
ATOM      7  I   UNL d   1      -0.482  -4.318   0.590  0.00  0.00    -0.146 I 
ENDROOT
TORSDOF 0
ENDMDL
