MODEL 1
REMARK minimizedAffinity 19.295557
REMARK minimizedRMSD -1
REMARK  0 active torsions:
REMARK  status: ('A' for Active; 'I' for Inactive)
ROOT
ATOM      1  C   UNL d   1      -3.783   1.065   5.696  0.00  0.00     0.023 A 
ATOM      2  C1  UNL d   1      -5.158   1.170   5.903  0.00  0.00     0.003 A 
ATOM      3  C2  UNL d   1      -5.758   2.428   5.990  0.00  0.00     0.048 A 
ATOM      4  C3  UNL d   1      -4.977   3.577   5.868  0.00  0.00     0.023 A 
ATOM      5  C4  UNL d   1      -3.600   3.476   5.660  0.00  0.00     0.048 A 
ATOM      6  C5  UNL d   1      -3.005   2.216   5.575  0.00  0.00     0.003 A 
ATOM      7  I   UNL d   1      -5.867   5.450   5.997  0.00  0.00    -0.146 I 
ENDROOT
TORSDOF 0
ENDMDL
