MODEL 1
REMARK minimizedAffinity 9.67538357
REMARK minimizedRMSD -1
REMARK  0 active torsions:
REMARK  status: ('A' for Active; 'I' for Inactive)
ROOT
ATOM      1  C   UNL d   1      -0.204  -6.000   0.881  0.00  0.00     0.023 A 
ATOM      2  C1  UNL d   1      -0.216  -4.830   1.640  0.00  0.00     0.003 A 
ATOM      3  C2  UNL d   1      -0.365  -3.591   1.014  0.00  0.00     0.048 A 
ATOM      4  C3  UNL d   1      -0.502  -3.528  -0.372  0.00  0.00     0.023 A 
ATOM      5  C4  UNL d   1      -0.492  -4.696  -1.136  0.00  0.00     0.048 A 
ATOM      6  C5  UNL d   1      -0.342  -5.933  -0.506  0.00  0.00     0.003 A 
ATOM      7  I   UNL d   1      -0.724  -1.685  -1.306  0.00  0.00    -0.146 I 
ENDROOT
TORSDOF 0
ENDMDL
