MODEL 1
REMARK minimizedAffinity 10.465477
REMARK minimizedRMSD -1
REMARK  0 active torsions:
REMARK  status: ('A' for Active; 'I' for Inactive)
ROOT
ATOM      1  C   UNL d   1      -3.635  -1.079  -0.538  0.00  0.00     0.023 A 
ATOM      2  C1  UNL d   1      -2.504  -1.866  -0.316  0.00  0.00     0.003 A 
ATOM      3  C2  UNL d   1      -1.361  -1.684  -1.096  0.00  0.00     0.048 A 
ATOM      4  C3  UNL d   1      -1.353  -0.712  -2.096  0.00  0.00     0.023 A 
ATOM      5  C4  UNL d   1      -2.482   0.078  -2.321  0.00  0.00     0.048 A 
ATOM      6  C5  UNL d   1      -3.623  -0.108  -1.540  0.00  0.00     0.003 A 
ATOM      7  I   UNL d   1       0.348  -0.439  -3.258  0.00  0.00    -0.146 I 
ENDROOT
TORSDOF 0
ENDMDL
