MODEL 1
REMARK minimizedAffinity 18.0437756
REMARK minimizedRMSD -1
REMARK  0 active torsions:
REMARK  status: ('A' for Active; 'I' for Inactive)
ROOT
ATOM      1  C   UNL d   1      -5.997   5.913  -5.067  0.00  0.00     0.023 A 
ATOM      2  C1  UNL d   1      -5.094   6.000  -4.007  0.00  0.00     0.003 A 
ATOM      3  C2  UNL d   1      -4.188   4.963  -3.773  0.00  0.00     0.048 A 
ATOM      4  C3  UNL d   1      -4.190   3.843  -4.604  0.00  0.00     0.023 A 
ATOM      5  C4  UNL d   1      -5.091   3.753  -5.666  0.00  0.00     0.048 A 
ATOM      6  C5  UNL d   1      -5.995   4.791  -5.896  0.00  0.00     0.003 A 
ATOM      7  I   UNL d   1      -2.842   2.299  -4.258  0.00  0.00    -0.146 I 
ENDROOT
TORSDOF 0
ENDMDL
