MODEL 1
REMARK minimizedAffinity 5.57553816
REMARK minimizedRMSD -1
REMARK  0 active torsions:
REMARK  status: ('A' for Active; 'I' for Inactive)
ROOT
ATOM      1  C   UNL d   1      -5.253   2.608   6.000  0.00  0.00     0.023 A 
ATOM      2  C1  UNL d   1      -5.741   1.301   5.999  0.00  0.00     0.003 A 
ATOM      3  C2  UNL d   1      -4.854   0.223   5.996  0.00  0.00     0.048 A 
ATOM      4  C3  UNL d   1      -3.480   0.458   5.996  0.00  0.00     0.023 A 
ATOM      5  C4  UNL d   1      -2.986   1.764   5.998  0.00  0.00     0.048 A 
ATOM      6  C5  UNL d   1      -3.877   2.839   5.999  0.00  0.00     0.003 A 
ATOM      7  I   UNL d   1      -2.158  -1.145   5.992  0.00  0.00    -0.146 I 
ENDROOT
TORSDOF 0
ENDMDL
