MODEL 1
REMARK minimizedAffinity 8.21205425
REMARK minimizedRMSD -1
REMARK  0 active torsions:
REMARK  status: ('A' for Active; 'I' for Inactive)
ROOT
ATOM      1  C   UNL d   1      -1.918  -2.721   1.328  0.00  0.00     0.023 A 
ATOM      2  C1  UNL d   1      -2.671  -1.775   0.633  0.00  0.00     0.003 A 
ATOM      3  C2  UNL d   1      -2.385  -1.499  -0.705  0.00  0.00     0.048 A 
ATOM      4  C3  UNL d   1      -1.345  -2.175  -1.344  0.00  0.00     0.023 A 
ATOM      5  C4  UNL d   1      -0.590  -3.123  -0.652  0.00  0.00     0.048 A 
ATOM      6  C5  UNL d   1      -0.879  -3.395   0.686  0.00  0.00     0.003 A 
ATOM      7  I   UNL d   1      -0.918  -1.767  -3.336  0.00  0.00    -0.146 I 
ENDROOT
TORSDOF 0
ENDMDL
