MODEL 1
REMARK minimizedAffinity 9.95195484
REMARK minimizedRMSD -1
REMARK  0 active torsions:
REMARK  status: ('A' for Active; 'I' for Inactive)
ROOT
ATOM      1  C   UNL d   1       0.150   2.370  -4.356  0.00  0.00     0.023 A 
ATOM      2  C1  UNL d   1      -0.962   1.891  -3.664  0.00  0.00     0.003 A 
ATOM      3  C2  UNL d   1      -2.249   2.163  -4.134  0.00  0.00     0.048 A 
ATOM      4  C3  UNL d   1      -2.415   2.914  -5.297  0.00  0.00     0.023 A 
ATOM      5  C4  UNL d   1      -1.305   3.395  -5.993  0.00  0.00     0.048 A 
ATOM      6  C5  UNL d   1      -0.021   3.121  -5.519  0.00  0.00     0.003 A 
ATOM      7  I   UNL d   1      -4.329   3.320  -5.999  0.00  0.00    -0.146 I 
ENDROOT
TORSDOF 0
ENDMDL
