MODEL 1
REMARK minimizedAffinity 14.6236115
REMARK minimizedRMSD -1
REMARK  0 active torsions:
REMARK  status: ('A' for Active; 'I' for Inactive)
ROOT
ATOM      1  C   UNL d   1       0.162   2.605  -4.402  0.00  0.00     0.023 A 
ATOM      2  C1  UNL d   1      -0.954   2.163  -3.691  0.00  0.00     0.003 A 
ATOM      3  C2  UNL d   1      -2.238   2.491  -4.132  0.00  0.00     0.048 A 
ATOM      4  C3  UNL d   1      -2.398   3.259  -5.285  0.00  0.00     0.023 A 
ATOM      5  C4  UNL d   1      -1.284   3.702  -5.999  0.00  0.00     0.048 A 
ATOM      6  C5  UNL d   1      -0.002   3.373  -5.554  0.00  0.00     0.003 A 
ATOM      7  I   UNL d   1      -4.308   3.747  -5.943  0.00  0.00    -0.146 I 
ENDROOT
TORSDOF 0
ENDMDL
