MODEL 1
REMARK minimizedAffinity 9.71835136
REMARK minimizedRMSD -1
REMARK  0 active torsions:
REMARK  status: ('A' for Active; 'I' for Inactive)
ROOT
ATOM      1  C   UNL d   1      -5.774   5.838  -5.134  0.00  0.00     0.023 A 
ATOM      2  C1  UNL d   1      -4.881   6.000  -4.074  0.00  0.00     0.003 A 
ATOM      3  C2  UNL d   1      -3.854   5.075  -3.877  0.00  0.00     0.048 A 
ATOM      4  C3  UNL d   1      -3.725   3.990  -4.744  0.00  0.00     0.023 A 
ATOM      5  C4  UNL d   1      -4.616   3.824  -5.805  0.00  0.00     0.048 A 
ATOM      6  C5  UNL d   1      -5.641   4.751  -5.998  0.00  0.00     0.003 A 
ATOM      7  I   UNL d   1      -2.197   2.611  -4.452  0.00  0.00    -0.146 I 
ENDROOT
TORSDOF 0
ENDMDL
