MODEL 1
REMARK minimizedAffinity -1.3344028
REMARK minimizedRMSD -1
REMARK  1 active torsions:
REMARK  status: ('A' for Active; 'I' for Inactive)
REMARK    1  A    between atoms: C1_2  and  C2_3 
ROOT
ATOM      1  C2  UNL d   1      -0.682  -0.667  -1.421  0.00  0.00    -0.073 A 
ATOM      2  C3  UNL d   1      -0.427  -0.283  -2.743  0.00  0.00    -0.002 A 
ATOM      3  C4  UNL d   1      -1.345  -0.578  -3.752  0.00  0.00     0.004 A 
ATOM      4  C5  UNL d   1      -2.528  -1.252  -3.450  0.00  0.00    -0.004 A 
ATOM      5  C6  UNL d   1      -2.806  -1.634  -2.133  0.00  0.00    -0.075 A 
ATOM      6  C7  UNL d   1      -4.073  -2.361  -1.792  0.00  0.00     0.076 C 
ATOM      7  C8  UNL d   1      -1.878  -1.336  -1.126  0.00  0.00     0.001 A 
ENDROOT
BRANCH   1   8
ATOM      8  C1  UNL d   1       0.303  -0.345  -0.328  0.00  0.00     0.053 C 
ATOM      9  C   UNL d   1       0.355   1.145  -0.028  0.00  0.00     0.018 C 
ENDBRANCH   1   8
TORSDOF 1
ENDMDL
