MODEL 1
REMARK minimizedAffinity -1.21789682
REMARK minimizedRMSD -1
REMARK  1 active torsions:
REMARK  status: ('A' for Active; 'I' for Inactive)
REMARK    1  A    between atoms: C1_2  and  C2_3 
ROOT
ATOM      1  C2  UNL d   1       2.282   3.105  -3.522  0.00  0.00    -0.073 A 
ATOM      2  C3  UNL d   1       1.606   3.420  -4.706  0.00  0.00    -0.002 A 
ATOM      3  C4  UNL d   1       2.261   3.337  -5.936  0.00  0.00     0.004 A 
ATOM      4  C5  UNL d   1       3.595   2.932  -5.995  0.00  0.00    -0.004 A 
ATOM      5  C6  UNL d   1       4.284   2.601  -4.824  0.00  0.00    -0.075 A 
ATOM      6  C7  UNL d   1       5.719   2.166  -4.870  0.00  0.00     0.076 C 
ATOM      7  C8  UNL d   1       3.620   2.690  -3.593  0.00  0.00     0.001 A 
ENDROOT
BRANCH   1   8
ATOM      8  C1  UNL d   1       1.577   3.187  -2.193  0.00  0.00     0.053 C 
ATOM      9  C   UNL d   1       1.905   2.001  -1.300  0.00  0.00     0.018 C 
ENDBRANCH   1   8
TORSDOF 1
ENDMDL
