MODEL 1
REMARK minimizedAffinity -2.48291469
REMARK minimizedRMSD -1
REMARK  1 active torsions:
REMARK  status: ('A' for Active; 'I' for Inactive)
REMARK    1  A    between atoms: C1_2  and  C2_3 
ROOT
ATOM      1  C2  UNL d   1      -0.697   0.030  -1.388  0.00  0.00    -0.073 A 
ATOM      2  C3  UNL d   1      -0.986  -0.819  -0.313  0.00  0.00    -0.002 A 
ATOM      3  C4  UNL d   1      -0.541  -0.506   0.972  0.00  0.00     0.004 A 
ATOM      4  C5  UNL d   1       0.191   0.660   1.197  0.00  0.00    -0.004 A 
ATOM      5  C6  UNL d   1       0.479   1.527   0.138  0.00  0.00    -0.075 A 
ATOM      6  C7  UNL d   1       1.267   2.785   0.363  0.00  0.00     0.076 C 
ATOM      7  C8  UNL d   1       0.031   1.205  -1.150  0.00  0.00     0.001 A 
ENDROOT
BRANCH   1   8
ATOM      8  C1  UNL d   1      -1.181  -0.300  -2.776  0.00  0.00     0.053 C 
ATOM      9  C   UNL d   1      -2.651  -0.690  -2.789  0.00  0.00     0.018 C 
ENDBRANCH   1   8
TORSDOF 1
ENDMDL
