MODEL 1
REMARK minimizedAffinity -2.03104544
REMARK minimizedRMSD -1
REMARK  1 active torsions:
REMARK  status: ('A' for Active; 'I' for Inactive)
REMARK    1  A    between atoms: C1_2  and  C2_3 
ROOT
ATOM      1  C2  UNL d   1      -2.829   5.208  -4.241  0.00  0.00    -0.073 A 
ATOM      2  C3  UNL d   1      -3.762   5.420  -5.262  0.00  0.00    -0.002 A 
ATOM      3  C4  UNL d   1      -5.067   5.810  -4.956  0.00  0.00     0.004 A 
ATOM      4  C5  UNL d   1      -5.449   5.998  -3.628  0.00  0.00    -0.004 A 
ATOM      5  C6  UNL d   1      -4.528   5.803  -2.594  0.00  0.00    -0.075 A 
ATOM      6  C7  UNL d   1      -4.925   5.999  -1.160  0.00  0.00     0.076 C 
ATOM      7  C8  UNL d   1      -3.221   5.409  -2.909  0.00  0.00     0.001 A 
ENDROOT
BRANCH   1   8
ATOM      8  C1  UNL d   1      -1.418   4.793  -4.567  0.00  0.00     0.053 C 
ATOM      9  C   UNL d   1      -0.451   5.965  -4.507  0.00  0.00     0.018 C 
ENDBRANCH   1   8
TORSDOF 1
ENDMDL
