MODEL 1
REMARK minimizedAffinity -4.10682154
REMARK minimizedRMSD -1
REMARK  1 active torsions:
REMARK  status: ('A' for Active; 'I' for Inactive)
REMARK    1  A    between atoms: C1_2  and  C2_3 
ROOT
ATOM      1  C2  UNL d   1       0.420   1.399   0.826  0.00  0.00    -0.073 A 
ATOM      2  C3  UNL d   1      -0.640   0.614   1.293  0.00  0.00    -0.002 A 
ATOM      3  C4  UNL d   1      -0.670  -0.757   1.031  0.00  0.00     0.004 A 
ATOM      4  C5  UNL d   1       0.360  -1.356   0.307  0.00  0.00    -0.004 A 
ATOM      5  C6  UNL d   1       1.434  -0.590  -0.158  0.00  0.00    -0.075 A 
ATOM      6  C7  UNL d   1       2.549  -1.219  -0.940  0.00  0.00     0.076 C 
ATOM      7  C8  UNL d   1       1.456   0.786   0.107  0.00  0.00     0.001 A 
ENDROOT
BRANCH   1   8
ATOM      8  C1  UNL d   1       0.460   2.878   1.112  0.00  0.00     0.053 C 
ATOM      9  C   UNL d   1       1.881   3.418   1.122  0.00  0.00     0.018 C 
ENDBRANCH   1   8
TORSDOF 1
ENDMDL
