MODEL 1
REMARK minimizedAffinity -3.22656393
REMARK minimizedRMSD -1
REMARK  1 active torsions:
REMARK  status: ('A' for Active; 'I' for Inactive)
REMARK    1  A    between atoms: C1_2  and  C2_3 
ROOT
ATOM      1  C2  UNL d   1      -0.554  -0.207   0.254  0.00  0.00    -0.073 A 
ATOM      2  C3  UNL d   1      -0.801   0.717   1.276  0.00  0.00    -0.002 A 
ATOM      3  C4  UNL d   1       0.239   1.489   1.796  0.00  0.00     0.004 A 
ATOM      4  C5  UNL d   1       1.533   1.350   1.295  0.00  0.00    -0.004 A 
ATOM      5  C6  UNL d   1       1.799   0.441   0.266  0.00  0.00    -0.075 A 
ATOM      6  C7  UNL d   1       3.186   0.279  -0.281  0.00  0.00     0.076 C 
ATOM      7  C8  UNL d   1       0.749  -0.332  -0.248  0.00  0.00     0.001 A 
ENDROOT
BRANCH   1   8
ATOM      8  C1  UNL d   1      -1.675  -1.038  -0.314  0.00  0.00     0.053 C 
ATOM      9  C   UNL d   1      -1.689  -1.012  -1.834  0.00  0.00     0.018 C 
ENDBRANCH   1   8
TORSDOF 1
ENDMDL
