MODEL 1
REMARK minimizedAffinity -4.24825859
REMARK minimizedRMSD -1
REMARK  1 active torsions:
REMARK  status: ('A' for Active; 'I' for Inactive)
REMARK    1  A    between atoms: C1_2  and  C2_3 
ROOT
ATOM      1  C2  UNL d   1       0.508  -0.564   0.179  0.00  0.00    -0.073 A 
ATOM      2  C3  UNL d   1      -0.272   0.420   0.796  0.00  0.00    -0.002 A 
ATOM      3  C4  UNL d   1       0.321   1.580   1.296  0.00  0.00     0.004 A 
ATOM      4  C5  UNL d   1       1.698   1.771   1.179  0.00  0.00    -0.004 A 
ATOM      5  C6  UNL d   1       2.493   0.804   0.555  0.00  0.00    -0.075 A 
ATOM      6  C7  UNL d   1       3.976   0.994   0.422  0.00  0.00     0.076 C 
ATOM      7  C8  UNL d   1       1.890  -0.359   0.057  0.00  0.00     0.001 A 
ENDROOT
BRANCH   1   8
ATOM      8  C1  UNL d   1      -0.129  -1.815  -0.368  0.00  0.00     0.053 C 
ATOM      9  C   UNL d   1      -1.430  -1.519  -1.098  0.00  0.00     0.018 C 
ENDBRANCH   1   8
TORSDOF 1
ENDMDL
