MODEL 1
REMARK minimizedAffinity -3.81800914
REMARK minimizedRMSD -1
REMARK  1 active torsions:
REMARK  status: ('A' for Active; 'I' for Inactive)
REMARK    1  A    between atoms: C1_2  and  C2_3 
ROOT
ATOM      1  C2  UNL d   1      -5.197  -3.549  -0.272  0.00  0.00    -0.073 A 
ATOM      2  C3  UNL d   1      -5.986  -2.676  -1.030  0.00  0.00    -0.002 A 
ATOM      3  C4  UNL d   1      -5.389  -1.701  -1.829  0.00  0.00     0.004 A 
ATOM      4  C5  UNL d   1      -4.000  -1.592  -1.884  0.00  0.00    -0.004 A 
ATOM      5  C6  UNL d   1      -3.194  -2.462  -1.143  0.00  0.00    -0.075 A 
ATOM      6  C7  UNL d   1      -1.698  -2.357  -1.190  0.00  0.00     0.076 C 
ATOM      7  C8  UNL d   1      -3.801  -3.438  -0.341  0.00  0.00     0.001 A 
ENDROOT
BRANCH   1   8
ATOM      8  C1  UNL d   1      -5.837  -4.608   0.588  0.00  0.00     0.053 C 
ATOM      9  C   UNL d   1      -5.833  -5.970  -0.088  0.00  0.00     0.018 C 
ENDBRANCH   1   8
TORSDOF 1
ENDMDL
