MODEL 1
REMARK minimizedAffinity -2.37218976
REMARK minimizedRMSD -1
REMARK  1 active torsions:
REMARK  status: ('A' for Active; 'I' for Inactive)
REMARK    1  A    between atoms: C1_2  and  C2_3 
ROOT
ATOM      1  C2  UNL d   1       0.200  -0.236   0.496  0.00  0.00    -0.073 A 
ATOM      2  C3  UNL d   1      -0.192   0.667   1.492  0.00  0.00    -0.002 A 
ATOM      3  C4  UNL d   1       0.730   1.562   2.034  0.00  0.00     0.004 A 
ATOM      4  C5  UNL d   1       2.050   1.571   1.583  0.00  0.00    -0.004 A 
ATOM      5  C6  UNL d   1       2.458   0.685   0.580  0.00  0.00    -0.075 A 
ATOM      6  C7  UNL d   1       3.875   0.679   0.086  0.00  0.00     0.076 C 
ATOM      7  C8  UNL d   1       1.527  -0.214   0.042  0.00  0.00     0.001 A 
ENDROOT
BRANCH   1   8
ATOM      8  C1  UNL d   1      -0.794  -1.200  -0.097  0.00  0.00     0.053 C 
ATOM      9  C   UNL d   1      -0.314  -1.769  -1.423  0.00  0.00     0.018 C 
ENDBRANCH   1   8
TORSDOF 1
ENDMDL
