MODEL 1
REMARK minimizedAffinity -2.64541984
REMARK minimizedRMSD -1
REMARK  1 active torsions:
REMARK  status: ('A' for Active; 'I' for Inactive)
REMARK    1  A    between atoms: C1_2  and  C2_3 
ROOT
ATOM      1  C2  UNL d   1       0.678  -0.401   0.472  0.00  0.00    -0.073 A 
ATOM      2  C3  UNL d   1      -0.142  -0.807   1.530  0.00  0.00    -0.002 A 
ATOM      3  C4  UNL d   1      -0.917   0.127   2.220  0.00  0.00     0.004 A 
ATOM      4  C5  UNL d   1      -0.884   1.472   1.855  0.00  0.00    -0.004 A 
ATOM      5  C6  UNL d   1      -0.080   1.896   0.792  0.00  0.00    -0.075 A 
ATOM      6  C7  UNL d   1      -0.032   3.340   0.388  0.00  0.00     0.076 C 
ATOM      7  C8  UNL d   1       0.697   0.953   0.106  0.00  0.00     0.001 A 
ENDROOT
BRANCH   1   8
ATOM      8  C1  UNL d   1       1.512  -1.406  -0.280  0.00  0.00     0.053 C 
ATOM      9  C   UNL d   1       2.871  -0.845  -0.666  0.00  0.00     0.018 C 
ENDBRANCH   1   8
TORSDOF 1
ENDMDL
