MODEL 1
REMARK minimizedAffinity 1.38724065
REMARK minimizedRMSD -1
REMARK  0 active torsions:
REMARK  status: ('A' for Active; 'I' for Inactive)
ROOT
ATOM      1  C2' OXE d   1       2.052  -0.394   4.945  0.00  0.00     0.078 C 
ATOM      2  C1' OXE d   1       3.668  -0.048   2.676  0.00  0.00     0.078 C 
ATOM      3  C1  OXE d   1       4.222  -0.866   3.816  0.00  0.00    -0.078 A 
ATOM      4  C2  OXE d   1       3.443  -0.991   4.941  0.00  0.00    -0.078 A 
ATOM      5  C3  OXE d   1       3.883  -1.780   6.000  0.00  0.00     0.003 A 
ATOM      6  C4  OXE d   1       5.175  -2.320   5.992  0.00  0.00    -0.002 A 
ATOM      7  C5  OXE d   1       6.000  -2.171   4.872  0.00  0.00    -0.002 A 
ATOM      8  C6  OXE d   1       5.523  -1.485   3.761  0.00  0.00     0.003 A 
ENDROOT
TORSDOF 0
ENDMDL
