MODEL 1
REMARK minimizedAffinity 7.56690168
REMARK minimizedRMSD -1
REMARK  0 active torsions:
REMARK  status: ('A' for Active; 'I' for Inactive)
ROOT
ATOM      1  C2' OXE d   1       3.656   4.827  -0.320  0.00  0.00     0.078 C 
ATOM      2  C1' OXE d   1       0.889   5.297  -0.291  0.00  0.00     0.078 C 
ATOM      3  C1  OXE d   1       1.429   4.220   0.617  0.00  0.00    -0.078 A 
ATOM      4  C2  OXE d   1       2.778   3.965   0.562  0.00  0.00    -0.078 A 
ATOM      5  C3  OXE d   1       3.336   3.020   1.417  0.00  0.00     0.003 A 
ATOM      6  C4  OXE d   1       2.516   2.220   2.222  0.00  0.00    -0.002 A 
ATOM      7  C5  OXE d   1       1.134   2.436   2.264  0.00  0.00    -0.002 A 
ATOM      8  C6  OXE d   1       0.581   3.458   1.501  0.00  0.00     0.003 A 
ENDROOT
TORSDOF 0
ENDMDL
