MODEL 1
REMARK minimizedAffinity 7.31572723
REMARK minimizedRMSD -1
REMARK  0 active torsions:
REMARK  status: ('A' for Active; 'I' for Inactive)
ROOT
ATOM      1  C2' OXE d   1       5.582  -5.991  -1.384  0.00  0.00     0.078 C 
ATOM      2  C1' OXE d   1       2.824  -5.969  -0.857  0.00  0.00     0.078 C 
ATOM      3  C1  OXE d   1       3.265  -5.975  -2.299  0.00  0.00    -0.078 A 
ATOM      4  C2  OXE d   1       4.616  -5.939  -2.548  0.00  0.00    -0.078 A 
ATOM      5  C3  OXE d   1       5.077  -5.998  -3.860  0.00  0.00     0.003 A 
ATOM      6  C4  OXE d   1       4.177  -5.940  -4.931  0.00  0.00    -0.002 A 
ATOM      7  C5  OXE d   1       2.797  -5.936  -4.700  0.00  0.00    -0.002 A 
ATOM      8  C6  OXE d   1       2.325  -5.997  -3.393  0.00  0.00     0.003 A 
ENDROOT
TORSDOF 0
ENDMDL
