MODEL 1
REMARK minimizedAffinity 6.79247332
REMARK minimizedRMSD -1
REMARK  0 active torsions:
REMARK  status: ('A' for Active; 'I' for Inactive)
ROOT
ATOM      1  C2' OXE d   1       2.980  -0.262   2.709  0.00  0.00     0.078 C 
ATOM      2  C1' OXE d   1       5.223  -1.846   3.291  0.00  0.00     0.078 C 
ATOM      3  C1  OXE d   1       3.871  -2.355   3.725  0.00  0.00    -0.078 A 
ATOM      4  C2  OXE d   1       2.784  -1.551   3.477  0.00  0.00    -0.078 A 
ATOM      5  C3  OXE d   1       1.508  -1.998   3.807  0.00  0.00     0.003 A 
ATOM      6  C4  OXE d   1       1.337  -3.187   4.526  0.00  0.00    -0.002 A 
ATOM      7  C5  OXE d   1       2.435  -4.001   4.824  0.00  0.00    -0.002 A 
ATOM      8  C6  OXE d   1       3.701  -3.621   4.393  0.00  0.00     0.003 A 
ENDROOT
TORSDOF 0
ENDMDL
