MODEL 1
REMARK minimizedAffinity 6.8209343
REMARK minimizedRMSD -1
REMARK  0 active torsions:
REMARK  status: ('A' for Active; 'I' for Inactive)
ROOT
ATOM      1  C2' OXE d   1       3.575  -4.133   3.362  0.00  0.00     0.078 C 
ATOM      2  C1' OXE d   1       3.063  -2.808   5.784  0.00  0.00     0.078 C 
ATOM      3  C1  OXE d   1       2.716  -2.091   4.503  0.00  0.00    -0.078 A 
ATOM      4  C2  OXE d   1       3.013  -2.728   3.322  0.00  0.00    -0.078 A 
ATOM      5  C3  OXE d   1       2.664  -2.134   2.112  0.00  0.00     0.003 A 
ATOM      6  C4  OXE d   1       2.154  -0.831   2.083  0.00  0.00    -0.002 A 
ATOM      7  C5  OXE d   1       1.880  -0.149   3.274  0.00  0.00    -0.002 A 
ATOM      8  C6  OXE d   1       2.116  -0.780   4.490  0.00  0.00     0.003 A 
ENDROOT
TORSDOF 0
ENDMDL
