MODEL 1
REMARK minimizedAffinity 7.27617359
REMARK minimizedRMSD -1
REMARK  0 active torsions:
REMARK  status: ('A' for Active; 'I' for Inactive)
ROOT
ATOM      1  C2' OXE d   1       1.666  -2.736   5.064  0.00  0.00     0.078 C 
ATOM      2  C1' OXE d   1       2.831  -4.316   3.058  0.00  0.00     0.078 C 
ATOM      3  C1  OXE d   1       2.498  -2.884   2.721  0.00  0.00    -0.078 A 
ATOM      4  C2  OXE d   1       1.885  -2.132   3.694  0.00  0.00    -0.078 A 
ATOM      5  C3  OXE d   1       1.606  -0.789   3.454  0.00  0.00     0.003 A 
ATOM      6  C4  OXE d   1       1.803  -0.241   2.180  0.00  0.00    -0.002 A 
ATOM      7  C5  OXE d   1       2.389  -1.001   1.163  0.00  0.00    -0.002 A 
ATOM      8  C6  OXE d   1       2.781  -2.309   1.429  0.00  0.00     0.003 A 
ENDROOT
TORSDOF 0
ENDMDL
