MODEL 1
REMARK minimizedAffinity 9.79245472
REMARK minimizedRMSD -1
REMARK  0 active torsions:
REMARK  status: ('A' for Active; 'I' for Inactive)
ROOT
ATOM      1  C2' OXE d   1      -4.834   3.358  -0.549  0.00  0.00     0.078 C 
ATOM      2  C1' OXE d   1      -2.428   3.652   0.866  0.00  0.00     0.078 C 
ATOM      3  C1  OXE d   1      -3.660   3.267   1.646  0.00  0.00    -0.078 A 
ATOM      4  C2  OXE d   1      -4.843   3.171   0.953  0.00  0.00    -0.078 A 
ATOM      5  C3  OXE d   1      -5.998   2.766   1.614  0.00  0.00     0.003 A 
ATOM      6  C4  OXE d   1      -6.000   2.605   3.005  0.00  0.00    -0.002 A 
ATOM      7  C5  OXE d   1      -4.815   2.737   3.736  0.00  0.00    -0.002 A 
ATOM      8  C6  OXE d   1      -3.630   3.025   3.068  0.00  0.00     0.003 A 
ENDROOT
TORSDOF 0
ENDMDL
