MODEL 1
REMARK minimizedAffinity -2.23168588
REMARK minimizedRMSD -1
REMARK  1 active torsions:
REMARK  status: ('A' for Active; 'I' for Inactive)
REMARK    1  A    between atoms: C1_2  and  C2_3 
ROOT
ATOM      1  C2  UNL d   1      -0.286  -1.912  -0.262  0.00  0.00    -0.073 A 
ATOM      2  C3  UNL d   1      -1.359  -1.068   0.048  0.00  0.00    -0.002 A 
ATOM      3  C4  UNL d   1      -1.127   0.253   0.434  0.00  0.00     0.004 A 
ATOM      4  C5  UNL d   1       0.176   0.745   0.507  0.00  0.00    -0.004 A 
ATOM      5  C6  UNL d   1       1.260  -0.080   0.190  0.00  0.00    -0.075 A 
ATOM      6  C7  UNL d   1       2.668   0.434   0.266  0.00  0.00     0.076 C 
ATOM      7  C8  UNL d   1       1.020  -1.406  -0.194  0.00  0.00     0.001 A 
ENDROOT
BRANCH   1   8
ATOM      8  C1  UNL d   1      -0.532  -3.337  -0.686  0.00  0.00     0.053 C 
ATOM      9  C   UNL d   1      -0.128  -3.579  -2.131  0.00  0.00     0.018 C 
ENDBRANCH   1   8
TORSDOF 1
ENDMDL
