MODEL 1
REMARK minimizedAffinity -4.75776958
REMARK minimizedRMSD -1
REMARK  1 active torsions:
REMARK  status: ('A' for Active; 'I' for Inactive)
REMARK    1  A    between atoms: C1_2  and  C2_3 
ROOT
ATOM      1  C2  UNL d   1      -0.104   0.710   0.299  0.00  0.00    -0.073 A 
ATOM      2  C3  UNL d   1      -0.801   1.908   0.104  0.00  0.00    -0.002 A 
ATOM      3  C4  UNL d   1      -0.114   3.121   0.047  0.00  0.00     0.004 A 
ATOM      4  C5  UNL d   1       1.274   3.149   0.177  0.00  0.00    -0.004 A 
ATOM      5  C6  UNL d   1       1.989   1.961   0.361  0.00  0.00    -0.075 A 
ATOM      6  C7  UNL d   1       3.483   1.974   0.504  0.00  0.00     0.076 C 
ATOM      7  C8  UNL d   1       1.292   0.747   0.419  0.00  0.00     0.001 A 
ENDROOT
BRANCH   1   8
ATOM      8  C1  UNL d   1      -0.841  -0.604   0.354  0.00  0.00     0.053 C 
ATOM      9  C   UNL d   1       0.054  -1.775  -0.016  0.00  0.00     0.018 C 
ENDBRANCH   1   8
TORSDOF 1
ENDMDL
