MODEL 1
REMARK minimizedAffinity -3.95424795
REMARK minimizedRMSD -1
REMARK  1 active torsions:
REMARK  status: ('A' for Active; 'I' for Inactive)
REMARK    1  A    between atoms: C1_2  and  C2_3 
ROOT
ATOM      1  C2  UNL d   1      -0.078  -1.990  -0.768  0.00  0.00    -0.073 A 
ATOM      2  C3  UNL d   1       0.552  -2.147  -2.007  0.00  0.00    -0.002 A 
ATOM      3  C4  UNL d   1       0.064  -3.069  -2.934  0.00  0.00     0.004 A 
ATOM      4  C5  UNL d   1      -1.062  -3.836  -2.635  0.00  0.00    -0.004 A 
ATOM      5  C6  UNL d   1      -1.713  -3.684  -1.407  0.00  0.00    -0.075 A 
ATOM      6  C7  UNL d   1      -2.924  -4.503  -1.069  0.00  0.00     0.076 C 
ATOM      7  C8  UNL d   1      -1.215  -2.759  -0.480  0.00  0.00     0.001 A 
ENDROOT
BRANCH   1   8
ATOM      8  C1  UNL d   1       0.442  -0.991   0.234  0.00  0.00     0.053 C 
ATOM      9  C   UNL d   1       0.029   0.431  -0.111  0.00  0.00     0.018 C 
ENDBRANCH   1   8
TORSDOF 1
ENDMDL
