MODEL 1
REMARK minimizedAffinity -5.7065053
REMARK minimizedRMSD -1
REMARK  1 active torsions:
REMARK  status: ('A' for Active; 'I' for Inactive)
REMARK    1  A    between atoms: C1_2  and  C2_3 
ROOT
ATOM      1  C2  UNL d   1      -0.527  -0.426  -0.027  0.00  0.00    -0.073 A 
ATOM      2  C3  UNL d   1      -1.483   0.479   0.447  0.00  0.00    -0.002 A 
ATOM      3  C4  UNL d   1      -1.148   1.820   0.642  0.00  0.00     0.004 A 
ATOM      4  C5  UNL d   1       0.142   2.270   0.358  0.00  0.00    -0.004 A 
ATOM      5  C6  UNL d   1       1.107   1.383  -0.128  0.00  0.00    -0.075 A 
ATOM      6  C7  UNL d   1       2.500   1.850  -0.435  0.00  0.00     0.076 C 
ATOM      7  C8  UNL d   1       0.764   0.037  -0.318  0.00  0.00     0.001 A 
ENDROOT
BRANCH   1   8
ATOM      8  C1  UNL d   1      -0.885  -1.874  -0.245  0.00  0.00     0.053 C 
ATOM      9  C   UNL d   1      -0.440  -2.372  -1.610  0.00  0.00     0.018 C 
ENDBRANCH   1   8
TORSDOF 1
ENDMDL
