MODEL 1
REMARK minimizedAffinity -2.31836557
REMARK minimizedRMSD -1
REMARK  1 active torsions:
REMARK  status: ('A' for Active; 'I' for Inactive)
REMARK    1  A    between atoms: C1_2  and  C2_3 
ROOT
ATOM      1  C2  UNL d   1       0.022  -0.825  -0.353  0.00  0.00    -0.073 A 
ATOM      2  C3  UNL d   1      -1.251  -0.507   0.134  0.00  0.00    -0.002 A 
ATOM      3  C4  UNL d   1      -1.570   0.811   0.462  0.00  0.00     0.004 A 
ATOM      4  C5  UNL d   1      -0.625   1.824   0.300  0.00  0.00    -0.004 A 
ATOM      5  C6  UNL d   1       0.649   1.527  -0.197  0.00  0.00    -0.075 A 
ATOM      6  C7  UNL d   1       1.678   2.605  -0.375  0.00  0.00     0.076 C 
ATOM      7  C8  UNL d   1       0.963   0.201  -0.522  0.00  0.00     0.001 A 
ENDROOT
BRANCH   1   8
ATOM      8  C1  UNL d   1       0.369  -2.246  -0.715  0.00  0.00     0.053 C 
ATOM      9  C   UNL d   1      -0.847  -3.029  -1.182  0.00  0.00     0.018 C 
ENDBRANCH   1   8
TORSDOF 1
ENDMDL
