MODEL 1
REMARK minimizedAffinity -5.74446058
REMARK minimizedRMSD -1
REMARK  1 active torsions:
REMARK  status: ('A' for Active; 'I' for Inactive)
REMARK    1  A    between atoms: C1_2  and  C2_3 
ROOT
ATOM      1  C2  UNL d   1      -0.627  -0.498  -0.249  0.00  0.00    -0.073 A 
ATOM      2  C3  UNL d   1      -1.949  -0.100  -0.021  0.00  0.00    -0.002 A 
ATOM      3  C4  UNL d   1      -2.236   1.218   0.339  0.00  0.00     0.004 A 
ATOM      4  C5  UNL d   1      -1.207   2.151   0.466  0.00  0.00    -0.004 A 
ATOM      5  C6  UNL d   1       0.119   1.775   0.230  0.00  0.00    -0.075 A 
ATOM      6  C7  UNL d   1       1.238   2.766   0.364  0.00  0.00     0.076 C 
ATOM      7  C8  UNL d   1       0.400   0.449  -0.128  0.00  0.00     0.001 A 
ENDROOT
BRANCH   1   8
ATOM      8  C1  UNL d   1      -0.313  -1.918  -0.643  0.00  0.00     0.053 C 
ATOM      9  C   UNL d   1      -0.062  -2.053  -2.137  0.00  0.00     0.018 C 
ENDBRANCH   1   8
TORSDOF 1
ENDMDL
