MODEL 1
REMARK minimizedAffinity -4.24817991
REMARK minimizedRMSD -1
REMARK  1 active torsions:
REMARK  status: ('A' for Active; 'I' for Inactive)
REMARK    1  A    between atoms: C1_2  and  C2_3 
ROOT
ATOM      1  C2  UNL d   1       0.229  -0.934  -0.368  0.00  0.00    -0.073 A 
ATOM      2  C3  UNL d   1       1.575  -1.032   0.004  0.00  0.00    -0.002 A 
ATOM      3  C4  UNL d   1       2.293   0.111   0.358  0.00  0.00     0.004 A 
ATOM      4  C5  UNL d   1       1.673   1.360   0.352  0.00  0.00    -0.004 A 
ATOM      5  C6  UNL d   1       0.326   1.477  -0.005  0.00  0.00    -0.075 A 
ATOM      6  C7  UNL d   1      -0.355   2.814  -0.020  0.00  0.00     0.076 C 
ATOM      7  C8  UNL d   1      -0.388   0.325  -0.363  0.00  0.00     0.001 A 
ENDROOT
BRANCH   1   8
ATOM      8  C1  UNL d   1      -0.552  -2.166  -0.746  0.00  0.00     0.053 C 
ATOM      9  C   UNL d   1      -0.016  -2.815  -2.012  0.00  0.00     0.018 C 
ENDBRANCH   1   8
TORSDOF 1
ENDMDL
