MODEL 1
REMARK minimizedAffinity 14.0813799
REMARK minimizedRMSD -1
REMARK  1 active torsions:
REMARK  status: ('A' for Active; 'I' for Inactive)
REMARK    1  A    between atoms: C1_2  and  C2_3 
ROOT
ATOM      1  C2  UNL d   1       1.296  -4.768  -2.395  0.00  0.00    -0.073 A 
ATOM      2  C3  UNL d   1       1.568  -5.855  -1.556  0.00  0.00    -0.002 A 
ATOM      3  C4  UNL d   1       2.677  -5.832  -0.710  0.00  0.00     0.004 A 
ATOM      4  C5  UNL d   1       3.520  -4.721  -0.688  0.00  0.00    -0.004 A 
ATOM      5  C6  UNL d   1       3.258  -3.620  -1.510  0.00  0.00    -0.075 A 
ATOM      6  C7  UNL d   1       4.157  -2.419  -1.499  0.00  0.00     0.076 C 
ATOM      7  C8  UNL d   1       2.144  -3.652  -2.359  0.00  0.00     0.001 A 
ENDROOT
BRANCH   1   8
ATOM      8  C1  UNL d   1       0.096  -4.786  -3.306  0.00  0.00     0.053 C 
ATOM      9  C   UNL d   1      -1.211  -4.749  -2.529  0.00  0.00     0.018 C 
ENDBRANCH   1   8
TORSDOF 1
ENDMDL
