MODEL 1
REMARK minimizedAffinity 0.564735889
REMARK minimizedRMSD -1
REMARK  0 active torsions:
REMARK  status: ('A' for Active; 'I' for Inactive)
ROOT
ATOM      1  C1  DEN d   1       2.594   3.759  -3.719  0.00  0.00     0.130 A 
ATOM      2  C2  DEN d   1       1.659   4.879  -3.783  0.00  0.00    -0.031 A 
ATOM      3  C3  DEN d   1       2.291   5.957  -4.570  0.00  0.00     0.027 A 
ATOM      4  C4  DEN d   1       4.612   5.998  -5.695  0.00  0.00     0.027 A 
ATOM      5  C5  DEN d   1       5.770   5.282  -5.906  0.00  0.00    -0.003 A 
ATOM      6  C6  DEN d   1       5.962   4.032  -5.379  0.00  0.00     0.001 A 
ATOM      7  C7  DEN d   1       4.963   3.441  -4.652  0.00  0.00     0.017 A 
ATOM      8  C8  DEN d   1       3.796   4.160  -4.428  0.00  0.00    -0.094 A 
ATOM      9  C9  DEN d   1       3.616   5.417  -4.979  0.00  0.00    -0.072 A 
ENDROOT
TORSDOF 0
ENDMDL
