MODEL 1
REMARK minimizedAffinity 6.84130001
REMARK minimizedRMSD -1
REMARK  0 active torsions:
REMARK  status: ('A' for Active; 'I' for Inactive)
ROOT
ATOM      1  C1  DEN d   1      -2.717  -5.991  -2.620  0.00  0.00     0.130 A 
ATOM      2  C2  DEN d   1      -1.953  -5.138  -1.714  0.00  0.00    -0.031 A 
ATOM      3  C3  DEN d   1      -2.708  -3.883  -1.523  0.00  0.00     0.027 A 
ATOM      4  C4  DEN d   1      -4.977  -3.185  -2.533  0.00  0.00     0.027 A 
ATOM      5  C5  DEN d   1      -6.000  -3.573  -3.370  0.00  0.00    -0.003 A 
ATOM      6  C6  DEN d   1      -5.985  -4.769  -4.036  0.00  0.00     0.001 A 
ATOM      7  C7  DEN d   1      -4.946  -5.641  -3.842  0.00  0.00     0.017 A 
ATOM      8  C8  DEN d   1      -3.907  -5.254  -3.006  0.00  0.00    -0.094 A 
ATOM      9  C9  DEN d   1      -3.947  -4.045  -2.332  0.00  0.00    -0.072 A 
ENDROOT
TORSDOF 0
ENDMDL
