MODEL 1
REMARK minimizedAffinity 5.78475285
REMARK minimizedRMSD -1
REMARK  0 active torsions:
REMARK  status: ('A' for Active; 'I' for Inactive)
ROOT
ATOM      1  C1  DEN d   1       1.920   0.908   2.384  0.00  0.00     0.130 A 
ATOM      2  C2  DEN d   1       1.034   2.068   2.320  0.00  0.00    -0.031 A 
ATOM      3  C3  DEN d   1       1.119   2.633   0.959  0.00  0.00     0.027 A 
ATOM      4  C4  DEN d   1       2.524   1.826  -1.048  0.00  0.00     0.027 A 
ATOM      5  C5  DEN d   1       3.440   0.889  -1.473  0.00  0.00    -0.003 A 
ATOM      6  C6  DEN d   1       3.934  -0.079  -0.639  0.00  0.00     0.001 A 
ATOM      7  C7  DEN d   1       3.482  -0.159   0.651  0.00  0.00     0.017 A 
ATOM      8  C8  DEN d   1       2.564   0.787   1.089  0.00  0.00    -0.094 A 
ATOM      9  C9  DEN d   1       2.067   1.750   0.228  0.00  0.00    -0.072 A 
ENDROOT
TORSDOF 0
ENDMDL
