MODEL 1
REMARK minimizedAffinity -0.806619823
REMARK minimizedRMSD -1
REMARK  0 active torsions:
REMARK  status: ('A' for Active; 'I' for Inactive)
ROOT
ATOM      1  C1  DEN d   1      -4.102   2.720   4.567  0.00  0.00     0.130 A 
ATOM      2  C2  DEN d   1      -3.635   2.679   3.184  0.00  0.00    -0.031 A 
ATOM      3  C3  DEN d   1      -4.061   1.392   2.597  0.00  0.00     0.027 A 
ATOM      4  C4  DEN d   1      -5.394  -0.527   3.689  0.00  0.00     0.027 A 
ATOM      5  C5  DEN d   1      -6.000  -0.954   4.849  0.00  0.00    -0.003 A 
ATOM      6  C6  DEN d   1      -5.986  -0.208   5.998  0.00  0.00     0.001 A 
ATOM      7  C7  DEN d   1      -5.393   1.027   5.998  0.00  0.00     0.017 A 
ATOM      8  C8  DEN d   1      -4.773   1.461   4.834  0.00  0.00    -0.094 A 
ATOM      9  C9  DEN d   1      -4.809   0.697   3.679  0.00  0.00    -0.072 A 
ENDROOT
TORSDOF 0
ENDMDL
