MODEL 1
REMARK minimizedAffinity 3.29839921
REMARK minimizedRMSD -1
REMARK  0 active torsions:
REMARK  status: ('A' for Active; 'I' for Inactive)
ROOT
ATOM      1  C1  DEN d   1      -0.983  -5.812  -2.038  0.00  0.00     0.130 A 
ATOM      2  C2  DEN d   1      -2.270  -5.879  -2.725  0.00  0.00    -0.031 A 
ATOM      3  C3  DEN d   1      -3.075  -4.715  -2.302  0.00  0.00     0.027 A 
ATOM      4  C4  DEN d   1      -2.454  -2.823  -0.663  0.00  0.00     0.027 A 
ATOM      5  C5  DEN d   1      -1.474  -2.343   0.178  0.00  0.00    -0.003 A 
ATOM      6  C6  DEN d   1      -0.286  -2.998   0.363  0.00  0.00     0.001 A 
ATOM      7  C7  DEN d   1      -0.028  -4.147  -0.336  0.00  0.00     0.017 A 
ATOM      8  C8  DEN d   1      -1.014  -4.642  -1.180  0.00  0.00    -0.094 A 
ATOM      9  C9  DEN d   1      -2.204  -3.958  -1.363  0.00  0.00    -0.072 A 
ENDROOT
TORSDOF 0
ENDMDL
