MODEL 1
REMARK minimizedAffinity 15.6431808
REMARK minimizedRMSD -1
REMARK  0 active torsions:
REMARK  status: ('A' for Active; 'I' for Inactive)
ROOT
ATOM      1  C1  DEN d   1      -2.085   0.440   2.745  0.00  0.00     0.130 A 
ATOM      2  C2  DEN d   1      -3.127   1.460   2.845  0.00  0.00    -0.031 A 
ATOM      3  C3  DEN d   1      -2.545   2.750   2.423  0.00  0.00     0.027 A 
ATOM      4  C4  DEN d   1      -0.147   3.264   1.624  0.00  0.00     0.027 A 
ATOM      5  C5  DEN d   1       1.097   2.723   1.383  0.00  0.00    -0.003 A 
ATOM      6  C6  DEN d   1       1.374   1.400   1.610  0.00  0.00     0.001 A 
ATOM      7  C7  DEN d   1       0.381   0.565   2.049  0.00  0.00     0.017 A 
ATOM      8  C8  DEN d   1      -0.873   1.105   2.301  0.00  0.00    -0.094 A 
ATOM      9  C9  DEN d   1      -1.137   2.441   2.054  0.00  0.00    -0.072 A 
ENDROOT
TORSDOF 0
ENDMDL
