MODEL 1
REMARK minimizedAffinity 9.9297924
REMARK minimizedRMSD -1
REMARK  0 active torsions:
REMARK  status: ('A' for Active; 'I' for Inactive)
ROOT
ATOM      1  C1  DEN d   1       0.165   2.203  -2.446  0.00  0.00     0.130 A 
ATOM      2  C2  DEN d   1      -0.268   1.059  -3.243  0.00  0.00    -0.031 A 
ATOM      3  C3  DEN d   1       0.275  -0.164  -2.618  0.00  0.00     0.027 A 
ATOM      4  C4  DEN d   1       1.732  -0.396  -0.503  0.00  0.00     0.027 A 
ATOM      5  C5  DEN d   1       2.366   0.296   0.505  0.00  0.00    -0.003 A 
ATOM      6  C6  DEN d   1       2.338   1.664   0.581  0.00  0.00     0.001 A 
ATOM      7  C7  DEN d   1       1.626   2.380  -0.344  0.00  0.00     0.017 A 
ATOM      8  C8  DEN d   1       0.991   1.690  -1.368  0.00  0.00    -0.094 A 
ATOM      9  C9  DEN d   1       1.020   0.306  -1.420  0.00  0.00    -0.072 A 
ENDROOT
TORSDOF 0
ENDMDL
