MODEL 1
REMARK minimizedAffinity 8.89563179
REMARK minimizedRMSD -1
REMARK  0 active torsions:
REMARK  status: ('A' for Active; 'I' for Inactive)
ROOT
ATOM      1  C1  DEN d   1       1.629  -0.870   0.017  0.00  0.00     0.130 A 
ATOM      2  C2  DEN d   1       2.365  -0.683  -1.230  0.00  0.00    -0.031 A 
ATOM      3  C3  DEN d   1       2.810   0.724  -1.292  0.00  0.00     0.027 A 
ATOM      4  C4  DEN d   1       2.439   2.619   0.418  0.00  0.00     0.027 A 
ATOM      5  C5  DEN d   1       1.863   2.944   1.626  0.00  0.00    -0.003 A 
ATOM      6  C6  DEN d   1       1.146   2.037   2.360  0.00  0.00     0.001 A 
ATOM      7  C7  DEN d   1       1.024   0.748   1.915  0.00  0.00     0.017 A 
ATOM      8  C8  DEN d   1       1.596   0.414   0.694  0.00  0.00    -0.094 A 
ATOM      9  C9  DEN d   1       2.328   1.342  -0.027  0.00  0.00    -0.072 A 
ENDROOT
TORSDOF 0
ENDMDL
