MODEL 1
REMARK minimizedAffinity 6.92655516
REMARK minimizedRMSD -1
REMARK  0 active torsions:
REMARK  status: ('A' for Active; 'I' for Inactive)
ROOT
ATOM      1  C1  DEN d   1       2.499   0.131  -0.468  0.00  0.00     0.130 A 
ATOM      2  C2  DEN d   1       2.890   0.653  -1.774  0.00  0.00    -0.031 A 
ATOM      3  C3  DEN d   1       2.584   2.098  -1.798  0.00  0.00     0.027 A 
ATOM      4  C4  DEN d   1       1.553   3.569   0.052  0.00  0.00     0.027 A 
ATOM      5  C5  DEN d   1       1.045   3.570   1.333  0.00  0.00    -0.003 A 
ATOM      6  C6  DEN d   1       0.956   2.429   2.084  0.00  0.00     0.001 A 
ATOM      7  C7  DEN d   1       1.423   1.245   1.578  0.00  0.00     0.017 A 
ATOM      8  C8  DEN d   1       1.929   1.234   0.285  0.00  0.00    -0.094 A 
ATOM      9  C9  DEN d   1       2.022   2.401  -0.454  0.00  0.00    -0.072 A 
ENDROOT
TORSDOF 0
ENDMDL
