MODEL 1
REMARK minimizedAffinity 8.66188717
REMARK minimizedRMSD -1
REMARK  0 active torsions:
REMARK  status: ('A' for Active; 'I' for Inactive)
ROOT
ATOM      1  C1  DEN d   1       2.425  -0.602  -1.314  0.00  0.00     0.130 A 
ATOM      2  C2  DEN d   1       3.518   0.320  -1.017  0.00  0.00    -0.031 A 
ATOM      3  C3  DEN d   1       3.226   1.604  -1.687  0.00  0.00     0.027 A 
ATOM      4  C4  DEN d   1       1.198   2.251  -3.142  0.00  0.00     0.027 A 
ATOM      5  C5  DEN d   1       0.017   1.798  -3.686  0.00  0.00    -0.003 A 
ATOM      6  C6  DEN d   1      -0.424   0.513  -3.508  0.00  0.00     0.001 A 
ATOM      7  C7  DEN d   1       0.299  -0.350  -2.729  0.00  0.00     0.017 A 
ATOM      8  C8  DEN d   1       1.495   0.097  -2.183  0.00  0.00    -0.094 A 
ATOM      9  C9  DEN d   1       1.917   1.403  -2.365  0.00  0.00    -0.072 A 
ENDROOT
TORSDOF 0
ENDMDL
