MODEL 1
REMARK minimizedAffinity 6.66539526
REMARK minimizedRMSD -1
REMARK  0 active torsions:
REMARK  status: ('A' for Active; 'I' for Inactive)
ROOT
ATOM      1  C1  DEN d   1       2.563   2.558  -0.795  0.00  0.00     0.130 A 
ATOM      2  C2  DEN d   1       3.384   1.893   0.213  0.00  0.00    -0.031 A 
ATOM      3  C3  DEN d   1       3.100   0.446   0.151  0.00  0.00     0.027 A 
ATOM      4  C4  DEN d   1       1.481  -0.825  -1.404  0.00  0.00     0.027 A 
ATOM      5  C5  DEN d   1       0.558  -0.688  -2.417  0.00  0.00    -0.003 A 
ATOM      6  C6  DEN d   1       0.216   0.534  -2.933  0.00  0.00     0.001 A 
ATOM      7  C7  DEN d   1       0.835   1.664  -2.468  0.00  0.00     0.017 A 
ATOM      8  C8  DEN d   1       1.762   1.535  -1.442  0.00  0.00    -0.094 A 
ATOM      9  C9  DEN d   1       2.103   0.290  -0.942  0.00  0.00    -0.072 A 
ENDROOT
TORSDOF 0
ENDMDL
