MODEL 1
REMARK minimizedAffinity 5.2982502
REMARK minimizedRMSD -1
REMARK  0 active torsions:
REMARK  status: ('A' for Active; 'I' for Inactive)
ROOT
ATOM      1  C1  DEN d   1       0.202  -0.893  -0.615  0.00  0.00     0.130 A 
ATOM      2  C2  DEN d   1      -0.525  -1.396   0.547  0.00  0.00    -0.031 A 
ATOM      3  C3  DEN d   1      -0.131  -0.588   1.718  0.00  0.00     0.027 A 
ATOM      4  C4  DEN d   1       1.523   1.388   1.843  0.00  0.00     0.027 A 
ATOM      5  C5  DEN d   1       2.393   2.171   1.117  0.00  0.00    -0.003 A 
ATOM      6  C6  DEN d   1       2.618   1.968  -0.218  0.00  0.00     0.001 A 
ATOM      7  C7  DEN d   1       1.930   0.985  -0.881  0.00  0.00     0.017 A 
ATOM      8  C8  DEN d   1       1.057   0.187  -0.154  0.00  0.00    -0.094 A 
ATOM      9  C9  DEN d   1       0.834   0.416   1.193  0.00  0.00    -0.072 A 
ENDROOT
TORSDOF 0
ENDMDL
