MODEL 1
REMARK minimizedAffinity 5.79561758
REMARK minimizedRMSD -1
REMARK  0 active torsions:
REMARK  status: ('A' for Active; 'I' for Inactive)
ROOT
ATOM      1  C1  DEN d   1       0.422  -0.644   0.416  0.00  0.00     0.130 A 
ATOM      2  C2  DEN d   1       1.798  -0.742  -0.063  0.00  0.00    -0.031 A 
ATOM      3  C3  DEN d   1       2.560   0.391   0.501  0.00  0.00     0.027 A 
ATOM      4  C4  DEN d   1       1.747   2.274   2.065  0.00  0.00     0.027 A 
ATOM      5  C5  DEN d   1       0.657   2.785   2.734  0.00  0.00    -0.003 A 
ATOM      6  C6  DEN d   1      -0.585   2.214   2.651  0.00  0.00     0.001 A 
ATOM      7  C7  DEN d   1      -0.758   1.069   1.918  0.00  0.00     0.017 A 
ATOM      8  C8  DEN d   1       0.335   0.552   1.234  0.00  0.00    -0.094 A 
ATOM      9  C9  DEN d   1       1.585   1.138   1.341  0.00  0.00    -0.072 A 
ENDROOT
TORSDOF 0
ENDMDL
