MODEL 1
REMARK minimizedAffinity 5.36576796
REMARK minimizedRMSD -1
REMARK  0 active torsions:
REMARK  status: ('A' for Active; 'I' for Inactive)
ROOT
ATOM      1  C1  DEN d   1       1.158   0.933  -1.237  0.00  0.00     0.130 A 
ATOM      2  C2  DEN d   1       0.608  -0.122  -2.083  0.00  0.00    -0.031 A 
ATOM      3  C3  DEN d   1      -0.039  -1.120  -1.207  0.00  0.00     0.027 A 
ATOM      4  C4  DEN d   1      -0.245  -1.130   1.364  0.00  0.00     0.027 A 
ATOM      5  C5  DEN d   1       0.075  -0.451   2.518  0.00  0.00    -0.003 A 
ATOM      6  C6  DEN d   1       0.803   0.710   2.505  0.00  0.00     0.001 A 
ATOM      7  C7  DEN d   1       1.195   1.251   1.309  0.00  0.00     0.017 A 
ATOM      8  C8  DEN d   1       0.882   0.568   0.141  0.00  0.00    -0.094 A 
ATOM      9  C9  DEN d   1       0.135  -0.598   0.175  0.00  0.00    -0.072 A 
ENDROOT
TORSDOF 0
ENDMDL
