MODEL 1
REMARK minimizedAffinity 2.46877909
REMARK minimizedRMSD -1
REMARK  0 active torsions:
REMARK  status: ('A' for Active; 'I' for Inactive)
ROOT
ATOM      1  C1  DEN d   1      -3.944  -4.499  -1.757  0.00  0.00     0.130 A 
ATOM      2  C2  DEN d   1      -3.716  -4.884  -3.147  0.00  0.00    -0.031 A 
ATOM      3  C3  DEN d   1      -2.392  -5.531  -3.231  0.00  0.00     0.027 A 
ATOM      4  C4  DEN d   1      -0.682  -5.977  -1.352  0.00  0.00     0.027 A 
ATOM      5  C5  DEN d   1      -0.425  -5.820  -0.009  0.00  0.00    -0.003 A 
ATOM      6  C6  DEN d   1      -1.300  -5.187   0.833  0.00  0.00     0.001 A 
ATOM      7  C7  DEN d   1      -2.495  -4.726   0.349  0.00  0.00     0.017 A 
ATOM      8  C8  DEN d   1      -2.759  -4.875  -1.007  0.00  0.00    -0.094 A 
ATOM      9  C9  DEN d   1      -1.867  -5.529  -1.839  0.00  0.00    -0.072 A 
ENDROOT
TORSDOF 0
ENDMDL
