MODEL 1
REMARK minimizedAffinity 8.6459465
REMARK minimizedRMSD -1
REMARK  0 active torsions:
REMARK  status: ('A' for Active; 'I' for Inactive)
ROOT
ATOM      1  C1  DEN d   1       1.589  -0.612  -0.376  0.00  0.00     0.130 A 
ATOM      2  C2  DEN d   1       2.281   0.547   0.181  0.00  0.00    -0.031 A 
ATOM      3  C3  DEN d   1       2.044   1.695  -0.717  0.00  0.00     0.027 A 
ATOM      4  C4  DEN d   1       0.676   1.791  -2.902  0.00  0.00     0.027 A 
ATOM      5  C5  DEN d   1      -0.086   1.055  -3.782  0.00  0.00    -0.003 A 
ATOM      6  C6  DEN d   1      -0.312  -0.284  -3.609  0.00  0.00     0.001 A 
ATOM      7  C7  DEN d   1       0.191  -0.921  -2.505  0.00  0.00     0.017 A 
ATOM      8  C8  DEN d   1       0.966  -0.187  -1.617  0.00  0.00    -0.094 A 
ATOM      9  C9  DEN d   1       1.174   1.169  -1.803  0.00  0.00    -0.072 A 
ENDROOT
TORSDOF 0
ENDMDL
