MODEL 1
REMARK minimizedAffinity 2.69758749
REMARK minimizedRMSD -1
REMARK  0 active torsions:
REMARK  status: ('A' for Active; 'I' for Inactive)
ROOT
ATOM      1  C1  DEN d   1       1.446   0.024  -0.724  0.00  0.00     0.130 A 
ATOM      2  C2  DEN d   1       2.863  -0.031  -1.071  0.00  0.00    -0.031 A 
ATOM      3  C3  DEN d   1       3.627   0.602   0.023  0.00  0.00     0.027 A 
ATOM      4  C4  DEN d   1       2.756   1.653   2.212  0.00  0.00     0.027 A 
ATOM      5  C5  DEN d   1       1.628   1.946   2.945  0.00  0.00    -0.003 A 
ATOM      6  C6  DEN d   1       0.368   1.652   2.496  0.00  0.00     0.001 A 
ATOM      7  C7  DEN d   1       0.208   1.005   1.298  0.00  0.00     0.017 A 
ATOM      8  C8  DEN d   1       1.341   0.713   0.550  0.00  0.00    -0.094 A 
ATOM      9  C9  DEN d   1       2.607   1.008   1.027  0.00  0.00    -0.072 A 
ENDROOT
TORSDOF 0
ENDMDL
