MODEL 1
REMARK minimizedAffinity -0.653914332
REMARK minimizedRMSD -1
REMARK  0 active torsions:
REMARK  status: ('A' for Active; 'I' for Inactive)
ROOT
ATOM      1  O1  BZF d   1      -4.549   0.421  -5.973  0.00  0.00    -0.204 OA
ATOM      2  C2  BZF d   1      -3.379  -0.313  -5.958  0.00  0.00     0.174 A 
ATOM      3  C3  BZF d   1      -2.303   0.500  -6.000  0.00  0.00    -0.012 A 
ATOM      4  C3A BZF d   1      -2.833   1.828  -5.951  0.00  0.00    -0.107 A 
ATOM      5  C4  BZF d   1      -2.261   3.068  -5.946  0.00  0.00     0.055 A 
ATOM      6  C5  BZF d   1      -3.062   4.165  -5.967  0.00  0.00    -0.016 A 
ATOM      7  C6  BZF d   1      -4.437   4.060  -5.999  0.00  0.00     0.022 A 
ATOM      8  C7  BZF d   1      -5.051   2.852  -6.000  0.00  0.00     0.029 A 
ATOM      9  C7A BZF d   1      -4.245   1.741  -5.945  0.00  0.00     0.058 A 
ENDROOT
TORSDOF 0
ENDMDL
