MODEL 1
REMARK minimizedAffinity -3.59905195
REMARK minimizedRMSD -1
REMARK  0 active torsions:
REMARK  status: ('A' for Active; 'I' for Inactive)
ROOT
ATOM      1  O1  BZF d   1      -5.815  -0.710  -6.000  0.00  0.00    -0.204 OA
ATOM      2  C2  BZF d   1      -5.068  -1.872  -6.000  0.00  0.00     0.174 A 
ATOM      3  C3  BZF d   1      -3.750  -1.593  -5.930  0.00  0.00    -0.012 A 
ATOM      4  C3A BZF d   1      -3.673  -0.171  -5.790  0.00  0.00    -0.107 A 
ATOM      5  C4  BZF d   1      -2.633   0.704  -5.657  0.00  0.00     0.055 A 
ATOM      6  C5  BZF d   1      -2.893   2.037  -5.617  0.00  0.00    -0.016 A 
ATOM      7  C6  BZF d   1      -4.178   2.530  -5.712  0.00  0.00     0.022 A 
ATOM      8  C7  BZF d   1      -5.243   1.700  -5.840  0.00  0.00     0.029 A 
ATOM      9  C7A BZF d   1      -4.986   0.351  -5.848  0.00  0.00     0.058 A 
ENDROOT
TORSDOF 0
ENDMDL
