MODEL 1
REMARK minimizedAffinity 3.02826142
REMARK minimizedRMSD -1
REMARK  0 active torsions:
REMARK  status: ('A' for Active; 'I' for Inactive)
ROOT
ATOM      1  O1  BZF d   1      -4.514   1.161  -4.929  0.00  0.00    -0.204 OA
ATOM      2  C2  BZF d   1      -3.315   1.487  -5.532  0.00  0.00     0.174 A 
ATOM      3  C3  BZF d   1      -2.698   0.382  -5.999  0.00  0.00    -0.012 A 
ATOM      4  C3A BZF d   1      -3.610  -0.692  -5.748  0.00  0.00    -0.107 A 
ATOM      5  C4  BZF d   1      -3.572  -2.033  -6.000  0.00  0.00     0.055 A 
ATOM      6  C5  BZF d   1      -4.593  -2.816  -5.563  0.00  0.00    -0.016 A 
ATOM      7  C6  BZF d   1      -5.663  -2.293  -4.867  0.00  0.00     0.022 A 
ATOM      8  C7  BZF d   1      -5.748  -0.967  -4.598  0.00  0.00     0.029 A 
ATOM      9  C7A BZF d   1      -4.733  -0.168  -5.068  0.00  0.00     0.058 A 
ENDROOT
TORSDOF 0
ENDMDL
