MODEL 1
REMARK minimizedAffinity 0.120744891
REMARK minimizedRMSD -1
REMARK  0 active torsions:
REMARK  status: ('A' for Active; 'I' for Inactive)
ROOT
ATOM      1  O1  BZF d   1      -5.938   0.470  -5.954  0.00  0.00    -0.204 OA
ATOM      2  C2  BZF d   1      -5.293  -0.752  -5.945  0.00  0.00     0.174 A 
ATOM      3  C3  BZF d   1      -3.956  -0.588  -6.000  0.00  0.00    -0.012 A 
ATOM      4  C3A BZF d   1      -3.748   0.827  -5.953  0.00  0.00    -0.107 A 
ATOM      5  C4  BZF d   1      -2.631   1.613  -5.958  0.00  0.00     0.055 A 
ATOM      6  C5  BZF d   1      -2.774   2.964  -5.977  0.00  0.00    -0.016 A 
ATOM      7  C6  BZF d   1      -4.017   3.562  -5.997  0.00  0.00     0.022 A 
ATOM      8  C7  BZF d   1      -5.154   2.825  -5.988  0.00  0.00     0.029 A 
ATOM      9  C7A BZF d   1      -5.013   1.459  -5.935  0.00  0.00     0.058 A 
ENDROOT
TORSDOF 0
ENDMDL
