MODEL 1
REMARK minimizedAffinity -3.36806059
REMARK minimizedRMSD -1
REMARK  0 active torsions:
REMARK  status: ('A' for Active; 'I' for Inactive)
ROOT
ATOM      1  O1  BZF d   1      -3.022   0.559  -5.907  0.00  0.00    -0.204 OA
ATOM      2  C2  BZF d   1      -4.026  -0.390  -5.892  0.00  0.00     0.174 A 
ATOM      3  C3  BZF d   1      -5.240   0.198  -5.862  0.00  0.00    -0.012 A 
ATOM      4  C3A BZF d   1      -4.980   1.602  -5.951  0.00  0.00    -0.107 A 
ATOM      5  C4  BZF d   1      -5.784   2.705  -5.984  0.00  0.00     0.055 A 
ATOM      6  C5  BZF d   1      -5.213   3.939  -6.000  0.00  0.00    -0.016 A 
ATOM      7  C6  BZF d   1      -3.844   4.105  -5.978  0.00  0.00     0.022 A 
ATOM      8  C7  BZF d   1      -3.006   3.041  -5.950  0.00  0.00     0.029 A 
ATOM      9  C7A BZF d   1      -3.579   1.793  -5.967  0.00  0.00     0.058 A 
ENDROOT
TORSDOF 0
ENDMDL
