MODEL 1
REMARK minimizedAffinity -2.35181642
REMARK minimizedRMSD -1
REMARK  0 active torsions:
REMARK  status: ('A' for Active; 'I' for Inactive)
ROOT
ATOM      1  O1  BZF d   1      -5.880   2.426  -5.956  0.00  0.00    -0.204 OA
ATOM      2  C2  BZF d   1      -5.272   3.666  -5.945  0.00  0.00     0.174 A 
ATOM      3  C3  BZF d   1      -3.930   3.542  -5.900  0.00  0.00    -0.012 A 
ATOM      4  C3A BZF d   1      -3.680   2.135  -5.976  0.00  0.00    -0.107 A 
ATOM      5  C4  BZF d   1      -2.540   1.384  -5.992  0.00  0.00     0.055 A 
ATOM      6  C5  BZF d   1      -2.642   0.029  -5.998  0.00  0.00    -0.016 A 
ATOM      7  C6  BZF d   1      -3.866  -0.607  -5.984  0.00  0.00     0.022 A 
ATOM      8  C7  BZF d   1      -5.025   0.095  -5.973  0.00  0.00     0.029 A 
ATOM      9  C7A BZF d   1      -4.925   1.465  -6.000  0.00  0.00     0.058 A 
ENDROOT
TORSDOF 0
ENDMDL
