MODEL 1
REMARK minimizedAffinity -2.42304468
REMARK minimizedRMSD -1
REMARK  0 active torsions:
REMARK  status: ('A' for Active; 'I' for Inactive)
ROOT
ATOM      1  O1  BZF d   1      -2.322   1.665  -5.627  0.00  0.00    -0.204 OA
ATOM      2  C2  BZF d   1      -2.999   2.860  -5.775  0.00  0.00     0.174 A 
ATOM      3  C3  BZF d   1      -4.311   2.643  -5.996  0.00  0.00    -0.012 A 
ATOM      4  C3A BZF d   1      -4.480   1.226  -5.893  0.00  0.00    -0.107 A 
ATOM      5  C4  BZF d   1      -5.562   0.399  -5.998  0.00  0.00     0.055 A 
ATOM      6  C5  BZF d   1      -5.377  -0.945  -5.919  0.00  0.00    -0.016 A 
ATOM      7  C6  BZF d   1      -4.125  -1.496  -5.739  0.00  0.00     0.022 A 
ATOM      8  C7  BZF d   1      -3.022  -0.716  -5.624  0.00  0.00     0.029 A 
ATOM      9  C7A BZF d   1      -3.210   0.644  -5.671  0.00  0.00     0.058 A 
ENDROOT
TORSDOF 0
ENDMDL
