MODEL 1
REMARK minimizedAffinity -1.76833808
REMARK minimizedRMSD -1
REMARK  0 active torsions:
REMARK  status: ('A' for Active; 'I' for Inactive)
ROOT
ATOM      1  O1  BZF d   1      -2.933   4.075  -5.950  0.00  0.00    -0.204 OA
ATOM      2  C2  BZF d   1      -4.114   4.792  -5.940  0.00  0.00     0.174 A 
ATOM      3  C3  BZF d   1      -5.176   3.963  -5.997  0.00  0.00    -0.012 A 
ATOM      4  C3A BZF d   1      -4.627   2.643  -5.953  0.00  0.00    -0.107 A 
ATOM      5  C4  BZF d   1      -5.180   1.394  -5.961  0.00  0.00     0.055 A 
ATOM      6  C5  BZF d   1      -4.362   0.309  -5.981  0.00  0.00    -0.016 A 
ATOM      7  C6  BZF d   1      -2.989   0.436  -6.000  0.00  0.00     0.022 A 
ATOM      8  C7  BZF d   1      -2.393   1.653  -5.988  0.00  0.00     0.029 A 
ATOM      9  C7A BZF d   1      -3.217   2.751  -5.933  0.00  0.00     0.058 A 
ENDROOT
TORSDOF 0
ENDMDL
