MODEL 1
REMARK minimizedAffinity -2.48437786
REMARK minimizedRMSD -1
REMARK  0 active torsions:
REMARK  status: ('A' for Active; 'I' for Inactive)
ROOT
ATOM      1  O1  BZF d   1      -2.780   1.214  -5.971  0.00  0.00    -0.204 OA
ATOM      2  C2  BZF d   1      -3.674   0.161  -5.986  0.00  0.00     0.174 A 
ATOM      3  C3  BZF d   1      -4.944   0.612  -5.943  0.00  0.00    -0.012 A 
ATOM      4  C3A BZF d   1      -4.840   2.038  -5.992  0.00  0.00    -0.107 A 
ATOM      5  C4  BZF d   1      -5.760   3.047  -5.998  0.00  0.00     0.055 A 
ATOM      6  C5  BZF d   1      -5.327   4.335  -5.978  0.00  0.00    -0.016 A 
ATOM      7  C6  BZF d   1      -3.984   4.650  -5.946  0.00  0.00     0.022 A 
ATOM      8  C7  BZF d   1      -3.034   3.683  -5.945  0.00  0.00     0.029 A 
ATOM      9  C7A BZF d   1      -3.468   2.381  -5.999  0.00  0.00     0.058 A 
ENDROOT
TORSDOF 0
ENDMDL
