MODEL 1
REMARK minimizedAffinity -2.35241747
REMARK minimizedRMSD -1
REMARK  0 active torsions:
REMARK  status: ('A' for Active; 'I' for Inactive)
ROOT
ATOM      1  O1  BZF d   1      -2.944   0.417  -5.962  0.00  0.00    -0.204 OA
ATOM      2  C2  BZF d   1      -3.898  -0.582  -5.963  0.00  0.00     0.174 A 
ATOM      3  C3  BZF d   1      -5.140  -0.058  -5.922  0.00  0.00    -0.012 A 
ATOM      4  C3A BZF d   1      -4.952   1.359  -5.986  0.00  0.00    -0.107 A 
ATOM      5  C4  BZF d   1      -5.811   2.421  -5.999  0.00  0.00     0.055 A 
ATOM      6  C5  BZF d   1      -5.304   3.681  -5.993  0.00  0.00    -0.016 A 
ATOM      7  C6  BZF d   1      -3.945   3.917  -5.969  0.00  0.00     0.022 A 
ATOM      8  C7  BZF d   1      -3.053   2.896  -5.961  0.00  0.00     0.029 A 
ATOM      9  C7A BZF d   1      -3.562   1.621  -6.000  0.00  0.00     0.058 A 
ENDROOT
TORSDOF 0
ENDMDL
