MODEL 1
REMARK minimizedAffinity -1.61022079
REMARK minimizedRMSD -1
REMARK  0 active torsions:
REMARK  status: ('A' for Active; 'I' for Inactive)
ROOT
ATOM      1  O1  BZF d   1      -3.094   1.259  -5.977  0.00  0.00    -0.204 OA
ATOM      2  C2  BZF d   1      -4.399   0.806  -5.996  0.00  0.00     0.174 A 
ATOM      3  C3  BZF d   1      -5.265   1.838  -5.951  0.00  0.00    -0.012 A 
ATOM      4  C3A BZF d   1      -4.451   3.014  -5.994  0.00  0.00    -0.107 A 
ATOM      5  C4  BZF d   1      -4.731   4.351  -5.994  0.00  0.00     0.055 A 
ATOM      6  C5  BZF d   1      -3.705   5.241  -5.968  0.00  0.00    -0.016 A 
ATOM      7  C6  BZF d   1      -2.388   4.830  -5.936  0.00  0.00     0.022 A 
ATOM      8  C7  BZF d   1      -2.061   3.515  -5.940  0.00  0.00     0.029 A 
ATOM      9  C7A BZF d   1      -3.095   2.613  -5.999  0.00  0.00     0.058 A 
ENDROOT
TORSDOF 0
ENDMDL
