MODEL 1
REMARK minimizedAffinity -1.89338386
REMARK minimizedRMSD -1
REMARK  0 active torsions:
REMARK  status: ('A' for Active; 'I' for Inactive)
ROOT
ATOM      1  O1  BZF d   1      -5.662   0.069  -5.979  0.00  0.00    -0.204 OA
ATOM      2  C2  BZF d   1      -4.865  -1.060  -5.963  0.00  0.00     0.174 A 
ATOM      3  C3  BZF d   1      -3.560  -0.725  -6.000  0.00  0.00    -0.012 A 
ATOM      4  C3A BZF d   1      -3.537   0.705  -5.948  0.00  0.00    -0.107 A 
ATOM      5  C4  BZF d   1      -2.531   1.628  -5.937  0.00  0.00     0.055 A 
ATOM      6  C5  BZF d   1      -2.847   2.950  -5.957  0.00  0.00    -0.016 A 
ATOM      7  C6  BZF d   1      -4.156   3.383  -5.992  0.00  0.00     0.022 A 
ATOM      8  C7  BZF d   1      -5.188   2.505  -5.999  0.00  0.00     0.029 A 
ATOM      9  C7A BZF d   1      -4.873   1.169  -5.946  0.00  0.00     0.058 A 
ENDROOT
TORSDOF 0
ENDMDL
