MODEL 1
REMARK minimizedAffinity 0.545182109
REMARK minimizedRMSD -1
REMARK  0 active torsions:
REMARK  status: ('A' for Active; 'I' for Inactive)
ROOT
ATOM      1  O1  BZF d   1      -4.775  -2.703  -4.639  0.00  0.00    -0.204 OA
ATOM      2  C2  BZF d   1      -5.948  -2.970  -5.318  0.00  0.00     0.174 A 
ATOM      3  C3  BZF d   1      -5.855  -4.131  -5.997  0.00  0.00    -0.012 A 
ATOM      4  C3A BZF d   1      -4.574  -4.667  -5.652  0.00  0.00    -0.107 A 
ATOM      5  C4  BZF d   1      -3.911  -5.810  -5.997  0.00  0.00     0.055 A 
ATOM      6  C5  BZF d   1      -2.643  -6.000  -5.545  0.00  0.00    -0.016 A 
ATOM      7  C6  BZF d   1      -2.008  -5.067  -4.751  0.00  0.00     0.022 A 
ATOM      8  C7  BZF d   1      -2.627  -3.921  -4.379  0.00  0.00     0.029 A 
ATOM      9  C7A BZF d   1      -3.920  -3.741  -4.807  0.00  0.00     0.058 A 
ENDROOT
TORSDOF 0
ENDMDL
