MODEL 1
REMARK minimizedAffinity 0.0973796844
REMARK minimizedRMSD -1
REMARK  0 active torsions:
REMARK  status: ('A' for Active; 'I' for Inactive)
ROOT
ATOM      1  O1  BZF d   1      -5.964  -2.757  -5.954  0.00  0.00    -0.204 OA
ATOM      2  C2  BZF d   1      -5.233  -1.585  -5.914  0.00  0.00     0.174 A 
ATOM      3  C3  BZF d   1      -3.912  -1.848  -5.853  0.00  0.00    -0.012 A 
ATOM      4  C3A BZF d   1      -3.806  -3.272  -5.947  0.00  0.00    -0.107 A 
ATOM      5  C4  BZF d   1      -2.749  -4.136  -5.958  0.00  0.00     0.055 A 
ATOM      6  C5  BZF d   1      -2.989  -5.473  -5.987  0.00  0.00    -0.016 A 
ATOM      7  C6  BZF d   1      -4.272  -5.980  -6.000  0.00  0.00     0.022 A 
ATOM      8  C7  BZF d   1      -5.353  -5.162  -5.995  0.00  0.00     0.029 A 
ATOM      9  C7A BZF d   1      -5.113  -3.810  -5.999  0.00  0.00     0.058 A 
ENDROOT
TORSDOF 0
ENDMDL
