MODEL 1
REMARK minimizedAffinity -0.19739002
REMARK minimizedRMSD -1
REMARK  0 active torsions:
REMARK  status: ('A' for Active; 'I' for Inactive)
ROOT
ATOM      1  O1  BZF d   1      -4.391  -2.035  -4.131  0.00  0.00    -0.204 OA
ATOM      2  C2  BZF d   1      -5.384  -1.967  -5.090  0.00  0.00     0.174 A 
ATOM      3  C3  BZF d   1      -5.237  -2.951  -6.000  0.00  0.00    -0.012 A 
ATOM      4  C3A BZF d   1      -4.135  -3.735  -5.532  0.00  0.00    -0.107 A 
ATOM      5  C4  BZF d   1      -3.517  -4.860  -6.000  0.00  0.00     0.055 A 
ATOM      6  C5  BZF d   1      -2.422  -5.331  -5.348  0.00  0.00    -0.016 A 
ATOM      7  C6  BZF d   1      -1.915  -4.701  -4.231  0.00  0.00     0.022 A 
ATOM      8  C7  BZF d   1      -2.496  -3.586  -3.727  0.00  0.00     0.029 A 
ATOM      9  C7A BZF d   1      -3.623  -3.125  -4.364  0.00  0.00     0.058 A 
ENDROOT
TORSDOF 0
ENDMDL
