MODEL 1
REMARK minimizedAffinity 1.85415637
REMARK minimizedRMSD -1
REMARK  0 active torsions:
REMARK  status: ('A' for Active; 'I' for Inactive)
ROOT
ATOM      1  O1  BZF d   1      -4.674   1.267  -5.973  0.00  0.00    -0.204 OA
ATOM      2  C2  BZF d   1      -5.973   1.735  -5.995  0.00  0.00     0.174 A 
ATOM      3  C3  BZF d   1      -5.998   3.082  -5.953  0.00  0.00    -0.012 A 
ATOM      4  C3A BZF d   1      -4.626   3.485  -5.995  0.00  0.00    -0.107 A 
ATOM      5  C4  BZF d   1      -4.004   4.701  -5.998  0.00  0.00     0.055 A 
ATOM      6  C5  BZF d   1      -2.646   4.748  -5.970  0.00  0.00    -0.016 A 
ATOM      7  C6  BZF d   1      -1.880   3.602  -5.934  0.00  0.00     0.022 A 
ATOM      8  C7  BZF d   1      -2.452   2.373  -5.935  0.00  0.00     0.029 A 
ATOM      9  C7A BZF d   1      -3.823   2.321  -5.996  0.00  0.00     0.058 A 
ENDROOT
TORSDOF 0
ENDMDL
