MODEL 1
REMARK minimizedAffinity -3.79070997
REMARK minimizedRMSD -1
REMARK  1 active torsions:
REMARK  status: ('A' for Active; 'I' for Inactive)
REMARK    1  A    between atoms: C3_4  and  O_7 
ROOT
ATOM      1  C   UNL d   1       0.280   1.151  -0.444  0.00  0.00    -0.033 A 
ATOM      2  C1  UNL d   1      -0.267   0.215  -1.324  0.00  0.00     0.039 A 
ATOM      3  C2  UNL d   1      -0.714  -1.018  -0.845  0.00  0.00    -0.080 A 
ATOM      4  C3  UNL d   1      -0.608  -1.303   0.513  0.00  0.00     0.150 A 
ATOM      5  C4  UNL d   1      -0.068  -0.374   1.396  0.00  0.00    -0.007 A 
ATOM      6  C5  UNL d   1       0.378   0.857   0.917  0.00  0.00     0.039 A 
ENDROOT
BRANCH   4   7
ATOM      7  O   UNL d   1      -1.026  -2.495   1.026  0.00  0.00    -0.526 OA
ATOM      8  H5  UNL d   1      -1.350  -3.047   0.295  0.00  0.00     0.418 HD
ENDBRANCH   4   7
TORSDOF 1
ENDMDL
