MODEL 1
REMARK minimizedAffinity -2.56138778
REMARK minimizedRMSD -1
REMARK  1 active torsions:
REMARK  status: ('A' for Active; 'I' for Inactive)
REMARK    1  A    between atoms: C3_4  and  O_7 
ROOT
ATOM      1  C   UNL d   1      -0.636  -2.356  -0.083  0.00  0.00    -0.033 A 
ATOM      2  C1  UNL d   1      -0.841  -1.626   1.089  0.00  0.00     0.039 A 
ATOM      3  C2  UNL d   1      -0.615  -0.248   1.104  0.00  0.00    -0.080 A 
ATOM      4  C3  UNL d   1      -0.184   0.386  -0.059  0.00  0.00     0.150 A 
ATOM      5  C4  UNL d   1       0.019  -0.335  -1.231  0.00  0.00    -0.007 A 
ATOM      6  C5  UNL d   1      -0.207  -1.710  -1.243  0.00  0.00     0.039 A 
ENDROOT
BRANCH   4   7
ATOM      7  O   UNL d   1       0.055   1.728  -0.091  0.00  0.00    -0.526 OA
ATOM      8  H5  UNL d   1      -0.100   2.090   0.797  0.00  0.00     0.418 HD
ENDBRANCH   4   7
TORSDOF 1
ENDMDL
