MODEL 1
REMARK minimizedAffinity -4.43091249
REMARK minimizedRMSD -1
REMARK  1 active torsions:
REMARK  status: ('A' for Active; 'I' for Inactive)
REMARK    1  A    between atoms: C3_4  and  O_7 
ROOT
ATOM      1  C   UNL d   1      -0.182  -1.372  -0.419  0.00  0.00    -0.033 A 
ATOM      2  C1  UNL d   1      -0.088  -0.066   0.064  0.00  0.00     0.039 A 
ATOM      3  C2  UNL d   1      -0.601   0.254   1.323  0.00  0.00    -0.080 A 
ATOM      4  C3  UNL d   1      -1.205  -0.741   2.087  0.00  0.00     0.150 A 
ATOM      5  C4  UNL d   1      -1.299  -2.046   1.613  0.00  0.00    -0.007 A 
ATOM      6  C5  UNL d   1      -0.787  -2.362   0.356  0.00  0.00     0.039 A 
ENDROOT
BRANCH   4   7
ATOM      7  O   UNL d   1      -1.725  -0.476   3.319  0.00  0.00    -0.526 OA
ATOM      8  H5  UNL d   1      -1.614   0.471   3.503  0.00  0.00     0.418 HD
ENDBRANCH   4   7
TORSDOF 1
ENDMDL
