MODEL 1
REMARK minimizedAffinity -3.62168574
REMARK minimizedRMSD -1
REMARK  1 active torsions:
REMARK  status: ('A' for Active; 'I' for Inactive)
REMARK    1  A    between atoms: C3_4  and  O_7 
ROOT
ATOM      1  C   UNL d   1      -0.580   0.112   0.876  0.00  0.00    -0.033 A 
ATOM      2  C1  UNL d   1      -0.260   1.043  -0.114  0.00  0.00     0.039 A 
ATOM      3  C2  UNL d   1      -0.009   0.618  -1.420  0.00  0.00    -0.080 A 
ATOM      4  C3  UNL d   1      -0.082  -0.739  -1.722  0.00  0.00     0.150 A 
ATOM      5  C4  UNL d   1      -0.404  -1.672  -0.742  0.00  0.00    -0.007 A 
ATOM      6  C5  UNL d   1      -0.653  -1.245   0.562  0.00  0.00     0.039 A 
ENDROOT
BRANCH   4   7
ATOM      7  O   UNL d   1       0.159  -1.203  -2.982  0.00  0.00    -0.526 OA
ATOM      8  H5  UNL d   1       0.397  -0.449  -3.547  0.00  0.00     0.418 HD
ENDBRANCH   4   7
TORSDOF 1
ENDMDL
