MODEL 1
REMARK minimizedAffinity -1.41294062
REMARK minimizedRMSD -1
REMARK  1 active torsions:
REMARK  status: ('A' for Active; 'I' for Inactive)
REMARK    1  A    between atoms: C3_4  and  O_7 
ROOT
ATOM      1  C   UNL d   1       1.702   5.115   1.188  0.00  0.00    -0.033 A 
ATOM      2  C1  UNL d   1       0.384   4.975   0.748  0.00  0.00     0.039 A 
ATOM      3  C2  UNL d   1      -0.047   3.764   0.202  0.00  0.00    -0.080 A 
ATOM      4  C3  UNL d   1       0.848   2.703   0.103  0.00  0.00     0.150 A 
ATOM      5  C4  UNL d   1       2.161   2.834   0.542  0.00  0.00    -0.007 A 
ATOM      6  C5  UNL d   1       2.590   4.044   1.086  0.00  0.00     0.039 A 
ENDROOT
BRANCH   4   7
ATOM      7  O   UNL d   1       0.475   1.503  -0.427  0.00  0.00    -0.526 OA
ATOM      8  H5  UNL d   1      -0.451   1.568  -0.714  0.00  0.00     0.418 HD
ENDBRANCH   4   7
TORSDOF 1
ENDMDL
