MODEL 1
REMARK minimizedAffinity -1.91312802
REMARK minimizedRMSD -1
REMARK  1 active torsions:
REMARK  status: ('A' for Active; 'I' for Inactive)
REMARK    1  A    between atoms: C3_4  and  O_7 
ROOT
ATOM      1  C   UNL d   1      -0.930  -0.741   0.649  0.00  0.00    -0.033 A 
ATOM      2  C1  UNL d   1      -1.503   0.531   0.675  0.00  0.00     0.039 A 
ATOM      3  C2  UNL d   1      -0.749   1.646   0.304  0.00  0.00    -0.080 A 
ATOM      4  C3  UNL d   1       0.575   1.475  -0.091  0.00  0.00     0.150 A 
ATOM      5  C4  UNL d   1       1.151   0.209  -0.123  0.00  0.00    -0.007 A 
ATOM      6  C5  UNL d   1       0.397  -0.903   0.248  0.00  0.00     0.039 A 
ENDROOT
BRANCH   4   7
ATOM      7  O   UNL d   1       1.352   2.534  -0.457  0.00  0.00    -0.526 OA
ATOM      8  H5  UNL d   1       0.830   3.347  -0.359  0.00  0.00     0.418 HD
ENDBRANCH   4   7
TORSDOF 1
ENDMDL
