MODEL 1
REMARK minimizedAffinity -2.71209884
REMARK minimizedRMSD -1
REMARK  1 active torsions:
REMARK  status: ('A' for Active; 'I' for Inactive)
REMARK    1  A    between atoms: C3_4  and  O_7 
ROOT
ATOM      1  C   UNL d   1       0.310   0.403   0.446  0.00  0.00    -0.033 A 
ATOM      2  C1  UNL d   1      -0.826  -0.074   1.103  0.00  0.00     0.039 A 
ATOM      3  C2  UNL d   1      -1.054  -1.448   1.201  0.00  0.00    -0.080 A 
ATOM      4  C3  UNL d   1      -0.138  -2.333   0.640  0.00  0.00     0.150 A 
ATOM      5  C4  UNL d   1       0.998  -1.866  -0.013  0.00  0.00    -0.007 A 
ATOM      6  C5  UNL d   1       1.223  -0.493  -0.110  0.00  0.00     0.039 A 
ENDROOT
BRANCH   4   7
ATOM      7  O   UNL d   1      -0.319  -3.683   0.706  0.00  0.00    -0.526 OA
ATOM      8  H5  UNL d   1      -1.160  -3.858   1.161  0.00  0.00     0.418 HD
ENDBRANCH   4   7
TORSDOF 1
ENDMDL
