MODEL 1
REMARK minimizedAffinity -4.75896931
REMARK minimizedRMSD -1
REMARK  1 active torsions:
REMARK  status: ('A' for Active; 'I' for Inactive)
REMARK    1  A    between atoms: C3_4  and  O_7 
ROOT
ATOM      1  C   UNL d   1      -0.426  -3.625  -0.341  0.00  0.00    -0.033 A 
ATOM      2  C1  UNL d   1      -0.028  -2.855  -1.435  0.00  0.00     0.039 A 
ATOM      3  C2  UNL d   1       0.170  -1.481  -1.289  0.00  0.00    -0.080 A 
ATOM      4  C3  UNL d   1      -0.031  -0.890  -0.044  0.00  0.00     0.150 A 
ATOM      5  C4  UNL d   1      -0.423  -1.652   1.051  0.00  0.00    -0.007 A 
ATOM      6  C5  UNL d   1      -0.622  -3.024   0.903  0.00  0.00     0.039 A 
ENDROOT
BRANCH   4   7
ATOM      7  O   UNL d   1       0.146   0.448   0.147  0.00  0.00    -0.526 OA
ATOM      8  H5  UNL d   1       0.389   0.851  -0.704  0.00  0.00     0.418 HD
ENDBRANCH   4   7
TORSDOF 1
ENDMDL
