MODEL 1
REMARK minimizedAffinity -4.11153698
REMARK minimizedRMSD -1
REMARK  1 active torsions:
REMARK  status: ('A' for Active; 'I' for Inactive)
REMARK    1  A    between atoms: C3_4  and  O_7 
ROOT
ATOM      1  C   UNL d   1      -0.073  -3.545  -1.334  0.00  0.00    -0.033 A 
ATOM      2  C1  UNL d   1       0.241  -2.558  -2.270  0.00  0.00     0.039 A 
ATOM      3  C2  UNL d   1       0.375  -1.228  -1.866  0.00  0.00    -0.080 A 
ATOM      4  C3  UNL d   1       0.194  -0.899  -0.526  0.00  0.00     0.150 A 
ATOM      5  C4  UNL d   1      -0.114  -1.879   0.413  0.00  0.00    -0.007 A 
ATOM      6  C5  UNL d   1      -0.249  -3.206   0.008  0.00  0.00     0.039 A 
ENDROOT
BRANCH   4   7
ATOM      7  O   UNL d   1       0.310   0.385  -0.085  0.00  0.00    -0.526 OA
ATOM      8  H5  UNL d   1       0.497   0.957  -0.848  0.00  0.00     0.418 HD
ENDBRANCH   4   7
TORSDOF 1
ENDMDL
