MODEL 1
REMARK minimizedAffinity -4.72937298
REMARK minimizedRMSD -1
REMARK  1 active torsions:
REMARK  status: ('A' for Active; 'I' for Inactive)
REMARK    1  A    between atoms: C3_4  and  O_7 
ROOT
ATOM      1  C   UNL d   1       0.044  -3.180  -1.916  0.00  0.00    -0.033 A 
ATOM      2  C1  UNL d   1       0.338  -1.855  -2.242  0.00  0.00     0.039 A 
ATOM      3  C2  UNL d   1       0.309  -0.868  -1.255  0.00  0.00    -0.080 A 
ATOM      4  C3  UNL d   1      -0.014  -1.219   0.052  0.00  0.00     0.150 A 
ATOM      5  C4  UNL d   1      -0.305  -2.538   0.385  0.00  0.00    -0.007 A 
ATOM      6  C5  UNL d   1      -0.276  -3.522  -0.602  0.00  0.00     0.039 A 
ENDROOT
BRANCH   4   7
ATOM      7  O   UNL d   1      -0.061  -0.290   1.049  0.00  0.00    -0.526 OA
ATOM      8  H5  UNL d   1       0.134   0.582   0.666  0.00  0.00     0.418 HD
ENDBRANCH   4   7
TORSDOF 1
ENDMDL
