MODEL 1
REMARK minimizedAffinity -3.30914521
REMARK minimizedRMSD -1
REMARK  1 active torsions:
REMARK  status: ('A' for Active; 'I' for Inactive)
REMARK    1  A    between atoms: C3_4  and  O_7 
ROOT
ATOM      1  C   UNL d   1      -0.703  -2.322   0.430  0.00  0.00    -0.033 A 
ATOM      2  C1  UNL d   1      -1.000  -1.438   1.469  0.00  0.00     0.039 A 
ATOM      3  C2  UNL d   1      -0.767  -0.070   1.313  0.00  0.00    -0.080 A 
ATOM      4  C3  UNL d   1      -0.238   0.401   0.114  0.00  0.00     0.150 A 
ATOM      5  C4  UNL d   1       0.056  -0.474  -0.927  0.00  0.00    -0.007 A 
ATOM      6  C5  UNL d   1      -0.176  -1.839  -0.769  0.00  0.00     0.039 A 
ENDROOT
BRANCH   4   7
ATOM      7  O   UNL d   1       0.011   1.726  -0.084  0.00  0.00    -0.526 OA
ATOM      8  H5  UNL d   1      -0.215   2.206   0.731  0.00  0.00     0.418 HD
ENDBRANCH   4   7
TORSDOF 1
ENDMDL
