MODEL 1
REMARK minimizedAffinity -4.1762743
REMARK minimizedRMSD -1
REMARK  1 active torsions:
REMARK  status: ('A' for Active; 'I' for Inactive)
REMARK    1  A    between atoms: C3_4  and  O_7 
ROOT
ATOM      1  C   UNL d   1      -0.022  -3.004  -1.103  0.00  0.00    -0.033 A 
ATOM      2  C1  UNL d   1       0.496  -1.720  -1.284  0.00  0.00     0.039 A 
ATOM      3  C2  UNL d   1       0.191  -0.707  -0.374  0.00  0.00    -0.080 A 
ATOM      4  C3  UNL d   1      -0.632  -0.990   0.713  0.00  0.00     0.150 A 
ATOM      5  C4  UNL d   1      -1.149  -2.268   0.902  0.00  0.00    -0.007 A 
ATOM      6  C5  UNL d   1      -0.843  -3.278  -0.009  0.00  0.00     0.039 A 
ENDROOT
BRANCH   4   7
ATOM      7  O   UNL d   1      -0.963  -0.033   1.626  0.00  0.00    -0.526 OA
ATOM      8  H5  UNL d   1      -0.558   0.807   1.351  0.00  0.00     0.418 HD
ENDBRANCH   4   7
TORSDOF 1
ENDMDL
