MODEL 1
REMARK minimizedAffinity -3.23696971
REMARK minimizedRMSD -1
REMARK  1 active torsions:
REMARK  status: ('A' for Active; 'I' for Inactive)
REMARK    1  A    between atoms: C3_4  and  O_7 
ROOT
ATOM      1  C   UNL d   1      -1.003  -1.955   0.854  0.00  0.00    -0.033 A 
ATOM      2  C1  UNL d   1      -0.550  -0.694   0.461  0.00  0.00     0.039 A 
ATOM      3  C2  UNL d   1      -0.179  -0.465  -0.865  0.00  0.00    -0.080 A 
ATOM      4  C3  UNL d   1      -0.267  -1.504  -1.788  0.00  0.00     0.150 A 
ATOM      5  C4  UNL d   1      -0.721  -2.761  -1.405  0.00  0.00    -0.007 A 
ATOM      6  C5  UNL d   1      -1.090  -2.988  -0.079  0.00  0.00     0.039 A 
ENDROOT
BRANCH   4   7
ATOM      7  O   UNL d   1       0.089  -1.330  -3.093  0.00  0.00    -0.526 OA
ATOM      8  H5  UNL d   1       0.410  -0.420  -3.205  0.00  0.00     0.418 HD
ENDBRANCH   4   7
TORSDOF 1
ENDMDL
