MODEL 1
REMARK minimizedAffinity -3.34429073
REMARK minimizedRMSD -1
REMARK  1 active torsions:
REMARK  status: ('A' for Active; 'I' for Inactive)
REMARK    1  A    between atoms: C3_4  and  O_7 
ROOT
ATOM      1  C   UNL d   1       0.747   1.524   0.171  0.00  0.00    -0.033 A 
ATOM      2  C1  UNL d   1      -0.212   0.925  -0.649  0.00  0.00     0.039 A 
ATOM      3  C2  UNL d   1      -0.805  -0.280  -0.267  0.00  0.00    -0.080 A 
ATOM      4  C3  UNL d   1      -0.432  -0.874   0.935  0.00  0.00     0.150 A 
ATOM      5  C4  UNL d   1       0.520  -0.282   1.758  0.00  0.00    -0.007 A 
ATOM      6  C5  UNL d   1       1.112   0.921   1.375  0.00  0.00     0.039 A 
ENDROOT
BRANCH   4   7
ATOM      7  O   UNL d   1      -0.980  -2.053   1.348  0.00  0.00    -0.526 OA
ATOM      8  H5  UNL d   1      -1.600  -2.359   0.665  0.00  0.00     0.418 HD
ENDBRANCH   4   7
TORSDOF 1
ENDMDL
