MODEL 1
REMARK minimizedAffinity 6.73244858
REMARK minimizedRMSD -1
REMARK  3 active torsions:
REMARK  status: ('A' for Active; 'I' for Inactive)
REMARK    1  A    between atoms: C3'_2  and  C2'_3 
REMARK    2  A    between atoms: C2'_3  and  C1'_4 
REMARK    3  A    between atoms: C1'_4  and  C1_5 
ROOT
ATOM      1  C1  N4B d   1       2.474  -3.610   5.244  0.00  0.00    -0.075 A 
ATOM      2  C2  N4B d   1       1.112  -3.621   5.617  0.00  0.00     0.002 A 
ATOM      3  C3  N4B d   1       0.514  -4.797   5.999  0.00  0.00     0.002 A 
ATOM      4  C4  N4B d   1       1.250  -5.973   5.997  0.00  0.00    -0.004 A 
ATOM      5  C5  N4B d   1       2.571  -5.949   5.659  0.00  0.00     0.002 A 
ATOM      6  C6  N4B d   1       3.186  -4.774   5.277  0.00  0.00     0.002 A 
ENDROOT
BRANCH   1   7
ATOM      7  C1' N4B d   1       3.149  -2.365   4.737  0.00  0.00     0.057 C 
BRANCH   7   8
ATOM      8  C2' N4B d   1       2.121  -1.497   4.016  0.00  0.00     0.009 C 
BRANCH   8   9
ATOM      9  C3' N4B d   1       2.765  -0.609   2.965  0.00  0.00     0.004 C 
ATOM     10  C4' N4B d   1       1.770  -0.038   1.999  0.00  0.00     0.003 C 
ENDBRANCH   8   9
ENDBRANCH   7   8
ENDBRANCH   1   7
TORSDOF 3
ENDMDL
