MODEL 1
REMARK minimizedAffinity 0.345732927
REMARK minimizedRMSD -1
REMARK  3 active torsions:
REMARK  status: ('A' for Active; 'I' for Inactive)
REMARK    1  A    between atoms: C3'_2  and  C2'_3 
REMARK    2  A    between atoms: C2'_3  and  C1'_4 
REMARK    3  A    between atoms: C1'_4  and  C1_5 
ROOT
ATOM      1  C1  N4B d   1       3.381  -1.804   4.299  0.00  0.00    -0.075 A 
ATOM      2  C2  N4B d   1       4.448  -1.543   3.411  0.00  0.00     0.002 A 
ATOM      3  C3  N4B d   1       5.746  -1.667   3.842  0.00  0.00     0.002 A 
ATOM      4  C4  N4B d   1       6.000  -2.031   5.156  0.00  0.00    -0.004 A 
ATOM      5  C5  N4B d   1       4.964  -2.306   6.000  0.00  0.00     0.002 A 
ATOM      6  C6  N4B d   1       3.655  -2.189   5.579  0.00  0.00     0.002 A 
ENDROOT
BRANCH   1   7
ATOM      7  C1' N4B d   1       1.946  -1.598   3.898  0.00  0.00     0.057 C 
BRANCH   7   8
ATOM      8  C2' N4B d   1       1.898  -0.781   2.610  0.00  0.00     0.009 C 
BRANCH   8   9
ATOM      9  C3' N4B d   1       2.683   0.514   2.729  0.00  0.00     0.004 C 
ATOM     10  C4' N4B d   1       3.503   0.810   1.509  0.00  0.00     0.003 C 
ENDBRANCH   8   9
ENDBRANCH   7   8
ENDBRANCH   1   7
TORSDOF 3
ENDMDL
