MODEL 1
REMARK minimizedAffinity 5.04289722
REMARK minimizedRMSD -1
REMARK  3 active torsions:
REMARK  status: ('A' for Active; 'I' for Inactive)
REMARK    1  A    between atoms: C3'_2  and  C2'_3 
REMARK    2  A    between atoms: C2'_3  and  C1'_4 
REMARK    3  A    between atoms: C1'_4  and  C1_5 
ROOT
ATOM      1  C1  N4B d   1       2.163  -4.105   4.482  0.00  0.00    -0.075 A 
ATOM      2  C2  N4B d   1       2.866  -5.055   5.255  0.00  0.00     0.002 A 
ATOM      3  C3  N4B d   1       2.177  -5.998   5.977  0.00  0.00     0.002 A 
ATOM      4  C4  N4B d   1       0.790  -5.999   5.956  0.00  0.00    -0.004 A 
ATOM      5  C5  N4B d   1       0.119  -5.094   5.187  0.00  0.00     0.002 A 
ATOM      6  C6  N4B d   1       0.799  -4.143   4.453  0.00  0.00     0.002 A 
ENDROOT
BRANCH   1   7
ATOM      7  C1' N4B d   1       2.870  -3.001   3.744  0.00  0.00     0.057 C 
BRANCH   7   8
ATOM      8  C2' N4B d   1       1.975  -1.766   3.713  0.00  0.00     0.009 C 
BRANCH   8   9
ATOM      9  C3' N4B d   1       1.554  -1.406   2.298  0.00  0.00     0.004 C 
ATOM     10  C4' N4B d   1       1.775   0.042   1.977  0.00  0.00     0.003 C 
ENDBRANCH   8   9
ENDBRANCH   7   8
ENDBRANCH   1   7
TORSDOF 3
ENDMDL
