MODEL 1
REMARK minimizedAffinity 6.83546495
REMARK minimizedRMSD -1
REMARK  3 active torsions:
REMARK  status: ('A' for Active; 'I' for Inactive)
REMARK    1  A    between atoms: C3'_2  and  C2'_3 
REMARK    2  A    between atoms: C2'_3  and  C1'_4 
REMARK    3  A    between atoms: C1'_4  and  C1_5 
ROOT
ATOM      1  C1  N4B d   1       2.082  -2.303   3.391  0.00  0.00    -0.075 A 
ATOM      2  C2  N4B d   1       2.744  -1.119   3.785  0.00  0.00     0.002 A 
ATOM      3  C3  N4B d   1       2.633   0.016   3.021  0.00  0.00     0.002 A 
ATOM      4  C4  N4B d   1       1.884  -0.013   1.854  0.00  0.00    -0.004 A 
ATOM      5  C5  N4B d   1       1.228  -1.153   1.493  0.00  0.00     0.002 A 
ATOM      6  C6  N4B d   1       1.327  -2.301   2.254  0.00  0.00     0.002 A 
ENDROOT
BRANCH   1   7
ATOM      7  C1' N4B d   1       2.244  -3.593   4.148  0.00  0.00     0.057 C 
BRANCH   7   8
ATOM      8  C2' N4B d   1       0.966  -3.877   4.931  0.00  0.00     0.009 C 
BRANCH   8   9
ATOM      9  C3' N4B d   1       1.177  -4.937   5.998  0.00  0.00     0.004 C 
ATOM     10  C4' N4B d   1       0.102  -5.983   5.999  0.00  0.00     0.003 C 
ENDBRANCH   8   9
ENDBRANCH   7   8
ENDBRANCH   1   7
TORSDOF 3
ENDMDL
