MODEL 1
REMARK minimizedAffinity 11.0525618
REMARK minimizedRMSD -1
REMARK  3 active torsions:
REMARK  status: ('A' for Active; 'I' for Inactive)
REMARK    1  A    between atoms: C3'_2  and  C2'_3 
REMARK    2  A    between atoms: C2'_3  and  C1'_4 
REMARK    3  A    between atoms: C1'_4  and  C1_5 
ROOT
ATOM      1  C1  N4B d   1       0.582  -0.712   0.826  0.00  0.00    -0.075 A 
ATOM      2  C2  N4B d   1       1.224  -1.629  -0.035  0.00  0.00     0.002 A 
ATOM      3  C3  N4B d   1       0.505  -2.271  -1.013  0.00  0.00     0.002 A 
ATOM      4  C4  N4B d   1      -0.855  -2.027  -1.137  0.00  0.00    -0.004 A 
ATOM      5  C5  N4B d   1      -1.462  -1.120  -0.318  0.00  0.00     0.002 A 
ATOM      6  C6  N4B d   1      -0.751  -0.465   0.667  0.00  0.00     0.002 A 
ENDROOT
BRANCH   1   7
ATOM      7  C1' N4B d   1       1.308  -0.050   1.965  0.00  0.00     0.057 C 
BRANCH   7   8
ATOM      8  C2' N4B d   1       2.731  -0.598   2.037  0.00  0.00     0.009 C 
BRANCH   8   9
ATOM      9  C3' N4B d   1       2.901  -1.591   3.174  0.00  0.00     0.004 C 
ATOM     10  C4' N4B d   1       1.762  -1.557   4.149  0.00  0.00     0.003 C 
ENDBRANCH   8   9
ENDBRANCH   7   8
ENDBRANCH   1   7
TORSDOF 3
ENDMDL
