MODEL 1
REMARK minimizedAffinity 7.70813894
REMARK minimizedRMSD -1
REMARK  3 active torsions:
REMARK  status: ('A' for Active; 'I' for Inactive)
REMARK    1  A    between atoms: C3'_2  and  C2'_3 
REMARK    2  A    between atoms: C2'_3  and  C1'_4 
REMARK    3  A    between atoms: C1'_4  and  C1_5 
ROOT
ATOM      1  C1  N4B d   1       2.720  -1.538   3.899  0.00  0.00    -0.075 A 
ATOM      2  C2  N4B d   1       1.728  -0.686   3.366  0.00  0.00     0.002 A 
ATOM      3  C3  N4B d   1       1.920  -0.090   2.144  0.00  0.00     0.002 A 
ATOM      4  C4  N4B d   1       3.099  -0.314   1.448  0.00  0.00    -0.004 A 
ATOM      5  C5  N4B d   1       4.041  -1.159   1.959  0.00  0.00     0.002 A 
ATOM      6  C6  N4B d   1       3.860  -1.768   3.184  0.00  0.00     0.002 A 
ENDROOT
BRANCH   1   7
ATOM      7  C1' N4B d   1       2.593  -2.145   5.270  0.00  0.00     0.057 C 
BRANCH   7   8
ATOM      8  C2' N4B d   1       1.627  -3.324   5.208  0.00  0.00     0.009 C 
BRANCH   8   9
ATOM      9  C3' N4B d   1       2.137  -4.519   5.995  0.00  0.00     0.004 C 
ATOM     10  C4' N4B d   1       1.177  -5.671   5.990  0.00  0.00     0.003 C 
ENDBRANCH   8   9
ENDBRANCH   7   8
ENDBRANCH   1   7
TORSDOF 3
ENDMDL
