MODEL 1
REMARK minimizedAffinity 1.631019
REMARK minimizedRMSD -1
REMARK  1 active torsions:
REMARK  status: ('A' for Active; 'I' for Inactive)
REMARK    1  A    between atoms: C1_2  and  C2_3 
ROOT
ATOM      1  C2  UNL d   1      -4.729  -2.555   3.531  0.00  0.00    -0.077 A 
ATOM      2  C3  UNL d   1      -3.912  -3.535   4.112  0.00  0.00     0.002 A 
ATOM      3  C4  UNL d   1      -4.137  -4.888   3.851  0.00  0.00     0.002 A 
ATOM      4  C5  UNL d   1      -5.175  -5.273   3.006  0.00  0.00    -0.004 A 
ATOM      5  C6  UNL d   1      -5.995  -4.306   2.424  0.00  0.00     0.002 A 
ATOM      6  C7  UNL d   1      -5.772  -2.954   2.685  0.00  0.00     0.002 A 
ENDROOT
BRANCH   1   7
ATOM      7  C1  UNL d   1      -4.458  -1.093   3.772  0.00  0.00     0.055 C 
ATOM      8  C   UNL d   1      -3.673  -0.479   2.621  0.00  0.00     0.019 C 
ENDBRANCH   1   7
TORSDOF 1
ENDMDL
