MODEL 1
REMARK minimizedAffinity 1.03126431
REMARK minimizedRMSD -1
REMARK  1 active torsions:
REMARK  status: ('A' for Active; 'I' for Inactive)
REMARK    1  A    between atoms: C1_2  and  C2_3 
ROOT
ATOM      1  C2  UNL d   1       2.118  -3.285  -1.351  0.00  0.00    -0.077 A 
ATOM      2  C3  UNL d   1       3.060  -4.266  -1.692  0.00  0.00     0.002 A 
ATOM      3  C4  UNL d   1       3.308  -4.571  -3.032  0.00  0.00     0.002 A 
ATOM      4  C5  UNL d   1       2.622  -3.898  -4.040  0.00  0.00    -0.004 A 
ATOM      5  C6  UNL d   1       1.682  -2.923  -3.711  0.00  0.00     0.002 A 
ATOM      6  C7  UNL d   1       1.431  -2.617  -2.373  0.00  0.00     0.002 A 
ENDROOT
BRANCH   1   7
ATOM      7  C1  UNL d   1       1.885  -2.919   0.091  0.00  0.00     0.055 C 
ATOM      8  C   UNL d   1       1.494  -1.456   0.235  0.00  0.00     0.019 C 
ENDBRANCH   1   7
TORSDOF 1
ENDMDL
