MODEL 1
REMARK minimizedAffinity -2.01108074
REMARK minimizedRMSD -1
REMARK  1 active torsions:
REMARK  status: ('A' for Active; 'I' for Inactive)
REMARK    1  A    between atoms: C1_2  and  C2_3 
ROOT
ATOM      1  C2  UNL d   1       3.001  -3.826  -1.610  0.00  0.00    -0.077 A 
ATOM      2  C3  UNL d   1       3.867  -4.269  -2.620  0.00  0.00     0.002 A 
ATOM      3  C4  UNL d   1       3.660  -3.886  -3.946  0.00  0.00     0.002 A 
ATOM      4  C5  UNL d   1       2.591  -3.055  -4.275  0.00  0.00    -0.004 A 
ATOM      5  C6  UNL d   1       1.723  -2.610  -3.278  0.00  0.00     0.002 A 
ATOM      6  C7  UNL d   1       1.927  -2.993  -1.952  0.00  0.00     0.002 A 
ENDROOT
BRANCH   1   7
ATOM      7  C1  UNL d   1       3.251  -4.198  -0.172  0.00  0.00     0.055 C 
ATOM      8  C   UNL d   1       4.720  -4.041   0.193  0.00  0.00     0.019 C 
ENDBRANCH   1   7
TORSDOF 1
ENDMDL
