MODEL 1
REMARK minimizedAffinity 0.282152474
REMARK minimizedRMSD -1
REMARK  1 active torsions:
REMARK  status: ('A' for Active; 'I' for Inactive)
REMARK    1  A    between atoms: C1_2  and  C2_3 
ROOT
ATOM      1  C2  UNL d   1       2.848  -4.017  -1.785  0.00  0.00    -0.077 A 
ATOM      2  C3  UNL d   1       3.018  -5.341  -2.214  0.00  0.00     0.002 A 
ATOM      3  C4  UNL d   1       2.969  -5.654  -3.573  0.00  0.00     0.002 A 
ATOM      4  C5  UNL d   1       2.754  -4.650  -4.515  0.00  0.00    -0.004 A 
ATOM      5  C6  UNL d   1       2.582  -3.330  -4.098  0.00  0.00     0.002 A 
ATOM      6  C7  UNL d   1       2.630  -3.015  -2.739  0.00  0.00     0.002 A 
ENDROOT
BRANCH   1   7
ATOM      7  C1  UNL d   1       2.950  -3.670  -0.322  0.00  0.00     0.055 C 
ATOM      8  C   UNL d   1       4.296  -4.086   0.253  0.00  0.00     0.019 C 
ENDBRANCH   1   7
TORSDOF 1
ENDMDL
