MODEL 1
REMARK minimizedAffinity -0.43105495
REMARK minimizedRMSD -1
REMARK  1 active torsions:
REMARK  status: ('A' for Active; 'I' for Inactive)
REMARK    1  A    between atoms: C1_2  and  C2_3 
ROOT
ATOM      1  C2  UNL d   1      -2.902   2.265   4.827  0.00  0.00    -0.077 A 
ATOM      2  C3  UNL d   1      -2.137   2.181   6.000  0.00  0.00     0.002 A 
ATOM      3  C4  UNL d   1      -0.748   2.063   5.930  0.00  0.00     0.002 A 
ATOM      4  C5  UNL d   1      -0.111   2.033   4.692  0.00  0.00    -0.004 A 
ATOM      5  C6  UNL d   1      -0.862   2.113   3.520  0.00  0.00     0.002 A 
ATOM      6  C7  UNL d   1      -2.251   2.229   3.587  0.00  0.00     0.002 A 
ENDROOT
BRANCH   1   7
ATOM      7  C1  UNL d   1      -4.396   2.441   4.901  0.00  0.00     0.055 C 
ATOM      8  C   UNL d   1      -4.768   3.694   5.680  0.00  0.00     0.019 C 
ENDBRANCH   1   7
TORSDOF 1
ENDMDL
