MODEL 1
REMARK minimizedAffinity 5.11881113
REMARK minimizedRMSD -1
REMARK  1 active torsions:
REMARK  status: ('A' for Active; 'I' for Inactive)
REMARK    1  A    between atoms: C1_2  and  C2_3 
ROOT
ATOM      1  C2  UNL d   1      -1.078   1.468   4.758  0.00  0.00    -0.077 A 
ATOM      2  C3  UNL d   1      -1.699   1.805   5.969  0.00  0.00     0.002 A 
ATOM      3  C4  UNL d   1      -3.052   2.145   5.999  0.00  0.00     0.002 A 
ATOM      4  C5  UNL d   1      -3.798   2.148   4.822  0.00  0.00    -0.004 A 
ATOM      5  C6  UNL d   1      -3.190   1.816   3.612  0.00  0.00     0.002 A 
ATOM      6  C7  UNL d   1      -1.836   1.477   3.580  0.00  0.00     0.002 A 
ENDROOT
BRANCH   1   7
ATOM      7  C1  UNL d   1       0.369   1.053   4.731  0.00  0.00     0.055 C 
ATOM      8  C   UNL d   1       1.092   1.482   5.999  0.00  0.00     0.019 C 
ENDBRANCH   1   7
TORSDOF 1
ENDMDL
