MODEL 1
REMARK minimizedAffinity 12.2364388
REMARK minimizedRMSD -1
REMARK  1 active torsions:
REMARK  status: ('A' for Active; 'I' for Inactive)
REMARK    1  A    between atoms: C1_2  and  C2_3 
ROOT
ATOM      1  C2  UNL d   1      -3.646   3.966  -5.438  0.00  0.00    -0.077 A 
ATOM      2  C3  UNL d   1      -3.653   2.678  -5.991  0.00  0.00     0.002 A 
ATOM      3  C4  UNL d   1      -2.860   1.669  -5.442  0.00  0.00     0.002 A 
ATOM      4  C5  UNL d   1      -2.058   1.936  -4.334  0.00  0.00    -0.004 A 
ATOM      5  C6  UNL d   1      -2.042   3.215  -3.778  0.00  0.00     0.002 A 
ATOM      6  C7  UNL d   1      -2.833   4.225  -4.327  0.00  0.00     0.002 A 
ENDROOT
BRANCH   1   7
ATOM      7  C1  UNL d   1      -4.538   5.043  -5.999  0.00  0.00     0.055 C 
ATOM      8  C   UNL d   1      -5.996   4.609  -5.999  0.00  0.00     0.019 C 
ENDBRANCH   1   7
TORSDOF 1
ENDMDL
