MODEL 1
REMARK minimizedAffinity 14.8499222
REMARK minimizedRMSD -1
REMARK  1 active torsions:
REMARK  status: ('A' for Active; 'I' for Inactive)
REMARK    1  A    between atoms: C1_2  and  C2_3 
ROOT
ATOM      1  C2  UNL d   1       2.050   0.151  -2.464  0.00  0.00    -0.077 A 
ATOM      2  C3  UNL d   1       2.230   1.508  -2.162  0.00  0.00     0.002 A 
ATOM      3  C4  UNL d   1       3.086   1.893  -1.128  0.00  0.00     0.002 A 
ATOM      4  C5  UNL d   1       3.771   0.928  -0.392  0.00  0.00    -0.004 A 
ATOM      5  C6  UNL d   1       3.596  -0.424  -0.684  0.00  0.00     0.002 A 
ATOM      6  C7  UNL d   1       2.740  -0.811  -1.716  0.00  0.00     0.002 A 
ENDROOT
BRANCH   1   7
ATOM      7  C1  UNL d   1       1.165  -0.264  -3.611  0.00  0.00     0.055 C 
ATOM      8  C   UNL d   1       1.939  -1.071  -4.643  0.00  0.00     0.019 C 
ENDBRANCH   1   7
TORSDOF 1
ENDMDL
