MODEL 1
REMARK minimizedAffinity 14.2013054
REMARK minimizedRMSD -1
REMARK  1 active torsions:
REMARK  status: ('A' for Active; 'I' for Inactive)
REMARK    1  A    between atoms: C1_2  and  C2_3 
ROOT
ATOM      1  C2  UNL d   1      -0.919   1.737   3.242  0.00  0.00    -0.077 A 
ATOM      2  C3  UNL d   1      -0.581   2.109   4.551  0.00  0.00     0.002 A 
ATOM      3  C4  UNL d   1       0.736   1.999   4.999  0.00  0.00     0.002 A 
ATOM      4  C5  UNL d   1       1.727   1.522   4.143  0.00  0.00    -0.004 A 
ATOM      5  C6  UNL d   1       1.401   1.148   2.840  0.00  0.00     0.002 A 
ATOM      6  C7  UNL d   1       0.084   1.256   2.391  0.00  0.00     0.002 A 
ENDROOT
BRANCH   1   7
ATOM      7  C1  UNL d   1      -2.331   1.901   2.742  0.00  0.00     0.055 C 
ATOM      8  C   UNL d   1      -3.329   1.226   3.671  0.00  0.00     0.019 C 
ENDBRANCH   1   7
TORSDOF 1
ENDMDL
