MODEL 1
REMARK minimizedAffinity 17.3041153
REMARK minimizedRMSD -1
REMARK  1 active torsions:
REMARK  status: ('A' for Active; 'I' for Inactive)
REMARK    1  A    between atoms: C1_2  and  C2_3 
ROOT
ATOM      1  C2  UNL d   1      -4.456   1.050   4.309  0.00  0.00    -0.077 A 
ATOM      2  C3  UNL d   1      -5.610   1.829   4.138  0.00  0.00     0.002 A 
ATOM      3  C4  UNL d   1      -5.796   2.989   4.892  0.00  0.00     0.002 A 
ATOM      4  C5  UNL d   1      -4.832   3.383   5.818  0.00  0.00    -0.004 A 
ATOM      5  C6  UNL d   1      -3.682   2.614   5.996  0.00  0.00     0.002 A 
ATOM      6  C7  UNL d   1      -3.495   1.453   5.244  0.00  0.00     0.002 A 
ENDROOT
BRANCH   1   7
ATOM      7  C1  UNL d   1      -4.231  -0.175   3.462  0.00  0.00     0.055 C 
ATOM      8  C   UNL d   1      -4.589  -1.446   4.218  0.00  0.00     0.019 C 
ENDBRANCH   1   7
TORSDOF 1
ENDMDL
