MODEL 1
REMARK minimizedAffinity 9.11688709
REMARK minimizedRMSD -1
REMARK  1 active torsions:
REMARK  status: ('A' for Active; 'I' for Inactive)
REMARK    1  A    between atoms: C1_2  and  C2_3 
ROOT
ATOM      1  C2  UNL d   1      -0.727  -3.889  -3.287  0.00  0.00    -0.077 A 
ATOM      2  C3  UNL d   1      -0.432  -4.493  -4.517  0.00  0.00     0.002 A 
ATOM      3  C4  UNL d   1      -1.332  -4.406  -5.581  0.00  0.00     0.002 A 
ATOM      4  C5  UNL d   1      -2.531  -3.714  -5.426  0.00  0.00    -0.004 A 
ATOM      5  C6  UNL d   1      -2.835  -3.112  -4.206  0.00  0.00     0.002 A 
ATOM      6  C7  UNL d   1      -1.937  -3.198  -3.141  0.00  0.00     0.002 A 
ENDROOT
BRANCH   1   7
ATOM      7  C1  UNL d   1       0.264  -3.939  -2.154  0.00  0.00     0.055 C 
ATOM      8  C   UNL d   1       1.035  -2.632  -2.035  0.00  0.00     0.019 C 
ENDBRANCH   1   7
TORSDOF 1
ENDMDL
