MODEL 1
REMARK minimizedAffinity 17.8004036
REMARK minimizedRMSD -1
REMARK  1 active torsions:
REMARK  status: ('A' for Active; 'I' for Inactive)
REMARK    1  A    between atoms: C1_2  and  C2_3 
ROOT
ATOM      1  C2  UNL d   1      -3.951   0.428   4.717  0.00  0.00    -0.077 A 
ATOM      2  C3  UNL d   1      -3.764   1.137   5.912  0.00  0.00     0.002 A 
ATOM      3  C4  UNL d   1      -4.128   2.482   5.999  0.00  0.00     0.002 A 
ATOM      4  C5  UNL d   1      -4.684   3.128   4.897  0.00  0.00    -0.004 A 
ATOM      5  C6  UNL d   1      -4.872   2.432   3.703  0.00  0.00     0.002 A 
ATOM      6  C7  UNL d   1      -4.508   1.087   3.614  0.00  0.00     0.002 A 
ENDROOT
BRANCH   1   7
ATOM      7  C1  UNL d   1      -3.605  -1.036   4.637  0.00  0.00     0.055 C 
ATOM      8  C   UNL d   1      -3.769  -1.719   5.987  0.00  0.00     0.019 C 
ENDBRANCH   1   7
TORSDOF 1
ENDMDL
