MODEL 1
REMARK minimizedAffinity 2.51515532
REMARK minimizedRMSD -1
REMARK  0 active torsions:
REMARK  status: ('A' for Active; 'I' for Inactive)
ROOT
ATOM      1  N1  IND d   1       5.788  -0.078  -0.705  0.00  0.00    -0.196 N 
ATOM      2  C2  IND d   1       5.999  -0.890   0.375  0.00  0.00     0.054 A 
ATOM      3  C3  IND d   1       4.997  -0.750   1.271  0.00  0.00    -0.031 A 
ATOM      4  C4  IND d   1       2.859   0.677   1.125  0.00  0.00     0.051 A 
ATOM      5  C5  IND d   1       2.240   1.614   0.346  0.00  0.00    -0.031 A 
ATOM      6  C6  IND d   1       2.782   2.042  -0.848  0.00  0.00     0.015 A 
ATOM      7  C7  IND d   1       3.963   1.537  -1.316  0.00  0.00    -0.016 A 
ATOM      8  C8  IND d   1       4.597   0.591  -0.524  0.00  0.00    -0.047 A 
ATOM      9  C9  IND d   1       4.073   0.184   0.710  0.00  0.00    -0.096 A 
ATOM     10  HN1 IND d   1       6.310   0.001  -1.383  0.00  0.00     0.298 HD
ENDROOT
TORSDOF 0
ENDMDL
