MODEL 1
REMARK minimizedAffinity 10.6247387
REMARK minimizedRMSD -1
REMARK  0 active torsions:
REMARK  status: ('A' for Active; 'I' for Inactive)
ROOT
ATOM      1  N1  IND d   1       5.767  -0.794   1.772  0.00  0.00    -0.196 N 
ATOM      2  C2  IND d   1       5.822  -0.498   0.439  0.00  0.00     0.054 A 
ATOM      3  C3  IND d   1       4.623  -0.046   0.008  0.00  0.00    -0.031 A 
ATOM      4  C4  IND d   1       2.463   0.386   1.340  0.00  0.00     0.051 A 
ATOM      5  C5  IND d   1       1.915   0.233   2.582  0.00  0.00    -0.031 A 
ATOM      6  C6  IND d   1       2.638  -0.278   3.640  0.00  0.00     0.015 A 
ATOM      7  C7  IND d   1       3.946  -0.646   3.497  0.00  0.00    -0.016 A 
ATOM      8  C8  IND d   1       4.504  -0.498   2.235  0.00  0.00    -0.047 A 
ATOM      9  C9  IND d   1       3.762  -0.020   1.147  0.00  0.00    -0.096 A 
ATOM     10  HN1 IND d   1       6.413  -1.111   2.243  0.00  0.00     0.298 HD
ENDROOT
TORSDOF 0
ENDMDL
