MODEL 1
REMARK minimizedAffinity 10.4447803
REMARK minimizedRMSD -1
REMARK  0 active torsions:
REMARK  status: ('A' for Active; 'I' for Inactive)
ROOT
ATOM      1  N1  IND d   1       4.864  -1.192   1.778  0.00  0.00    -0.196 N 
ATOM      2  C2  IND d   1       5.929  -1.276   0.926  0.00  0.00     0.054 A 
ATOM      3  C3  IND d   1       5.813  -0.363  -0.065  0.00  0.00    -0.031 A 
ATOM      4  C4  IND d   1       4.009   1.438  -0.425  0.00  0.00     0.051 A 
ATOM      5  C5  IND d   1       2.815   1.881   0.071  0.00  0.00    -0.031 A 
ATOM      6  C6  IND d   1       2.233   1.313   1.186  0.00  0.00     0.015 A 
ATOM      7  C7  IND d   1       2.831   0.283   1.856  0.00  0.00    -0.016 A 
ATOM      8  C8  IND d   1       4.040  -0.174   1.350  0.00  0.00    -0.047 A 
ATOM      9  C9  IND d   1       4.614   0.370   0.195  0.00  0.00    -0.096 A 
ATOM     10  HN1 IND d   1       4.731  -1.691   2.465  0.00  0.00     0.298 HD
ENDROOT
TORSDOF 0
ENDMDL
