MODEL 1
REMARK minimizedAffinity 16.6413879
REMARK minimizedRMSD -1
REMARK  0 active torsions:
REMARK  status: ('A' for Active; 'I' for Inactive)
ROOT
ATOM      1  N1  IND d   1      -4.865  -2.874  -5.373  0.00  0.00    -0.196 N 
ATOM      2  C2  IND d   1      -5.996  -2.743  -4.616  0.00  0.00     0.054 A 
ATOM      3  C3  IND d   1      -5.681  -2.704  -3.302  0.00  0.00    -0.031 A 
ATOM      4  C4  IND d   1      -3.367  -2.735  -2.173  0.00  0.00     0.051 A 
ATOM      5  C5  IND d   1      -2.036  -2.880  -2.448  0.00  0.00    -0.031 A 
ATOM      6  C6  IND d   1      -1.571  -3.030  -3.739  0.00  0.00     0.015 A 
ATOM      7  C7  IND d   1      -2.422  -3.030  -4.807  0.00  0.00    -0.016 A 
ATOM      8  C8  IND d   1      -3.774  -2.890  -4.531  0.00  0.00    -0.047 A 
ATOM      9  C9  IND d   1      -4.256  -2.780  -3.221  0.00  0.00    -0.096 A 
ATOM     10  HN1 IND d   1      -4.839  -2.935  -6.230  0.00  0.00     0.298 HD
ENDROOT
TORSDOF 0
ENDMDL
