MODEL 1
REMARK minimizedAffinity 14.8109751
REMARK minimizedRMSD -1
REMARK  0 active torsions:
REMARK  status: ('A' for Active; 'I' for Inactive)
ROOT
ATOM      1  N1  IND d   1       2.147  -1.053   4.085  0.00  0.00    -0.196 N 
ATOM      2  C2  IND d   1       1.011  -0.743   3.391  0.00  0.00     0.054 A 
ATOM      3  C3  IND d   1       1.304  -0.494   2.095  0.00  0.00    -0.031 A 
ATOM      4  C4  IND d   1       3.566  -0.638   0.874  0.00  0.00     0.051 A 
ATOM      5  C5  IND d   1       4.899  -0.846   1.095  0.00  0.00    -0.031 A 
ATOM      6  C6  IND d   1       5.392  -1.143   2.349  0.00  0.00     0.015 A 
ATOM      7  C7  IND d   1       4.565  -1.254   3.432  0.00  0.00    -0.016 A 
ATOM      8  C8  IND d   1       3.212  -1.036   3.212  0.00  0.00    -0.047 A 
ATOM      9  C9  IND d   1       2.712  -0.693   1.950  0.00  0.00    -0.096 A 
ATOM     10  HN1 IND d   1       2.189  -1.229   4.926  0.00  0.00     0.298 HD
ENDROOT
TORSDOF 0
ENDMDL
