MODEL 1
REMARK minimizedAffinity 12.0551682
REMARK minimizedRMSD -1
REMARK  0 active torsions:
REMARK  status: ('A' for Active; 'I' for Inactive)
ROOT
ATOM      1  N1  IND d   1      -4.696  -0.213   3.868  0.00  0.00    -0.196 N 
ATOM      2  C2  IND d   1      -5.387  -0.854   4.858  0.00  0.00     0.054 A 
ATOM      3  C3  IND d   1      -5.704   0.012   5.847  0.00  0.00    -0.031 A 
ATOM      4  C4  IND d   1      -5.276   2.547   6.000  0.00  0.00     0.051 A 
ATOM      5  C5  IND d   1      -4.648   3.574   5.353  0.00  0.00    -0.031 A 
ATOM      6  C6  IND d   1      -3.994   3.388   4.153  0.00  0.00     0.015 A 
ATOM      7  C7  IND d   1      -3.952   2.165   3.546  0.00  0.00    -0.016 A 
ATOM      8  C8  IND d   1      -4.582   1.118   4.203  0.00  0.00    -0.047 A 
ATOM      9  C9  IND d   1      -5.212   1.291   5.442  0.00  0.00    -0.096 A 
ATOM     10  HN1 IND d   1      -4.385  -0.580   3.155  0.00  0.00     0.298 HD
ENDROOT
TORSDOF 0
ENDMDL
