MODEL 1
REMARK minimizedAffinity 11.4068661
REMARK minimizedRMSD -1
REMARK  0 active torsions:
REMARK  status: ('A' for Active; 'I' for Inactive)
ROOT
ATOM      1  N1  IND d   1      -4.735   3.058   5.206  0.00  0.00    -0.196 N 
ATOM      2  C2  IND d   1      -3.970   3.365   4.116  0.00  0.00     0.054 A 
ATOM      3  C3  IND d   1      -3.789   2.270   3.344  0.00  0.00    -0.031 A 
ATOM      4  C4  IND d   1      -4.743  -0.105   3.625  0.00  0.00     0.051 A 
ATOM      5  C5  IND d   1      -5.468  -0.879   4.486  0.00  0.00    -0.031 A 
ATOM      6  C6  IND d   1      -5.999  -0.370   5.654  0.00  0.00     0.015 A 
ATOM      7  C7  IND d   1      -5.833   0.941   6.000  0.00  0.00    -0.016 A 
ATOM      8  C8  IND d   1      -5.091   1.729   5.131  0.00  0.00    -0.047 A 
ATOM      9  C9  IND d   1      -4.515   1.208   3.965  0.00  0.00    -0.096 A 
ATOM     10  HN1 IND d   1      -4.957   3.602   5.833  0.00  0.00     0.298 HD
ENDROOT
TORSDOF 0
ENDMDL
