MODEL 1
REMARK minimizedAffinity 21.6076126
REMARK minimizedRMSD -1
REMARK  0 active torsions:
REMARK  status: ('A' for Active; 'I' for Inactive)
ROOT
ATOM      1  N1  IND d   1      -1.972  -3.050  -4.422  0.00  0.00    -0.196 N 
ATOM      2  C2  IND d   1      -0.765  -2.478  -4.712  0.00  0.00     0.054 A 
ATOM      3  C3  IND d   1      -0.299  -1.794  -3.643  0.00  0.00    -0.031 A 
ATOM      4  C4  IND d   1      -1.302  -1.567  -1.283  0.00  0.00     0.051 A 
ATOM      5  C5  IND d   1      -2.411  -1.883  -0.549  0.00  0.00    -0.031 A 
ATOM      6  C6  IND d   1      -3.449  -2.622  -1.078  0.00  0.00     0.015 A 
ATOM      7  C7  IND d   1      -3.413  -3.084  -2.363  0.00  0.00    -0.016 A 
ATOM      8  C8  IND d   1      -2.292  -2.758  -3.114  0.00  0.00    -0.047 A 
ATOM      9  C9  IND d   1      -1.254  -1.973  -2.596  0.00  0.00    -0.096 A 
ATOM     10  HN1 IND d   1      -2.450  -3.514  -4.964  0.00  0.00     0.298 HD
ENDROOT
TORSDOF 0
ENDMDL
