MODEL 1
REMARK minimizedAffinity 12.5819759
REMARK minimizedRMSD -1
REMARK  0 active torsions:
REMARK  status: ('A' for Active; 'I' for Inactive)
ROOT
ATOM      1  N1  IND d   1       5.809  -0.733   0.332  0.00  0.00    -0.196 N 
ATOM      2  C2  IND d   1       5.567  -1.443   1.475  0.00  0.00     0.054 A 
ATOM      3  C3  IND d   1       4.418  -1.027   2.053  0.00  0.00    -0.031 A 
ATOM      4  C4  IND d   1       2.724   0.734   1.243  0.00  0.00     0.051 A 
ATOM      5  C5  IND d   1       2.530   1.674   0.270  0.00  0.00    -0.031 A 
ATOM      6  C6  IND d   1       3.435   1.861  -0.754  0.00  0.00     0.015 A 
ATOM      7  C7  IND d   1       4.569   1.105  -0.850  0.00  0.00    -0.016 A 
ATOM      8  C8  IND d   1       4.773   0.154   0.140  0.00  0.00    -0.047 A 
ATOM      9  C9  IND d   1       3.879  -0.012   1.206  0.00  0.00    -0.096 A 
ATOM     10  HN1 IND d   1       6.493  -0.825  -0.180  0.00  0.00     0.298 HD
ENDROOT
TORSDOF 0
ENDMDL
