MODEL 1
REMARK minimizedAffinity 19.8889008
REMARK minimizedRMSD -1
REMARK  0 active torsions:
REMARK  status: ('A' for Active; 'I' for Inactive)
ROOT
ATOM      1  N1  IND d   1       3.903  -1.075   1.835  0.00  0.00    -0.196 N 
ATOM      2  C2  IND d   1       5.004  -0.609   1.172  0.00  0.00     0.054 A 
ATOM      3  C3  IND d   1       4.709   0.537   0.519  0.00  0.00    -0.031 A 
ATOM      4  C4  IND d   1       2.513   1.881   0.483  0.00  0.00     0.051 A 
ATOM      5  C5  IND d   1       1.215   1.835   0.908  0.00  0.00    -0.031 A 
ATOM      6  C6  IND d   1       0.738   0.798   1.682  0.00  0.00     0.015 A 
ATOM      7  C7  IND d   1       1.548  -0.232   2.071  0.00  0.00    -0.016 A 
ATOM      8  C8  IND d   1       2.864  -0.193   1.635  0.00  0.00    -0.047 A 
ATOM      9  C9  IND d   1       3.344   0.836   0.814  0.00  0.00    -0.096 A 
ATOM     10  HN1 IND d   1       3.866  -1.798   2.299  0.00  0.00     0.298 HD
ENDROOT
TORSDOF 0
ENDMDL
