MODEL 1
REMARK minimizedAffinity 7.06341839
REMARK minimizedRMSD -1
REMARK  0 active torsions:
REMARK  status: ('A' for Active; 'I' for Inactive)
ROOT
ATOM      1  N1  IND d   1      -4.763   3.037   5.925  0.00  0.00    -0.196 N 
ATOM      2  C2  IND d   1      -4.021   3.694   4.983  0.00  0.00     0.054 A 
ATOM      3  C3  IND d   1      -3.850   2.914   3.892  0.00  0.00    -0.031 A 
ATOM      4  C4  IND d   1      -4.786   0.568   3.395  0.00  0.00     0.051 A 
ATOM      5  C5  IND d   1      -5.489  -0.455   3.967  0.00  0.00    -0.031 A 
ATOM      6  C6  IND d   1      -5.999  -0.362   5.246  0.00  0.00     0.015 A 
ATOM      7  C7  IND d   1      -5.834   0.765   5.999  0.00  0.00    -0.016 A 
ATOM      8  C8  IND d   1      -5.114   1.803   5.424  0.00  0.00    -0.047 A 
ATOM      9  C9  IND d   1      -4.557   1.699   4.143  0.00  0.00    -0.096 A 
ATOM     10  HN1 IND d   1      -4.975   3.344   6.699  0.00  0.00     0.298 HD
ENDROOT
TORSDOF 0
ENDMDL
