MODEL 1
REMARK minimizedAffinity 7.08087444
REMARK minimizedRMSD -1
REMARK  0 active torsions:
REMARK  status: ('A' for Active; 'I' for Inactive)
ROOT
ATOM      1  N1  IND d   1      -4.148   3.503   4.034  0.00  0.00    -0.196 N 
ATOM      2  C2  IND d   1      -4.466   4.262   5.125  0.00  0.00     0.054 A 
ATOM      3  C3  IND d   1      -5.204   3.543   6.000  0.00  0.00    -0.031 A 
ATOM      4  C4  IND d   1      -5.921   1.072   5.890  0.00  0.00     0.051 A 
ATOM      5  C5  IND d   1      -5.899  -0.020   5.070  0.00  0.00    -0.031 A 
ATOM      6  C6  IND d   1      -5.276   0.005   3.838  0.00  0.00     0.015 A 
ATOM      7  C7  IND d   1      -4.641   1.126   3.384  0.00  0.00    -0.016 A 
ATOM      8  C8  IND d   1      -4.668   2.240   4.212  0.00  0.00    -0.047 A 
ATOM      9  C9  IND d   1      -5.334   2.233   5.444  0.00  0.00    -0.096 A 
ATOM     10  HN1 IND d   1      -3.699   3.770   3.351  0.00  0.00     0.298 HD
ENDROOT
TORSDOF 0
ENDMDL
