MODEL 1
REMARK minimizedAffinity 12.3741102
REMARK minimizedRMSD -1
REMARK  0 active torsions:
REMARK  status: ('A' for Active; 'I' for Inactive)
ROOT
ATOM      1  N1  IND d   1      -3.842  -1.881  -2.836  0.00  0.00    -0.196 N 
ATOM      2  C2  IND d   1      -2.624  -1.877  -2.216  0.00  0.00     0.054 A 
ATOM      3  C3  IND d   1      -2.417  -3.050  -1.577  0.00  0.00    -0.031 A 
ATOM      4  C4  IND d   1      -3.898  -5.154  -1.501  0.00  0.00     0.051 A 
ATOM      5  C5  IND d   1      -5.123  -5.624  -1.886  0.00  0.00    -0.031 A 
ATOM      6  C6  IND d   1      -6.000  -4.855  -2.624  0.00  0.00     0.015 A 
ATOM      7  C7  IND d   1      -5.679  -3.587  -3.016  0.00  0.00    -0.016 A 
ATOM      8  C8  IND d   1      -4.439  -3.104  -2.621  0.00  0.00    -0.047 A 
ATOM      9  C9  IND d   1      -3.562  -3.864  -1.836  0.00  0.00    -0.096 A 
ATOM     10  HN1 IND d   1      -4.179  -1.229  -3.284  0.00  0.00     0.298 HD
ENDROOT
TORSDOF 0
ENDMDL
