MODEL 1
REMARK minimizedAffinity 14.5621681
REMARK minimizedRMSD -1
REMARK  0 active torsions:
REMARK  status: ('A' for Active; 'I' for Inactive)
ROOT
ATOM      1  N1  IND d   1       2.564  -0.839   4.147  0.00  0.00    -0.196 N 
ATOM      2  C2  IND d   1       3.810  -1.027   3.616  0.00  0.00     0.054 A 
ATOM      3  C3  IND d   1       3.942  -0.326   2.467  0.00  0.00    -0.031 A 
ATOM      4  C4  IND d   1       2.279   1.276   1.328  0.00  0.00     0.051 A 
ATOM      5  C5  IND d   1       0.997   1.741   1.420  0.00  0.00    -0.031 A 
ATOM      6  C6  IND d   1       0.156   1.365   2.447  0.00  0.00     0.015 A 
ATOM      7  C7  IND d   1       0.571   0.514   3.432  0.00  0.00    -0.016 A 
ATOM      8  C8  IND d   1       1.870   0.034   3.339  0.00  0.00    -0.047 A 
ATOM      9  C9  IND d   1       2.714   0.379   2.275  0.00  0.00    -0.096 A 
ATOM     10  HN1 IND d   1       2.265  -1.205   4.865  0.00  0.00     0.298 HD
ENDROOT
TORSDOF 0
ENDMDL
