MODEL 1
REMARK minimizedAffinity 3.07632136
REMARK minimizedRMSD -1
REMARK  0 active torsions:
REMARK  status: ('A' for Active; 'I' for Inactive)
ROOT
ATOM      1  N1  IND d   1      -4.660   5.419   1.141  0.00  0.00    -0.196 N 
ATOM      2  C2  IND d   1      -5.956   5.543   0.723  0.00  0.00     0.054 A 
ATOM      3  C3  IND d   1      -6.000   5.814  -0.600  0.00  0.00    -0.031 A 
ATOM      4  C4  IND d   1      -4.072   6.000  -2.297  0.00  0.00     0.051 A 
ATOM      5  C5  IND d   1      -2.708   6.000  -2.382  0.00  0.00    -0.031 A 
ATOM      6  C6  IND d   1      -1.909   5.799  -1.275  0.00  0.00     0.015 A 
ATOM      7  C7  IND d   1      -2.447   5.579  -0.038  0.00  0.00    -0.016 A 
ATOM      8  C8  IND d   1      -3.831   5.586   0.053  0.00  0.00    -0.047 A 
ATOM      9  C9  IND d   1      -4.647   5.831  -1.059  0.00  0.00    -0.096 A 
ATOM     10  HN1 IND d   1      -4.405   5.264   1.947  0.00  0.00     0.298 HD
ENDROOT
TORSDOF 0
ENDMDL
