MODEL 1
REMARK minimizedAffinity 0.483471304
REMARK minimizedRMSD -1
REMARK  0 active torsions:
REMARK  status: ('A' for Active; 'I' for Inactive)
ROOT
ATOM      1  N1  IND d   1      -4.004   2.942   4.286  0.00  0.00    -0.196 N 
ATOM      2  C2  IND d   1      -4.546   3.512   5.404  0.00  0.00     0.054 A 
ATOM      3  C3  IND d   1      -5.406   2.655   5.999  0.00  0.00    -0.031 A 
ATOM      4  C4  IND d   1      -5.999   0.231   5.367  0.00  0.00     0.051 A 
ATOM      5  C5  IND d   1      -5.785  -0.714   4.404  0.00  0.00    -0.031 A 
ATOM      6  C6  IND d   1      -4.948  -0.485   3.331  0.00  0.00     0.015 A 
ATOM      7  C7  IND d   1      -4.281   0.699   3.188  0.00  0.00    -0.016 A 
ATOM      8  C8  IND d   1      -4.501   1.663   4.161  0.00  0.00    -0.047 A 
ATOM      9  C9  IND d   1      -5.383   1.452   5.229  0.00  0.00    -0.096 A 
ATOM     10  HN1 IND d   1      -3.446   3.319   3.751  0.00  0.00     0.298 HD
ENDROOT
TORSDOF 0
ENDMDL
