MODEL 1
REMARK minimizedAffinity 25.8814907
REMARK minimizedRMSD -1
REMARK  0 active torsions:
REMARK  status: ('A' for Active; 'I' for Inactive)
ROOT
ATOM      1  N1  IND d   1      -0.879  -5.770  -3.614  0.00  0.00    -0.196 N 
ATOM      2  C2  IND d   1      -0.043  -5.899  -4.688  0.00  0.00     0.054 A 
ATOM      3  C3  IND d   1       0.092  -4.714  -5.324  0.00  0.00    -0.031 A 
ATOM      4  C4  IND d   1      -0.885  -2.411  -4.717  0.00  0.00     0.051 A 
ATOM      5  C5  IND d   1      -1.739  -1.801  -3.841  0.00  0.00    -0.031 A 
ATOM      6  C6  IND d   1      -2.360  -2.495  -2.824  0.00  0.00     0.015 A 
ATOM      7  C7  IND d   1      -2.141  -3.830  -2.635  0.00  0.00    -0.016 A 
ATOM      8  C8  IND d   1      -1.280  -4.456  -3.526  0.00  0.00    -0.047 A 
ATOM      9  C9  IND d   1      -0.680  -3.765  -4.587  0.00  0.00    -0.096 A 
ATOM     10  HN1 IND d   1      -1.114  -6.404  -3.083  0.00  0.00     0.298 HD
ENDROOT
TORSDOF 0
ENDMDL
