MODEL 1
REMARK minimizedAffinity 15.6554832
REMARK minimizedRMSD -1
REMARK  0 active torsions:
REMARK  status: ('A' for Active; 'I' for Inactive)
ROOT
ATOM      1  N1  IND d   1      -4.524   3.083   5.996  0.00  0.00    -0.196 N 
ATOM      2  C2  IND d   1      -3.712   3.719   5.099  0.00  0.00     0.054 A 
ATOM      3  C3  IND d   1      -3.512   2.941   4.012  0.00  0.00    -0.031 A 
ATOM      4  C4  IND d   1      -4.500   0.632   3.449  0.00  0.00     0.051 A 
ATOM      5  C5  IND d   1      -5.268  -0.369   3.975  0.00  0.00    -0.031 A 
ATOM      6  C6  IND d   1      -5.840  -0.267   5.227  0.00  0.00     0.015 A 
ATOM      7  C7  IND d   1      -5.675   0.849   5.997  0.00  0.00    -0.016 A 
ATOM      8  C8  IND d   1      -4.891   1.865   5.468  0.00  0.00    -0.047 A 
ATOM      9  C9  IND d   1      -4.273   1.749   4.217  0.00  0.00    -0.096 A 
ATOM     10  HN1 IND d   1      -4.766   3.392   6.761  0.00  0.00     0.298 HD
ENDROOT
TORSDOF 0
ENDMDL
