MODEL 1
REMARK minimizedAffinity 20.4044952
REMARK minimizedRMSD -1
REMARK  0 active torsions:
REMARK  status: ('A' for Active; 'I' for Inactive)
ROOT
ATOM      1  N1  IND d   1      -0.800  -2.205   1.971  0.00  0.00    -0.196 N 
ATOM      2  C2  IND d   1      -0.359  -2.618   0.744  0.00  0.00     0.054 A 
ATOM      3  C3  IND d   1       0.559  -1.754   0.258  0.00  0.00    -0.031 A 
ATOM      4  C4  IND d   1       1.564   0.350   1.350  0.00  0.00     0.051 A 
ATOM      5  C5  IND d   1       1.449   1.151   2.451  0.00  0.00    -0.031 A 
ATOM      6  C6  IND d   1       0.563   0.868   3.470  0.00  0.00     0.015 A 
ATOM      7  C7  IND d   1      -0.237  -0.239   3.431  0.00  0.00    -0.016 A 
ATOM      8  C8  IND d   1      -0.128  -1.051   2.311  0.00  0.00    -0.047 A 
ATOM      9  C9  IND d   1       0.739  -0.745   1.254  0.00  0.00    -0.096 A 
ATOM     10  HN1 IND d   1      -1.396  -2.599   2.449  0.00  0.00     0.298 HD
ENDROOT
TORSDOF 0
ENDMDL
