MODEL 1
REMARK minimizedAffinity 8.45093727
REMARK minimizedRMSD -1
REMARK  0 active torsions:
REMARK  status: ('A' for Active; 'I' for Inactive)
ROOT
ATOM      1  N1  IND d   1       2.649   4.521  -6.000  0.00  0.00    -0.196 N 
ATOM      2  C2  IND d   1       2.191   5.663  -5.405  0.00  0.00     0.054 A 
ATOM      3  C3  IND d   1       2.382   5.605  -4.067  0.00  0.00    -0.031 A 
ATOM      4  C4  IND d   1       3.518   3.778  -2.654  0.00  0.00     0.051 A 
ATOM      5  C5  IND d   1       4.063   2.528  -2.747  0.00  0.00    -0.031 A 
ATOM      6  C6  IND d   1       4.170   1.866  -3.953  0.00  0.00     0.015 A 
ATOM      7  C7  IND d   1       3.743   2.437  -5.119  0.00  0.00    -0.016 A 
ATOM      8  C8  IND d   1       3.183   3.703  -5.028  0.00  0.00    -0.047 A 
ATOM      9  C9  IND d   1       3.033   4.362  -3.801  0.00  0.00    -0.096 A 
ATOM     10  HN1 IND d   1       2.611   4.343  -6.840  0.00  0.00     0.298 HD
ENDROOT
TORSDOF 0
ENDMDL
