MODEL 1
REMARK minimizedAffinity -4.59842968
REMARK minimizedRMSD -1
REMARK  0 active torsions:
REMARK  status: ('A' for Active; 'I' for Inactive)
ROOT
ATOM      1  C4' PXY d   1       1.609  -2.884   2.592  0.00  0.00     0.077 C 
ATOM      2  C1' PXY d   1      -0.562   0.510  -1.555  0.00  0.00     0.077 C 
ATOM      3  C1  PXY d   1       0.003  -0.372  -0.458  0.00  0.00    -0.082 A 
ATOM      4  C2  PXY d   1       0.997  -1.201  -0.733  0.00  0.00     0.003 A 
ATOM      5  C3  PXY d   1       1.499  -2.028   0.239  0.00  0.00     0.003 A 
ATOM      6  C4  PXY d   1       1.013  -1.968   1.518  0.00  0.00    -0.082 A 
ATOM      7  C5  PXY d   1       0.007  -1.117   1.809  0.00  0.00     0.003 A 
ATOM      8  C6  PXY d   1      -0.516  -0.315   0.798  0.00  0.00     0.003 A 
ENDROOT
TORSDOF 0
ENDMDL
