MODEL 1
REMARK minimizedAffinity -4.38379955
REMARK minimizedRMSD -1
REMARK  0 active torsions:
REMARK  status: ('A' for Active; 'I' for Inactive)
ROOT
ATOM      1  C4' PXY d   1      -0.310   0.375  -1.827  0.00  0.00     0.077 C 
ATOM      2  C1' PXY d   1       1.686  -0.985   3.425  0.00  0.00     0.077 C 
ATOM      3  C1  PXY d   1       1.151  -0.633   2.051  0.00  0.00    -0.082 A 
ATOM      4  C2  PXY d   1       1.985  -0.540   1.028  0.00  0.00     0.003 A 
ATOM      5  C3  PXY d   1       1.522  -0.192  -0.215  0.00  0.00     0.003 A 
ATOM      6  C4  PXY d   1       0.185   0.013  -0.424  0.00  0.00    -0.082 A 
ATOM      7  C5  PXY d   1      -0.674  -0.090   0.613  0.00  0.00     0.003 A 
ATOM      8  C6  PXY d   1      -0.179  -0.405   1.875  0.00  0.00     0.003 A 
ENDROOT
TORSDOF 0
ENDMDL
