MODEL 1
REMARK minimizedAffinity -3.45176005
REMARK minimizedRMSD -1
REMARK  0 active torsions:
REMARK  status: ('A' for Active; 'I' for Inactive)
ROOT
ATOM      1  C4' PXY d   1       1.892  -1.915   2.342  0.00  0.00     0.077 C 
ATOM      2  C1' PXY d   1      -0.957   0.878  -1.840  0.00  0.00     0.077 C 
ATOM      3  C1  PXY d   1      -0.215   0.153  -0.734  0.00  0.00    -0.082 A 
ATOM      4  C2  PXY d   1       0.913  -0.480  -1.010  0.00  0.00     0.003 A 
ATOM      5  C3  PXY d   1       1.580  -1.168  -0.028  0.00  0.00     0.003 A 
ATOM      6  C4  PXY d   1       1.115  -1.162   1.259  0.00  0.00    -0.082 A 
ATOM      7  C5  PXY d   1      -0.030  -0.509   1.550  0.00  0.00     0.003 A 
ATOM      8  C6  PXY d   1      -0.714   0.148   0.532  0.00  0.00     0.003 A 
ENDROOT
TORSDOF 0
ENDMDL
