MODEL 1
REMARK minimizedAffinity -1.73160326
REMARK minimizedRMSD -1
REMARK  1 active torsions:
REMARK  status: ('A' for Active; 'I' for Inactive)
REMARK    1  A    between atoms: C1_2  and  C2_3 
ROOT
ATOM      1  C2  UNL d   1      -4.461   0.719  -5.798  0.00  0.00    -0.073 A 
ATOM      2  C3  UNL d   1      -3.117   0.764  -5.413  0.00  0.00    -0.002 A 
ATOM      3  C4  UNL d   1      -2.479   1.990  -5.221  0.00  0.00     0.004 A 
ATOM      4  C5  UNL d   1      -3.179   3.182  -5.407  0.00  0.00    -0.004 A 
ATOM      5  C6  UNL d   1      -4.526   3.158  -5.781  0.00  0.00    -0.075 A 
ATOM      6  C7  UNL d   1      -5.293   4.431  -5.986  0.00  0.00     0.076 C 
ATOM      7  C8  UNL d   1      -5.159   1.922  -5.973  0.00  0.00     0.001 A 
ENDROOT
BRANCH   1   8
ATOM      8  C1  UNL d   1      -5.156  -0.603  -6.000  0.00  0.00     0.053 C 
ATOM      9  C   UNL d   1      -4.881  -1.571  -4.860  0.00  0.00     0.018 C 
ENDBRANCH   1   8
TORSDOF 1
ENDMDL
