MODEL 1
REMARK minimizedAffinity 1.1539799
REMARK minimizedRMSD -1
REMARK  1 active torsions:
REMARK  status: ('A' for Active; 'I' for Inactive)
REMARK    1  A    between atoms: C1_2  and  C2_3 
ROOT
ATOM      1  C2  UNL d   1      -2.869   3.808  -5.615  0.00  0.00    -0.073 A 
ATOM      2  C3  UNL d   1      -3.426   2.531  -5.739  0.00  0.00    -0.002 A 
ATOM      3  C4  UNL d   1      -4.800   2.376  -5.926  0.00  0.00     0.004 A 
ATOM      4  C5  UNL d   1      -5.629   3.496  -5.999  0.00  0.00    -0.004 A 
ATOM      5  C6  UNL d   1      -5.089   4.781  -5.890  0.00  0.00    -0.075 A 
ATOM      6  C7  UNL d   1      -5.967   5.996  -5.964  0.00  0.00     0.076 C 
ATOM      7  C8  UNL d   1      -3.709   4.928  -5.699  0.00  0.00     0.001 A 
ENDROOT
BRANCH   1   8
ATOM      8  C1  UNL d   1      -1.385   3.980  -5.419  0.00  0.00     0.053 C 
ATOM      9  C   UNL d   1      -0.783   2.848  -4.601  0.00  0.00     0.018 C 
ENDBRANCH   1   8
TORSDOF 1
ENDMDL
