MODEL 1
REMARK minimizedAffinity -3.7675302
REMARK minimizedRMSD -1
REMARK  1 active torsions:
REMARK  status: ('A' for Active; 'I' for Inactive)
REMARK    1  A    between atoms: C1_2  and  C2_3 
ROOT
ATOM      1  C2  UNL d   1      -3.052   2.955  -5.426  0.00  0.00    -0.073 A 
ATOM      2  C3  UNL d   1      -3.989   3.985  -5.559  0.00  0.00    -0.002 A 
ATOM      3  C4  UNL d   1      -5.325   3.692  -5.833  0.00  0.00     0.004 A 
ATOM      4  C5  UNL d   1      -5.739   2.367  -5.971  0.00  0.00    -0.004 A 
ATOM      5  C6  UNL d   1      -4.820   1.323  -5.830  0.00  0.00    -0.075 A 
ATOM      6  C7  UNL d   1      -5.249  -0.108  -5.978  0.00  0.00     0.076 C 
ATOM      7  C8  UNL d   1      -3.479   1.625  -5.557  0.00  0.00     0.001 A 
ENDROOT
BRANCH   1   8
ATOM      8  C1  UNL d   1      -1.609   3.266  -5.123  0.00  0.00     0.053 C 
ATOM      9  C   UNL d   1      -1.160   4.568  -5.768  0.00  0.00     0.018 C 
ENDBRANCH   1   8
TORSDOF 1
ENDMDL
