MODEL 1
REMARK minimizedAffinity 1.76278627
REMARK minimizedRMSD -1
REMARK  1 active torsions:
REMARK  status: ('A' for Active; 'I' for Inactive)
REMARK    1  A    between atoms: C1_2  and  C2_3 
ROOT
ATOM      1  C2  UNL d   1       1.328   0.534  -1.770  0.00  0.00    -0.073 A 
ATOM      2  C3  UNL d   1       0.535   0.162  -2.862  0.00  0.00    -0.002 A 
ATOM      3  C4  UNL d   1      -0.525  -0.730  -2.692  0.00  0.00     0.004 A 
ATOM      4  C5  UNL d   1      -0.807  -1.252  -1.430  0.00  0.00    -0.004 A 
ATOM      5  C6  UNL d   1      -0.034  -0.884  -0.325  0.00  0.00    -0.075 A 
ATOM      6  C7  UNL d   1      -0.324  -1.439   1.039  0.00  0.00     0.076 C 
ATOM      7  C8  UNL d   1       1.030   0.010  -0.504  0.00  0.00     0.001 A 
ENDROOT
BRANCH   1   8
ATOM      8  C1  UNL d   1       2.469   1.502  -1.947  0.00  0.00     0.053 C 
ATOM      9  C   UNL d   1       3.813   0.859  -1.642  0.00  0.00     0.018 C 
ENDBRANCH   1   8
TORSDOF 1
ENDMDL
