MODEL 1
REMARK minimizedAffinity 0.191628203
REMARK minimizedRMSD -1
REMARK  1 active torsions:
REMARK  status: ('A' for Active; 'I' for Inactive)
REMARK    1  A    between atoms: C1_2  and  C2_3 
ROOT
ATOM      1  C2  UNL d   1      -2.933  -1.759  -1.023  0.00  0.00    -0.073 A 
ATOM      2  C3  UNL d   1      -2.654  -1.944  -2.381  0.00  0.00    -0.002 A 
ATOM      3  C4  UNL d   1      -1.439  -1.511  -2.916  0.00  0.00     0.004 A 
ATOM      4  C5  UNL d   1      -0.491  -0.897  -2.098  0.00  0.00    -0.004 A 
ATOM      5  C6  UNL d   1      -0.747  -0.715  -0.735  0.00  0.00    -0.075 A 
ATOM      6  C7  UNL d   1       0.262  -0.055   0.158  0.00  0.00     0.076 C 
ATOM      7  C8  UNL d   1      -1.970  -1.149  -0.206  0.00  0.00     0.001 A 
ENDROOT
BRANCH   1   8
ATOM      8  C1  UNL d   1      -4.241  -2.230  -0.439  0.00  0.00     0.053 C 
ATOM      9  C   UNL d   1      -5.426  -1.843  -1.310  0.00  0.00     0.018 C 
ENDBRANCH   1   8
TORSDOF 1
ENDMDL
