MODEL 1
REMARK minimizedAffinity 8.51713467
REMARK minimizedRMSD -1
REMARK  1 active torsions:
REMARK  status: ('A' for Active; 'I' for Inactive)
REMARK    1  A    between atoms: C1_2  and  C2_3 
ROOT
ATOM      1  C2  UNL d   1      -4.935  -2.017  -1.444  0.00  0.00    -0.073 A 
ATOM      2  C3  UNL d   1      -5.582  -1.458  -2.552  0.00  0.00    -0.002 A 
ATOM      3  C4  UNL d   1      -4.944  -1.413  -3.792  0.00  0.00     0.004 A 
ATOM      4  C5  UNL d   1      -3.658  -1.933  -3.940  0.00  0.00    -0.004 A 
ATOM      5  C6  UNL d   1      -3.000  -2.506  -2.847  0.00  0.00    -0.075 A 
ATOM      6  C7  UNL d   1      -1.615  -3.068  -2.988  0.00  0.00     0.076 C 
ATOM      7  C8  UNL d   1      -3.646  -2.545  -1.604  0.00  0.00     0.001 A 
ENDROOT
BRANCH   1   8
ATOM      8  C1  UNL d   1      -5.622  -2.073  -0.104  0.00  0.00     0.053 C 
ATOM      9  C   UNL d   1      -5.068  -1.040   0.864  0.00  0.00     0.018 C 
ENDBRANCH   1   8
TORSDOF 1
ENDMDL
