MODEL 1
REMARK minimizedAffinity -2.1909678
REMARK minimizedRMSD -1
REMARK  1 active torsions:
REMARK  status: ('A' for Active; 'I' for Inactive)
REMARK    1  A    between atoms: C1_2  and  C2_3 
ROOT
ATOM      1  C2  UNL d   1      -2.857  -2.277  -5.598  0.00  0.00    -0.073 A 
ATOM      2  C3  UNL d   1      -4.010  -3.054  -5.753  0.00  0.00    -0.002 A 
ATOM      3  C4  UNL d   1      -5.251  -2.445  -5.946  0.00  0.00     0.004 A 
ATOM      4  C5  UNL d   1      -5.350  -1.055  -5.993  0.00  0.00    -0.004 A 
ATOM      5  C6  UNL d   1      -4.208  -0.261  -5.853  0.00  0.00    -0.075 A 
ATOM      6  C7  UNL d   1      -4.298   1.237  -5.899  0.00  0.00     0.076 C 
ATOM      7  C8  UNL d   1      -2.966  -0.880  -5.656  0.00  0.00     0.001 A 
ENDROOT
BRANCH   1   8
ATOM      8  C1  UNL d   1      -1.515  -2.930  -5.396  0.00  0.00     0.053 C 
ATOM      9  C   UNL d   1      -1.415  -3.621  -4.045  0.00  0.00     0.018 C 
ENDBRANCH   1   8
TORSDOF 1
ENDMDL
