MODEL 1
REMARK minimizedAffinity -2.95476174
REMARK minimizedRMSD -1
REMARK  1 active torsions:
REMARK  status: ('A' for Active; 'I' for Inactive)
REMARK    1  A    between atoms: C1_2  and  C2_3 
ROOT
ATOM      1  C2  UNL d   1       3.030  -1.009  -2.724  0.00  0.00    -0.073 A 
ATOM      2  C3  UNL d   1       3.628  -1.883  -1.809  0.00  0.00    -0.002 A 
ATOM      3  C4  UNL d   1       4.521  -2.862  -2.249  0.00  0.00     0.004 A 
ATOM      4  C5  UNL d   1       4.830  -2.971  -3.605  0.00  0.00    -0.004 A 
ATOM      5  C6  UNL d   1       4.251  -2.100  -4.533  0.00  0.00    -0.075 A 
ATOM      6  C7  UNL d   1       4.571  -2.206  -5.995  0.00  0.00     0.076 C 
ATOM      7  C8  UNL d   1       3.354  -1.122  -4.084  0.00  0.00     0.001 A 
ENDROOT
BRANCH   1   8
ATOM      8  C1  UNL d   1       2.070   0.053  -2.253  0.00  0.00     0.053 C 
ATOM      9  C   UNL d   1       1.146  -0.459  -1.160  0.00  0.00     0.018 C 
ENDBRANCH   1   8
TORSDOF 1
ENDMDL
