MODEL 1
REMARK minimizedAffinity -3.7297802
REMARK minimizedRMSD -1
REMARK  1 active torsions:
REMARK  status: ('A' for Active; 'I' for Inactive)
REMARK    1  A    between atoms: C1_2  and  C2_3 
ROOT
ATOM      1  C2  UNL d   1      -3.565   0.219  -6.000  0.00  0.00    -0.073 A 
ATOM      2  C3  UNL d   1      -4.953   0.034  -5.985  0.00  0.00    -0.002 A 
ATOM      3  C4  UNL d   1      -5.492  -1.253  -5.981  0.00  0.00     0.004 A 
ATOM      4  C5  UNL d   1      -4.652  -2.366  -5.985  0.00  0.00    -0.004 A 
ATOM      5  C6  UNL d   1      -3.263  -2.202  -5.988  0.00  0.00    -0.075 A 
ATOM      6  C7  UNL d   1      -2.346  -3.389  -5.994  0.00  0.00     0.076 C 
ATOM      7  C8  UNL d   1      -2.729  -0.906  -5.994  0.00  0.00     0.001 A 
ENDROOT
BRANCH   1   8
ATOM      8  C1  UNL d   1      -2.978   1.607  -5.998  0.00  0.00     0.053 C 
ATOM      9  C   UNL d   1      -4.053   2.680  -5.938  0.00  0.00     0.018 C 
ENDBRANCH   1   8
TORSDOF 1
ENDMDL
