MODEL 1
REMARK minimizedAffinity -3.34109616
REMARK minimizedRMSD -1
REMARK  1 active torsions:
REMARK  status: ('A' for Active; 'I' for Inactive)
REMARK    1  A    between atoms: C1_2  and  C2_3 
ROOT
ATOM      1  C2  UNL d   1      -3.671  -2.807  -5.513  0.00  0.00    -0.073 A 
ATOM      2  C3  UNL d   1      -3.175  -4.104  -5.687  0.00  0.00    -0.002 A 
ATOM      3  C4  UNL d   1      -1.900  -4.439  -5.230  0.00  0.00     0.004 A 
ATOM      4  C5  UNL d   1      -1.111  -3.483  -4.589  0.00  0.00    -0.004 A 
ATOM      5  C6  UNL d   1      -1.593  -2.185  -4.396  0.00  0.00    -0.075 A 
ATOM      6  C7  UNL d   1      -0.756  -1.145  -3.711  0.00  0.00     0.076 C 
ATOM      7  C8  UNL d   1      -2.874  -1.856  -4.860  0.00  0.00     0.001 A 
ENDROOT
BRANCH   1   8
ATOM      8  C1  UNL d   1      -5.050  -2.443  -5.999  0.00  0.00     0.053 C 
ATOM      9  C   UNL d   1      -5.988  -3.640  -6.000  0.00  0.00     0.018 C 
ENDBRANCH   1   8
TORSDOF 1
ENDMDL
