MODEL 1
REMARK minimizedAffinity 4.3317256
REMARK minimizedRMSD -1
REMARK  1 active torsions:
REMARK  status: ('A' for Active; 'I' for Inactive)
REMARK    1  A    between atoms: C1_2  and  C2_3 
ROOT
ATOM      1  C2  UNL d   1      -3.509   4.052  -5.684  0.00  0.00    -0.073 A 
ATOM      2  C3  UNL d   1      -4.676   4.756  -6.000  0.00  0.00    -0.002 A 
ATOM      3  C4  UNL d   1      -5.915   4.114  -5.979  0.00  0.00     0.004 A 
ATOM      4  C5  UNL d   1      -6.000   2.764  -5.637  0.00  0.00    -0.004 A 
ATOM      5  C6  UNL d   1      -4.846   2.046  -5.307  0.00  0.00    -0.075 A 
ATOM      6  C7  UNL d   1      -4.920   0.594  -4.938  0.00  0.00     0.076 C 
ATOM      7  C8  UNL d   1      -3.606   2.698  -5.332  0.00  0.00     0.001 A 
ENDROOT
BRANCH   1   8
ATOM      8  C1  UNL d   1      -2.170   4.743  -5.699  0.00  0.00     0.053 C 
ATOM      9  C   UNL d   1      -1.065   3.857  -5.146  0.00  0.00     0.018 C 
ENDBRANCH   1   8
TORSDOF 1
ENDMDL
