MODEL 1
REMARK minimizedAffinity 12.0439014
REMARK minimizedRMSD -1
REMARK  1 active torsions:
REMARK  status: ('A' for Active; 'I' for Inactive)
REMARK    1  A    between atoms: C1_2  and  C2_3 
ROOT
ATOM      1  C2  UNL d   1       3.061  -3.609  -0.946  0.00  0.00    -0.081 A 
ATOM      2  C3  UNL d   1       2.466  -3.795  -2.200  0.00  0.00     0.006 A 
ATOM      3  C4  UNL d   1       1.804  -2.741  -2.833  0.00  0.00     0.002 A 
ATOM      4  C5  UNL d   1       1.732  -1.482  -2.228  0.00  0.00    -0.080 A 
ATOM      5  C6  UNL d   1       1.051  -0.334  -2.911  0.00  0.00     0.076 C 
ATOM      6  C7  UNL d   1       2.311  -1.300  -0.967  0.00  0.00     0.002 A 
ATOM      7  C8  UNL d   1       2.972  -2.354  -0.333  0.00  0.00     0.006 A 
ENDROOT
BRANCH   1   8
ATOM      8  C1  UNL d   1       3.831  -4.726  -0.289  0.00  0.00     0.054 C 
ATOM      9  C   UNL d   1       5.332  -4.526  -0.440  0.00  0.00     0.018 C 
ENDBRANCH   1   8
TORSDOF 1
ENDMDL
