MODEL 1
REMARK minimizedAffinity -3.26625228
REMARK minimizedRMSD -1
REMARK  1 active torsions:
REMARK  status: ('A' for Active; 'I' for Inactive)
REMARK    1  A    between atoms: C1_2  and  C2_3 
ROOT
ATOM      1  C2  UNL d   1       2.794  -4.032  -3.150  0.00  0.00    -0.081 A 
ATOM      2  C3  UNL d   1       3.725  -4.946  -2.642  0.00  0.00     0.006 A 
ATOM      3  C4  UNL d   1       4.757  -5.430  -3.450  0.00  0.00     0.002 A 
ATOM      4  C5  UNL d   1       4.879  -5.002  -4.776  0.00  0.00    -0.080 A 
ATOM      5  C6  UNL d   1       6.000  -5.491  -5.645  0.00  0.00     0.076 C 
ATOM      6  C7  UNL d   1       3.940  -4.102  -5.290  0.00  0.00     0.002 A 
ATOM      7  C8  UNL d   1       2.908  -3.618  -4.482  0.00  0.00     0.006 A 
ENDROOT
BRANCH   1   8
ATOM      8  C1  UNL d   1       1.720  -3.458  -2.263  0.00  0.00     0.054 C 
ATOM      9  C   UNL d   1       2.043  -2.028  -1.855  0.00  0.00     0.018 C 
ENDBRANCH   1   8
TORSDOF 1
ENDMDL
