MODEL 1
REMARK minimizedAffinity 9.46666336
REMARK minimizedRMSD -1
REMARK  1 active torsions:
REMARK  status: ('A' for Active; 'I' for Inactive)
REMARK    1  A    between atoms: C1_2  and  C2_3 
ROOT
ATOM      1  C2  UNL d   1       2.755  -2.365  -1.277  0.00  0.00    -0.081 A 
ATOM      2  C3  UNL d   1       2.521  -1.115  -0.691  0.00  0.00     0.006 A 
ATOM      3  C4  UNL d   1       2.007  -0.062  -1.452  0.00  0.00     0.002 A 
ATOM      4  C5  UNL d   1       1.712  -0.243  -2.807  0.00  0.00    -0.080 A 
ATOM      5  C6  UNL d   1       1.132   0.871  -3.627  0.00  0.00     0.076 C 
ATOM      6  C7  UNL d   1       1.962  -1.487  -3.397  0.00  0.00     0.002 A 
ATOM      7  C8  UNL d   1       2.476  -2.540  -2.637  0.00  0.00     0.006 A 
ENDROOT
BRANCH   1   8
ATOM      8  C1  UNL d   1       3.247  -3.522  -0.445  0.00  0.00     0.054 C 
ATOM      9  C   UNL d   1       4.767  -3.545  -0.374  0.00  0.00     0.018 C 
ENDBRANCH   1   8
TORSDOF 1
ENDMDL
