MODEL 1
REMARK minimizedAffinity 8.07583618
REMARK minimizedRMSD -1
REMARK  1 active torsions:
REMARK  status: ('A' for Active; 'I' for Inactive)
REMARK    1  A    between atoms: C1_2  and  C2_3 
ROOT
ATOM      1  C2  UNL d   1       2.233   1.040  -0.254  0.00  0.00    -0.081 A 
ATOM      2  C3  UNL d   1       2.155   1.579   1.036  0.00  0.00     0.006 A 
ATOM      3  C4  UNL d   1       1.826   2.923   1.224  0.00  0.00     0.002 A 
ATOM      4  C5  UNL d   1       1.560   3.749   0.126  0.00  0.00    -0.080 A 
ATOM      5  C6  UNL d   1       1.175   5.186   0.315  0.00  0.00     0.076 C 
ATOM      6  C7  UNL d   1       1.655   3.215  -1.164  0.00  0.00     0.002 A 
ATOM      7  C8  UNL d   1       1.985   1.871  -1.352  0.00  0.00     0.006 A 
ENDROOT
BRANCH   1   8
ATOM      8  C1  UNL d   1       2.525  -0.424  -0.457  0.00  0.00     0.054 C 
ATOM      9  C   UNL d   1       1.543  -1.054  -1.434  0.00  0.00     0.018 C 
ENDBRANCH   1   8
TORSDOF 1
ENDMDL
