MODEL 1
REMARK minimizedAffinity 8.06846809
REMARK minimizedRMSD -1
REMARK  1 active torsions:
REMARK  status: ('A' for Active; 'I' for Inactive)
REMARK    1  A    between atoms: C1_2  and  C2_3 
ROOT
ATOM      1  C2  UNL d   1      -2.822   0.258   2.461  0.00  0.00    -0.081 A 
ATOM      2  C3  UNL d   1      -2.968   1.353   3.320  0.00  0.00     0.006 A 
ATOM      3  C4  UNL d   1      -1.913   1.751   4.146  0.00  0.00     0.002 A 
ATOM      4  C5  UNL d   1      -0.694   1.065   4.120  0.00  0.00    -0.080 A 
ATOM      5  C6  UNL d   1       0.456   1.500   4.979  0.00  0.00     0.076 C 
ATOM      6  C7  UNL d   1      -0.555  -0.041   3.274  0.00  0.00     0.002 A 
ATOM      7  C8  UNL d   1      -1.609  -0.439   2.449  0.00  0.00     0.006 A 
ENDROOT
BRANCH   1   8
ATOM      8  C1  UNL d   1      -3.936  -0.133   1.522  0.00  0.00     0.054 C 
ATOM      9  C   UNL d   1      -4.833  -1.196   2.141  0.00  0.00     0.018 C 
ENDBRANCH   1   8
TORSDOF 1
ENDMDL
