MODEL 1
REMARK minimizedAffinity 5.53215551
REMARK minimizedRMSD -1
REMARK  1 active torsions:
REMARK  status: ('A' for Active; 'I' for Inactive)
REMARK    1  A    between atoms: C1_2  and  C2_3 
ROOT
ATOM      1  C2  UNL d   1       3.543  -3.735  -1.154  0.00  0.00    -0.081 A 
ATOM      2  C3  UNL d   1       4.863  -4.153  -0.943  0.00  0.00     0.006 A 
ATOM      3  C4  UNL d   1       5.657  -4.561  -2.017  0.00  0.00     0.002 A 
ATOM      4  C5  UNL d   1       5.148  -4.550  -3.320  0.00  0.00    -0.080 A 
ATOM      5  C6  UNL d   1       6.000  -4.956  -4.486  0.00  0.00     0.076 C 
ATOM      6  C7  UNL d   1       3.824  -4.149  -3.529  0.00  0.00     0.002 A 
ATOM      7  C8  UNL d   1       3.030  -3.742  -2.455  0.00  0.00     0.006 A 
ENDROOT
BRANCH   1   8
ATOM      8  C1  UNL d   1       2.705  -3.234  -0.006  0.00  0.00     0.054 C 
ATOM      9  C   UNL d   1       3.070  -1.802   0.362  0.00  0.00     0.018 C 
ENDBRANCH   1   8
TORSDOF 1
ENDMDL
