MODEL 1
REMARK minimizedAffinity 2.5367558
REMARK minimizedRMSD -1
REMARK  1 active torsions:
REMARK  status: ('A' for Active; 'I' for Inactive)
REMARK    1  A    between atoms: C1_2  and  C2_3 
ROOT
ATOM      1  C2  UNL d   1       3.290  -4.104  -1.840  0.00  0.00    -0.081 A 
ATOM      2  C3  UNL d   1       2.477  -3.149  -2.463  0.00  0.00     0.006 A 
ATOM      3  C4  UNL d   1       2.315  -1.881  -1.899  0.00  0.00     0.002 A 
ATOM      4  C5  UNL d   1       2.968  -1.546  -0.708  0.00  0.00    -0.080 A 
ATOM      5  C6  UNL d   1       2.826  -0.178  -0.108  0.00  0.00     0.076 C 
ATOM      6  C7  UNL d   1       3.766  -2.506  -0.076  0.00  0.00     0.002 A 
ATOM      7  C8  UNL d   1       3.928  -3.774  -0.640  0.00  0.00     0.006 A 
ENDROOT
BRANCH   1   8
ATOM      8  C1  UNL d   1       3.518  -5.450  -2.480  0.00  0.00     0.054 C 
ATOM      9  C   UNL d   1       4.036  -5.305  -3.903  0.00  0.00     0.018 C 
ENDBRANCH   1   8
TORSDOF 1
ENDMDL
