MODEL 1
REMARK minimizedAffinity -5.00842762
REMARK minimizedRMSD -1
REMARK  0 active torsions:
REMARK  status: ('A' for Active; 'I' for Inactive)
ROOT
ATOM      1  C   UNL d   1      -0.099  -1.070  -0.486  0.00  0.00     0.078 C 
ATOM      2  C1  UNL d   1      -0.469   0.180   0.256  0.00  0.00    -0.077 A 
ATOM      3  C2  UNL d   1      -1.601   0.922  -0.101  0.00  0.00    -0.001 A 
ATOM      4  C3  UNL d   1      -1.927   2.089   0.591  0.00  0.00     0.003 A 
ATOM      5  C4  UNL d   1      -1.126   2.524   1.645  0.00  0.00    -0.005 A 
ATOM      6  C5  UNL d   1       0.004   1.793   2.006  0.00  0.00     0.003 A 
ATOM      7  C6  UNL d   1       0.332   0.626   1.315  0.00  0.00    -0.001 A 
ENDROOT
TORSDOF 0
ENDMDL
