MODEL 1
REMARK minimizedAffinity -2.39432287
REMARK minimizedRMSD -1
REMARK  0 active torsions:
REMARK  status: ('A' for Active; 'I' for Inactive)
ROOT
ATOM      1  C   UNL d   1      -0.743   2.475   2.032  0.00  0.00     0.078 C 
ATOM      2  C1  UNL d   1      -0.282   1.302   1.219  0.00  0.00    -0.077 A 
ATOM      3  C2  UNL d   1       0.402   0.235   1.816  0.00  0.00    -0.001 A 
ATOM      4  C3  UNL d   1       0.835  -0.845   1.046  0.00  0.00     0.003 A 
ATOM      5  C4  UNL d   1       0.590  -0.869  -0.326  0.00  0.00    -0.005 A 
ATOM      6  C5  UNL d   1      -0.088   0.188  -0.929  0.00  0.00     0.003 A 
ATOM      7  C6  UNL d   1      -0.521   1.270  -0.160  0.00  0.00    -0.001 A 
ENDROOT
TORSDOF 0
ENDMDL
