MODEL 1
REMARK minimizedAffinity 6.64056492
REMARK minimizedRMSD -1
REMARK  0 active torsions:
REMARK  status: ('A' for Active; 'I' for Inactive)
ROOT
ATOM      1  C   UNL d   1       2.186   3.656   2.630  0.00  0.00     0.078 C 
ATOM      2  C1  UNL d   1       0.885   2.964   2.351  0.00  0.00    -0.077 A 
ATOM      3  C2  UNL d   1      -0.066   3.535   1.497  0.00  0.00    -0.001 A 
ATOM      4  C3  UNL d   1      -1.277   2.884   1.253  0.00  0.00     0.003 A 
ATOM      5  C4  UNL d   1      -1.548   1.660   1.862  0.00  0.00    -0.005 A 
ATOM      6  C5  UNL d   1      -0.608   1.086   2.715  0.00  0.00     0.003 A 
ATOM      7  C6  UNL d   1       0.603   1.735   2.960  0.00  0.00    -0.001 A 
ENDROOT
TORSDOF 0
ENDMDL
