MODEL 1
REMARK minimizedAffinity -4.82638454
REMARK minimizedRMSD -1
REMARK  0 active torsions:
REMARK  status: ('A' for Active; 'I' for Inactive)
ROOT
ATOM      1  C   UNL d   1       0.316  -0.311  -0.749  0.00  0.00     0.078 C 
ATOM      2  C1  UNL d   1      -0.106   0.954  -0.064  0.00  0.00    -0.077 A 
ATOM      3  C2  UNL d   1      -0.477   2.085  -0.802  0.00  0.00    -0.001 A 
ATOM      4  C3  UNL d   1      -0.859   3.259  -0.150  0.00  0.00     0.003 A 
ATOM      5  C4  UNL d   1      -0.872   3.314   1.242  0.00  0.00    -0.005 A 
ATOM      6  C5  UNL d   1      -0.502   2.195   1.985  0.00  0.00     0.003 A 
ATOM      7  C6  UNL d   1      -0.120   1.020   1.335  0.00  0.00    -0.001 A 
ENDROOT
TORSDOF 0
ENDMDL
