MODEL 1
REMARK minimizedAffinity -4.44558001
REMARK minimizedRMSD -1
REMARK  0 active torsions:
REMARK  status: ('A' for Active; 'I' for Inactive)
ROOT
ATOM      1  C   UNL d   1       0.009   1.145   2.178  0.00  0.00     0.078 C 
ATOM      2  C1  UNL d   1       0.098   1.074   0.683  0.00  0.00    -0.077 A 
ATOM      3  C2  UNL d   1       0.631  -0.052   0.044  0.00  0.00    -0.001 A 
ATOM      4  C3  UNL d   1       0.716  -0.100  -1.348  0.00  0.00     0.003 A 
ATOM      5  C4  UNL d   1       0.271   0.976  -2.114  0.00  0.00    -0.005 A 
ATOM      6  C5  UNL d   1      -0.259   2.102  -1.487  0.00  0.00     0.003 A 
ATOM      7  C6  UNL d   1      -0.345   2.152  -0.095  0.00  0.00    -0.001 A 
ENDROOT
TORSDOF 0
ENDMDL
