MODEL 1
REMARK minimizedAffinity -3.76591802
REMARK minimizedRMSD -1
REMARK  0 active torsions:
REMARK  status: ('A' for Active; 'I' for Inactive)
ROOT
ATOM      1  C   UNL d   1      -1.135   2.361   1.411  0.00  0.00     0.078 C 
ATOM      2  C1  UNL d   1      -0.544   1.188   0.686  0.00  0.00    -0.077 A 
ATOM      3  C2  UNL d   1      -0.814   0.968  -0.670  0.00  0.00    -0.001 A 
ATOM      4  C3  UNL d   1      -0.265  -0.133  -1.330  0.00  0.00     0.003 A 
ATOM      5  C4  UNL d   1       0.557  -1.023  -0.641  0.00  0.00    -0.005 A 
ATOM      6  C5  UNL d   1       0.830  -0.813   0.709  0.00  0.00     0.003 A 
ATOM      7  C6  UNL d   1       0.281   0.287   1.370  0.00  0.00    -0.001 A 
ENDROOT
TORSDOF 0
ENDMDL
