MODEL 1
REMARK minimizedAffinity -3.65354943
REMARK minimizedRMSD -1
REMARK  0 active torsions:
REMARK  status: ('A' for Active; 'I' for Inactive)
ROOT
ATOM      1  C   UNL d   1      -0.104   2.603  -1.762  0.00  0.00     0.020 A 
ATOM      2  C1  UNL d   1       0.180   2.863  -0.422  0.00  0.00     0.020 A 
ATOM      3  C2  UNL d   1       0.154   1.825   0.511  0.00  0.00     0.034 A 
ATOM      4  C3  UNL d   1      -0.158   0.522   0.106  0.00  0.00     0.017 A 
ATOM      5  C4  UNL d   1      -0.443   0.262  -1.239  0.00  0.00     0.017 A 
ATOM      6  C5  UNL d   1      -0.415   1.305  -2.170  0.00  0.00     0.034 A 
ATOM      7 Cl   UNL d   1      -0.836  -1.320  -1.815  0.00  0.00    -0.070 Cl
ATOM      8 Cl1  UNL d   1      -0.172  -0.713   1.314  0.00  0.00    -0.070 Cl
ENDROOT
TORSDOF 0
ENDMDL
