MODEL 1
REMARK minimizedAffinity -5.05145025
REMARK minimizedRMSD -1
REMARK  0 active torsions:
REMARK  status: ('A' for Active; 'I' for Inactive)
ROOT
ATOM      1  C   UNL d   1       2.065   2.368   0.228  0.00  0.00     0.020 A 
ATOM      2  C1  UNL d   1       0.986   3.234   0.398  0.00  0.00     0.020 A 
ATOM      3  C2  UNL d   1      -0.319   2.740   0.357  0.00  0.00     0.034 A 
ATOM      4  C3  UNL d   1      -0.549   1.376   0.146  0.00  0.00     0.017 A 
ATOM      5  C4  UNL d   1       0.534   0.507  -0.025  0.00  0.00     0.017 A 
ATOM      6  C5  UNL d   1       1.839   1.007   0.017  0.00  0.00     0.034 A 
ATOM      7 Cl   UNL d   1       0.330  -1.189  -0.291  0.00  0.00    -0.070 Cl
ATOM      8 Cl1  UNL d   1      -2.190   0.834   0.107  0.00  0.00    -0.070 Cl
ENDROOT
TORSDOF 0
ENDMDL
