MODEL 1
REMARK minimizedAffinity -3.37096715
REMARK minimizedRMSD -1
REMARK  0 active torsions:
REMARK  status: ('A' for Active; 'I' for Inactive)
ROOT
ATOM      1  C   UNL d   1      -0.463   3.490   0.076  0.00  0.00     0.020 A 
ATOM      2  C1  UNL d   1       0.421   2.949  -0.856  0.00  0.00     0.020 A 
ATOM      3  C2  UNL d   1       0.524   1.564  -0.999  0.00  0.00     0.034 A 
ATOM      4  C3  UNL d   1      -0.259   0.714  -0.208  0.00  0.00     0.017 A 
ATOM      5  C4  UNL d   1      -1.146   1.258   0.727  0.00  0.00     0.017 A 
ATOM      6  C5  UNL d   1      -1.246   2.646   0.866  0.00  0.00     0.034 A 
ATOM      7 Cl   UNL d   1      -2.145   0.275   1.738  0.00  0.00    -0.070 Cl
ATOM      8 Cl1  UNL d   1      -0.080  -0.989  -0.439  0.00  0.00    -0.070 Cl
ENDROOT
TORSDOF 0
ENDMDL
