MODEL 1
REMARK minimizedAffinity -5.21481037
REMARK minimizedRMSD -1
REMARK  0 active torsions:
REMARK  status: ('A' for Active; 'I' for Inactive)
ROOT
ATOM      1  C   UNL d   1      -0.012   3.041   0.068  0.00  0.00     0.020 A 
ATOM      2  C1  UNL d   1       1.079   2.327  -0.426  0.00  0.00     0.020 A 
ATOM      3  C2  UNL d   1       1.132   0.940  -0.273  0.00  0.00     0.034 A 
ATOM      4  C3  UNL d   1       0.093   0.263   0.376  0.00  0.00     0.017 A 
ATOM      5  C4  UNL d   1      -1.001   0.981   0.872  0.00  0.00     0.017 A 
ATOM      6  C5  UNL d   1      -1.050   2.370   0.715  0.00  0.00     0.034 A 
ATOM      7 Cl   UNL d   1      -2.321   0.216   1.684  0.00  0.00    -0.070 Cl
ATOM      8 Cl1  UNL d   1       0.225  -1.453   0.531  0.00  0.00    -0.070 Cl
ENDROOT
TORSDOF 0
ENDMDL
