MODEL 1
REMARK minimizedAffinity -2.94008183
REMARK minimizedRMSD -1
REMARK  0 active torsions:
REMARK  status: ('A' for Active; 'I' for Inactive)
ROOT
ATOM      1  C   UNL d   1      -1.223   2.458   0.544  0.00  0.00     0.020 A 
ATOM      2  C1  UNL d   1      -1.844   1.210   0.514  0.00  0.00     0.020 A 
ATOM      3  C2  UNL d   1      -1.082   0.047   0.643  0.00  0.00     0.034 A 
ATOM      4  C3  UNL d   1       0.306   0.130   0.804  0.00  0.00     0.017 A 
ATOM      5  C4  UNL d   1       0.929   1.383   0.834  0.00  0.00     0.017 A 
ATOM      6  C5  UNL d   1       0.161   2.544   0.703  0.00  0.00     0.034 A 
ATOM      7 Cl   UNL d   1       2.636   1.565   1.028  0.00  0.00    -0.070 Cl
ATOM      8 Cl1  UNL d   1       1.186  -1.349   0.958  0.00  0.00    -0.070 Cl
ENDROOT
TORSDOF 0
ENDMDL
