MODEL 1
REMARK minimizedAffinity -1.43379867
REMARK minimizedRMSD -1
REMARK  0 active torsions:
REMARK  status: ('A' for Active; 'I' for Inactive)
ROOT
ATOM      1  C   UNL d   1      -0.657   2.832   0.045  0.00  0.00     0.020 A 
ATOM      2  C1  UNL d   1      -1.838   2.144   0.324  0.00  0.00     0.020 A 
ATOM      3  C2  UNL d   1      -1.787   0.820   0.765  0.00  0.00     0.034 A 
ATOM      4  C3  UNL d   1      -0.554   0.180   0.930  0.00  0.00     0.017 A 
ATOM      5  C4  UNL d   1       0.631   0.870   0.650  0.00  0.00     0.017 A 
ATOM      6  C5  UNL d   1       0.575   2.196   0.208  0.00  0.00     0.034 A 
ATOM      7 Cl   UNL d   1       2.190   0.147   0.829  0.00  0.00    -0.070 Cl
ATOM      8 Cl1  UNL d   1      -0.566  -1.458   1.480  0.00  0.00    -0.070 Cl
ENDROOT
TORSDOF 0
ENDMDL
