MODEL 1
REMARK minimizedAffinity -2.99293184
REMARK minimizedRMSD -1
REMARK  0 active torsions:
REMARK  status: ('A' for Active; 'I' for Inactive)
ROOT
ATOM      1  C   UNL d   1       0.931   2.446  -0.524  0.00  0.00     0.020 A 
ATOM      2  C1  UNL d   1      -0.410   2.081  -0.413  0.00  0.00     0.020 A 
ATOM      3  C2  UNL d   1      -0.751   0.805   0.041  0.00  0.00     0.034 A 
ATOM      4  C3  UNL d   1       0.250  -0.110   0.385  0.00  0.00     0.017 A 
ATOM      5  C4  UNL d   1       1.596   0.257   0.273  0.00  0.00     0.017 A 
ATOM      6  C5  UNL d   1       1.932   1.535  -0.182  0.00  0.00     0.034 A 
ATOM      7 Cl   UNL d   1       2.886  -0.819   0.679  0.00  0.00    -0.070 Cl
ATOM      8 Cl1  UNL d   1      -0.245  -1.670   0.939  0.00  0.00    -0.070 Cl
ENDROOT
TORSDOF 0
ENDMDL
