MODEL 1
REMARK minimizedAffinity -4.6315403
REMARK minimizedRMSD -1
REMARK  0 active torsions:
REMARK  status: ('A' for Active; 'I' for Inactive)
ROOT
ATOM      1  C   UNL d   1       1.219  -1.430   0.192  0.00  0.00     0.020 A 
ATOM      2  C1  UNL d   1       2.215  -0.458   0.270  0.00  0.00     0.020 A 
ATOM      3  C2  UNL d   1       1.924   0.868  -0.057  0.00  0.00     0.034 A 
ATOM      4  C3  UNL d   1       0.633   1.225  -0.463  0.00  0.00     0.017 A 
ATOM      5  C4  UNL d   1      -0.366   0.248  -0.541  0.00  0.00     0.017 A 
ATOM      6  C5  UNL d   1      -0.069  -1.078  -0.212  0.00  0.00     0.034 A 
ATOM      7 Cl   UNL d   1      -1.982   0.613  -1.034  0.00  0.00    -0.070 Cl
ATOM      8 Cl1  UNL d   1       0.343   2.884  -0.852  0.00  0.00    -0.070 Cl
ENDROOT
TORSDOF 0
ENDMDL
