MODEL 1
REMARK minimizedAffinity -2.81804776
REMARK minimizedRMSD -1
REMARK  0 active torsions:
REMARK  status: ('A' for Active; 'I' for Inactive)
ROOT
ATOM      1  C   UNL d   1      -0.027   2.965  -0.062  0.00  0.00     0.020 A 
ATOM      2  C1  UNL d   1       1.212   2.459  -0.454  0.00  0.00     0.020 A 
ATOM      3  C2  UNL d   1       1.498   1.103  -0.282  0.00  0.00     0.034 A 
ATOM      4  C3  UNL d   1       0.545   0.248   0.284  0.00  0.00     0.017 A 
ATOM      5  C4  UNL d   1      -0.698   0.757   0.677  0.00  0.00     0.017 A 
ATOM      6  C5  UNL d   1      -0.980   2.116   0.502  0.00  0.00     0.034 A 
ATOM      7 Cl   UNL d   1      -1.925  -0.235   1.382  0.00  0.00    -0.070 Cl
ATOM      8 Cl1  UNL d   1       0.967  -1.417   0.467  0.00  0.00    -0.070 Cl
ENDROOT
TORSDOF 0
ENDMDL
