MODEL 1
REMARK minimizedAffinity -4.07148123
REMARK minimizedRMSD -1
REMARK  0 active torsions:
REMARK  status: ('A' for Active; 'I' for Inactive)
ROOT
ATOM      1  C   UNL d   1       0.873   2.825  -0.804  0.00  0.00     0.020 A 
ATOM      2  C1  UNL d   1      -0.234   3.250  -0.071  0.00  0.00     0.020 A 
ATOM      3  C2  UNL d   1      -1.007   2.321   0.628  0.00  0.00     0.034 A 
ATOM      4  C3  UNL d   1      -0.675   0.962   0.595  0.00  0.00     0.017 A 
ATOM      5  C4  UNL d   1       0.437   0.536  -0.141  0.00  0.00     0.017 A 
ATOM      6  C5  UNL d   1       1.208   1.470  -0.839  0.00  0.00     0.034 A 
ATOM      7 Cl   UNL d   1       0.909  -1.125  -0.229  0.00  0.00    -0.070 Cl
ATOM      8 Cl1  UNL d   1      -1.676  -0.132   1.483  0.00  0.00    -0.070 Cl
ENDROOT
TORSDOF 0
ENDMDL
