MODEL 1
REMARK minimizedAffinity -3.53437781
REMARK minimizedRMSD -1
REMARK  0 active torsions:
REMARK  status: ('A' for Active; 'I' for Inactive)
ROOT
ATOM      1  C   UNL d   1      -1.769   1.910   0.521  0.00  0.00     0.020 A 
ATOM      2  C1  UNL d   1      -0.822   2.931   0.607  0.00  0.00     0.020 A 
ATOM      3  C2  UNL d   1       0.496   2.695   0.211  0.00  0.00     0.034 A 
ATOM      4  C3  UNL d   1       0.872   1.436  -0.272  0.00  0.00     0.017 A 
ATOM      5  C4  UNL d   1      -0.079   0.413  -0.358  0.00  0.00     0.017 A 
ATOM      6  C5  UNL d   1      -1.398   0.654   0.039  0.00  0.00     0.034 A 
ATOM      7 Cl   UNL d   1       0.310  -1.166  -0.944  0.00  0.00    -0.070 Cl
ATOM      8 Cl1  UNL d   1       2.520   1.216  -0.743  0.00  0.00    -0.070 Cl
ENDROOT
TORSDOF 0
ENDMDL
