MODEL 1
REMARK minimizedAffinity -3.63069081
REMARK minimizedRMSD -1
REMARK  0 active torsions:
REMARK  status: ('A' for Active; 'I' for Inactive)
ROOT
ATOM      1  C   UNL d   1      -1.218  -0.141   0.595  0.00  0.00     0.020 A 
ATOM      2  C1  UNL d   1      -0.178  -1.069   0.547  0.00  0.00     0.020 A 
ATOM      3  C2  UNL d   1       1.122  -0.646   0.260  0.00  0.00     0.034 A 
ATOM      4  C3  UNL d   1       1.385   0.708   0.018  0.00  0.00     0.017 A 
ATOM      5  C4  UNL d   1       0.340   1.638   0.067  0.00  0.00     0.017 A 
ATOM      6  C5  UNL d   1      -0.959   1.209   0.355  0.00  0.00     0.034 A 
ATOM      7 Cl   UNL d   1       0.586   3.324  -0.220  0.00  0.00    -0.070 Cl
ATOM      8 Cl1  UNL d   1       3.015   1.160  -0.331  0.00  0.00    -0.070 Cl
ENDROOT
TORSDOF 0
ENDMDL
