MODEL 1
REMARK minimizedAffinity -3.6877718
REMARK minimizedRMSD -1
REMARK  0 active torsions:
REMARK  status: ('A' for Active; 'I' for Inactive)
ROOT
ATOM      1  C   UNL d   1      -0.127  -1.742  -3.648  0.00  0.00     0.020 A 
ATOM      2  C1  UNL d   1      -0.821  -2.943  -3.783  0.00  0.00     0.020 A 
ATOM      3  C2  UNL d   1      -1.232  -3.644  -2.647  0.00  0.00     0.034 A 
ATOM      4  C3  UNL d   1      -0.949  -3.143  -1.371  0.00  0.00     0.017 A 
ATOM      5  C4  UNL d   1      -0.252  -1.937  -1.237  0.00  0.00     0.017 A 
ATOM      6  C5  UNL d   1       0.157  -1.240  -2.378  0.00  0.00     0.034 A 
ATOM      7 Cl   UNL d   1       0.134  -1.256   0.304  0.00  0.00    -0.070 Cl
ATOM      8 Cl1  UNL d   1      -1.487  -4.061  -0.010  0.00  0.00    -0.070 Cl
ENDROOT
TORSDOF 0
ENDMDL
