MODEL 1
REMARK minimizedAffinity -5.40053654
REMARK minimizedRMSD -1
REMARK  0 active torsions:
REMARK  status: ('A' for Active; 'I' for Inactive)
ROOT
ATOM      1  C   UNL d   1       1.472   2.147  -0.222  0.00  0.00     0.020 A 
ATOM      2  C1  UNL d   1       0.473   2.913   0.378  0.00  0.00     0.020 A 
ATOM      3  C2  UNL d   1      -0.761   2.335   0.682  0.00  0.00     0.034 A 
ATOM      4  C3  UNL d   1      -1.000   0.988   0.386  0.00  0.00     0.017 A 
ATOM      5  C4  UNL d   1       0.003   0.221  -0.216  0.00  0.00     0.017 A 
ATOM      6  C5  UNL d   1       1.238   0.804  -0.518  0.00  0.00     0.034 A 
ATOM      7 Cl   UNL d   1      -0.218  -1.448  -0.612  0.00  0.00    -0.070 Cl
ATOM      8 Cl1  UNL d   1      -2.550   0.340   0.789  0.00  0.00    -0.070 Cl
ENDROOT
TORSDOF 0
ENDMDL
