MODEL 1
REMARK minimizedAffinity -5.25355625
REMARK minimizedRMSD -1
REMARK  0 active torsions:
REMARK  status: ('A' for Active; 'I' for Inactive)
ROOT
ATOM      1  C   UNL d   1       1.939   2.205   0.080  0.00  0.00     0.020 A 
ATOM      2  C1  UNL d   1       0.778   2.958  -0.091  0.00  0.00     0.020 A 
ATOM      3  C2  UNL d   1      -0.464   2.321  -0.157  0.00  0.00     0.034 A 
ATOM      4  C3  UNL d   1      -0.547   0.928  -0.052  0.00  0.00     0.017 A 
ATOM      5  C4  UNL d   1       0.619   0.173   0.119  0.00  0.00     0.017 A 
ATOM      6  C5  UNL d   1       1.860   0.816   0.185  0.00  0.00     0.034 A 
ATOM      7 Cl   UNL d   1       0.597  -1.549   0.256  0.00  0.00    -0.070 Cl
ATOM      8 Cl1  UNL d   1      -2.115   0.208  -0.142  0.00  0.00    -0.070 Cl
ENDROOT
TORSDOF 0
ENDMDL
