MODEL 1
REMARK minimizedAffinity 3.04956818
REMARK minimizedRMSD -1
REMARK  0 active torsions:
REMARK  status: ('A' for Active; 'I' for Inactive)
ROOT
ATOM      1  C   UNL d   1      -2.052   1.033   0.489  0.00  0.00     0.020 A 
ATOM      2  C1  UNL d   1      -1.498   2.298   0.681  0.00  0.00     0.020 A 
ATOM      3  C2  UNL d   1      -0.112   2.451   0.744  0.00  0.00     0.034 A 
ATOM      4  C3  UNL d   1       0.726   1.338   0.617  0.00  0.00     0.017 A 
ATOM      5  C4  UNL d   1       0.170   0.068   0.426  0.00  0.00     0.017 A 
ATOM      6  C5  UNL d   1      -1.219  -0.080   0.362  0.00  0.00     0.034 A 
ATOM      7 Cl   UNL d   1       1.139  -1.354   0.260  0.00  0.00    -0.070 Cl
ATOM      8 Cl1  UNL d   1       2.432   1.601   0.706  0.00  0.00    -0.070 Cl
ENDROOT
TORSDOF 0
ENDMDL
