MODEL 1
REMARK minimizedAffinity -5.19773579
REMARK minimizedRMSD -1
REMARK  0 active torsions:
REMARK  status: ('A' for Active; 'I' for Inactive)
ROOT
ATOM      1  C   UNL d   1      -0.454   3.148  -0.145  0.00  0.00     0.020 A 
ATOM      2  C1  UNL d   1       0.876   2.837  -0.426  0.00  0.00     0.020 A 
ATOM      3  C2  UNL d   1       1.370   1.563  -0.141  0.00  0.00     0.034 A 
ATOM      4  C3  UNL d   1       0.534   0.595   0.428  0.00  0.00     0.017 A 
ATOM      5  C4  UNL d   1      -0.800   0.908   0.710  0.00  0.00     0.017 A 
ATOM      6  C5  UNL d   1      -1.290   2.186   0.422  0.00  0.00     0.034 A 
ATOM      7 Cl   UNL d   1      -1.892  -0.234   1.412  0.00  0.00    -0.070 Cl
ATOM      8 Cl1  UNL d   1       1.212  -0.961   0.755  0.00  0.00    -0.070 Cl
ENDROOT
TORSDOF 0
ENDMDL
