MODEL 1
REMARK minimizedAffinity -6.090487
REMARK minimizedRMSD -1
REMARK  0 active torsions:
REMARK  status: ('A' for Active; 'I' for Inactive)
ROOT
ATOM      1  C   UNL d   1       1.892   3.641   0.444  0.00  0.00     0.020 A 
ATOM      2  C1  UNL d   1       2.925   2.709   0.356  0.00  0.00     0.020 A 
ATOM      3  C2  UNL d   1       2.634   1.343   0.354  0.00  0.00     0.034 A 
ATOM      4  C3  UNL d   1       1.307   0.905   0.441  0.00  0.00     0.017 A 
ATOM      5  C4  UNL d   1       0.271   1.842   0.529  0.00  0.00     0.017 A 
ATOM      6  C5  UNL d   1       0.568   3.209   0.530  0.00  0.00     0.034 A 
ATOM      7 Cl   UNL d   1      -1.390   1.379   0.639  0.00  0.00    -0.070 Cl
ATOM      8 Cl1  UNL d   1       1.021  -0.798   0.434  0.00  0.00    -0.070 Cl
ENDROOT
TORSDOF 0
ENDMDL
