MODEL 1
REMARK minimizedAffinity -3.93469715
REMARK minimizedRMSD -1
REMARK  0 active torsions:
REMARK  status: ('A' for Active; 'I' for Inactive)
ROOT
ATOM      1  C   UNL d   1      -1.252   0.375   0.336  0.00  0.00     0.020 A 
ATOM      2  C1  UNL d   1      -1.206   1.755   0.529  0.00  0.00     0.020 A 
ATOM      3  C2  UNL d   1       0.005   2.377   0.837  0.00  0.00     0.034 A 
ATOM      4  C3  UNL d   1       1.176   1.620   0.953  0.00  0.00     0.017 A 
ATOM      5  C4  UNL d   1       1.130   0.234   0.758  0.00  0.00     0.017 A 
ATOM      6  C5  UNL d   1      -0.086  -0.384   0.450  0.00  0.00     0.034 A 
ATOM      7 Cl   UNL d   1       2.533  -0.767   0.884  0.00  0.00    -0.070 Cl
ATOM      8 Cl1  UNL d   1       2.640   2.455   1.335  0.00  0.00    -0.070 Cl
ENDROOT
TORSDOF 0
ENDMDL
