MODEL 1
REMARK minimizedAffinity 5.18698359
REMARK minimizedRMSD -1
REMARK  0 active torsions:
REMARK  status: ('A' for Active; 'I' for Inactive)
ROOT
ATOM      1  C   UNL d   1       3.383  -2.418  -1.423  0.00  0.00     0.020 A 
ATOM      2  C1  UNL d   1       2.506  -1.561  -0.759  0.00  0.00     0.020 A 
ATOM      3  C2  UNL d   1       2.700  -0.179  -0.821  0.00  0.00     0.034 A 
ATOM      4  C3  UNL d   1       3.773   0.349  -1.548  0.00  0.00     0.017 A 
ATOM      5  C4  UNL d   1       4.653  -0.512  -2.213  0.00  0.00     0.017 A 
ATOM      6  C5  UNL d   1       4.454  -1.895  -2.148  0.00  0.00     0.034 A 
ATOM      7 Cl   UNL d   1       6.000   0.066  -3.130  0.00  0.00    -0.070 Cl
ATOM      8 Cl1  UNL d   1       3.952   2.067  -1.581  0.00  0.00    -0.070 Cl
ENDROOT
TORSDOF 0
ENDMDL
