MODEL 1
REMARK minimizedAffinity 4.92954159
REMARK minimizedRMSD -1
REMARK  0 active torsions:
REMARK  status: ('A' for Active; 'I' for Inactive)
ROOT
ATOM      1  C   UNL d   1      -1.162   5.676  -2.194  0.00  0.00     0.020 A 
ATOM      2  C1  UNL d   1       0.010   5.036  -2.594  0.00  0.00     0.020 A 
ATOM      3  C2  UNL d   1      -0.054   3.792  -3.226  0.00  0.00     0.034 A 
ATOM      4  C3  UNL d   1      -1.293   3.185  -3.460  0.00  0.00     0.017 A 
ATOM      5  C4  UNL d   1      -2.469   3.828  -3.058  0.00  0.00     0.017 A 
ATOM      6  C5  UNL d   1      -2.399   5.073  -2.425  0.00  0.00     0.034 A 
ATOM      7 Cl   UNL d   1      -4.035   3.142  -3.313  0.00  0.00    -0.070 Cl
ATOM      8 Cl1  UNL d   1      -1.298   1.647  -4.247  0.00  0.00    -0.070 Cl
ENDROOT
TORSDOF 0
ENDMDL
