MODEL 1
REMARK minimizedAffinity 9.79204845
REMARK minimizedRMSD -1
REMARK  0 active torsions:
REMARK  status: ('A' for Active; 'I' for Inactive)
ROOT
ATOM      1  C   UNL d   1      -4.190   2.438   1.747  0.00  0.00     0.020 A 
ATOM      2  C1  UNL d   1      -5.220   1.537   1.478  0.00  0.00     0.020 A 
ATOM      3  C2  UNL d   1      -4.969   0.163   1.501  0.00  0.00     0.034 A 
ATOM      4  C3  UNL d   1      -3.686  -0.314   1.793  0.00  0.00     0.017 A 
ATOM      5  C4  UNL d   1      -2.653   0.592   2.062  0.00  0.00     0.017 A 
ATOM      6  C5  UNL d   1      -2.910   1.966   2.038  0.00  0.00     0.034 A 
ATOM      7 Cl   UNL d   1      -1.044   0.080   2.431  0.00  0.00    -0.070 Cl
ATOM      8 Cl1  UNL d   1      -3.447  -2.025   1.804  0.00  0.00    -0.070 Cl
ENDROOT
TORSDOF 0
ENDMDL
