MODEL 1
REMARK minimizedAffinity 10.9632368
REMARK minimizedRMSD -1
REMARK  0 active torsions:
REMARK  status: ('A' for Active; 'I' for Inactive)
ROOT
ATOM      1  C   UNL d   1      -5.716   3.103   1.005  0.00  0.00     0.020 A 
ATOM      2  C1  UNL d   1      -4.444   3.479   0.577  0.00  0.00     0.020 A 
ATOM      3  C2  UNL d   1      -3.318   2.802   1.052  0.00  0.00     0.034 A 
ATOM      4  C3  UNL d   1      -3.463   1.746   1.959  0.00  0.00     0.017 A 
ATOM      5  C4  UNL d   1      -4.741   1.369   2.388  0.00  0.00     0.017 A 
ATOM      6  C5  UNL d   1      -5.864   2.050   1.909  0.00  0.00     0.034 A 
ATOM      7 Cl   UNL d   1      -4.999   0.075   3.505  0.00  0.00    -0.070 Cl
ATOM      8 Cl1  UNL d   1      -2.028   0.954   2.505  0.00  0.00    -0.070 Cl
ENDROOT
TORSDOF 0
ENDMDL
