MODEL 1
REMARK minimizedAffinity 6.46607208
REMARK minimizedRMSD -1
REMARK  0 active torsions:
REMARK  status: ('A' for Active; 'I' for Inactive)
ROOT
ATOM      1  C   UNL d   1      -1.490   5.999  -1.803  0.00  0.00     0.020 A 
ATOM      2  C1  UNL d   1      -2.825   6.000  -1.401  0.00  0.00     0.020 A 
ATOM      3  C2  UNL d   1      -3.145   5.999  -0.041  0.00  0.00     0.034 A 
ATOM      4  C3  UNL d   1      -2.128   5.997   0.921  0.00  0.00     0.017 A 
ATOM      5  C4  UNL d   1      -0.789   5.996   0.517  0.00  0.00     0.017 A 
ATOM      6  C5  UNL d   1      -0.474   5.997  -0.846  0.00  0.00     0.034 A 
ATOM      7 Cl   UNL d   1       0.520   5.993   1.645  0.00  0.00    -0.070 Cl
ATOM      8 Cl1  UNL d   1      -2.597   5.997   2.584  0.00  0.00    -0.070 Cl
ENDROOT
TORSDOF 0
ENDMDL
