MODEL 1
REMARK minimizedAffinity 6.23376322
REMARK minimizedRMSD -1
REMARK  0 active torsions:
REMARK  status: ('A' for Active; 'I' for Inactive)
ROOT
ATOM      1  C   UNL d   1      -0.445   4.900  -2.969  0.00  0.00     0.020 A 
ATOM      2  C1  UNL d   1       0.655   4.066  -3.164  0.00  0.00     0.020 A 
ATOM      3  C2  UNL d   1       0.479   2.797  -3.720  0.00  0.00     0.034 A 
ATOM      4  C3  UNL d   1      -0.800   2.359  -4.084  0.00  0.00     0.017 A 
ATOM      5  C4  UNL d   1      -1.903   3.197  -3.888  0.00  0.00     0.017 A 
ATOM      6  C5  UNL d   1      -1.721   4.467  -3.330  0.00  0.00     0.034 A 
ATOM      7 Cl   UNL d   1      -3.512   2.727  -4.311  0.00  0.00    -0.070 Cl
ATOM      8 Cl1  UNL d   1      -0.944   0.778  -4.766  0.00  0.00    -0.070 Cl
ENDROOT
TORSDOF 0
ENDMDL
