MODEL 1
REMARK minimizedAffinity 10.4482164
REMARK minimizedRMSD -1
REMARK  0 active torsions:
REMARK  status: ('A' for Active; 'I' for Inactive)
ROOT
ATOM      1  C   UNL d   1      -3.153  -2.149   0.658  0.00  0.00     0.020 A 
ATOM      2  C1  UNL d   1      -3.978  -2.152   1.782  0.00  0.00     0.020 A 
ATOM      3  C2  UNL d   1      -4.522  -3.352   2.245  0.00  0.00     0.034 A 
ATOM      4  C3  UNL d   1      -4.242  -4.554   1.584  0.00  0.00     0.017 A 
ATOM      5  C4  UNL d   1      -3.414  -4.549   0.456  0.00  0.00     0.017 A 
ATOM      6  C5  UNL d   1      -2.871  -3.345  -0.004  0.00  0.00     0.034 A 
ATOM      7 Cl   UNL d   1      -3.023  -5.992  -0.413  0.00  0.00    -0.070 Cl
ATOM      8 Cl1  UNL d   1      -4.949  -6.000   2.212  0.00  0.00    -0.070 Cl
ENDROOT
TORSDOF 0
ENDMDL
