MODEL 1
REMARK minimizedAffinity 8.32082653
REMARK minimizedRMSD -1
REMARK  0 active torsions:
REMARK  status: ('A' for Active; 'I' for Inactive)
ROOT
ATOM      1  C   UNL d   1      -0.461   5.040   1.312  0.00  0.00     0.020 A 
ATOM      2  C1  UNL d   1      -1.673   5.712   1.466  0.00  0.00     0.020 A 
ATOM      3  C2  UNL d   1      -2.459   5.999   0.348  0.00  0.00     0.034 A 
ATOM      4  C3  UNL d   1      -2.034   5.613  -0.929  0.00  0.00     0.017 A 
ATOM      5  C4  UNL d   1      -0.818   4.937  -1.082  0.00  0.00     0.017 A 
ATOM      6  C5  UNL d   1      -0.035   4.653   0.041  0.00  0.00     0.034 A 
ATOM      7 Cl   UNL d   1      -0.227   4.429  -2.625  0.00  0.00    -0.070 Cl
ATOM      8 Cl1  UNL d   1      -3.057   5.999  -2.267  0.00  0.00    -0.070 Cl
ENDROOT
TORSDOF 0
ENDMDL
