MODEL 1
REMARK minimizedAffinity 7.6015358
REMARK minimizedRMSD -1
REMARK  0 active torsions:
REMARK  status: ('A' for Active; 'I' for Inactive)
ROOT
ATOM      1  C   UNL d   1      -2.653   5.578   1.120  0.00  0.00     0.020 A 
ATOM      2  C1  UNL d   1      -1.345   5.999   0.884  0.00  0.00     0.020 A 
ATOM      3  C2  UNL d   1      -0.304   5.068   0.862  0.00  0.00     0.034 A 
ATOM      4  C3  UNL d   1      -0.570   3.711   1.078  0.00  0.00     0.017 A 
ATOM      5  C4  UNL d   1      -1.883   3.289   1.315  0.00  0.00     0.017 A 
ATOM      6  C5  UNL d   1      -2.921   4.225   1.336  0.00  0.00     0.034 A 
ATOM      7 Cl   UNL d   1      -2.288   1.631   1.590  0.00  0.00    -0.070 Cl
ATOM      8 Cl1  UNL d   1       0.766   2.615   1.037  0.00  0.00    -0.070 Cl
ENDROOT
TORSDOF 0
ENDMDL
