MODEL 1
REMARK minimizedAffinity -1.50224781
REMARK minimizedRMSD -1
REMARK  0 active torsions:
REMARK  status: ('A' for Active; 'I' for Inactive)
ROOT
ATOM      1  C   UNL d   1      -2.940   5.996   0.246  0.00  0.00     0.020 A 
ATOM      2  C1  UNL d   1      -2.111   5.599   1.294  0.00  0.00     0.020 A 
ATOM      3  C2  UNL d   1      -2.139   4.278   1.745  0.00  0.00     0.034 A 
ATOM      4  C3  UNL d   1      -3.000   3.349   1.148  0.00  0.00     0.017 A 
ATOM      5  C4  UNL d   1      -3.832   3.748   0.096  0.00  0.00     0.017 A 
ATOM      6  C5  UNL d   1      -3.799   5.072  -0.352  0.00  0.00     0.034 A 
ATOM      7 Cl   UNL d   1      -4.920   2.659  -0.690  0.00  0.00    -0.070 Cl
ATOM      8 Cl1  UNL d   1      -2.983   1.731   1.756  0.00  0.00    -0.070 Cl
ENDROOT
TORSDOF 0
ENDMDL
