MODEL 1
REMARK minimizedAffinity 7.20473719
REMARK minimizedRMSD -1
REMARK  0 active torsions:
REMARK  status: ('A' for Active; 'I' for Inactive)
ROOT
ATOM      1  C   UNL d   1      -1.503   6.000  -1.907  0.00  0.00     0.020 A 
ATOM      2  C1  UNL d   1      -2.596   5.135  -1.957  0.00  0.00     0.020 A 
ATOM      3  C2  UNL d   1      -2.523   3.961  -2.710  0.00  0.00     0.034 A 
ATOM      4  C3  UNL d   1      -1.355   3.648  -3.415  0.00  0.00     0.017 A 
ATOM      5  C4  UNL d   1      -0.259   4.517  -3.363  0.00  0.00     0.017 A 
ATOM      6  C5  UNL d   1      -0.337   5.691  -2.608  0.00  0.00     0.034 A 
ATOM      7 Cl   UNL d   1       1.216   4.198  -4.206  0.00  0.00    -0.070 Cl
ATOM      8 Cl1  UNL d   1      -1.335   2.179  -4.324  0.00  0.00    -0.070 Cl
ENDROOT
TORSDOF 0
ENDMDL
