MODEL 1
REMARK minimizedAffinity 10.227252
REMARK minimizedRMSD -1
REMARK  0 active torsions:
REMARK  status: ('A' for Active; 'I' for Inactive)
ROOT
ATOM      1  C   UNL d   1       1.279   2.112  -3.750  0.00  0.00     0.020 A 
ATOM      2  C1  UNL d   1       0.383   1.081  -4.025  0.00  0.00     0.020 A 
ATOM      3  C2  UNL d   1      -0.957   1.202  -3.651  0.00  0.00     0.034 A 
ATOM      4  C3  UNL d   1      -1.404   2.357  -2.999  0.00  0.00     0.017 A 
ATOM      5  C4  UNL d   1      -0.503   3.392  -2.723  0.00  0.00     0.017 A 
ATOM      6  C5  UNL d   1       0.837   3.266  -3.101  0.00  0.00     0.034 A 
ATOM      7 Cl   UNL d   1      -0.980   4.848  -1.923  0.00  0.00    -0.070 Cl
ATOM      8 Cl1  UNL d   1      -3.075   2.440  -2.565  0.00  0.00    -0.070 Cl
ENDROOT
TORSDOF 0
ENDMDL
