MODEL 1
REMARK minimizedAffinity 7.75755787
REMARK minimizedRMSD -1
REMARK  0 active torsions:
REMARK  status: ('A' for Active; 'I' for Inactive)
ROOT
ATOM      1  C   UNL d   1       1.097   3.800  -2.383  0.00  0.00     0.020 A 
ATOM      2  C1  UNL d   1      -0.076   4.232  -1.764  0.00  0.00     0.020 A 
ATOM      3  C2  UNL d   1      -1.286   3.590  -2.036  0.00  0.00     0.034 A 
ATOM      4  C3  UNL d   1      -1.326   2.512  -2.929  0.00  0.00     0.017 A 
ATOM      5  C4  UNL d   1      -0.148   2.080  -3.549  0.00  0.00     0.017 A 
ATOM      6  C5  UNL d   1       1.061   2.727  -3.273  0.00  0.00     0.034 A 
ATOM      7 Cl   UNL d   1      -0.118   0.758  -4.662  0.00  0.00    -0.070 Cl
ATOM      8 Cl1  UNL d   1      -2.856   1.765  -3.218  0.00  0.00    -0.070 Cl
ENDROOT
TORSDOF 0
ENDMDL
