MODEL 1
REMARK minimizedAffinity 8.26956081
REMARK minimizedRMSD -1
REMARK  0 active torsions:
REMARK  status: ('A' for Active; 'I' for Inactive)
ROOT
ATOM      1  C   UNL d   1       5.896  -0.177  -2.781  0.00  0.00     0.020 A 
ATOM      2  C1  UNL d   1       5.488  -1.500  -2.956  0.00  0.00     0.020 A 
ATOM      3  C2  UNL d   1       4.332  -1.963  -2.325  0.00  0.00     0.034 A 
ATOM      4  C3  UNL d   1       3.578  -1.103  -1.517  0.00  0.00     0.017 A 
ATOM      5  C4  UNL d   1       3.988   0.223  -1.343  0.00  0.00     0.017 A 
ATOM      6  C5  UNL d   1       5.147   0.682  -1.977  0.00  0.00     0.034 A 
ATOM      7 Cl   UNL d   1       3.110   1.343  -0.361  0.00  0.00    -0.070 Cl
ATOM      8 Cl1  UNL d   1       2.159  -1.744  -0.768  0.00  0.00    -0.070 Cl
ENDROOT
TORSDOF 0
ENDMDL
