MODEL 1
REMARK minimizedAffinity 2.53120089
REMARK minimizedRMSD -1
REMARK  0 active torsions:
REMARK  status: ('A' for Active; 'I' for Inactive)
ROOT
ATOM      1  C   UNL d   1       2.257  -0.775  -0.456  0.00  0.00     0.020 A 
ATOM      2  C1  UNL d   1       3.074  -1.858  -0.777  0.00  0.00     0.020 A 
ATOM      3  C2  UNL d   1       4.224  -1.662  -1.545  0.00  0.00     0.034 A 
ATOM      4  C3  UNL d   1       4.560  -0.379  -1.994  0.00  0.00     0.017 A 
ATOM      5  C4  UNL d   1       3.739   0.707  -1.672  0.00  0.00     0.017 A 
ATOM      6  C5  UNL d   1       2.589   0.505  -0.903  0.00  0.00     0.034 A 
ATOM      7 Cl   UNL d   1       4.088   2.319  -2.190  0.00  0.00    -0.070 Cl
ATOM      8 Cl1  UNL d   1       5.997  -0.210  -2.939  0.00  0.00    -0.070 Cl
ENDROOT
TORSDOF 0
ENDMDL
