MODEL 1
REMARK minimizedAffinity 4.20301914
REMARK minimizedRMSD -1
REMARK  0 active torsions:
REMARK  status: ('A' for Active; 'I' for Inactive)
ROOT
ATOM      1  C   UNL d   1       4.049  -0.021  -1.706  0.00  0.00     0.020 A 
ATOM      2  C1  UNL d   1       3.765  -1.328  -2.099  0.00  0.00     0.020 A 
ATOM      3  C2  UNL d   1       3.123  -2.199  -1.217  0.00  0.00     0.034 A 
ATOM      4  C3  UNL d   1       2.761  -1.764   0.064  0.00  0.00     0.017 A 
ATOM      5  C4  UNL d   1       3.046  -0.451   0.458  0.00  0.00     0.017 A 
ATOM      6  C5  UNL d   1       3.690   0.416  -0.430  0.00  0.00     0.034 A 
ATOM      7 Cl   UNL d   1       2.631   0.158   2.021  0.00  0.00    -0.070 Cl
ATOM      8 Cl1  UNL d   1       1.969  -2.894   1.103  0.00  0.00    -0.070 Cl
ENDROOT
TORSDOF 0
ENDMDL
