MODEL 1
REMARK minimizedAffinity 11.3515835
REMARK minimizedRMSD -1
REMARK  0 active torsions:
REMARK  status: ('A' for Active; 'I' for Inactive)
ROOT
ATOM      1  C   UNL d   1       3.314  -1.178  -0.219  0.00  0.00     0.020 A 
ATOM      2  C1  UNL d   1       2.705  -0.020   0.263  0.00  0.00     0.020 A 
ATOM      3  C2  UNL d   1       3.055   1.224  -0.266  0.00  0.00     0.034 A 
ATOM      4  C3  UNL d   1       4.016   1.314  -1.279  0.00  0.00     0.017 A 
ATOM      5  C4  UNL d   1       4.626   0.151  -1.762  0.00  0.00     0.017 A 
ATOM      6  C5  UNL d   1       4.273  -1.093  -1.229  0.00  0.00     0.034 A 
ATOM      7 Cl   UNL d   1       5.821   0.181  -3.011  0.00  0.00    -0.070 Cl
ATOM      8 Cl1  UNL d   1       4.399   2.885  -1.887  0.00  0.00    -0.070 Cl
ENDROOT
TORSDOF 0
ENDMDL
