MODEL 1
REMARK minimizedAffinity 5.79115582
REMARK minimizedRMSD -1
REMARK  0 active torsions:
REMARK  status: ('A' for Active; 'I' for Inactive)
ROOT
ATOM      1  C   UNL d   1       3.279  -1.272  -0.529  0.00  0.00     0.020 A 
ATOM      2  C1  UNL d   1       2.428  -2.180  -1.158  0.00  0.00     0.020 A 
ATOM      3  C2  UNL d   1       2.672  -2.568  -2.477  0.00  0.00     0.034 A 
ATOM      4  C3  UNL d   1       3.769  -2.047  -3.172  0.00  0.00     0.017 A 
ATOM      5  C4  UNL d   1       4.623  -1.135  -2.541  0.00  0.00     0.017 A 
ATOM      6  C5  UNL d   1       4.374  -0.751  -1.220  0.00  0.00     0.034 A 
ATOM      7 Cl   UNL d   1       5.997  -0.450  -3.334  0.00  0.00    -0.070 Cl
ATOM      8 Cl1  UNL d   1       4.011  -2.571  -4.801  0.00  0.00    -0.070 Cl
ENDROOT
TORSDOF 0
ENDMDL
