MODEL 1
REMARK minimizedAffinity 14.7871437
REMARK minimizedRMSD -1
REMARK  0 active torsions:
REMARK  status: ('A' for Active; 'I' for Inactive)
ROOT
ATOM      1  C   UNL d   1      -0.162   0.924  -4.010  0.00  0.00     0.020 A 
ATOM      2  C1  UNL d   1      -1.360   1.177  -3.343  0.00  0.00     0.020 A 
ATOM      3  C2  UNL d   1      -1.621   2.451  -2.836  0.00  0.00     0.034 A 
ATOM      4  C3  UNL d   1      -0.684   3.478  -2.994  0.00  0.00     0.017 A 
ATOM      5  C4  UNL d   1       0.519   3.223  -3.663  0.00  0.00     0.017 A 
ATOM      6  C5  UNL d   1       0.775   1.946  -4.170  0.00  0.00     0.034 A 
ATOM      7 Cl   UNL d   1       1.724   4.440  -3.898  0.00  0.00    -0.070 Cl
ATOM      8 Cl1  UNL d   1      -1.073   5.029  -2.341  0.00  0.00    -0.070 Cl
ENDROOT
TORSDOF 0
ENDMDL
