MODEL 1
REMARK minimizedAffinity 12.0345907
REMARK minimizedRMSD -1
REMARK  0 active torsions:
REMARK  status: ('A' for Active; 'I' for Inactive)
ROOT
ATOM      1  C   UNL d   1      -0.595   1.032  -4.406  0.00  0.00     0.020 A 
ATOM      2  C1  UNL d   1      -1.720   1.402  -3.670  0.00  0.00     0.020 A 
ATOM      3  C2  UNL d   1      -1.736   2.619  -2.985  0.00  0.00     0.034 A 
ATOM      4  C3  UNL d   1      -0.625   3.469  -3.034  0.00  0.00     0.017 A 
ATOM      5  C4  UNL d   1       0.503   3.097  -3.773  0.00  0.00     0.017 A 
ATOM      6  C5  UNL d   1       0.514   1.877  -4.458  0.00  0.00     0.034 A 
ATOM      7 Cl   UNL d   1       1.911   4.093  -3.881  0.00  0.00    -0.070 Cl
ATOM      8 Cl1  UNL d   1      -0.714   4.959  -2.163  0.00  0.00    -0.070 Cl
ENDROOT
TORSDOF 0
ENDMDL
