MODEL 1
REMARK minimizedAffinity 0.869669497
REMARK minimizedRMSD -1
REMARK  1 active torsions:
REMARK  status: ('A' for Active; 'I' for Inactive)
REMARK    1  A    between atoms: C3_4  and  O_7 
ROOT
ATOM      1  C   UNL d   1       2.521   1.910   0.194  0.00  0.00    -0.033 A 
ATOM      2  C1  UNL d   1       3.766   1.286   0.303  0.00  0.00     0.039 A 
ATOM      3  C2  UNL d   1       3.852  -0.107   0.308  0.00  0.00    -0.080 A 
ATOM      4  C3  UNL d   1       2.689  -0.864   0.202  0.00  0.00     0.150 A 
ATOM      5  C4  UNL d   1       1.446  -0.250   0.090  0.00  0.00    -0.007 A 
ATOM      6  C5  UNL d   1       1.361   1.142   0.086  0.00  0.00     0.039 A 
ENDROOT
BRANCH   4   7
ATOM      7  O   UNL d   1       2.723  -2.227   0.208  0.00  0.00    -0.526 OA
ATOM      8  H5  UNL d   1       3.645  -2.512   0.320  0.00  0.00     0.418 HD
ENDBRANCH   4   7
TORSDOF 1
ENDMDL
