MODEL 1
REMARK minimizedAffinity 2.5404098
REMARK minimizedRMSD -1
REMARK  1 active torsions:
REMARK  status: ('A' for Active; 'I' for Inactive)
REMARK    1  A    between atoms: C3_4  and  O_7 
ROOT
ATOM      1  C   UNL d   1       2.129  -1.299  -0.172  0.00  0.00    -0.033 A 
ATOM      2  C1  UNL d   1       1.081  -0.958  -1.030  0.00  0.00     0.039 A 
ATOM      3  C2  UNL d   1       0.008  -1.833  -1.206  0.00  0.00    -0.080 A 
ATOM      4  C3  UNL d   1      -0.008  -3.043  -0.518  0.00  0.00     0.150 A 
ATOM      5  C4  UNL d   1       1.031  -3.387   0.341  0.00  0.00    -0.007 A 
ATOM      6  C5  UNL d   1       2.103  -2.513   0.515  0.00  0.00     0.039 A 
ENDROOT
BRANCH   4   7
ATOM      7  O   UNL d   1      -1.032  -3.931  -0.661  0.00  0.00    -0.526 OA
ATOM      8  H5  UNL d   1      -1.662  -3.572  -1.308  0.00  0.00     0.418 HD
ENDBRANCH   4   7
TORSDOF 1
ENDMDL
