MODEL 1
REMARK minimizedAffinity 5.3506875
REMARK minimizedRMSD -1
REMARK  1 active torsions:
REMARK  status: ('A' for Active; 'I' for Inactive)
REMARK    1  A    between atoms: C3_4  and  O_7 
ROOT
ATOM      1  C   UNL d   1       1.448   2.881   0.741  0.00  0.00    -0.033 A 
ATOM      2  C1  UNL d   1       2.843   2.939   0.744  0.00  0.00     0.039 A 
ATOM      3  C2  UNL d   1       3.593   1.761   0.775  0.00  0.00    -0.080 A 
ATOM      4  C3  UNL d   1       2.936   0.534   0.802  0.00  0.00     0.150 A 
ATOM      5  C4  UNL d   1       1.546   0.469   0.796  0.00  0.00    -0.007 A 
ATOM      6  C5  UNL d   1       0.800   1.646   0.765  0.00  0.00     0.039 A 
ENDROOT
BRANCH   4   7
ATOM      7  O   UNL d   1       3.625  -0.642   0.838  0.00  0.00    -0.526 OA
ATOM      8  H5  UNL d   1       4.575  -0.441   0.868  0.00  0.00     0.418 HD
ENDBRANCH   4   7
TORSDOF 1
ENDMDL
