MODEL 1
REMARK minimizedAffinity 3.53681421
REMARK minimizedRMSD -1
REMARK  1 active torsions:
REMARK  status: ('A' for Active; 'I' for Inactive)
REMARK    1  A    between atoms: C3_4  and  O_7 
ROOT
ATOM      1  C   UNL d   1       2.473  -1.621   0.632  0.00  0.00    -0.033 A 
ATOM      2  C1  UNL d   1       2.512  -0.300   0.182  0.00  0.00     0.039 A 
ATOM      3  C2  UNL d   1       1.929   0.040  -1.040  0.00  0.00    -0.080 A 
ATOM      4  C3  UNL d   1       1.310  -0.948  -1.801  0.00  0.00     0.150 A 
ATOM      5  C4  UNL d   1       1.264  -2.265  -1.357  0.00  0.00    -0.007 A 
ATOM      6  C5  UNL d   1       1.847  -2.603  -0.136  0.00  0.00     0.039 A 
ENDROOT
BRANCH   4   7
ATOM      7  O   UNL d   1       0.732  -0.665  -3.003  0.00  0.00    -0.526 OA
ATOM      8  H5  UNL d   1       0.866   0.279  -3.194  0.00  0.00     0.418 HD
ENDBRANCH   4   7
TORSDOF 1
ENDMDL
