MODEL 1
REMARK minimizedAffinity 4.24049377
REMARK minimizedRMSD -1
REMARK  1 active torsions:
REMARK  status: ('A' for Active; 'I' for Inactive)
REMARK    1  A    between atoms: C3_4  and  O_7 
ROOT
ATOM      1  C   UNL d   1       1.000   2.779   0.180  0.00  0.00    -0.033 A 
ATOM      2  C1  UNL d   1       2.338   2.895   0.558  0.00  0.00     0.039 A 
ATOM      3  C2  UNL d   1       3.111   1.750   0.761  0.00  0.00    -0.080 A 
ATOM      4  C3  UNL d   1       2.533   0.496   0.581  0.00  0.00     0.150 A 
ATOM      5  C4  UNL d   1       1.201   0.373   0.200  0.00  0.00    -0.007 A 
ATOM      6  C5  UNL d   1       0.431   1.517  -0.001  0.00  0.00     0.039 A 
ENDROOT
BRANCH   4   7
ATOM      7  O   UNL d   1       3.246  -0.650   0.772  0.00  0.00    -0.526 OA
ATOM      8  H5  UNL d   1       4.142  -0.411   1.060  0.00  0.00     0.418 HD
ENDBRANCH   4   7
TORSDOF 1
ENDMDL
