MODEL 1
REMARK minimizedAffinity 8.58592415
REMARK minimizedRMSD -1
REMARK  1 active torsions:
REMARK  status: ('A' for Active; 'I' for Inactive)
REMARK    1  A    between atoms: C3_4  and  O_7 
ROOT
ATOM      1  C   UNL d   1      -5.852  -5.577  -2.632  0.00  0.00    -0.033 A 
ATOM      2  C1  UNL d   1      -4.689  -5.990  -1.980  0.00  0.00     0.039 A 
ATOM      3  C2  UNL d   1      -3.571  -5.154  -1.945  0.00  0.00    -0.080 A 
ATOM      4  C3  UNL d   1      -3.630  -3.908  -2.564  0.00  0.00     0.150 A 
ATOM      5  C4  UNL d   1      -4.787  -3.489  -3.212  0.00  0.00    -0.007 A 
ATOM      6  C5  UNL d   1      -5.902  -4.325  -3.247  0.00  0.00     0.039 A 
ENDROOT
BRANCH   4   7
ATOM      7  O   UNL d   1      -2.563  -3.059  -2.560  0.00  0.00    -0.526 OA
ATOM      8  H5  UNL d   1      -1.826  -3.494  -2.101  0.00  0.00     0.418 HD
ENDBRANCH   4   7
TORSDOF 1
ENDMDL
