MODEL 1
REMARK minimizedAffinity 2.42759943
REMARK minimizedRMSD -1
REMARK  1 active torsions:
REMARK  status: ('A' for Active; 'I' for Inactive)
REMARK    1  A    between atoms: C3_4  and  O_7 
ROOT
ATOM      1  C   UNL d   1       4.221   2.494  -2.999  0.00  0.00    -0.033 A 
ATOM      2  C1  UNL d   1       3.514   3.673  -2.751  0.00  0.00     0.039 A 
ATOM      3  C2  UNL d   1       2.718   4.235  -3.750  0.00  0.00    -0.080 A 
ATOM      4  C3  UNL d   1       2.637   3.611  -4.992  0.00  0.00     0.150 A 
ATOM      5  C4  UNL d   1       3.335   2.434  -5.245  0.00  0.00    -0.007 A 
ATOM      6  C5  UNL d   1       4.130   1.874  -4.245  0.00  0.00     0.039 A 
ENDROOT
BRANCH   4   7
ATOM      7  O   UNL d   1       1.877   4.125  -6.000  0.00  0.00    -0.526 OA
ATOM      8  H5  UNL d   1       1.476   4.954  -5.691  0.00  0.00     0.418 HD
ENDBRANCH   4   7
TORSDOF 1
ENDMDL
