MODEL 1
REMARK minimizedAffinity 7.59398699
REMARK minimizedRMSD -1
REMARK  1 active torsions:
REMARK  status: ('A' for Active; 'I' for Inactive)
REMARK    1  A    between atoms: C3_4  and  O_7 
ROOT
ATOM      1  C   UNL d   1      -5.145  -5.320  -2.238  0.00  0.00    -0.033 A 
ATOM      2  C1  UNL d   1      -5.727  -4.094  -2.565  0.00  0.00     0.039 A 
ATOM      3  C2  UNL d   1      -4.932  -2.952  -2.686  0.00  0.00    -0.080 A 
ATOM      4  C3  UNL d   1      -3.559  -3.050  -2.478  0.00  0.00     0.150 A 
ATOM      5  C4  UNL d   1      -2.972  -4.269  -2.156  0.00  0.00    -0.007 A 
ATOM      6  C5  UNL d   1      -3.767  -5.408  -2.034  0.00  0.00     0.039 A 
ENDROOT
BRANCH   4   7
ATOM      7  O   UNL d   1      -2.744  -1.963  -2.580  0.00  0.00    -0.526 OA
ATOM      8  H5  UNL d   1      -3.291  -1.185  -2.780  0.00  0.00     0.418 HD
ENDBRANCH   4   7
TORSDOF 1
ENDMDL
