MODEL 1
REMARK minimizedAffinity 6.33350182
REMARK minimizedRMSD -1
REMARK  1 active torsions:
REMARK  status: ('A' for Active; 'I' for Inactive)
REMARK    1  A    between atoms: C3_4  and  O_7 
ROOT
ATOM      1  C   UNL d   1      -0.680  -3.525  -4.467  0.00  0.00    -0.033 A 
ATOM      2  C1  UNL d   1      -1.095  -4.294  -3.378  0.00  0.00     0.039 A 
ATOM      3  C2  UNL d   1      -1.950  -3.746  -2.420  0.00  0.00    -0.080 A 
ATOM      4  C3  UNL d   1      -2.384  -2.431  -2.563  0.00  0.00     0.150 A 
ATOM      5  C4  UNL d   1      -1.978  -1.661  -3.648  0.00  0.00    -0.007 A 
ATOM      6  C5  UNL d   1      -1.123  -2.209  -4.603  0.00  0.00     0.039 A 
ENDROOT
BRANCH   4   7
ATOM      7  O   UNL d   1      -3.215  -1.852  -1.651  0.00  0.00    -0.526 OA
ATOM      8  H5  UNL d   1      -3.389  -2.493  -0.942  0.00  0.00     0.418 HD
ENDBRANCH   4   7
TORSDOF 1
ENDMDL
