MODEL 1
REMARK minimizedAffinity 3.77838802
REMARK minimizedRMSD -1
REMARK  1 active torsions:
REMARK  status: ('A' for Active; 'I' for Inactive)
REMARK    1  A    between atoms: C3_4  and  O_7 
ROOT
ATOM      1  C   UNL d   1       4.628   1.425  -3.292  0.00  0.00    -0.033 A 
ATOM      2  C1  UNL d   1       3.978   2.449  -2.602  0.00  0.00     0.039 A 
ATOM      3  C2  UNL d   1       3.144   3.336  -3.286  0.00  0.00    -0.080 A 
ATOM      4  C3  UNL d   1       2.969   3.186  -4.659  0.00  0.00     0.150 A 
ATOM      5  C4  UNL d   1       3.610   2.165  -5.353  0.00  0.00    -0.007 A 
ATOM      6  C5  UNL d   1       4.443   1.282  -4.668  0.00  0.00     0.039 A 
ENDROOT
BRANCH   4   7
ATOM      7  O   UNL d   1       2.169   4.030  -5.371  0.00  0.00    -0.526 OA
ATOM      8  H5  UNL d   1       1.815   4.703  -4.766  0.00  0.00     0.418 HD
ENDBRANCH   4   7
TORSDOF 1
ENDMDL
