MODEL 1
REMARK minimizedAffinity 7.38079691
REMARK minimizedRMSD -1
REMARK  1 active torsions:
REMARK  status: ('A' for Active; 'I' for Inactive)
REMARK    1  A    between atoms: C3_4  and  O_7 
ROOT
ATOM      1  C   UNL d   1      -2.391  -5.359  -2.785  0.00  0.00    -0.033 A 
ATOM      2  C1  UNL d   1      -2.368  -4.024  -3.191  0.00  0.00     0.039 A 
ATOM      3  C2  UNL d   1      -3.563  -3.317  -3.338  0.00  0.00    -0.080 A 
ATOM      4  C3  UNL d   1      -4.772  -3.956  -3.076  0.00  0.00     0.150 A 
ATOM      5  C4  UNL d   1      -4.802  -5.285  -2.668  0.00  0.00    -0.007 A 
ATOM      6  C5  UNL d   1      -3.607  -5.990  -2.522  0.00  0.00     0.039 A 
ENDROOT
BRANCH   4   7
ATOM      7  O   UNL d   1      -5.964  -3.308  -3.210  0.00  0.00    -0.526 OA
ATOM      8  H5  UNL d   1      -5.791  -2.406  -3.526  0.00  0.00     0.418 HD
ENDBRANCH   4   7
TORSDOF 1
ENDMDL
