MODEL 1
REMARK minimizedAffinity 7.71512175
REMARK minimizedRMSD -1
REMARK  1 active torsions:
REMARK  status: ('A' for Active; 'I' for Inactive)
REMARK    1  A    between atoms: C3_4  and  O_7 
ROOT
ATOM      1  C   UNL d   1      -3.622  -4.122  -2.231  0.00  0.00    -0.033 A 
ATOM      2  C1  UNL d   1      -2.766  -3.185  -2.814  0.00  0.00     0.039 A 
ATOM      3  C2  UNL d   1      -1.539  -3.591  -3.342  0.00  0.00    -0.080 A 
ATOM      4  C3  UNL d   1      -1.180  -4.935  -3.282  0.00  0.00     0.150 A 
ATOM      5  C4  UNL d   1      -2.030  -5.874  -2.707  0.00  0.00    -0.007 A 
ATOM      6  C5  UNL d   1      -3.254  -5.467  -2.179  0.00  0.00     0.039 A 
ENDROOT
BRANCH   4   7
ATOM      7  O   UNL d   1       0.009  -5.378  -3.780  0.00  0.00    -0.526 OA
ATOM      8  H5  UNL d   1       0.504  -4.614  -4.120  0.00  0.00     0.418 HD
ENDBRANCH   4   7
TORSDOF 1
ENDMDL
