MODEL 1
REMARK minimizedAffinity 6.65829563
REMARK minimizedRMSD -1
REMARK  1 active torsions:
REMARK  status: ('A' for Active; 'I' for Inactive)
REMARK    1  A    between atoms: C3_4  and  O_7 
ROOT
ATOM      1  C   UNL d   1      -1.118  -4.466   1.983  0.00  0.00    -0.033 A 
ATOM      2  C1  UNL d   1      -1.487  -3.433   1.118  0.00  0.00     0.039 A 
ATOM      3  C2  UNL d   1      -2.371  -3.683   0.067  0.00  0.00    -0.080 A 
ATOM      4  C3  UNL d   1      -2.879  -4.967  -0.109  0.00  0.00     0.150 A 
ATOM      5  C4  UNL d   1      -2.518  -6.000   0.751  0.00  0.00    -0.007 A 
ATOM      6  C5  UNL d   1      -1.635  -5.749   1.800  0.00  0.00     0.039 A 
ENDROOT
BRANCH   4   7
ATOM      7  O   UNL d   1      -3.740  -5.261  -1.124  0.00  0.00    -0.526 OA
ATOM      8  H5  UNL d   1      -3.877  -4.457  -1.653  0.00  0.00     0.418 HD
ENDBRANCH   4   7
TORSDOF 1
ENDMDL
