MODEL 1
REMARK minimizedAffinity 8.45560455
REMARK minimizedRMSD -1
REMARK  1 active torsions:
REMARK  status: ('A' for Active; 'I' for Inactive)
REMARK    1  A    between atoms: C3_4  and  O_7 
ROOT
ATOM      1  C   UNL d   1       4.559   5.682  -4.255  0.00  0.00    -0.033 A 
ATOM      2  C1  UNL d   1       4.467   4.580  -3.403  0.00  0.00     0.039 A 
ATOM      3  C2  UNL d   1       3.868   3.400  -3.847  0.00  0.00    -0.080 A 
ATOM      4  C3  UNL d   1       3.367   3.334  -5.144  0.00  0.00     0.150 A 
ATOM      5  C4  UNL d   1       3.459   4.427  -6.000  0.00  0.00    -0.007 A 
ATOM      6  C5  UNL d   1       4.056   5.605  -5.554  0.00  0.00     0.039 A 
ENDROOT
BRANCH   4   7
ATOM      7  O   UNL d   1       2.769   2.205  -5.621  0.00  0.00    -0.526 OA
ATOM      8  H5  UNL d   1       2.751   1.543  -4.910  0.00  0.00     0.418 HD
ENDBRANCH   4   7
TORSDOF 1
ENDMDL
