MODEL 1
REMARK minimizedAffinity 5.91025543
REMARK minimizedRMSD -1
REMARK  1 active torsions:
REMARK  status: ('A' for Active; 'I' for Inactive)
REMARK    1  A    between atoms: C3_4  and  O_7 
ROOT
ATOM      1  C   UNL d   1      -3.607  -3.892  -2.147  0.00  0.00    -0.033 A 
ATOM      2  C1  UNL d   1      -3.335  -5.260  -2.199  0.00  0.00     0.039 A 
ATOM      3  C2  UNL d   1      -2.165  -5.719  -2.807  0.00  0.00    -0.080 A 
ATOM      4  C3  UNL d   1      -1.275  -4.800  -3.356  0.00  0.00     0.150 A 
ATOM      5  C4  UNL d   1      -1.537  -3.435  -3.304  0.00  0.00    -0.007 A 
ATOM      6  C5  UNL d   1      -2.707  -2.979  -2.698  0.00  0.00     0.039 A 
ENDROOT
BRANCH   4   7
ATOM      7  O   UNL d   1      -0.122  -5.201  -3.964  0.00  0.00    -0.526 OA
ATOM      8  H5  UNL d   1      -0.088  -6.172  -3.950  0.00  0.00     0.418 HD
ENDBRANCH   4   7
TORSDOF 1
ENDMDL
