MODEL 1
REMARK minimizedAffinity 1.21948993
REMARK minimizedRMSD -1
REMARK  1 active torsions:
REMARK  status: ('A' for Active; 'I' for Inactive)
REMARK    1  A    between atoms: C3_4  and  O_7 
ROOT
ATOM      1  C   UNL d   1      -3.076  -4.147  -2.617  0.00  0.00    -0.033 A 
ATOM      2  C1  UNL d   1      -2.971  -5.486  -3.000  0.00  0.00     0.039 A 
ATOM      3  C2  UNL d   1      -1.743  -6.000  -3.421  0.00  0.00    -0.080 A 
ATOM      4  C3  UNL d   1      -0.629  -5.166  -3.453  0.00  0.00     0.150 A 
ATOM      5  C4  UNL d   1      -0.725  -3.833  -3.069  0.00  0.00    -0.007 A 
ATOM      6  C5  UNL d   1      -1.952  -3.321  -2.650  0.00  0.00     0.039 A 
ENDROOT
BRANCH   4   7
ATOM      7  O   UNL d   1       0.590  -5.621  -3.860  0.00  0.00    -0.526 OA
ATOM      8  H5  UNL d   1       0.499  -6.552  -4.122  0.00  0.00     0.418 HD
ENDBRANCH   4   7
TORSDOF 1
ENDMDL
