MODEL 1
REMARK minimizedAffinity 2.49397445
REMARK minimizedRMSD -1
REMARK  1 active torsions:
REMARK  status: ('A' for Active; 'I' for Inactive)
REMARK    1  A    between atoms: C3_4  and  O_7 
ROOT
ATOM      1  C   UNL d   1      -2.823  -6.000   1.364  0.00  0.00    -0.033 A 
ATOM      2  C1  UNL d   1      -1.761  -5.996   2.270  0.00  0.00     0.039 A 
ATOM      3  C2  UNL d   1      -1.136  -4.794   2.610  0.00  0.00    -0.080 A 
ATOM      4  C3  UNL d   1      -1.582  -3.606   2.039  0.00  0.00     0.150 A 
ATOM      5  C4  UNL d   1      -2.643  -3.602   1.139  0.00  0.00    -0.007 A 
ATOM      6  C5  UNL d   1      -3.265  -4.803   0.800  0.00  0.00     0.039 A 
ENDROOT
BRANCH   4   7
ATOM      7  O   UNL d   1      -1.001  -2.410   2.337  0.00  0.00    -0.526 OA
ATOM      8  H5  UNL d   1      -0.264  -2.570   2.949  0.00  0.00     0.418 HD
ENDBRANCH   4   7
TORSDOF 1
ENDMDL
