MODEL 1
REMARK minimizedAffinity 7.22463942
REMARK minimizedRMSD -1
REMARK  1 active torsions:
REMARK  status: ('A' for Active; 'I' for Inactive)
REMARK    1  A    between atoms: C3_4  and  O_7 
ROOT
ATOM      1  C   UNL d   1      -0.905  -4.003   2.200  0.00  0.00    -0.033 A 
ATOM      2  C1  UNL d   1      -1.111  -5.311   2.642  0.00  0.00     0.039 A 
ATOM      3  C2  UNL d   1      -2.269  -6.000   2.275  0.00  0.00    -0.080 A 
ATOM      4  C3  UNL d   1      -3.211  -5.370   1.465  0.00  0.00     0.150 A 
ATOM      5  C4  UNL d   1      -3.009  -4.069   1.017  0.00  0.00    -0.007 A 
ATOM      6  C5  UNL d   1      -1.853  -3.383   1.386  0.00  0.00     0.039 A 
ENDROOT
BRANCH   4   7
ATOM      7  O   UNL d   1      -4.358  -6.000   1.084  0.00  0.00    -0.526 OA
ATOM      8  H5  UNL d   1      -4.375  -6.882   1.492  0.00  0.00     0.418 HD
ENDBRANCH   4   7
TORSDOF 1
ENDMDL
