MODEL 1
REMARK minimizedAffinity 8.02750683
REMARK minimizedRMSD -1
REMARK  1 active torsions:
REMARK  status: ('A' for Active; 'I' for Inactive)
REMARK    1  A    between atoms: C3_4  and  O_7 
ROOT
ATOM      1  C   UNL d   1      -3.929  -6.000  -2.054  0.00  0.00    -0.033 A 
ATOM      2  C1  UNL d   1      -3.221  -5.473  -3.137  0.00  0.00     0.039 A 
ATOM      3  C2  UNL d   1      -3.903  -4.827  -4.170  0.00  0.00    -0.080 A 
ATOM      4  C3  UNL d   1      -5.289  -4.713  -4.109  0.00  0.00     0.150 A 
ATOM      5  C4  UNL d   1      -5.999  -5.232  -3.031  0.00  0.00    -0.007 A 
ATOM      6  C5  UNL d   1      -5.317  -5.877  -2.000  0.00  0.00     0.039 A 
ENDROOT
BRANCH   4   7
ATOM      7  O   UNL d   1      -5.998  -4.095  -5.095  0.00  0.00    -0.526 OA
ATOM      8  H5  UNL d   1      -5.378  -3.812  -5.789  0.00  0.00     0.418 HD
ENDBRANCH   4   7
TORSDOF 1
ENDMDL
