MODEL 1
REMARK minimizedAffinity -5.21772861
REMARK minimizedRMSD -1
REMARK  1 active torsions:
REMARK  status: ('A' for Active; 'I' for Inactive)
REMARK    1  A    between atoms: C3_4  and  O_7 
ROOT
ATOM      1  C   UNL d   1      -1.876  -0.734  -1.697  0.00  0.00    -0.033 A 
ATOM      2  C1  UNL d   1      -0.607  -0.367  -2.150  0.00  0.00     0.039 A 
ATOM      3  C2  UNL d   1       0.497  -0.472  -1.302  0.00  0.00    -0.080 A 
ATOM      4  C3  UNL d   1       0.319  -0.946  -0.005  0.00  0.00     0.150 A 
ATOM      5  C4  UNL d   1      -0.941  -1.317   0.452  0.00  0.00    -0.007 A 
ATOM      6  C5  UNL d   1      -2.042  -1.210  -0.396  0.00  0.00     0.039 A 
ENDROOT
BRANCH   4   7
ATOM      7  O   UNL d   1       1.366  -1.062   0.861  0.00  0.00    -0.526 OA
ATOM      8  H5  UNL d   1       2.169  -0.742   0.418  0.00  0.00     0.418 HD
ENDBRANCH   4   7
TORSDOF 1
ENDMDL
