MODEL 1
REMARK minimizedAffinity -3.14806485
REMARK minimizedRMSD -1
REMARK  1 active torsions:
REMARK  status: ('A' for Active; 'I' for Inactive)
REMARK    1  A    between atoms: C3_4  and  O_7 
ROOT
ATOM      1  C   UNL d   1       0.537   0.049   0.199  0.00  0.00    -0.033 A 
ATOM      2  C1  UNL d   1      -0.197  -0.531   1.235  0.00  0.00     0.039 A 
ATOM      3  C2  UNL d   1      -1.481  -1.022   0.994  0.00  0.00    -0.080 A 
ATOM      4  C3  UNL d   1      -2.019  -0.928  -0.287  0.00  0.00     0.150 A 
ATOM      5  C4  UNL d   1      -1.292  -0.355  -1.325  0.00  0.00    -0.007 A 
ATOM      6  C5  UNL d   1      -0.010   0.136  -1.082  0.00  0.00     0.039 A 
ENDROOT
BRANCH   4   7
ATOM      7  O   UNL d   1      -3.271  -1.388  -0.570  0.00  0.00    -0.526 OA
ATOM      8  H5  UNL d   1      -3.665  -1.732   0.250  0.00  0.00     0.418 HD
ENDBRANCH   4   7
TORSDOF 1
ENDMDL
