MODEL 1
REMARK minimizedAffinity -3.54226923
REMARK minimizedRMSD -1
REMARK  1 active torsions:
REMARK  status: ('A' for Active; 'I' for Inactive)
REMARK    1  A    between atoms: C3_4  and  O_7 
ROOT
ATOM      1  C   UNL d   1      -2.603  -2.790  -0.939  0.00  0.00    -0.033 A 
ATOM      2  C1  UNL d   1      -2.357  -1.868  -1.958  0.00  0.00     0.039 A 
ATOM      3  C2  UNL d   1      -1.655  -0.692  -1.683  0.00  0.00    -0.080 A 
ATOM      4  C3  UNL d   1      -1.206  -0.451  -0.388  0.00  0.00     0.150 A 
ATOM      5  C4  UNL d   1      -1.444  -1.368   0.631  0.00  0.00    -0.007 A 
ATOM      6  C5  UNL d   1      -2.145  -2.541   0.355  0.00  0.00     0.039 A 
ENDROOT
BRANCH   4   7
ATOM      7  O   UNL d   1      -0.521   0.684  -0.071  0.00  0.00    -0.526 OA
ATOM      8  H5  UNL d   1      -0.456   1.237  -0.868  0.00  0.00     0.418 HD
ENDBRANCH   4   7
TORSDOF 1
ENDMDL
