MODEL 1
REMARK minimizedAffinity -3.81466269
REMARK minimizedRMSD -1
REMARK  1 active torsions:
REMARK  status: ('A' for Active; 'I' for Inactive)
REMARK    1  A    between atoms: C3_4  and  O_7 
ROOT
ATOM      1  C   UNL d   1      -0.381   0.485  -1.344  0.00  0.00    -0.033 A 
ATOM      2  C1  UNL d   1       0.732   0.441  -0.502  0.00  0.00     0.039 A 
ATOM      3  C2  UNL d   1       0.834  -0.552   0.474  0.00  0.00    -0.080 A 
ATOM      4  C3  UNL d   1      -0.183  -1.494   0.598  0.00  0.00     0.150 A 
ATOM      5  C4  UNL d   1      -1.293  -1.459  -0.240  0.00  0.00    -0.007 A 
ATOM      6  C5  UNL d   1      -1.393  -0.467  -1.213  0.00  0.00     0.039 A 
ENDROOT
BRANCH   4   7
ATOM      7  O   UNL d   1      -0.131  -2.479   1.539  0.00  0.00    -0.526 OA
ATOM      8  H5  UNL d   1       0.678  -2.362   2.063  0.00  0.00     0.418 HD
ENDBRANCH   4   7
TORSDOF 1
ENDMDL
