MODEL 1
REMARK minimizedAffinity -4.94071865
REMARK minimizedRMSD -1
REMARK  1 active torsions:
REMARK  status: ('A' for Active; 'I' for Inactive)
REMARK    1  A    between atoms: C3_4  and  O_7 
ROOT
ATOM      1  C   UNL d   1      -1.563  -1.109   1.099  0.00  0.00    -0.033 A 
ATOM      2  C1  UNL d   1      -0.801  -0.336   0.220  0.00  0.00     0.039 A 
ATOM      3  C2  UNL d   1      -1.102  -0.325  -1.143  0.00  0.00    -0.080 A 
ATOM      4  C3  UNL d   1      -2.167  -1.089  -1.614  0.00  0.00     0.150 A 
ATOM      5  C4  UNL d   1      -2.932  -1.858  -0.744  0.00  0.00    -0.007 A 
ATOM      6  C5  UNL d   1      -2.629  -1.869   0.616  0.00  0.00     0.039 A 
ENDROOT
BRANCH   4   7
ATOM      7  O   UNL d   1      -2.496  -1.113  -2.937  0.00  0.00    -0.526 OA
ATOM      8  H5  UNL d   1      -1.863  -0.557  -3.422  0.00  0.00     0.418 HD
ENDBRANCH   4   7
TORSDOF 1
ENDMDL
