MODEL 1
REMARK minimizedAffinity -4.42175198
REMARK minimizedRMSD -1
REMARK  1 active torsions:
REMARK  status: ('A' for Active; 'I' for Inactive)
REMARK    1  A    between atoms: C3_4  and  O_7 
ROOT
ATOM      1  C   UNL d   1      -2.551  -2.573   0.928  0.00  0.00    -0.033 A 
ATOM      2  C1  UNL d   1      -3.370  -1.572   0.401  0.00  0.00     0.039 A 
ATOM      3  C2  UNL d   1      -2.845  -0.306   0.134  0.00  0.00    -0.080 A 
ATOM      4  C3  UNL d   1      -1.502  -0.054   0.397  0.00  0.00     0.150 A 
ATOM      5  C4  UNL d   1      -0.679  -1.047   0.919  0.00  0.00    -0.007 A 
ATOM      6  C5  UNL d   1      -1.205  -2.310   1.186  0.00  0.00     0.039 A 
ENDROOT
BRANCH   4   7
ATOM      7  O   UNL d   1      -0.946   1.167   0.157  0.00  0.00    -0.526 OA
ATOM      8  H5  UNL d   1      -1.639   1.761  -0.175  0.00  0.00     0.418 HD
ENDBRANCH   4   7
TORSDOF 1
ENDMDL
