MODEL 1
REMARK minimizedAffinity -4.92614651
REMARK minimizedRMSD -1
REMARK  1 active torsions:
REMARK  status: ('A' for Active; 'I' for Inactive)
REMARK    1  A    between atoms: C3_4  and  O_7 
ROOT
ATOM      1  C   UNL d   1       0.676   0.506   0.483  0.00  0.00    -0.033 A 
ATOM      2  C1  UNL d   1       0.009   1.629  -0.011  0.00  0.00     0.039 A 
ATOM      3  C2  UNL d   1       0.597   2.891   0.086  0.00  0.00    -0.080 A 
ATOM      4  C3  UNL d   1       1.851   3.018   0.676  0.00  0.00     0.150 A 
ATOM      5  C4  UNL d   1       2.523   1.903   1.167  0.00  0.00    -0.007 A 
ATOM      6  C5  UNL d   1       1.934   0.643   1.071  0.00  0.00     0.039 A 
ENDROOT
BRANCH   4   7
ATOM      7  O   UNL d   1       2.463   4.230   0.798  0.00  0.00    -0.526 OA
ATOM      8  H5  UNL d   1       1.869   4.911   0.441  0.00  0.00     0.418 HD
ENDBRANCH   4   7
TORSDOF 1
ENDMDL
