MODEL 1
REMARK minimizedAffinity -4.17558479
REMARK minimizedRMSD -1
REMARK  1 active torsions:
REMARK  status: ('A' for Active; 'I' for Inactive)
REMARK    1  A    between atoms: C3_4  and  O_7 
ROOT
ATOM      1  C   UNL d   1      -3.119  -1.538  -0.861  0.00  0.00    -0.033 A 
ATOM      2  C1  UNL d   1      -2.577  -0.500  -1.620  0.00  0.00     0.039 A 
ATOM      3  C2  UNL d   1      -1.380   0.103  -1.228  0.00  0.00    -0.080 A 
ATOM      4  C3  UNL d   1      -0.737  -0.342  -0.076  0.00  0.00     0.150 A 
ATOM      5  C4  UNL d   1      -1.270  -1.378   0.683  0.00  0.00    -0.007 A 
ATOM      6  C5  UNL d   1      -2.465  -1.979   0.290  0.00  0.00     0.039 A 
ENDROOT
BRANCH   4   7
ATOM      7  O   UNL d   1       0.431   0.219   0.350  0.00  0.00    -0.526 OA
ATOM      8  H5  UNL d   1       0.664   0.942  -0.257  0.00  0.00     0.418 HD
ENDBRANCH   4   7
TORSDOF 1
ENDMDL
