MODEL 1
REMARK minimizedAffinity -4.21016884
REMARK minimizedRMSD -1
REMARK  1 active torsions:
REMARK  status: ('A' for Active; 'I' for Inactive)
REMARK    1  A    between atoms: C3_4  and  O_7 
ROOT
ATOM      1  C   UNL d   1      -2.795  -0.807  -1.179  0.00  0.00    -0.033 A 
ATOM      2  C1  UNL d   1      -2.146   0.080  -2.040  0.00  0.00     0.039 A 
ATOM      3  C2  UNL d   1      -0.873   0.558  -1.723  0.00  0.00    -0.080 A 
ATOM      4  C3  UNL d   1      -0.261   0.141  -0.544  0.00  0.00     0.150 A 
ATOM      5  C4  UNL d   1      -0.901  -0.745   0.317  0.00  0.00    -0.007 A 
ATOM      6  C5  UNL d   1      -2.172  -1.221  -0.002  0.00  0.00     0.039 A 
ENDROOT
BRANCH   4   7
ATOM      7  O   UNL d   1       0.979   0.584  -0.189  0.00  0.00    -0.526 OA
ATOM      8  H5  UNL d   1       1.286   1.212  -0.864  0.00  0.00     0.418 HD
ENDBRANCH   4   7
TORSDOF 1
ENDMDL
