MODEL 1
REMARK minimizedAffinity -3.19044971
REMARK minimizedRMSD -1
REMARK  1 active torsions:
REMARK  status: ('A' for Active; 'I' for Inactive)
REMARK    1  A    between atoms: C3_4  and  O_7 
ROOT
ATOM      1  C   UNL d   1      -1.935   0.981   1.102  0.00  0.00    -0.033 A 
ATOM      2  C1  UNL d   1      -0.590   1.209   0.805  0.00  0.00     0.039 A 
ATOM      3  C2  UNL d   1       0.333   0.165   0.898  0.00  0.00    -0.080 A 
ATOM      4  C3  UNL d   1      -0.101  -1.099   1.287  0.00  0.00     0.150 A 
ATOM      5  C4  UNL d   1      -1.441  -1.333   1.581  0.00  0.00    -0.007 A 
ATOM      6  C5  UNL d   1      -2.361  -0.290   1.489  0.00  0.00     0.039 A 
ENDROOT
BRANCH   4   7
ATOM      7  O   UNL d   1       0.763  -2.147   1.397  0.00  0.00    -0.526 OA
ATOM      8  H5  UNL d   1       1.659  -1.830   1.191  0.00  0.00     0.418 HD
ENDBRANCH   4   7
TORSDOF 1
ENDMDL
