MODEL 1
REMARK minimizedAffinity -4.56242275
REMARK minimizedRMSD -1
REMARK  1 active torsions:
REMARK  status: ('A' for Active; 'I' for Inactive)
REMARK    1  A    between atoms: C3_4  and  O_7 
ROOT
ATOM      1  C   UNL d   1      -1.170   0.046   1.338  0.00  0.00    -0.033 A 
ATOM      2  C1  UNL d   1      -2.499  -0.262   1.044  0.00  0.00     0.039 A 
ATOM      3  C2  UNL d   1      -2.884  -0.518  -0.273  0.00  0.00    -0.080 A 
ATOM      4  C3  UNL d   1      -1.931  -0.464  -1.286  0.00  0.00     0.150 A 
ATOM      5  C4  UNL d   1      -0.604  -0.162  -1.000  0.00  0.00    -0.007 A 
ATOM      6  C5  UNL d   1      -0.221   0.095   0.316  0.00  0.00     0.039 A 
ENDROOT
BRANCH   4   7
ATOM      7  O   UNL d   1      -2.260  -0.702  -2.588  0.00  0.00    -0.526 OA
ATOM      8  H5  UNL d   1      -3.216  -0.869  -2.638  0.00  0.00     0.418 HD
ENDBRANCH   4   7
TORSDOF 1
ENDMDL
