MODEL 1
REMARK minimizedAffinity -4.12861681
REMARK minimizedRMSD -1
REMARK  1 active torsions:
REMARK  status: ('A' for Active; 'I' for Inactive)
REMARK    1  A    between atoms: C3_4  and  O_7 
ROOT
ATOM      1  C   UNL d   1       4.092   3.502   0.163  0.00  0.00    -0.033 A 
ATOM      2  C1  UNL d   1       3.654   3.031   1.402  0.00  0.00     0.039 A 
ATOM      3  C2  UNL d   1       2.841   1.897   1.473  0.00  0.00    -0.080 A 
ATOM      4  C3  UNL d   1       2.475   1.244   0.300  0.00  0.00     0.150 A 
ATOM      5  C4  UNL d   1       2.911   1.706  -0.938  0.00  0.00    -0.007 A 
ATOM      6  C5  UNL d   1       3.721   2.838  -1.007  0.00  0.00     0.039 A 
ENDROOT
BRANCH   4   7
ATOM      7  O   UNL d   1       1.680   0.137   0.319  0.00  0.00    -0.526 OA
ATOM      8  H5  UNL d   1       1.433  -0.048   1.240  0.00  0.00     0.418 HD
ENDBRANCH   4   7
TORSDOF 1
ENDMDL
