MODEL 1
REMARK minimizedAffinity -4.60877514
REMARK minimizedRMSD -1
REMARK  1 active torsions:
REMARK  status: ('A' for Active; 'I' for Inactive)
REMARK    1  A    between atoms: C3_4  and  O_7 
ROOT
ATOM      1  C   UNL d   1      -0.065  -0.073  -1.271  0.00  0.00    -0.033 A 
ATOM      2  C1  UNL d   1      -1.029  -0.133  -2.280  0.00  0.00     0.039 A 
ATOM      3  C2  UNL d   1      -2.378  -0.274  -1.952  0.00  0.00    -0.080 A 
ATOM      4  C3  UNL d   1      -2.751  -0.352  -0.613  0.00  0.00     0.150 A 
ATOM      5  C4  UNL d   1      -1.797  -0.289   0.398  0.00  0.00    -0.007 A 
ATOM      6  C5  UNL d   1      -0.450  -0.149   0.068  0.00  0.00     0.039 A 
ENDROOT
BRANCH   4   7
ATOM      7  O   UNL d   1      -4.056  -0.494  -0.243  0.00  0.00    -0.526 OA
ATOM      8  H5  UNL d   1      -4.599  -0.552  -1.047  0.00  0.00     0.418 HD
ENDBRANCH   4   7
TORSDOF 1
ENDMDL
