MODEL 1
REMARK minimizedAffinity -5.53188324
REMARK minimizedRMSD -1
REMARK  1 active torsions:
REMARK  status: ('A' for Active; 'I' for Inactive)
REMARK    1  A    between atoms: C3_4  and  O_7 
ROOT
ATOM      1  C   UNL d   1       0.383  -0.111  -0.343  0.00  0.00    -0.033 A 
ATOM      2  C1  UNL d   1      -0.298  -0.261  -1.553  0.00  0.00     0.039 A 
ATOM      3  C2  UNL d   1      -1.689  -0.377  -1.564  0.00  0.00    -0.080 A 
ATOM      4  C3  UNL d   1      -2.387  -0.342  -0.360  0.00  0.00     0.150 A 
ATOM      5  C4  UNL d   1      -1.716  -0.189   0.849  0.00  0.00    -0.007 A 
ATOM      6  C5  UNL d   1      -0.326  -0.074   0.858  0.00  0.00     0.039 A 
ENDROOT
BRANCH   4   7
ATOM      7  O   UNL d   1      -3.745  -0.457  -0.319  0.00  0.00    -0.526 OA
ATOM      8  H5  UNL d   1      -4.070  -0.585  -1.226  0.00  0.00     0.418 HD
ENDBRANCH   4   7
TORSDOF 1
ENDMDL
