MODEL 1
REMARK minimizedAffinity -1.63364637
REMARK minimizedRMSD -1
REMARK  0 active torsions:
REMARK  status: ('A' for Active; 'I' for Inactive)
ROOT
ATOM      1  O1  BZF d   1      -1.832   1.211   0.194  0.00  0.00    -0.204 OA
ATOM      2  C2  BZF d   1      -1.119   0.592  -0.814  0.00  0.00     0.174 A 
ATOM      3  C3  BZF d   1       0.147   0.341  -0.421  0.00  0.00    -0.012 A 
ATOM      4  C3A BZF d   1       0.203   0.751   0.949  0.00  0.00    -0.107 A 
ATOM      5  C4  BZF d   1       1.190   0.737   1.893  0.00  0.00     0.055 A 
ATOM      6  C5  BZF d   1       0.942   1.276   3.115  0.00  0.00    -0.016 A 
ATOM      7  C6  BZF d   1      -0.278   1.842   3.425  0.00  0.00     0.022 A 
ATOM      8  C7  BZF d   1      -1.289   1.874   2.524  0.00  0.00     0.029 A 
ATOM      9  C7A BZF d   1      -1.052   1.300   1.298  0.00  0.00     0.058 A 
ENDROOT
TORSDOF 0
ENDMDL
