MODEL 1
REMARK minimizedAffinity -2.6114285
REMARK minimizedRMSD -1
REMARK  0 active torsions:
REMARK  status: ('A' for Active; 'I' for Inactive)
ROOT
ATOM      1  O1  BZF d   1      -2.212   1.274   1.335  0.00  0.00    -0.204 OA
ATOM      2  C2  BZF d   1      -1.195   0.371   1.090  0.00  0.00     0.174 A 
ATOM      3  C3  BZF d   1      -0.184   0.540   1.966  0.00  0.00    -0.012 A 
ATOM      4  C3A BZF d   1      -0.634   1.555   2.869  0.00  0.00    -0.107 A 
ATOM      5  C4  BZF d   1      -0.079   2.148   3.967  0.00  0.00     0.055 A 
ATOM      6  C5  BZF d   1      -0.749   3.158   4.582  0.00  0.00    -0.016 A 
ATOM      7  C6  BZF d   1      -1.971   3.603   4.123  0.00  0.00     0.022 A 
ATOM      8  C7  BZF d   1      -2.564   3.042   3.041  0.00  0.00     0.029 A 
ATOM      9  C7A BZF d   1      -1.905   2.000   2.437  0.00  0.00     0.058 A 
ENDROOT
TORSDOF 0
ENDMDL
