MODEL 1
REMARK minimizedAffinity -2.35323977
REMARK minimizedRMSD -1
REMARK  0 active torsions:
REMARK  status: ('A' for Active; 'I' for Inactive)
ROOT
ATOM      1  O1  BZF d   1       0.544   0.049  -0.674  0.00  0.00    -0.204 OA
ATOM      2  C2  BZF d   1       0.296  -1.168  -1.279  0.00  0.00     0.174 A 
ATOM      3  C3  BZF d   1      -0.184  -2.057  -0.386  0.00  0.00    -0.012 A 
ATOM      4  C3A BZF d   1      -0.325  -1.325   0.835  0.00  0.00    -0.107 A 
ATOM      5  C4  BZF d   1      -0.770  -1.657   2.083  0.00  0.00     0.055 A 
ATOM      6  C5  BZF d   1      -0.711  -0.729   3.074  0.00  0.00    -0.016 A 
ATOM      7  C6  BZF d   1      -0.209   0.537   2.854  0.00  0.00     0.022 A 
ATOM      8  C7  BZF d   1       0.239   0.914   1.632  0.00  0.00     0.029 A 
ATOM      9  C7A BZF d   1       0.151  -0.011   0.620  0.00  0.00     0.058 A 
ENDROOT
TORSDOF 0
ENDMDL
