MODEL 1
REMARK minimizedAffinity -4.7189393
REMARK minimizedRMSD -1
REMARK  0 active torsions:
REMARK  status: ('A' for Active; 'I' for Inactive)
ROOT
ATOM      1  O1  BZF d   1      -0.244   0.309  -1.491  0.00  0.00    -0.204 OA
ATOM      2  C2  BZF d   1       0.820  -0.475  -1.893  0.00  0.00     0.174 A 
ATOM      3  C3  BZF d   1       1.367  -1.116  -0.840  0.00  0.00    -0.012 A 
ATOM      4  C3A BZF d   1       0.539  -0.779   0.277  0.00  0.00    -0.107 A 
ATOM      5  C4  BZF d   1       0.560  -1.122   1.599  0.00  0.00     0.055 A 
ATOM      6  C5  BZF d   1      -0.348  -0.562   2.441  0.00  0.00    -0.016 A 
ATOM      7  C6  BZF d   1      -1.287   0.346   1.997  0.00  0.00     0.022 A 
ATOM      8  C7  BZF d   1      -1.350   0.713   0.694  0.00  0.00     0.029 A 
ATOM      9  C7A BZF d   1      -0.455   0.125  -0.166  0.00  0.00     0.058 A 
ENDROOT
TORSDOF 0
ENDMDL
