MODEL 1
REMARK minimizedAffinity -1.13930595
REMARK minimizedRMSD -1
REMARK  0 active torsions:
REMARK  status: ('A' for Active; 'I' for Inactive)
ROOT
ATOM      1  O1  BZF d   1       0.211   0.671   3.097  0.00  0.00    -0.204 OA
ATOM      2  C2  BZF d   1      -0.857   0.014   3.676  0.00  0.00     0.174 A 
ATOM      3  C3  BZF d   1      -1.598  -0.612   2.739  0.00  0.00    -0.012 A 
ATOM      4  C3A BZF d   1      -0.900  -0.406   1.507  0.00  0.00    -0.107 A 
ATOM      5  C4  BZF d   1      -1.131  -0.799   0.220  0.00  0.00     0.055 A 
ATOM      6  C5  BZF d   1      -0.296  -0.368  -0.762  0.00  0.00    -0.016 A 
ATOM      7  C6  BZF d   1       0.775   0.460  -0.493  0.00  0.00     0.022 A 
ATOM      8  C7  BZF d   1       1.047   0.872   0.769  0.00  0.00     0.029 A 
ATOM      9  C7A BZF d   1       0.224   0.412   1.768  0.00  0.00     0.058 A 
ENDROOT
TORSDOF 0
ENDMDL
