MODEL 1
REMARK minimizedAffinity -4.69906807
REMARK minimizedRMSD -1
REMARK  0 active torsions:
REMARK  status: ('A' for Active; 'I' for Inactive)
ROOT
ATOM      1  O1  BZF d   1       1.493  -0.418  -1.201  0.00  0.00    -0.204 OA
ATOM      2  C2  BZF d   1       0.467  -0.013  -2.034  0.00  0.00     0.174 A 
ATOM      3  C3  BZF d   1      -0.683   0.124  -1.344  0.00  0.00    -0.012 A 
ATOM      4  C3A BZF d   1      -0.336  -0.126   0.021  0.00  0.00    -0.107 A 
ATOM      5  C4  BZF d   1      -1.048  -0.123   1.187  0.00  0.00     0.055 A 
ATOM      6  C5  BZF d   1      -0.426  -0.481   2.341  0.00  0.00    -0.016 A 
ATOM      7  C6  BZF d   1       0.902  -0.853   2.365  0.00  0.00     0.022 A 
ATOM      8  C7  BZF d   1       1.650  -0.866   1.235  0.00  0.00     0.029 A 
ATOM      9  C7A BZF d   1       1.034  -0.472   0.073  0.00  0.00     0.058 A 
ENDROOT
TORSDOF 0
ENDMDL
