MODEL 1
REMARK minimizedAffinity -2.62053943
REMARK minimizedRMSD -1
REMARK  0 active torsions:
REMARK  status: ('A' for Active; 'I' for Inactive)
ROOT
ATOM      1  O1  BZF d   1      -0.374   0.446  -1.454  0.00  0.00    -0.204 OA
ATOM      2  C2  BZF d   1       0.692  -0.316  -1.016  0.00  0.00     0.174 A 
ATOM      3  C3  BZF d   1       0.333  -1.082   0.034  0.00  0.00    -0.012 A 
ATOM      4  C3A BZF d   1      -1.068  -0.849   0.208  0.00  0.00    -0.107 A 
ATOM      5  C4  BZF d   1      -1.999  -1.335   1.081  0.00  0.00     0.055 A 
ATOM      6  C5  BZF d   1      -3.267  -0.849   1.032  0.00  0.00    -0.016 A 
ATOM      7  C6  BZF d   1      -3.637   0.126   0.129  0.00  0.00     0.022 A 
ATOM      8  C7  BZF d   1      -2.750   0.635  -0.760  0.00  0.00     0.029 A 
ATOM      9  C7A BZF d   1      -1.476   0.122  -0.735  0.00  0.00     0.058 A 
ENDROOT
TORSDOF 0
ENDMDL
