MODEL 1
REMARK minimizedAffinity -4.23078156
REMARK minimizedRMSD -1
REMARK  0 active torsions:
REMARK  status: ('A' for Active; 'I' for Inactive)
ROOT
ATOM      1  O1  BZF d   1      -0.583   0.202  -0.371  0.00  0.00    -0.204 OA
ATOM      2  C2  BZF d   1       0.786   0.372  -0.295  0.00  0.00     0.174 A 
ATOM      3  C3  BZF d   1       1.201   0.344   0.988  0.00  0.00    -0.012 A 
ATOM      4  C3A BZF d   1       0.029   0.052   1.756  0.00  0.00    -0.107 A 
ATOM      5  C4  BZF d   1      -0.199  -0.120   3.092  0.00  0.00     0.055 A 
ATOM      6  C5  BZF d   1      -1.472  -0.322   3.523  0.00  0.00    -0.016 A 
ATOM      7  C6  BZF d   1      -2.539  -0.353   2.649  0.00  0.00     0.022 A 
ATOM      8  C7  BZF d   1      -2.361  -0.192   1.315  0.00  0.00     0.029 A 
ATOM      9  C7A BZF d   1      -1.072  -0.021   0.872  0.00  0.00     0.058 A 
ENDROOT
TORSDOF 0
ENDMDL
