MODEL 1
REMARK minimizedAffinity -4.53378868
REMARK minimizedRMSD -1
REMARK  0 active torsions:
REMARK  status: ('A' for Active; 'I' for Inactive)
ROOT
ATOM      1  O1  BZF d   1      -0.001  -0.694   3.328  0.00  0.00    -0.204 OA
ATOM      2  C2  BZF d   1      -1.323  -1.088   3.246  0.00  0.00     0.174 A 
ATOM      3  C3  BZF d   1      -1.857  -0.723   2.063  0.00  0.00    -0.012 A 
ATOM      4  C3A BZF d   1      -0.778  -0.141   1.325  0.00  0.00    -0.107 A 
ATOM      5  C4  BZF d   1      -0.678   0.395   0.073  0.00  0.00     0.055 A 
ATOM      6  C5  BZF d   1       0.503   0.944  -0.317  0.00  0.00    -0.016 A 
ATOM      7  C6  BZF d   1       1.599   0.978   0.519  0.00  0.00     0.022 A 
ATOM      8  C7  BZF d   1       1.550   0.454   1.767  0.00  0.00     0.029 A 
ATOM      9  C7A BZF d   1       0.368  -0.131   2.153  0.00  0.00     0.058 A 
ENDROOT
TORSDOF 0
ENDMDL
