MODEL 1
REMARK minimizedAffinity -4.8447814
REMARK minimizedRMSD -1
REMARK  0 active torsions:
REMARK  status: ('A' for Active; 'I' for Inactive)
ROOT
ATOM      1  O1  BZF d   1      -0.993   0.800  -0.555  0.00  0.00    -0.204 OA
ATOM      2  C2  BZF d   1      -0.035   0.379  -1.456  0.00  0.00     0.174 A 
ATOM      3  C3  BZF d   1       0.809  -0.502  -0.881  0.00  0.00    -0.012 A 
ATOM      4  C3A BZF d   1       0.294  -0.711   0.437  0.00  0.00    -0.107 A 
ATOM      5  C4  BZF d   1       0.687  -1.491   1.486  0.00  0.00     0.055 A 
ATOM      6  C5  BZF d   1       0.009  -1.409   2.661  0.00  0.00    -0.016 A 
ATOM      7  C6  BZF d   1      -1.062  -0.556   2.823  0.00  0.00     0.022 A 
ATOM      8  C7  BZF d   1      -1.493   0.234   1.810  0.00  0.00     0.029 A 
ATOM      9  C7A BZF d   1      -0.830   0.130   0.611  0.00  0.00     0.058 A 
ENDROOT
TORSDOF 0
ENDMDL
