MODEL 1
REMARK minimizedAffinity -5.10986423
REMARK minimizedRMSD -1
REMARK  0 active torsions:
REMARK  status: ('A' for Active; 'I' for Inactive)
ROOT
ATOM      1  O1  BZF d   1       1.194   0.452  -1.001  0.00  0.00    -0.204 OA
ATOM      2  C2  BZF d   1       0.184   0.166  -1.899  0.00  0.00     0.174 A 
ATOM      3  C3  BZF d   1      -0.946  -0.187  -1.252  0.00  0.00    -0.012 A 
ATOM      4  C3A BZF d   1      -0.648  -0.028   0.139  0.00  0.00    -0.107 A 
ATOM      5  C4  BZF d   1      -1.374  -0.208   1.281  0.00  0.00     0.055 A 
ATOM      6  C5  BZF d   1      -0.767  -0.037   2.484  0.00  0.00    -0.016 A 
ATOM      7  C6  BZF d   1       0.565   0.309   2.582  0.00  0.00     0.022 A 
ATOM      8  C7  BZF d   1       1.325   0.504   1.477  0.00  0.00     0.029 A 
ATOM      9  C7A BZF d   1       0.705   0.364   0.260  0.00  0.00     0.058 A 
ENDROOT
TORSDOF 0
ENDMDL
