MODEL 1
REMARK minimizedAffinity -2.87981987
REMARK minimizedRMSD -1
REMARK  0 active torsions:
REMARK  status: ('A' for Active; 'I' for Inactive)
ROOT
ATOM      1  O1  BZF d   1       1.901  -0.056   0.086  0.00  0.00    -0.204 OA
ATOM      2  C2  BZF d   1       0.628   0.333   0.458  0.00  0.00     0.174 A 
ATOM      3  C3  BZF d   1      -0.280  -0.064  -0.456  0.00  0.00    -0.012 A 
ATOM      4  C3A BZF d   1       0.461  -0.823  -1.417  0.00  0.00    -0.107 A 
ATOM      5  C4  BZF d   1       0.112  -1.492  -2.555  0.00  0.00     0.055 A 
ATOM      6  C5  BZF d   1       1.086  -2.070  -3.306  0.00  0.00    -0.016 A 
ATOM      7  C6  BZF d   1       2.417  -1.994  -2.952  0.00  0.00     0.022 A 
ATOM      8  C7  BZF d   1       2.811  -1.345  -1.829  0.00  0.00     0.029 A 
ATOM      9  C7A BZF d   1       1.826  -0.788  -1.051  0.00  0.00     0.058 A 
ENDROOT
TORSDOF 0
ENDMDL
