MODEL 1
REMARK minimizedAffinity -0.694214463
REMARK minimizedRMSD -1
REMARK  0 active torsions:
REMARK  status: ('A' for Active; 'I' for Inactive)
ROOT
ATOM      1  O1  BZF d   1      -2.191   0.200   1.391  0.00  0.00    -0.204 OA
ATOM      2  C2  BZF d   1      -2.345   0.143   0.019  0.00  0.00     0.174 A 
ATOM      3  C3  BZF d   1      -1.145   0.092  -0.595  0.00  0.00    -0.012 A 
ATOM      4  C3A BZF d   1      -0.184   0.025   0.462  0.00  0.00    -0.107 A 
ATOM      5  C4  BZF d   1       1.179  -0.059   0.488  0.00  0.00     0.055 A 
ATOM      6  C5  BZF d   1       1.820  -0.032   1.686  0.00  0.00    -0.016 A 
ATOM      7  C6  BZF d   1       1.131   0.084   2.876  0.00  0.00     0.022 A 
ATOM      8  C7  BZF d   1      -0.222   0.166   2.901  0.00  0.00     0.029 A 
ATOM      9  C7A BZF d   1      -0.874   0.106   1.694  0.00  0.00     0.058 A 
ENDROOT
TORSDOF 0
ENDMDL
