MODEL 1
REMARK minimizedAffinity 1.69856989
REMARK minimizedRMSD -1
REMARK  0 active torsions:
REMARK  status: ('A' for Active; 'I' for Inactive)
ROOT
ATOM      1  O1  BZF d   1      -0.941   0.262   2.379  0.00  0.00    -0.204 OA
ATOM      2  C2  BZF d   1       0.123   0.392   3.250  0.00  0.00     0.174 A 
ATOM      3  C3  BZF d   1       1.282   0.525   2.572  0.00  0.00    -0.012 A 
ATOM      4  C3A BZF d   1       0.908   0.568   1.192  0.00  0.00    -0.107 A 
ATOM      5  C4  BZF d   1       1.615   0.704   0.031  0.00  0.00     0.055 A 
ATOM      6  C5  BZF d   1       0.957   0.633  -1.155  0.00  0.00    -0.016 A 
ATOM      7  C6  BZF d   1      -0.405   0.421  -1.219  0.00  0.00     0.022 A 
ATOM      8  C7  BZF d   1      -1.150   0.285  -0.094  0.00  0.00     0.029 A 
ATOM      9  C7A BZF d   1      -0.492   0.390   1.107  0.00  0.00     0.058 A 
ENDROOT
TORSDOF 0
ENDMDL
