MODEL 1
REMARK minimizedAffinity -4.42894888
REMARK minimizedRMSD -1
REMARK  0 active torsions:
REMARK  status: ('A' for Active; 'I' for Inactive)
ROOT
ATOM      1  O1  BZF d   1      -1.159  -0.835  -0.667  0.00  0.00    -0.204 OA
ATOM      2  C2  BZF d   1      -0.365  -0.493  -1.744  0.00  0.00     0.174 A 
ATOM      3  C3  BZF d   1       0.724   0.191  -1.339  0.00  0.00    -0.012 A 
ATOM      4  C3A BZF d   1       0.650   0.203   0.090  0.00  0.00    -0.107 A 
ATOM      5  C4  BZF d   1       1.453   0.718   1.068  0.00  0.00     0.055 A 
ATOM      6  C5  BZF d   1       1.059   0.622   2.365  0.00  0.00    -0.016 A 
ATOM      7  C6  BZF d   1      -0.132   0.023   2.719  0.00  0.00     0.022 A 
ATOM      8  C7  BZF d   1      -0.960  -0.506   1.786  0.00  0.00     0.029 A 
ATOM      9  C7A BZF d   1      -0.549  -0.440   0.477  0.00  0.00     0.058 A 
ENDROOT
TORSDOF 0
ENDMDL
