MODEL 1
REMARK minimizedAffinity -2.39051318
REMARK minimizedRMSD -1
REMARK  0 active torsions:
REMARK  status: ('A' for Active; 'I' for Inactive)
ROOT
ATOM      1  O1  BZF d   1       0.998   1.016  -0.543  0.00  0.00    -0.204 OA
ATOM      2  C2  BZF d   1       0.138   0.339  -1.386  0.00  0.00     0.174 A 
ATOM      3  C3  BZF d   1      -0.681  -0.470  -0.684  0.00  0.00    -0.012 A 
ATOM      4  C3A BZF d   1      -0.373  -0.218   0.690  0.00  0.00    -0.107 A 
ATOM      5  C4  BZF d   1      -0.863  -0.706   1.868  0.00  0.00     0.055 A 
ATOM      6  C5  BZF d   1      -0.294  -0.309   3.036  0.00  0.00    -0.016 A 
ATOM      7  C6  BZF d   1       0.768   0.571   3.063  0.00  0.00     0.022 A 
ATOM      8  C7  BZF d   1       1.286   1.086   1.922  0.00  0.00     0.029 A 
ATOM      9  C7A BZF d   1       0.692   0.712   0.741  0.00  0.00     0.058 A 
ENDROOT
TORSDOF 0
ENDMDL
