MODEL 1
REMARK minimizedAffinity -4.14095879
REMARK minimizedRMSD -1
REMARK  0 active torsions:
REMARK  status: ('A' for Active; 'I' for Inactive)
ROOT
ATOM      1  O1  BZF d   1       1.640  -0.597  -0.356  0.00  0.00    -0.204 OA
ATOM      2  C2  BZF d   1       0.987   0.088  -1.362  0.00  0.00     0.174 A 
ATOM      3  C3  BZF d   1      -0.230   0.498  -0.951  0.00  0.00    -0.012 A 
ATOM      4  C3A BZF d   1      -0.309   0.120   0.427  0.00  0.00    -0.107 A 
ATOM      5  C4  BZF d   1      -1.267   0.268   1.388  0.00  0.00     0.055 A 
ATOM      6  C5  BZF d   1      -1.063  -0.279   2.615  0.00  0.00    -0.016 A 
ATOM      7  C6  BZF d   1       0.085  -0.983   2.914  0.00  0.00     0.022 A 
ATOM      8  C7  BZF d   1       1.066  -1.153   1.995  0.00  0.00     0.029 A 
ATOM      9  C7A BZF d   1       0.877  -0.573   0.764  0.00  0.00     0.058 A 
ENDROOT
TORSDOF 0
ENDMDL
