MODEL 1
REMARK minimizedAffinity -4.46793795
REMARK minimizedRMSD -1
REMARK  0 active torsions:
REMARK  status: ('A' for Active; 'I' for Inactive)
ROOT
ATOM      1  O1  BZF d   1      -2.025   0.211   0.337  0.00  0.00    -0.204 OA
ATOM      2  C2  BZF d   1      -2.816   0.476   1.439  0.00  0.00     0.174 A 
ATOM      3  C3  BZF d   1      -2.077   0.484   2.567  0.00  0.00    -0.012 A 
ATOM      4  C3A BZF d   1      -0.726   0.299   2.134  0.00  0.00    -0.107 A 
ATOM      5  C4  BZF d   1       0.470   0.232   2.790  0.00  0.00     0.055 A 
ATOM      6  C5  BZF d   1       1.598  -0.031   2.081  0.00  0.00    -0.016 A 
ATOM      7  C6  BZF d   1       1.567  -0.238   0.717  0.00  0.00     0.022 A 
ATOM      8  C7  BZF d   1       0.406  -0.178   0.022  0.00  0.00     0.029 A 
ATOM      9  C7A BZF d   1      -0.732   0.121   0.731  0.00  0.00     0.058 A 
ENDROOT
TORSDOF 0
ENDMDL
