MODEL 1
REMARK minimizedAffinity -5.33977938
REMARK minimizedRMSD -1
REMARK  0 active torsions:
REMARK  status: ('A' for Active; 'I' for Inactive)
ROOT
ATOM      1  O1  BZF d   1       0.864  -0.216   2.021  0.00  0.00    -0.204 OA
ATOM      2  C2  BZF d   1       0.068  -0.823   2.973  0.00  0.00     0.174 A 
ATOM      3  C3  BZF d   1      -1.226  -0.811   2.593  0.00  0.00    -0.012 A 
ATOM      4  C3A BZF d   1      -1.228  -0.238   1.282  0.00  0.00    -0.107 A 
ATOM      5  C4  BZF d   1      -2.213   0.026   0.374  0.00  0.00     0.055 A 
ATOM      6  C5  BZF d   1      -1.891   0.659  -0.785  0.00  0.00    -0.016 A 
ATOM      7  C6  BZF d   1      -0.597   1.046  -1.065  0.00  0.00     0.022 A 
ATOM      8  C7  BZF d   1       0.415   0.801  -0.198  0.00  0.00     0.029 A 
ATOM      9  C7A BZF d   1       0.098   0.133   0.960  0.00  0.00     0.058 A 
ENDROOT
TORSDOF 0
ENDMDL
