MODEL 1
REMARK minimizedAffinity -1.10065186
REMARK minimizedRMSD -1
REMARK  0 active torsions:
REMARK  status: ('A' for Active; 'I' for Inactive)
ROOT
ATOM      1  C   UNL d   1      -1.549   1.857   1.524  0.00  0.00     0.124 A 
ATOM      2  C1  UNL d   1      -1.361   1.969   0.153  0.00  0.00     0.062 A 
ATOM      3  C2  UNL d   1      -0.752   0.939  -0.557  0.00  0.00     0.162 A 
ATOM      4  C3  UNL d   1      -0.326  -0.215   0.103  0.00  0.00    -0.034 A 
ATOM      5  C4  UNL d   1      -0.518  -0.320   1.482  0.00  0.00     0.162 A 
ATOM      6  C5  UNL d   1      -1.128   0.713   2.186  0.00  0.00     0.062 A 
ATOM      7  F   UNL d   1      -1.309   0.602   3.511  0.00  0.00    -0.097 F 
ATOM      8  F1  UNL d   1      -0.121  -1.415   2.147  0.00  0.00    -0.096 F 
ATOM      9  I   UNL d   1       0.586  -1.758  -0.955  0.00  0.00    -0.060 I 
ATOM     10  F2  UNL d   1      -0.583   1.074  -1.881  0.00  0.00    -0.096 F 
ATOM     11  F3  UNL d   1      -1.767   3.074  -0.490  0.00  0.00    -0.097 F 
ATOM     12  F4  UNL d   1      -2.135   2.850   2.204  0.00  0.00    -0.092 F 
ENDROOT
TORSDOF 0
ENDMDL
