MODEL 1
REMARK minimizedAffinity -1.71782815
REMARK minimizedRMSD -1
REMARK  0 active torsions:
REMARK  status: ('A' for Active; 'I' for Inactive)
ROOT
ATOM      1  C   UNL d   1      -1.186   1.686   0.247  0.00  0.00     0.124 A 
ATOM      2  C1  UNL d   1       0.032   1.569  -0.408  0.00  0.00     0.062 A 
ATOM      3  C2  UNL d   1       0.473   0.324  -0.849  0.00  0.00     0.162 A 
ATOM      4  C3  UNL d   1      -0.306  -0.813  -0.637  0.00  0.00    -0.034 A 
ATOM      5  C4  UNL d   1      -1.530  -0.687   0.023  0.00  0.00     0.162 A 
ATOM      6  C5  UNL d   1      -1.966   0.559   0.462  0.00  0.00     0.062 A 
ATOM      7  F   UNL d   1      -3.143   0.670   1.094  0.00  0.00    -0.097 F 
ATOM      8  F1  UNL d   1      -2.304  -1.761   0.243  0.00  0.00    -0.096 F 
ATOM      9  I   UNL d   1       0.349  -2.676  -1.295  0.00  0.00    -0.060 I 
ATOM     10  F2  UNL d   1       1.654   0.240  -1.478  0.00  0.00    -0.096 F 
ATOM     11  F3  UNL d   1       0.788   2.657  -0.616  0.00  0.00    -0.097 F 
ATOM     12  F4  UNL d   1      -1.607   2.885   0.671  0.00  0.00    -0.092 F 
ENDROOT
TORSDOF 0
ENDMDL
