MODEL 1
REMARK minimizedAffinity -0.911322713
REMARK minimizedRMSD -1
REMARK  0 active torsions:
REMARK  status: ('A' for Active; 'I' for Inactive)
ROOT
ATOM      1  C   UNL d   1      -1.116   1.763   1.152  0.00  0.00     0.124 A 
ATOM      2  C1  UNL d   1      -0.609   1.764  -0.141  0.00  0.00     0.062 A 
ATOM      3  C2  UNL d   1       0.074   0.652  -0.625  0.00  0.00     0.162 A 
ATOM      4  C3  UNL d   1       0.255  -0.470   0.183  0.00  0.00    -0.034 A 
ATOM      5  C4  UNL d   1      -0.256  -0.463   1.482  0.00  0.00     0.162 A 
ATOM      6  C5  UNL d   1      -0.939   0.650   1.962  0.00  0.00     0.062 A 
ATOM      7  F   UNL d   1      -1.427   0.648   3.210  0.00  0.00    -0.097 F 
ATOM      8  F1  UNL d   1      -0.100  -1.525   2.286  0.00  0.00    -0.096 F 
ATOM      9  I   UNL d   1       1.277  -2.134  -0.537  0.00  0.00    -0.060 I 
ATOM     10  F2  UNL d   1       0.553   0.680  -1.878  0.00  0.00    -0.096 F 
ATOM     11  F3  UNL d   1      -0.778   2.838  -0.925  0.00  0.00    -0.097 F 
ATOM     12  F4  UNL d   1      -1.772   2.834   1.615  0.00  0.00    -0.092 F 
ENDROOT
TORSDOF 0
ENDMDL
