MODEL 1
REMARK minimizedAffinity -2.74722791
REMARK minimizedRMSD -1
REMARK  0 active torsions:
REMARK  status: ('A' for Active; 'I' for Inactive)
ROOT
ATOM      1  C   UNL d   1       0.359   3.095  -0.253  0.00  0.00     0.124 A 
ATOM      2  C1  UNL d   1      -0.604   2.874   0.722  0.00  0.00     0.062 A 
ATOM      3  C2  UNL d   1      -0.853   1.584   1.180  0.00  0.00     0.162 A 
ATOM      4  C3  UNL d   1      -0.137   0.503   0.664  0.00  0.00    -0.034 A 
ATOM      5  C4  UNL d   1       0.829   0.734  -0.317  0.00  0.00     0.162 A 
ATOM      6  C5  UNL d   1       1.074   2.025  -0.771  0.00  0.00     0.062 A 
ATOM      7  F   UNL d   1       2.005   2.237  -1.714  0.00  0.00    -0.097 F 
ATOM      8  F1  UNL d   1       1.536  -0.282  -0.835  0.00  0.00    -0.096 F 
ATOM      9  I   UNL d   1      -0.506  -1.428   1.346  0.00  0.00    -0.060 I 
ATOM     10  F2  UNL d   1      -1.788   1.399   2.123  0.00  0.00    -0.096 F 
ATOM     11  F3  UNL d   1      -1.297   3.906   1.225  0.00  0.00    -0.097 F 
ATOM     12  F4  UNL d   1       0.596   4.338  -0.692  0.00  0.00    -0.092 F 
ENDROOT
TORSDOF 0
ENDMDL
