MODEL 1
REMARK minimizedAffinity -3.20368004
REMARK minimizedRMSD -1
REMARK  0 active torsions:
REMARK  status: ('A' for Active; 'I' for Inactive)
ROOT
ATOM      1  C   UNL d   1      -0.652   0.791   1.355  0.00  0.00     0.124 A 
ATOM      2  C1  UNL d   1       0.381  -0.130   1.248  0.00  0.00     0.062 A 
ATOM      3  C2  UNL d   1       0.612  -0.786   0.042  0.00  0.00     0.162 A 
ATOM      4  C3  UNL d   1      -0.192  -0.523  -1.067  0.00  0.00    -0.034 A 
ATOM      5  C4  UNL d   1      -1.230   0.404  -0.952  0.00  0.00     0.162 A 
ATOM      6  C5  UNL d   1      -1.456   1.056   0.255  0.00  0.00     0.062 A 
ATOM      7  F   UNL d   1      -2.455   1.945   0.357  0.00  0.00    -0.097 F 
ATOM      8  F1  UNL d   1      -2.021   0.680  -1.999  0.00  0.00    -0.096 F 
ATOM      9  I   UNL d   1       0.151  -1.502  -2.872  0.00  0.00    -0.060 I 
ATOM     10  F2  UNL d   1       1.618  -1.670  -0.033  0.00  0.00    -0.096 F 
ATOM     11  F3  UNL d   1       1.159  -0.389   2.309  0.00  0.00    -0.097 F 
ATOM     12  F4  UNL d   1      -0.873   1.420   2.516  0.00  0.00    -0.092 F 
ENDROOT
TORSDOF 0
ENDMDL
