MODEL 1
REMARK minimizedAffinity 6.246984
REMARK minimizedRMSD -1
REMARK  0 active torsions:
REMARK  status: ('A' for Active; 'I' for Inactive)
ROOT
ATOM      1  C   UNL d   1      -0.301   1.938   1.123  0.00  0.00     0.124 A 
ATOM      2  C1  UNL d   1       0.289   1.908  -0.133  0.00  0.00     0.062 A 
ATOM      3  C2  UNL d   1       0.689   0.696  -0.690  0.00  0.00     0.162 A 
ATOM      4  C3  UNL d   1       0.499  -0.496   0.009  0.00  0.00    -0.034 A 
ATOM      5  C4  UNL d   1      -0.094  -0.457   1.273  0.00  0.00     0.162 A 
ATOM      6  C5  UNL d   1      -0.492   0.756   1.825  0.00  0.00     0.062 A 
ATOM      7  F   UNL d   1      -1.061   0.783   3.038  0.00  0.00    -0.097 F 
ATOM      8  F1  UNL d   1      -0.291  -1.585   1.972  0.00  0.00    -0.096 F 
ATOM      9  I   UNL d   1       1.096  -2.309  -0.820  0.00  0.00    -0.060 I 
ATOM     10  F2  UNL d   1       1.256   0.697  -1.905  0.00  0.00    -0.096 F 
ATOM     11  F3  UNL d   1       0.475   3.049  -0.812  0.00  0.00    -0.097 F 
ATOM     12  F4  UNL d   1      -0.684   3.105   1.657  0.00  0.00    -0.092 F 
ENDROOT
TORSDOF 0
ENDMDL
