MODEL 1
REMARK minimizedAffinity 0.202952266
REMARK minimizedRMSD -1
REMARK  0 active torsions:
REMARK  status: ('A' for Active; 'I' for Inactive)
ROOT
ATOM      1  C   UNL d   1      -0.510   2.192   0.685  0.00  0.00     0.124 A 
ATOM      2  C1  UNL d   1       0.426   2.104  -0.337  0.00  0.00     0.062 A 
ATOM      3  C2  UNL d   1       0.849   0.859  -0.793  0.00  0.00     0.162 A 
ATOM      4  C3  UNL d   1       0.336  -0.309  -0.229  0.00  0.00    -0.034 A 
ATOM      5  C4  UNL d   1      -0.604  -0.212   0.798  0.00  0.00     0.162 A 
ATOM      6  C5  UNL d   1      -1.024   1.034   1.251  0.00  0.00     0.062 A 
ATOM      7  F   UNL d   1      -1.928   1.118   2.238  0.00  0.00    -0.097 F 
ATOM      8  F1  UNL d   1      -1.118  -1.315   1.363  0.00  0.00    -0.096 F 
ATOM      9  I   UNL d   1       0.966  -2.172  -0.909  0.00  0.00    -0.060 I 
ATOM     10  F2  UNL d   1       1.755   0.804  -1.781  0.00  0.00    -0.096 F 
ATOM     11  F3  UNL d   1       0.925   3.221  -0.885  0.00  0.00    -0.097 F 
ATOM     12  F4  UNL d   1      -0.914   3.392   1.123  0.00  0.00    -0.092 F 
ENDROOT
TORSDOF 0
ENDMDL
