MODEL 1
REMARK minimizedAffinity -0.00238569011
REMARK minimizedRMSD -1
REMARK  0 active torsions:
REMARK  status: ('A' for Active; 'I' for Inactive)
ROOT
ATOM      1  C   UNL d   1      -0.926   1.898   1.575  0.00  0.00     0.124 A 
ATOM      2  C1  UNL d   1      -1.311   1.663   0.262  0.00  0.00     0.062 A 
ATOM      3  C2  UNL d   1      -0.792   0.577  -0.436  0.00  0.00     0.162 A 
ATOM      4  C3  UNL d   1       0.118  -0.284   0.177  0.00  0.00    -0.034 A 
ATOM      5  C4  UNL d   1       0.501  -0.041   1.498  0.00  0.00     0.162 A 
ATOM      6  C5  UNL d   1      -0.021   1.045   2.191  0.00  0.00     0.062 A 
ATOM      7  F   UNL d   1       0.352   1.270   3.460  0.00  0.00    -0.097 F 
ATOM      8  F1  UNL d   1       1.374  -0.850   2.118  0.00  0.00    -0.096 F 
ATOM      9  I   UNL d   1       0.897  -1.909  -0.863  0.00  0.00    -0.060 I 
ATOM     10  F2  UNL d   1      -1.181   0.375  -1.704  0.00  0.00    -0.096 F 
ATOM     11  F3  UNL d   1      -2.185   2.486  -0.336  0.00  0.00    -0.097 F 
ATOM     12  F4  UNL d   1      -1.427   2.944   2.244  0.00  0.00    -0.092 F 
ENDROOT
TORSDOF 0
ENDMDL
