MODEL 1
REMARK minimizedAffinity -1.94836903
REMARK minimizedRMSD -1
REMARK  0 active torsions:
REMARK  status: ('A' for Active; 'I' for Inactive)
ROOT
ATOM      1  C   UNL d   1      -0.688   2.686   0.695  0.00  0.00     0.124 A 
ATOM      2  C1  UNL d   1      -1.036   1.459   1.243  0.00  0.00     0.062 A 
ATOM      3  C2  UNL d   1      -0.404   0.296   0.813  0.00  0.00     0.162 A 
ATOM      4  C3  UNL d   1       0.583   0.353  -0.171  0.00  0.00    -0.034 A 
ATOM      5  C4  UNL d   1       0.927   1.591  -0.719  0.00  0.00     0.162 A 
ATOM      6  C5  UNL d   1       0.293   2.750  -0.285  0.00  0.00     0.062 A 
ATOM      7  F   UNL d   1       0.630   3.935  -0.816  0.00  0.00    -0.097 F 
ATOM      8  F1  UNL d   1       1.872   1.682  -1.666  0.00  0.00    -0.096 F 
ATOM      9  I   UNL d   1       1.529  -1.384  -0.817  0.00  0.00    -0.060 I 
ATOM     10  F2  UNL d   1      -0.761  -0.876   1.360  0.00  0.00    -0.096 F 
ATOM     11  F3  UNL d   1      -1.984   1.394   2.189  0.00  0.00    -0.097 F 
ATOM     12  F4  UNL d   1      -1.298   3.804   1.110  0.00  0.00    -0.092 F 
ENDROOT
TORSDOF 0
ENDMDL
