MODEL 1
REMARK minimizedAffinity 0.0798554644
REMARK minimizedRMSD -1
REMARK  0 active torsions:
REMARK  status: ('A' for Active; 'I' for Inactive)
ROOT
ATOM      1  C   UNL d   1      -0.762   2.265   1.027  0.00  0.00     0.124 A 
ATOM      2  C1  UNL d   1      -0.129   2.223  -0.208  0.00  0.00     0.062 A 
ATOM      3  C2  UNL d   1       0.338   1.014  -0.715  0.00  0.00     0.162 A 
ATOM      4  C3  UNL d   1       0.173  -0.165   0.012  0.00  0.00    -0.034 A 
ATOM      5  C4  UNL d   1      -0.464  -0.115   1.254  0.00  0.00     0.162 A 
ATOM      6  C5  UNL d   1      -0.929   1.096   1.756  0.00  0.00     0.062 A 
ATOM      7  F   UNL d   1      -1.540   1.134   2.949  0.00  0.00    -0.097 F 
ATOM      8  F1  UNL d   1      -0.639  -1.230   1.979  0.00  0.00    -0.096 F 
ATOM      9  I   UNL d   1       0.869  -1.975  -0.743  0.00  0.00    -0.060 I 
ATOM     10  F2  UNL d   1       0.945   1.004  -1.911  0.00  0.00    -0.096 F 
ATOM     11  F3  UNL d   1       0.034   3.351  -0.914  0.00  0.00    -0.097 F 
ATOM     12  F4  UNL d   1      -1.209   3.430   1.513  0.00  0.00    -0.092 F 
ENDROOT
TORSDOF 0
ENDMDL
