MODEL 1
REMARK minimizedAffinity -1.66810954
REMARK minimizedRMSD -1
REMARK  0 active torsions:
REMARK  status: ('A' for Active; 'I' for Inactive)
ROOT
ATOM      1  C   UNL d   1      -1.263   2.944   0.192  0.00  0.00     0.124 A 
ATOM      2  C1  UNL d   1      -1.627   1.768   0.834  0.00  0.00     0.062 A 
ATOM      3  C2  UNL d   1      -0.976   0.575   0.531  0.00  0.00     0.162 A 
ATOM      4  C3  UNL d   1       0.047   0.552  -0.417  0.00  0.00    -0.034 A 
ATOM      5  C4  UNL d   1       0.407   1.739  -1.058  0.00  0.00     0.162 A 
ATOM      6  C5  UNL d   1      -0.247   2.928  -0.753  0.00  0.00     0.062 A 
ATOM      7  F   UNL d   1       0.106   4.063  -1.373  0.00  0.00    -0.097 F 
ATOM      8  F1  UNL d   1       1.386   1.753  -1.975  0.00  0.00    -0.096 F 
ATOM      9  I   UNL d   1       1.023  -1.229  -0.872  0.00  0.00    -0.060 I 
ATOM     10  F2  UNL d   1      -1.348  -0.546   1.167  0.00  0.00    -0.096 F 
ATOM     11  F3  UNL d   1      -2.609   1.780   1.747  0.00  0.00    -0.097 F 
ATOM     12  F4  UNL d   1      -1.892   4.089   0.485  0.00  0.00    -0.092 F 
ENDROOT
TORSDOF 0
ENDMDL
