MODEL 1
REMARK minimizedAffinity -4.02404165
REMARK minimizedRMSD -1
REMARK  0 active torsions:
REMARK  status: ('A' for Active; 'I' for Inactive)
ROOT
ATOM      1  C   UNL d   1      -0.556   2.802   0.897  0.00  0.00     0.124 A 
ATOM      2  C1  UNL d   1      -0.812   1.584   1.511  0.00  0.00     0.062 A 
ATOM      3  C2  UNL d   1      -0.443   0.395   0.889  0.00  0.00     0.162 A 
ATOM      4  C3  UNL d   1       0.187   0.418  -0.355  0.00  0.00    -0.034 A 
ATOM      5  C4  UNL d   1       0.440   1.646  -0.968  0.00  0.00     0.162 A 
ATOM      6  C5  UNL d   1       0.069   2.832  -0.342  0.00  0.00     0.062 A 
ATOM      7  F   UNL d   1       0.317   4.008  -0.937  0.00  0.00    -0.097 F 
ATOM      8  F1  UNL d   1       1.044   1.705  -2.164  0.00  0.00    -0.096 F 
ATOM      9  I   UNL d   1       0.741  -1.358  -1.289  0.00  0.00    -0.060 I 
ATOM     10  F2  UNL d   1      -0.702  -0.768   1.506  0.00  0.00    -0.096 F 
ATOM     11  F3  UNL d   1      -1.417   1.552   2.707  0.00  0.00    -0.097 F 
ATOM     12  F4  UNL d   1      -0.913   3.944   1.497  0.00  0.00    -0.092 F 
ENDROOT
TORSDOF 0
ENDMDL
