MODEL 1
REMARK minimizedAffinity 3.68662024
REMARK minimizedRMSD -1
REMARK  0 active torsions:
REMARK  status: ('A' for Active; 'I' for Inactive)
ROOT
ATOM      1  C4' PXY d   1       0.885  -0.567   2.904  0.00  0.00     0.077 C 
ATOM      2  C1' PXY d   1       4.118  -4.608   0.330  0.00  0.00     0.077 C 
ATOM      3  C1  PXY d   1       3.268  -3.543   0.993  0.00  0.00    -0.082 A 
ATOM      4  C2  PXY d   1       3.473  -3.240   2.265  0.00  0.00     0.003 A 
ATOM      5  C3  PXY d   1       2.692  -2.302   2.889  0.00  0.00     0.003 A 
ATOM      6  C4  PXY d   1       1.726  -1.629   2.190  0.00  0.00    -0.082 A 
ATOM      7  C5  PXY d   1       1.517  -1.925   0.890  0.00  0.00     0.003 A 
ATOM      8  C6  PXY d   1       2.293  -2.910   0.286  0.00  0.00     0.003 A 
ENDROOT
TORSDOF 0
ENDMDL
