MODEL 1
REMARK minimizedAffinity 7.73733854
REMARK minimizedRMSD -1
REMARK  0 active torsions:
REMARK  status: ('A' for Active; 'I' for Inactive)
ROOT
ATOM      1  C4' PXY d   1      -1.031  -0.488   2.875  0.00  0.00     0.077 C 
ATOM      2  C1' PXY d   1       0.983   4.802   1.702  0.00  0.00     0.077 C 
ATOM      3  C1  PXY d   1       0.443   3.420   2.012  0.00  0.00    -0.082 A 
ATOM      4  C2  PXY d   1       1.277   2.459   2.376  0.00  0.00     0.003 A 
ATOM      5  C3  PXY d   1       0.809   1.195   2.630  0.00  0.00     0.003 A 
ATOM      6  C4  PXY d   1      -0.531   0.925   2.561  0.00  0.00    -0.082 A 
ATOM      7  C5  PXY d   1      -1.389   1.903   2.200  0.00  0.00     0.003 A 
ATOM      8  C6  PXY d   1      -0.890   3.169   1.907  0.00  0.00     0.003 A 
ENDROOT
TORSDOF 0
ENDMDL
