MODEL 1
REMARK minimizedAffinity 2.42492747
REMARK minimizedRMSD -1
REMARK  0 active torsions:
REMARK  status: ('A' for Active; 'I' for Inactive)
ROOT
ATOM      1  C4' PXY d   1       1.990  -3.118   0.875  0.00  0.00     0.077 C 
ATOM      2  C1' PXY d   1       5.175  -2.827   5.691  0.00  0.00     0.077 C 
ATOM      3  C1  PXY d   1       4.349  -2.910   4.422  0.00  0.00    -0.082 A 
ATOM      4  C2  PXY d   1       3.469  -1.961   4.151  0.00  0.00     0.003 A 
ATOM      5  C3  PXY d   1       2.691  -2.037   3.025  0.00  0.00     0.003 A 
ATOM      6  C4  PXY d   1       2.853  -3.069   2.140  0.00  0.00    -0.082 A 
ATOM      7  C5  PXY d   1       3.756  -4.037   2.404  0.00  0.00     0.003 A 
ATOM      8  C6  PXY d   1       4.507  -3.962   3.573  0.00  0.00     0.003 A 
ENDROOT
TORSDOF 0
ENDMDL
