MODEL 1
REMARK minimizedAffinity 7.77248764
REMARK minimizedRMSD -1
REMARK  0 active torsions:
REMARK  status: ('A' for Active; 'I' for Inactive)
ROOT
ATOM      1  C4' PXY d   1      -5.337   0.350  -6.000  0.00  0.00     0.077 C 
ATOM      2  C1' PXY d   1      -3.849   5.808  -4.809  0.00  0.00     0.077 C 
ATOM      3  C1  PXY d   1      -4.227   4.373  -5.121  0.00  0.00    -0.082 A 
ATOM      4  C2  PXY d   1      -5.392   4.113  -5.691  0.00  0.00     0.003 A 
ATOM      5  C3  PXY d   1      -5.763   2.819  -5.952  0.00  0.00     0.003 A 
ATOM      6  C4  PXY d   1      -4.910   1.784  -5.674  0.00  0.00    -0.082 A 
ATOM      7  C5  PXY d   1      -3.715   2.042  -5.102  0.00  0.00     0.003 A 
ATOM      8  C6  PXY d   1      -3.374   3.360  -4.808  0.00  0.00     0.003 A 
ENDROOT
TORSDOF 0
ENDMDL
