MODEL 1
REMARK minimizedAffinity 4.02548695
REMARK minimizedRMSD -1
REMARK  0 active torsions:
REMARK  status: ('A' for Active; 'I' for Inactive)
ROOT
ATOM      1  C4' PXY d   1       1.243  -2.178   1.443  0.00  0.00     0.077 C 
ATOM      2  C1' PXY d   1       5.996  -5.033  -0.192  0.00  0.00     0.077 C 
ATOM      3  C1  PXY d   1       4.743  -4.292   0.230  0.00  0.00    -0.082 A 
ATOM      4  C2  PXY d   1       4.822  -3.020   0.586  0.00  0.00     0.003 A 
ATOM      5  C3  PXY d   1       3.704  -2.345   1.000  0.00  0.00     0.003 A 
ATOM      6  C4  PXY d   1       2.482  -2.962   1.001  0.00  0.00    -0.082 A 
ATOM      7  C5  PXY d   1       2.390  -4.257   0.629  0.00  0.00     0.003 A 
ATOM      8  C6  PXY d   1       3.544  -4.937   0.251  0.00  0.00     0.003 A 
ENDROOT
TORSDOF 0
ENDMDL
