MODEL 1
REMARK minimizedAffinity 17.8045464
REMARK minimizedRMSD -1
REMARK  0 active torsions:
REMARK  status: ('A' for Active; 'I' for Inactive)
ROOT
ATOM      1  C4' PXY d   1      -5.689  -3.230  -3.932  0.00  0.00     0.077 C 
ATOM      2  C1' PXY d   1      -3.026   1.245  -1.422  0.00  0.00     0.077 C 
ATOM      3  C1  PXY d   1      -3.736   0.078  -2.081  0.00  0.00    -0.082 A 
ATOM      4  C2  PXY d   1      -3.279  -1.151  -1.902  0.00  0.00     0.003 A 
ATOM      5  C3  PXY d   1      -3.889  -2.214  -2.516  0.00  0.00     0.003 A 
ATOM      6  C4  PXY d   1      -5.010  -2.023  -3.279  0.00  0.00    -0.082 A 
ATOM      7  C5  PXY d   1      -5.489  -0.774  -3.458  0.00  0.00     0.003 A 
ATOM      8  C6  PXY d   1      -4.830   0.297  -2.859  0.00  0.00     0.003 A 
ENDROOT
TORSDOF 0
ENDMDL
