MODEL 1
REMARK minimizedAffinity 8.98867416
REMARK minimizedRMSD -1
REMARK  0 active torsions:
REMARK  status: ('A' for Active; 'I' for Inactive)
ROOT
ATOM      1  C4' PXY d   1       6.000  -5.969   0.380  0.00  0.00     0.077 C 
ATOM      2  C1' PXY d   1       1.920  -1.927   1.040  0.00  0.00     0.077 C 
ATOM      3  C1  PXY d   1       2.998  -2.978   0.861  0.00  0.00    -0.082 A 
ATOM      4  C2  PXY d   1       2.662  -4.257   0.805  0.00  0.00     0.003 A 
ATOM      5  C3  PXY d   1       3.627  -5.222   0.676  0.00  0.00     0.003 A 
ATOM      6  C4  PXY d   1       4.944  -4.873   0.550  0.00  0.00    -0.082 A 
ATOM      7  C5  PXY d   1       5.294  -3.570   0.595  0.00  0.00     0.003 A 
ATOM      8  C6  PXY d   1       4.304  -2.607   0.768  0.00  0.00     0.003 A 
ENDROOT
TORSDOF 0
ENDMDL
