MODEL 1
REMARK minimizedAffinity 10.5603943
REMARK minimizedRMSD -1
REMARK  2 active torsions:
REMARK  status: ('A' for Active; 'I' for Inactive)
REMARK    1  A    between atoms: C1_2  and  C2_3 
REMARK    2  A    between atoms: C2_3  and  C3_4 
ROOT
ATOM      1  C3  UNL d   1      -2.557   1.915  -0.141  0.00  0.00    -0.075 A 
ATOM      2  C4  UNL d   1      -2.741   1.864  -1.530  0.00  0.00     0.002 A 
ATOM      3  C5  UNL d   1      -2.321   0.752  -2.260  0.00  0.00     0.002 A 
ATOM      4  C6  UNL d   1      -1.704  -0.317  -1.613  0.00  0.00    -0.004 A 
ATOM      5  C7  UNL d   1      -1.501  -0.270  -0.236  0.00  0.00     0.002 A 
ATOM      6  C8  UNL d   1      -1.924   0.840   0.498  0.00  0.00     0.002 A 
ENDROOT
BRANCH   1   7
ATOM      7  C2  UNL d   1      -3.036   3.103   0.659  0.00  0.00     0.056 C 
BRANCH   7   8
ATOM      8  C1  UNL d   1      -4.514   3.033   1.055  0.00  0.00     0.007 C 
ATOM      9  C   UNL d   1      -5.414   3.882   0.168  0.00  0.00     0.009 C 
ENDBRANCH   7   8
ENDBRANCH   1   7
TORSDOF 2
ENDMDL
