MODEL 1
REMARK minimizedAffinity 3.73462224
REMARK minimizedRMSD -1
REMARK  2 active torsions:
REMARK  status: ('A' for Active; 'I' for Inactive)
REMARK    1  A    between atoms: C1_2  and  C2_3 
REMARK    2  A    between atoms: C2_3  and  C3_4 
ROOT
ATOM      1  C3  UNL d   1       4.509  -5.734  -3.467  0.00  0.00    -0.075 A 
ATOM      2  C4  UNL d   1       3.138  -5.989  -3.605  0.00  0.00     0.002 A 
ATOM      3  C5  UNL d   1       2.539  -5.980  -4.866  0.00  0.00     0.002 A 
ATOM      4  C6  UNL d   1       3.301  -5.706  -6.000  0.00  0.00    -0.004 A 
ATOM      5  C7  UNL d   1       4.661  -5.434  -5.872  0.00  0.00     0.002 A 
ATOM      6  C8  UNL d   1       5.263  -5.447  -4.612  0.00  0.00     0.002 A 
ENDROOT
BRANCH   1   7
ATOM      7  C2  UNL d   1       5.169  -5.771  -2.109  0.00  0.00     0.056 C 
BRANCH   7   8
ATOM      8  C1  UNL d   1       4.371  -5.064  -1.008  0.00  0.00     0.007 C 
ATOM      9  C   UNL d   1       3.269  -4.163  -1.550  0.00  0.00     0.009 C 
ENDBRANCH   7   8
ENDBRANCH   1   7
TORSDOF 2
ENDMDL
