MODEL 1
REMARK minimizedAffinity 7.06354284
REMARK minimizedRMSD -1
REMARK  2 active torsions:
REMARK  status: ('A' for Active; 'I' for Inactive)
REMARK    1  A    between atoms: C1_2  and  C2_3 
REMARK    2  A    between atoms: C2_3  and  C3_4 
ROOT
ATOM      1  C3  UNL d   1      -5.310   3.456  -1.925  0.00  0.00    -0.075 A 
ATOM      2  C4  UNL d   1      -5.999   3.637  -3.133  0.00  0.00     0.002 A 
ATOM      3  C5  UNL d   1      -5.624   2.930  -4.276  0.00  0.00     0.002 A 
ATOM      4  C6  UNL d   1      -4.552   2.041  -4.228  0.00  0.00    -0.004 A 
ATOM      5  C7  UNL d   1      -3.850   1.865  -3.038  0.00  0.00     0.002 A 
ATOM      6  C8  UNL d   1      -4.226   2.569  -1.892  0.00  0.00     0.002 A 
ENDROOT
BRANCH   1   7
ATOM      7  C2  UNL d   1      -5.729   4.196  -0.678  0.00  0.00     0.056 C 
BRANCH   7   8
ATOM      8  C1  UNL d   1      -5.980   3.289   0.531  0.00  0.00     0.007 C 
ATOM      9  C   UNL d   1      -4.793   3.214   1.482  0.00  0.00     0.009 C 
ENDBRANCH   7   8
ENDBRANCH   1   7
TORSDOF 2
ENDMDL
