MODEL 1
REMARK minimizedAffinity 3.28821349
REMARK minimizedRMSD -1
REMARK  2 active torsions:
REMARK  status: ('A' for Active; 'I' for Inactive)
REMARK    1  A    between atoms: C1_2  and  C2_3 
REMARK    2  A    between atoms: C2_3  and  C3_4 
ROOT
ATOM      1  C3  UNL d   1      -3.397  -1.815  -3.831  0.00  0.00    -0.075 A 
ATOM      2  C4  UNL d   1      -4.000  -2.727  -2.952  0.00  0.00     0.002 A 
ATOM      3  C5  UNL d   1      -4.588  -3.895  -3.437  0.00  0.00     0.002 A 
ATOM      4  C6  UNL d   1      -4.590  -4.162  -4.804  0.00  0.00    -0.004 A 
ATOM      5  C7  UNL d   1      -4.008  -3.255  -5.688  0.00  0.00     0.002 A 
ATOM      6  C8  UNL d   1      -3.415  -2.088  -5.205  0.00  0.00     0.002 A 
ENDROOT
BRANCH   1   7
ATOM      7  C2  UNL d   1      -2.732  -0.564  -3.309  0.00  0.00     0.056 C 
BRANCH   7   8
ATOM      8  C1  UNL d   1      -3.552   0.713  -3.522  0.00  0.00     0.007 C 
ATOM      9  C   UNL d   1      -3.088   1.877  -2.656  0.00  0.00     0.009 C 
ENDBRANCH   7   8
ENDBRANCH   1   7
TORSDOF 2
ENDMDL
