MODEL 1
REMARK minimizedAffinity -0.191105694
REMARK minimizedRMSD -1
REMARK  2 active torsions:
REMARK  status: ('A' for Active; 'I' for Inactive)
REMARK    1  A    between atoms: C1_2  and  C2_3 
REMARK    2  A    between atoms: C2_3  and  C3_4 
ROOT
ATOM      1  C3  UNL d   1       2.596  -2.522   3.395  0.00  0.00    -0.075 A 
ATOM      2  C4  UNL d   1       1.437  -3.214   3.013  0.00  0.00     0.002 A 
ATOM      3  C5  UNL d   1       0.639  -2.738   1.972  0.00  0.00     0.002 A 
ATOM      4  C6  UNL d   1       0.983  -1.563   1.308  0.00  0.00    -0.004 A 
ATOM      5  C7  UNL d   1       2.123  -0.859   1.690  0.00  0.00     0.002 A 
ATOM      6  C8  UNL d   1       2.926  -1.334   2.728  0.00  0.00     0.002 A 
ENDROOT
BRANCH   1   7
ATOM      7  C2  UNL d   1       3.480  -3.047   4.501  0.00  0.00     0.056 C 
BRANCH   7   8
ATOM      8  C1  UNL d   1       4.813  -2.303   4.641  0.00  0.00     0.007 C 
ATOM      9  C   UNL d   1       5.668  -2.362   3.382  0.00  0.00     0.009 C 
ENDBRANCH   7   8
ENDBRANCH   1   7
TORSDOF 2
ENDMDL
