MODEL 1
REMARK minimizedAffinity -1.15034378
REMARK minimizedRMSD -1
REMARK  2 active torsions:
REMARK  status: ('A' for Active; 'I' for Inactive)
REMARK    1  A    between atoms: C2'_3  and  C1'_4 
REMARK    2  A    between atoms: C1'_4  and  C1_5 
ROOT
ATOM      1  C1  I4B d   1       0.063   0.349  -0.100  0.00  0.00    -0.075 A 
ATOM      2  C2  I4B d   1       1.245   0.226  -0.788  0.00  0.00     0.003 A 
ATOM      3  C3  I4B d   1       2.198  -0.747  -0.401  0.00  0.00     0.002 A 
ATOM      4  C4  I4B d   1       1.953  -1.536   0.704  0.00  0.00    -0.004 A 
ATOM      5  C5  I4B d   1       0.745  -1.426   1.387  0.00  0.00     0.002 A 
ATOM      6  C6  I4B d   1      -0.212  -0.486   0.975  0.00  0.00     0.003 A 
ENDROOT
BRANCH   1   7
ATOM      7  C1' I4B d   1      -0.907   1.408  -0.516  0.00  0.00     0.060 C 
BRANCH   7   8
ATOM      8  C2' I4B d   1      -1.045   1.349  -2.024  0.00  0.00    -0.013 C 
ATOM      9  C4' I4B d   1      -2.357   0.729  -2.427  0.00  0.00     0.013 C 
ATOM     10  C3' I4B d   1      -0.920   2.745  -2.556  0.00  0.00     0.013 C 
ENDBRANCH   7   8
ENDBRANCH   1   7
TORSDOF 2
ENDMDL
