MODEL 1
REMARK minimizedAffinity -2.09709811
REMARK minimizedRMSD -1
REMARK  2 active torsions:
REMARK  status: ('A' for Active; 'I' for Inactive)
REMARK    1  A    between atoms: C2'_3  and  C1'_4 
REMARK    2  A    between atoms: C1'_4  and  C1_5 
ROOT
ATOM      1  C1  I4B d   1      -0.611   0.934  -0.567  0.00  0.00    -0.075 A 
ATOM      2  C2  I4B d   1      -0.382   1.971  -1.437  0.00  0.00     0.003 A 
ATOM      3  C3  I4B d   1      -1.372   2.343  -2.379  0.00  0.00     0.002 A 
ATOM      4  C4  I4B d   1      -2.547   1.622  -2.450  0.00  0.00    -0.004 A 
ATOM      5  C5  I4B d   1      -2.786   0.586  -1.552  0.00  0.00     0.002 A 
ATOM      6  C6  I4B d   1      -1.817   0.247  -0.596  0.00  0.00     0.003 A 
ENDROOT
BRANCH   1   7
ATOM      7  C1' I4B d   1       0.470   0.548   0.393  0.00  0.00     0.060 C 
BRANCH   7   8
ATOM      8  C2' I4B d   1       1.617  -0.037  -0.406  0.00  0.00    -0.013 C 
ATOM      9  C4' I4B d   1       2.629   1.020  -0.759  0.00  0.00     0.013 C 
ATOM     10  C3' I4B d   1       2.238  -1.131   0.409  0.00  0.00     0.013 C 
ENDBRANCH   7   8
ENDBRANCH   1   7
TORSDOF 2
ENDMDL
