MODEL 1
REMARK minimizedAffinity -4.91316748
REMARK minimizedRMSD -1
REMARK  2 active torsions:
REMARK  status: ('A' for Active; 'I' for Inactive)
REMARK    1  A    between atoms: C2'_3  and  C1'_4 
REMARK    2  A    between atoms: C1'_4  and  C1_5 
ROOT
ATOM      1  C1  I4B d   1      -0.605   0.673   0.057  0.00  0.00    -0.075 A 
ATOM      2  C2  I4B d   1      -1.344   0.429   1.188  0.00  0.00     0.003 A 
ATOM      3  C3  I4B d   1      -0.872  -0.479   2.166  0.00  0.00     0.002 A 
ATOM      4  C4  I4B d   1       0.312  -1.155   1.950  0.00  0.00    -0.004 A 
ATOM      5  C5  I4B d   1       1.070  -0.890   0.814  0.00  0.00     0.002 A 
ATOM      6  C6  I4B d   1       0.616   0.039  -0.133  0.00  0.00     0.003 A 
ENDROOT
BRANCH   1   7
ATOM      7  C1' I4B d   1      -1.150   1.614  -0.970  0.00  0.00     0.060 C 
BRANCH   7   8
ATOM      8  C2' I4B d   1      -1.809   0.788  -2.057  0.00  0.00    -0.013 C 
ATOM      9  C4' I4B d   1      -3.304   0.964  -2.044  0.00  0.00     0.013 C 
ATOM     10  C3' I4B d   1      -1.226   1.206  -3.374  0.00  0.00     0.013 C 
ENDBRANCH   7   8
ENDBRANCH   1   7
TORSDOF 2
ENDMDL
