MODEL 1
REMARK minimizedAffinity -5.35449886
REMARK minimizedRMSD -1
REMARK  2 active torsions:
REMARK  status: ('A' for Active; 'I' for Inactive)
REMARK    1  A    between atoms: C2'_3  and  C1'_4 
REMARK    2  A    between atoms: C1'_4  and  C1_5 
ROOT
ATOM      1  C1  I4B d   1       0.371   0.065  -0.013  0.00  0.00    -0.075 A 
ATOM      2  C2  I4B d   1      -0.227  -0.515   1.078  0.00  0.00     0.003 A 
ATOM      3  C3  I4B d   1       0.487  -1.443   1.874  0.00  0.00     0.002 A 
ATOM      4  C4  I4B d   1       1.772  -1.798   1.515  0.00  0.00    -0.004 A 
ATOM      5  C5  I4B d   1       2.385  -1.192   0.422  0.00  0.00     0.002 A 
ATOM      6  C6  I4B d   1       1.684  -0.246  -0.340  0.00  0.00     0.003 A 
ENDROOT
BRANCH   1   7
ATOM      7  C1' I4B d   1      -0.424   1.016  -0.850  0.00  0.00     0.060 C 
BRANCH   7   8
ATOM      8  C2' I4B d   1      -1.157   0.210  -1.904  0.00  0.00    -0.013 C 
ATOM      9  C4' I4B d   1      -2.277  -0.592  -1.296  0.00  0.00     0.013 C 
ATOM     10  C3' I4B d   1      -1.673   1.164  -2.939  0.00  0.00     0.013 C 
ENDBRANCH   7   8
ENDBRANCH   1   7
TORSDOF 2
ENDMDL
