MODEL 1
REMARK minimizedAffinity 6.44648361
REMARK minimizedRMSD -1
REMARK  2 active torsions:
REMARK  status: ('A' for Active; 'I' for Inactive)
REMARK    1  A    between atoms: C2'_3  and  C1'_4 
REMARK    2  A    between atoms: C1'_4  and  C1_5 
ROOT
ATOM      1  C1  I4B d   1      -0.712  -2.094   0.564  0.00  0.00    -0.075 A 
ATOM      2  C2  I4B d   1      -0.353  -3.044  -0.359  0.00  0.00     0.003 A 
ATOM      3  C3  I4B d   1      -1.143  -4.207  -0.529  0.00  0.00     0.002 A 
ATOM      4  C4  I4B d   1      -2.248  -4.402   0.273  0.00  0.00    -0.004 A 
ATOM      5  C5  I4B d   1      -2.624  -3.427   1.193  0.00  0.00     0.002 A 
ATOM      6  C6  I4B d   1      -1.859  -2.260   1.331  0.00  0.00     0.003 A 
ENDROOT
BRANCH   1   7
ATOM      7  C1' I4B d   1       0.163  -0.894   0.742  0.00  0.00     0.060 C 
BRANCH   7   8
ATOM      8  C2' I4B d   1       1.417  -1.105  -0.083  0.00  0.00    -0.013 C 
ATOM      9  C4' I4B d   1       1.703   0.089  -0.955  0.00  0.00     0.013 C 
ATOM     10  C3' I4B d   1       2.551  -1.371   0.861  0.00  0.00     0.013 C 
ENDBRANCH   7   8
ENDBRANCH   1   7
TORSDOF 2
ENDMDL
