MODEL 1
REMARK minimizedAffinity -1.5181365
REMARK minimizedRMSD -1
REMARK  2 active torsions:
REMARK  status: ('A' for Active; 'I' for Inactive)
REMARK    1  A    between atoms: C2'_3  and  C1'_4 
REMARK    2  A    between atoms: C1'_4  and  C1_5 
ROOT
ATOM      1  C1  I4B d   1       1.507  -1.038   0.431  0.00  0.00    -0.075 A 
ATOM      2  C2  I4B d   1       2.310  -1.962   1.053  0.00  0.00     0.003 A 
ATOM      3  C3  I4B d   1       1.998  -2.413   2.358  0.00  0.00     0.002 A 
ATOM      4  C4  I4B d   1       0.910  -1.881   3.020  0.00  0.00    -0.004 A 
ATOM      5  C5  I4B d   1       0.084  -0.962   2.379  0.00  0.00     0.002 A 
ATOM      6  C6  I4B d   1       0.377  -0.547   1.072  0.00  0.00     0.003 A 
ENDROOT
BRANCH   1   7
ATOM      7  C1' I4B d   1       1.885  -0.559  -0.935  0.00  0.00     0.060 C 
BRANCH   7   8
ATOM      8  C2' I4B d   1       2.360   0.875  -0.811  0.00  0.00    -0.013 C 
ATOM      9  C4' I4B d   1       3.449   1.175  -1.807  0.00  0.00     0.013 C 
ATOM     10  C3' I4B d   1       1.177   1.774  -1.014  0.00  0.00     0.013 C 
ENDBRANCH   7   8
ENDBRANCH   1   7
TORSDOF 2
ENDMDL
