MODEL 1
REMARK minimizedAffinity -6.80340433
REMARK minimizedRMSD -1
REMARK  2 active torsions:
REMARK  status: ('A' for Active; 'I' for Inactive)
REMARK    1  A    between atoms: C2'_3  and  C1'_4 
REMARK    2  A    between atoms: C1'_4  and  C1_5 
ROOT
ATOM      1  C1  I4B d   1      -0.499  -1.573   0.293  0.00  0.00    -0.075 A 
ATOM      2  C2  I4B d   1      -0.784  -1.424   1.628  0.00  0.00     0.003 A 
ATOM      3  C3  I4B d   1       0.086  -1.961   2.607  0.00  0.00     0.002 A 
ATOM      4  C4  I4B d   1       1.196  -2.679   2.210  0.00  0.00    -0.004 A 
ATOM      5  C5  I4B d   1       1.496  -2.809   0.857  0.00  0.00     0.002 A 
ATOM      6  C6  I4B d   1       0.650  -2.243  -0.107  0.00  0.00     0.003 A 
ENDROOT
BRANCH   1   7
ATOM      7  C1' I4B d   1      -1.456  -1.021  -0.715  0.00  0.00     0.060 C 
BRANCH   7   8
ATOM      8  C2' I4B d   1      -1.400   0.491  -0.633  0.00  0.00    -0.013 C 
ATOM      9  C4' I4B d   1      -0.294   1.043  -1.493  0.00  0.00     0.013 C 
ATOM     10  C3' I4B d   1      -2.735   1.027  -1.057  0.00  0.00     0.013 C 
ENDBRANCH   7   8
ENDBRANCH   1   7
TORSDOF 2
ENDMDL
