MODEL 1
REMARK minimizedAffinity -0.108038194
REMARK minimizedRMSD -1
REMARK  2 active torsions:
REMARK  status: ('A' for Active; 'I' for Inactive)
REMARK    1  A    between atoms: C2'_3  and  C1'_4 
REMARK    2  A    between atoms: C1'_4  and  C1_5 
ROOT
ATOM      1  C1  I4B d   1      -0.638   1.236  -0.784  0.00  0.00    -0.075 A 
ATOM      2  C2  I4B d   1      -0.529   2.581  -1.036  0.00  0.00     0.003 A 
ATOM      3  C3  I4B d   1      -1.107   3.138  -2.202  0.00  0.00     0.002 A 
ATOM      4  C4  I4B d   1      -1.738   2.310  -3.109  0.00  0.00    -0.004 A 
ATOM      5  C5  I4B d   1      -1.867   0.951  -2.842  0.00  0.00     0.002 A 
ATOM      6  C6  I4B d   1      -1.325   0.412  -1.666  0.00  0.00     0.003 A 
ENDROOT
BRANCH   1   7
ATOM      7  C1' I4B d   1       0.013   0.677   0.441  0.00  0.00     0.060 C 
BRANCH   7   8
ATOM      8  C2' I4B d   1       1.296  -0.009   0.016  0.00  0.00    -0.013 C 
ATOM      9  C4' I4B d   1       2.399   0.991  -0.211  0.00  0.00     0.013 C 
ATOM     10  C3' I4B d   1       1.669  -0.994   1.083  0.00  0.00     0.013 C 
ENDBRANCH   7   8
ENDBRANCH   1   7
TORSDOF 2
ENDMDL
