MODEL 1
REMARK minimizedAffinity -2.44602346
REMARK minimizedRMSD -1
REMARK  1 active torsions:
REMARK  status: ('A' for Active; 'I' for Inactive)
REMARK    1  A    between atoms: C1_2  and  C2_3 
ROOT
ATOM      1  C2  UNL d   1       0.220  -0.260  -0.787  0.00  0.00    -0.073 A 
ATOM      2  C3  UNL d   1       1.436  -0.644  -1.366  0.00  0.00    -0.002 A 
ATOM      3  C4  UNL d   1       2.581   0.131  -1.179  0.00  0.00     0.004 A 
ATOM      4  C5  UNL d   1       2.525   1.292  -0.407  0.00  0.00    -0.004 A 
ATOM      5  C6  UNL d   1       1.323   1.685   0.189  0.00  0.00    -0.075 A 
ATOM      6  C7  UNL d   1       1.246   2.932   1.020  0.00  0.00     0.076 C 
ATOM      7  C8  UNL d   1       0.176   0.904  -0.005  0.00  0.00     0.001 A 
ENDROOT
BRANCH   1   8
ATOM      8  C1  UNL d   1      -1.018  -1.097  -0.981  0.00  0.00     0.053 C 
ATOM      9  C   UNL d   1      -1.484  -1.097  -2.428  0.00  0.00     0.018 C 
ENDBRANCH   1   8
TORSDOF 1
ENDMDL
