MODEL 1
REMARK minimizedAffinity -3.5790062
REMARK minimizedRMSD -1
REMARK  1 active torsions:
REMARK  status: ('A' for Active; 'I' for Inactive)
REMARK    1  A    between atoms: C1_2  and  C2_3 
ROOT
ATOM      1  C2  UNL d   1      -0.934  -0.458   2.278  0.00  0.00    -0.073 A 
ATOM      2  C3  UNL d   1      -1.209  -1.695   2.872  0.00  0.00    -0.002 A 
ATOM      3  C4  UNL d   1      -1.295  -2.849   2.091  0.00  0.00     0.004 A 
ATOM      4  C5  UNL d   1      -1.100  -2.779   0.712  0.00  0.00    -0.004 A 
ATOM      5  C6  UNL d   1      -0.814  -1.553   0.101  0.00  0.00    -0.075 A 
ATOM      6  C7  UNL d   1      -0.604  -1.461  -1.382  0.00  0.00     0.076 C 
ATOM      7  C8  UNL d   1      -0.732  -0.399   0.892  0.00  0.00     0.001 A 
ENDROOT
BRANCH   1   8
ATOM      8  C1  UNL d   1      -0.834   0.789   3.118  0.00  0.00     0.053 C 
ATOM      9  C   UNL d   1       0.431   0.808   3.961  0.00  0.00     0.018 C 
ENDBRANCH   1   8
TORSDOF 1
ENDMDL
