MODEL 1
REMARK minimizedAffinity -3.80458784
REMARK minimizedRMSD -1
REMARK  1 active torsions:
REMARK  status: ('A' for Active; 'I' for Inactive)
REMARK    1  A    between atoms: C1_2  and  C2_3 
ROOT
ATOM      1  C2  UNL d   1      -0.748  -0.499   1.381  0.00  0.00    -0.073 A 
ATOM      2  C3  UNL d   1      -0.220  -1.051   0.208  0.00  0.00    -0.002 A 
ATOM      3  C4  UNL d   1       0.645  -0.305  -0.594  0.00  0.00     0.004 A 
ATOM      4  C5  UNL d   1       0.994   0.996  -0.230  0.00  0.00    -0.004 A 
ATOM      5  C6  UNL d   1       0.486   1.560   0.944  0.00  0.00    -0.075 A 
ATOM      6  C7  UNL d   1       0.850   2.958   1.349  0.00  0.00     0.076 C 
ATOM      7  C8  UNL d   1      -0.384   0.806   1.743  0.00  0.00     0.001 A 
ENDROOT
BRANCH   1   8
ATOM      8  C1  UNL d   1      -1.677  -1.303   2.253  0.00  0.00     0.053 C 
ATOM      9  C   UNL d   1      -1.176  -2.723   2.463  0.00  0.00     0.018 C 
ENDBRANCH   1   8
TORSDOF 1
ENDMDL
