MODEL 1
REMARK minimizedAffinity -4.73065519
REMARK minimizedRMSD -1
REMARK  1 active torsions:
REMARK  status: ('A' for Active; 'I' for Inactive)
REMARK    1  A    between atoms: C1_2  and  C2_3 
ROOT
ATOM      1  C2  UNL d   1       0.085  -1.222   0.357  0.00  0.00    -0.073 A 
ATOM      2  C3  UNL d   1       1.220  -1.555  -0.391  0.00  0.00    -0.002 A 
ATOM      3  C4  UNL d   1       2.240  -0.620  -0.578  0.00  0.00     0.004 A 
ATOM      4  C5  UNL d   1       2.139   0.652  -0.015  0.00  0.00    -0.004 A 
ATOM      5  C6  UNL d   1       1.018   0.999   0.745  0.00  0.00    -0.075 A 
ATOM      6  C7  UNL d   1       0.893   2.364   1.356  0.00  0.00     0.076 C 
ATOM      7  C8  UNL d   1      -0.003   0.056   0.927  0.00  0.00     0.001 A 
ENDROOT
BRANCH   1   8
ATOM      8  C1  UNL d   1      -1.015  -2.230   0.567  0.00  0.00     0.053 C 
ATOM      9  C   UNL d   1      -0.804  -3.049   1.830  0.00  0.00     0.018 C 
ENDBRANCH   1   8
TORSDOF 1
ENDMDL
