MODEL 1
REMARK minimizedAffinity -4.02502584
REMARK minimizedRMSD -1
REMARK  1 active torsions:
REMARK  status: ('A' for Active; 'I' for Inactive)
REMARK    1  A    between atoms: C1_2  and  C2_3 
ROOT
ATOM      1  C2  UNL d   1       0.117  -0.715  -0.518  0.00  0.00    -0.073 A 
ATOM      2  C3  UNL d   1       1.431  -1.074  -0.839  0.00  0.00    -0.002 A 
ATOM      3  C4  UNL d   1       2.495  -0.245  -0.484  0.00  0.00     0.004 A 
ATOM      4  C5  UNL d   1       2.259   0.947   0.201  0.00  0.00    -0.004 A 
ATOM      5  C6  UNL d   1       0.954   1.317   0.542  0.00  0.00    -0.075 A 
ATOM      6  C7  UNL d   1       0.682   2.597   1.277  0.00  0.00     0.076 C 
ATOM      7  C8  UNL d   1      -0.110   0.480   0.179  0.00  0.00     0.001 A 
ENDROOT
BRANCH   1   8
ATOM      8  C1  UNL d   1      -1.035  -1.610  -0.894  0.00  0.00     0.053 C 
ATOM      9  C   UNL d   1      -1.573  -1.295  -2.281  0.00  0.00     0.018 C 
ENDBRANCH   1   8
TORSDOF 1
ENDMDL
