MODEL 1
REMARK minimizedAffinity -0.646479487
REMARK minimizedRMSD -1
REMARK  1 active torsions:
REMARK  status: ('A' for Active; 'I' for Inactive)
REMARK    1  A    between atoms: C1_2  and  C2_3 
ROOT
ATOM      1  C2  UNL d   1      -0.304  -0.038  -0.783  0.00  0.00    -0.073 A 
ATOM      2  C3  UNL d   1      -0.438  -1.036   0.189  0.00  0.00    -0.002 A 
ATOM      3  C4  UNL d   1      -1.248  -2.147  -0.048  0.00  0.00     0.004 A 
ATOM      4  C5  UNL d   1      -1.927  -2.275  -1.260  0.00  0.00    -0.004 A 
ATOM      5  C6  UNL d   1      -1.797  -1.294  -2.248  0.00  0.00    -0.075 A 
ATOM      6  C7  UNL d   1      -2.523  -1.416  -3.556  0.00  0.00     0.076 C 
ATOM      7  C8  UNL d   1      -0.984  -0.180  -2.002  0.00  0.00     0.001 A 
ENDROOT
BRANCH   1   8
ATOM      8  C1  UNL d   1       0.575   1.160  -0.535  0.00  0.00     0.053 C 
ATOM      9  C   UNL d   1       2.050   0.791  -0.521  0.00  0.00     0.018 C 
ENDBRANCH   1   8
TORSDOF 1
ENDMDL
