MODEL 1
REMARK minimizedAffinity -2.13790059
REMARK minimizedRMSD -1
REMARK  1 active torsions:
REMARK  status: ('A' for Active; 'I' for Inactive)
REMARK    1  A    between atoms: C1_2  and  C2_3 
ROOT
ATOM      1  C2  UNL d   1      -1.136  -1.402  -1.421  0.00  0.00    -0.073 A 
ATOM      2  C3  UNL d   1      -1.182  -0.908  -2.730  0.00  0.00    -0.002 A 
ATOM      3  C4  UNL d   1      -2.294  -1.153  -3.537  0.00  0.00     0.004 A 
ATOM      4  C5  UNL d   1      -3.372  -1.888  -3.043  0.00  0.00    -0.004 A 
ATOM      5  C6  UNL d   1      -3.350  -2.380  -1.734  0.00  0.00    -0.075 A 
ATOM      6  C7  UNL d   1      -4.500  -3.174  -1.188  0.00  0.00     0.076 C 
ATOM      7  C8  UNL d   1      -2.229  -2.132  -0.930  0.00  0.00     0.001 A 
ENDROOT
BRANCH   1   8
ATOM      8  C1  UNL d   1       0.059  -1.135  -0.543  0.00  0.00     0.053 C 
ATOM      9  C   UNL d   1       0.131   0.320  -0.106  0.00  0.00     0.018 C 
ENDBRANCH   1   8
TORSDOF 1
ENDMDL
