MODEL 1
REMARK minimizedAffinity -3.61163449
REMARK minimizedRMSD -1
REMARK  1 active torsions:
REMARK  status: ('A' for Active; 'I' for Inactive)
REMARK    1  A    between atoms: C1_2  and  C2_3 
ROOT
ATOM      1  C2  UNL d   1      -0.241  -1.358  -1.630  0.00  0.00    -0.073 A 
ATOM      2  C3  UNL d   1      -0.057  -0.968  -2.961  0.00  0.00    -0.002 A 
ATOM      3  C4  UNL d   1      -1.086  -1.126  -3.890  0.00  0.00     0.004 A 
ATOM      4  C5  UNL d   1      -2.310  -1.668  -3.497  0.00  0.00    -0.004 A 
ATOM      5  C6  UNL d   1      -2.516  -2.053  -2.168  0.00  0.00    -0.075 A 
ATOM      6  C7  UNL d   1      -3.826  -2.640  -1.730  0.00  0.00     0.076 C 
ATOM      7  C8  UNL d   1      -1.477  -1.894  -1.242  0.00  0.00     0.001 A 
ENDROOT
BRANCH   1   8
ATOM      8  C1  UNL d   1       0.866  -1.183  -0.621  0.00  0.00     0.053 C 
ATOM      9  C   UNL d   1       1.127   0.282  -0.310  0.00  0.00     0.018 C 
ENDBRANCH   1   8
TORSDOF 1
ENDMDL
