MODEL 1
REMARK minimizedAffinity -3.06332326
REMARK minimizedRMSD -1
REMARK  1 active torsions:
REMARK  status: ('A' for Active; 'I' for Inactive)
REMARK    1  A    between atoms: C1_2  and  C2_3 
ROOT
ATOM      1  C2  UNL d   1      -1.159  -2.958   0.316  0.00  0.00    -0.073 A 
ATOM      2  C3  UNL d   1      -2.039  -3.266  -0.728  0.00  0.00    -0.002 A 
ATOM      3  C4  UNL d   1      -2.050  -2.494  -1.891  0.00  0.00     0.004 A 
ATOM      4  C5  UNL d   1      -1.179  -1.413  -2.024  0.00  0.00    -0.004 A 
ATOM      5  C6  UNL d   1      -0.285  -1.096  -0.997  0.00  0.00    -0.075 A 
ATOM      6  C7  UNL d   1       0.657   0.065  -1.124  0.00  0.00     0.076 C 
ATOM      7  C8  UNL d   1      -0.281  -1.874   0.169  0.00  0.00     0.001 A 
ENDROOT
BRANCH   1   8
ATOM      8  C1  UNL d   1      -1.139  -3.792   1.571  0.00  0.00     0.053 C 
ATOM      9  C   UNL d   1      -1.567  -2.994   2.793  0.00  0.00     0.018 C 
ENDBRANCH   1   8
TORSDOF 1
ENDMDL
