MODEL 1
REMARK minimizedAffinity 27.9554119
REMARK minimizedRMSD -1
REMARK  0 active torsions:
REMARK  status: ('A' for Active; 'I' for Inactive)
ROOT
ATOM      1  C   UNL d   1      -1.139   3.048  -2.548  0.00  0.00     0.124 A 
ATOM      2  C1  UNL d   1       0.038   3.756  -2.353  0.00  0.00     0.062 A 
ATOM      3  C2  UNL d   1       0.689   3.708  -1.124  0.00  0.00     0.162 A 
ATOM      4  C3  UNL d   1       0.165   2.947  -0.079  0.00  0.00    -0.034 A 
ATOM      5  C4  UNL d   1      -1.021   2.238  -0.282  0.00  0.00     0.162 A 
ATOM      6  C5  UNL d   1      -1.668   2.290  -1.513  0.00  0.00     0.062 A 
ATOM      7  F   UNL d   1      -2.805   1.605  -1.699  0.00  0.00    -0.097 F 
ATOM      8  F1  UNL d   1      -1.553   1.497   0.701  0.00  0.00    -0.096 F 
ATOM      9  I   UNL d   1       1.135   2.872   1.760  0.00  0.00    -0.060 I 
ATOM     10  F2  UNL d   1       1.826   4.402  -0.964  0.00  0.00    -0.096 F 
ATOM     11  F3  UNL d   1       0.550   4.491  -3.352  0.00  0.00    -0.097 F 
ATOM     12  F4  UNL d   1      -1.764   3.098  -3.731  0.00  0.00    -0.092 F 
ENDROOT
TORSDOF 0
ENDMDL
