MODEL 1
REMARK minimizedAffinity 15.4573908
REMARK minimizedRMSD -1
REMARK  0 active torsions:
REMARK  status: ('A' for Active; 'I' for Inactive)
ROOT
ATOM      1  C   UNL d   1      -3.275   1.203  -2.614  0.00  0.00     0.124 A 
ATOM      2  C1  UNL d   1      -2.370   2.226  -2.863  0.00  0.00     0.062 A 
ATOM      3  C2  UNL d   1      -1.512   2.661  -1.857  0.00  0.00     0.162 A 
ATOM      4  C3  UNL d   1      -1.555   2.074  -0.593  0.00  0.00    -0.034 A 
ATOM      5  C4  UNL d   1      -2.469   1.047  -0.350  0.00  0.00     0.162 A 
ATOM      6  C5  UNL d   1      -3.324   0.615  -1.359  0.00  0.00     0.062 A 
ATOM      7  F   UNL d   1      -4.198  -0.373  -1.117  0.00  0.00    -0.097 F 
ATOM      8  F1  UNL d   1      -2.536   0.460   0.854  0.00  0.00    -0.096 F 
ATOM      9  I   UNL d   1      -0.274   2.722   0.914  0.00  0.00    -0.060 I 
ATOM     10  F2  UNL d   1      -0.648   3.651  -2.125  0.00  0.00    -0.096 F 
ATOM     11  F3  UNL d   1      -2.322   2.796  -4.075  0.00  0.00    -0.097 F 
ATOM     12  F4  UNL d   1      -4.100   0.787  -3.584  0.00  0.00    -0.092 F 
ENDROOT
TORSDOF 0
ENDMDL
