MODEL 1
REMARK minimizedAffinity 31.8182373
REMARK minimizedRMSD -1
REMARK  0 active torsions:
REMARK  status: ('A' for Active; 'I' for Inactive)
ROOT
ATOM      1  C   UNL d   1       0.054   2.015   2.479  0.00  0.00     0.124 A 
ATOM      2  C1  UNL d   1       1.394   1.753   2.234  0.00  0.00     0.062 A 
ATOM      3  C2  UNL d   1       2.034   0.704   2.888  0.00  0.00     0.162 A 
ATOM      4  C3  UNL d   1       1.333  -0.092   3.794  0.00  0.00    -0.034 A 
ATOM      5  C4  UNL d   1      -0.015   0.178   4.036  0.00  0.00     0.162 A 
ATOM      6  C5  UNL d   1      -0.650   1.228   3.380  0.00  0.00     0.062 A 
ATOM      7  F   UNL d   1      -1.945   1.479   3.618  0.00  0.00    -0.097 F 
ATOM      8  F1  UNL d   1      -0.719  -0.568   4.901  0.00  0.00    -0.096 F 
ATOM      9  I   UNL d   1       2.285  -1.662   4.774  0.00  0.00    -0.060 I 
ATOM     10  F2  UNL d   1       3.330   0.474   2.632  0.00  0.00    -0.096 F 
ATOM     11  F3  UNL d   1       2.077   2.513   1.365  0.00  0.00    -0.097 F 
ATOM     12  F4  UNL d   1      -0.559   3.026   1.849  0.00  0.00    -0.092 F 
ENDROOT
TORSDOF 0
ENDMDL
