MODEL 1
REMARK minimizedAffinity 12.4656687
REMARK minimizedRMSD -1
REMARK  0 active torsions:
REMARK  status: ('A' for Active; 'I' for Inactive)
ROOT
ATOM      1  C   UNL d   1      -0.021   1.493   2.601  0.00  0.00     0.124 A 
ATOM      2  C1  UNL d   1       0.711   1.958   1.517  0.00  0.00     0.062 A 
ATOM      3  C2  UNL d   1       0.059   2.446   0.389  0.00  0.00     0.162 A 
ATOM      4  C3  UNL d   1      -1.335   2.472   0.338  0.00  0.00    -0.034 A 
ATOM      5  C4  UNL d   1      -2.065   2.002   1.431  0.00  0.00     0.162 A 
ATOM      6  C5  UNL d   1      -1.408   1.516   2.557  0.00  0.00     0.062 A 
ATOM      7  F   UNL d   1      -2.117   1.067   3.603  0.00  0.00    -0.097 F 
ATOM      8  F1  UNL d   1      -3.406   2.014   1.416  0.00  0.00    -0.096 F 
ATOM      9  I   UNL d   1      -2.314   3.201  -1.348  0.00  0.00    -0.060 I 
ATOM     10  F2  UNL d   1       0.792   2.888  -0.644  0.00  0.00    -0.096 F 
ATOM     11  F3  UNL d   1       2.051   1.936   1.557  0.00  0.00    -0.097 F 
ATOM     12  F4  UNL d   1       0.609   1.023   3.685  0.00  0.00    -0.092 F 
ENDROOT
TORSDOF 0
ENDMDL
