MODEL 1
REMARK minimizedAffinity 1.59361577
REMARK minimizedRMSD -1
REMARK  0 active torsions:
REMARK  status: ('A' for Active; 'I' for Inactive)
ROOT
ATOM      1  C   UNL d   1       0.556   3.706  -0.531  0.00  0.00     0.124 A 
ATOM      2  C1  UNL d   1      -0.343   2.660  -0.685  0.00  0.00     0.062 A 
ATOM      3  C2  UNL d   1      -0.536   1.744   0.345  0.00  0.00     0.162 A 
ATOM      4  C3  UNL d   1       0.173   1.870   1.540  0.00  0.00    -0.034 A 
ATOM      5  C4  UNL d   1       1.076   2.924   1.688  0.00  0.00     0.162 A 
ATOM      6  C5  UNL d   1       1.265   3.837   0.655  0.00  0.00     0.062 A 
ATOM      7  F   UNL d   1       2.135   4.846   0.806  0.00  0.00    -0.097 F 
ATOM      8  F1  UNL d   1       1.774   3.075   2.824  0.00  0.00    -0.096 F 
ATOM      9  I   UNL d   1      -0.112   0.503   3.083  0.00  0.00    -0.060 I 
ATOM     10  F2  UNL d   1      -1.412   0.744   0.168  0.00  0.00    -0.096 F 
ATOM     11  F3  UNL d   1      -1.029   2.531  -1.830  0.00  0.00    -0.097 F 
ATOM     12  F4  UNL d   1       0.740   4.585  -1.524  0.00  0.00    -0.092 F 
ENDROOT
TORSDOF 0
ENDMDL
