MODEL 1
REMARK minimizedAffinity 9.689991
REMARK minimizedRMSD -1
REMARK  0 active torsions:
REMARK  status: ('A' for Active; 'I' for Inactive)
ROOT
ATOM      1  C   UNL d   1       1.661   3.894   0.575  0.00  0.00     0.124 A 
ATOM      2  C1  UNL d   1       1.767   3.337   1.842  0.00  0.00     0.062 A 
ATOM      3  C2  UNL d   1       1.195   2.097   2.112  0.00  0.00     0.162 A 
ATOM      4  C3  UNL d   1       0.512   1.404   1.113  0.00  0.00    -0.034 A 
ATOM      5  C4  UNL d   1       0.409   1.971  -0.159  0.00  0.00     0.162 A 
ATOM      6  C5  UNL d   1       0.982   3.210  -0.424  0.00  0.00     0.062 A 
ATOM      7  F   UNL d   1       0.879   3.746  -1.649  0.00  0.00    -0.097 F 
ATOM      8  F1  UNL d   1      -0.241   1.332  -1.143  0.00  0.00    -0.096 F 
ATOM      9  I   UNL d   1      -0.344  -0.450   1.513  0.00  0.00    -0.060 I 
ATOM     10  F2  UNL d   1       1.313   1.584   3.346  0.00  0.00    -0.096 F 
ATOM     11  F3  UNL d   1       2.422   3.996   2.809  0.00  0.00    -0.097 F 
ATOM     12  F4  UNL d   1       2.212   5.087   0.318  0.00  0.00    -0.092 F 
ENDROOT
TORSDOF 0
ENDMDL
