MODEL 1
REMARK minimizedAffinity 4.75385237
REMARK minimizedRMSD -1
REMARK  0 active torsions:
REMARK  status: ('A' for Active; 'I' for Inactive)
ROOT
ATOM      1  C   UNL d   1       1.780  -2.996  -1.268  0.00  0.00     0.124 A 
ATOM      2  C1  UNL d   1       3.006  -2.352  -1.167  0.00  0.00     0.062 A 
ATOM      3  C2  UNL d   1       4.149  -2.935  -1.705  0.00  0.00     0.162 A 
ATOM      4  C3  UNL d   1       4.073  -4.170  -2.349  0.00  0.00    -0.034 A 
ATOM      5  C4  UNL d   1       2.837  -4.812  -2.446  0.00  0.00     0.162 A 
ATOM      6  C5  UNL d   1       1.697  -4.225  -1.907  0.00  0.00     0.062 A 
ATOM      7  F   UNL d   1       0.514  -4.848  -2.005  0.00  0.00    -0.097 F 
ATOM      8  F1  UNL d   1       2.727  -6.000  -3.059  0.00  0.00    -0.096 F 
ATOM      9  I   UNL d   1       5.780  -5.046  -3.155  0.00  0.00    -0.060 I 
ATOM     10  F2  UNL d   1       5.320  -2.291  -1.593  0.00  0.00    -0.096 F 
ATOM     11  F3  UNL d   1       3.089  -1.165  -0.550  0.00  0.00    -0.097 F 
ATOM     12  F4  UNL d   1       0.682  -2.432  -0.749  0.00  0.00    -0.092 F 
ENDROOT
TORSDOF 0
ENDMDL
