MODEL 1
REMARK minimizedAffinity 28.1806564
REMARK minimizedRMSD -1
REMARK  0 active torsions:
REMARK  status: ('A' for Active; 'I' for Inactive)
ROOT
ATOM      1  C   UNL d   1      -2.082   4.050  -0.429  0.00  0.00     0.124 A 
ATOM      2  C1  UNL d   1      -0.932   3.324  -0.707  0.00  0.00     0.062 A 
ATOM      3  C2  UNL d   1      -0.311   2.585   0.295  0.00  0.00     0.162 A 
ATOM      4  C3  UNL d   1      -0.840   2.567   1.586  0.00  0.00    -0.034 A 
ATOM      5  C4  UNL d   1      -1.996   3.301   1.858  0.00  0.00     0.162 A 
ATOM      6  C5  UNL d   1      -2.612   4.038   0.853  0.00  0.00     0.062 A 
ATOM      7  F   UNL d   1      -3.723   4.739   1.123  0.00  0.00    -0.097 F 
ATOM      8  F1  UNL d   1      -2.531   3.305   3.089  0.00  0.00    -0.096 F 
ATOM      9  I   UNL d   1       0.085   1.463   3.088  0.00  0.00    -0.060 I 
ATOM     10  F2  UNL d   1       0.798   1.892  -0.002  0.00  0.00    -0.096 F 
ATOM     11  F3  UNL d   1      -0.417   3.335  -1.945  0.00  0.00    -0.097 F 
ATOM     12  F4  UNL d   1      -2.676   4.761  -1.396  0.00  0.00    -0.092 F 
ENDROOT
TORSDOF 0
ENDMDL
