MODEL 1
REMARK minimizedAffinity 32.4742393
REMARK minimizedRMSD -1
REMARK  0 active torsions:
REMARK  status: ('A' for Active; 'I' for Inactive)
ROOT
ATOM      1  C   UNL d   1      -4.868   1.926  -3.848  0.00  0.00     0.124 A 
ATOM      2  C1  UNL d   1      -3.923   2.931  -4.001  0.00  0.00     0.062 A 
ATOM      3  C2  UNL d   1      -2.930   3.109  -3.042  0.00  0.00     0.162 A 
ATOM      4  C3  UNL d   1      -2.876   2.279  -1.922  0.00  0.00    -0.034 A 
ATOM      5  C4  UNL d   1      -3.831   1.271  -1.775  0.00  0.00     0.162 A 
ATOM      6  C5  UNL d   1      -4.821   1.097  -2.736  0.00  0.00     0.062 A 
ATOM      7  F   UNL d   1      -5.733   0.126  -2.587  0.00  0.00    -0.097 F 
ATOM      8  F1  UNL d   1      -3.808   0.456  -0.710  0.00  0.00    -0.096 F 
ATOM      9  I   UNL d   1      -1.393   2.543  -0.486  0.00  0.00    -0.060 I 
ATOM     10  F2  UNL d   1      -2.030   4.088  -3.215  0.00  0.00    -0.096 F 
ATOM     11  F3  UNL d   1      -3.967   3.734  -5.074  0.00  0.00    -0.097 F 
ATOM     12  F4  UNL d   1      -5.824   1.757  -4.772  0.00  0.00    -0.092 F 
ENDROOT
TORSDOF 0
ENDMDL
