MODEL 1
REMARK minimizedAffinity 11.6857443
REMARK minimizedRMSD -1
REMARK  0 active torsions:
REMARK  status: ('A' for Active; 'I' for Inactive)
ROOT
ATOM      1  C   UNL d   1      -1.442   3.478   1.373  0.00  0.00     0.124 A 
ATOM      2  C1  UNL d   1      -0.648   3.090   0.303  0.00  0.00     0.062 A 
ATOM      3  C2  UNL d   1      -0.826   3.673  -0.949  0.00  0.00     0.162 A 
ATOM      4  C3  UNL d   1      -1.803   4.651  -1.137  0.00  0.00    -0.034 A 
ATOM      5  C4  UNL d   1      -2.598   5.036  -0.056  0.00  0.00     0.162 A 
ATOM      6  C5  UNL d   1      -2.416   4.450   1.193  0.00  0.00     0.062 A 
ATOM      7  F   UNL d   1      -3.184   4.826   2.226  0.00  0.00    -0.097 F 
ATOM      8  F1  UNL d   1      -3.546   5.973  -0.201  0.00  0.00    -0.096 F 
ATOM      9  I   UNL d   1      -2.073   5.525  -3.006  0.00  0.00    -0.060 I 
ATOM     10  F2  UNL d   1      -0.045   3.279  -1.965  0.00  0.00    -0.096 F 
ATOM     11  F3  UNL d   1       0.293   2.151   0.474  0.00  0.00    -0.097 F 
ATOM     12  F4  UNL d   1      -1.269   2.915   2.576  0.00  0.00    -0.092 F 
ENDROOT
TORSDOF 0
ENDMDL
