MODEL 1
REMARK minimizedAffinity 12.4231329
REMARK minimizedRMSD -1
REMARK  0 active torsions:
REMARK  status: ('A' for Active; 'I' for Inactive)
ROOT
ATOM      1  C   UNL d   1       1.134   3.967  -0.779  0.00  0.00     0.124 A 
ATOM      2  C1  UNL d   1       0.617   4.427  -1.982  0.00  0.00     0.062 A 
ATOM      3  C2  UNL d   1      -0.622   3.976  -2.429  0.00  0.00     0.162 A 
ATOM      4  C3  UNL d   1      -1.353   3.061  -1.672  0.00  0.00    -0.034 A 
ATOM      5  C4  UNL d   1      -0.826   2.602  -0.463  0.00  0.00     0.162 A 
ATOM      6  C5  UNL d   1       0.413   3.055  -0.021  0.00  0.00     0.062 A 
ATOM      7  F   UNL d   1       0.911   2.610   1.142  0.00  0.00    -0.097 F 
ATOM      8  F1  UNL d   1      -1.502   1.722   0.290  0.00  0.00    -0.096 F 
ATOM      9  I   UNL d   1      -3.206   2.385  -2.337  0.00  0.00    -0.060 I 
ATOM     10  F2  UNL d   1      -1.097   4.437  -3.595  0.00  0.00    -0.096 F 
ATOM     11  F3  UNL d   1       1.312   5.307  -2.716  0.00  0.00    -0.097 F 
ATOM     12  F4  UNL d   1       2.327   4.401  -0.351  0.00  0.00    -0.092 F 
ENDROOT
TORSDOF 0
ENDMDL
