MODEL 1
REMARK minimizedAffinity -4.88500738
REMARK minimizedRMSD -1
REMARK  0 active torsions:
REMARK  status: ('A' for Active; 'I' for Inactive)
ROOT
ATOM      1  O1  BZF d   1      -1.507   0.718   0.005  0.00  0.00    -0.204 OA
ATOM      2  C2  BZF d   1      -1.143   0.828  -1.324  0.00  0.00     0.174 A 
ATOM      3  C3  BZF d   1       0.111   0.370  -1.515  0.00  0.00    -0.012 A 
ATOM      4  C3A BZF d   1       0.525  -0.137  -0.243  0.00  0.00    -0.107 A 
ATOM      5  C4  BZF d   1       1.669  -0.736   0.202  0.00  0.00     0.055 A 
ATOM      6  C5  BZF d   1       1.782  -1.045   1.521  0.00  0.00    -0.016 A 
ATOM      7  C6  BZF d   1       0.776  -0.765   2.421  0.00  0.00     0.022 A 
ATOM      8  C7  BZF d   1      -0.379  -0.176   2.026  0.00  0.00     0.029 A 
ATOM      9  C7A BZF d   1      -0.510   0.107   0.689  0.00  0.00     0.058 A 
ENDROOT
TORSDOF 0
ENDMDL
