MODEL 1
REMARK minimizedAffinity -4.56834412
REMARK minimizedRMSD -1
REMARK  0 active torsions:
REMARK  status: ('A' for Active; 'I' for Inactive)
ROOT
ATOM      1  O1  BZF d   1      -1.102   0.580  -0.390  0.00  0.00    -0.204 OA
ATOM      2  C2  BZF d   1      -0.045   0.799  -1.252  0.00  0.00     0.174 A 
ATOM      3  C3  BZF d   1       1.124   0.457  -0.674  0.00  0.00    -0.012 A 
ATOM      4  C3A BZF d   1       0.767  -0.093   0.598  0.00  0.00    -0.107 A 
ATOM      5  C4  BZF d   1       1.490  -0.624   1.628  0.00  0.00     0.055 A 
ATOM      6  C5  BZF d   1       0.845  -1.004   2.762  0.00  0.00    -0.016 A 
ATOM      7  C6  BZF d   1      -0.520  -0.862   2.902  0.00  0.00     0.022 A 
ATOM      8  C7  BZF d   1      -1.281  -0.345   1.907  0.00  0.00     0.029 A 
ATOM      9  C7A BZF d   1      -0.636   0.009   0.747  0.00  0.00     0.058 A 
ENDROOT
TORSDOF 0
ENDMDL
