MODEL 1
REMARK minimizedAffinity -3.88634801
REMARK minimizedRMSD -1
REMARK  0 active torsions:
REMARK  status: ('A' for Active; 'I' for Inactive)
ROOT
ATOM      1  O1  BZF d   1      -4.678   3.751  -2.971  0.00  0.00    -0.204 OA
ATOM      2  C2  BZF d   1      -5.536   2.684  -3.149  0.00  0.00     0.174 A 
ATOM      3  C3  BZF d   1      -4.849   1.527  -3.237  0.00  0.00    -0.012 A 
ATOM      4  C3A BZF d   1      -3.481   1.883  -3.014  0.00  0.00    -0.107 A 
ATOM      5  C4  BZF d   1      -2.321   1.166  -2.962  0.00  0.00     0.055 A 
ATOM      6  C5  BZF d   1      -1.144   1.825  -2.798  0.00  0.00    -0.016 A 
ATOM      7  C6  BZF d   1      -1.090   3.199  -2.688  0.00  0.00     0.022 A 
ATOM      8  C7  BZF d   1      -2.216   3.953  -2.728  0.00  0.00     0.029 A 
ATOM      9  C7A BZF d   1      -3.410   3.287  -2.861  0.00  0.00     0.058 A 
ENDROOT
TORSDOF 0
ENDMDL
