MODEL 1
REMARK minimizedAffinity -2.72253966
REMARK minimizedRMSD -1
REMARK  0 active torsions:
REMARK  status: ('A' for Active; 'I' for Inactive)
ROOT
ATOM      1  O1  BZF d   1       1.712  -1.195  -0.173  0.00  0.00    -0.204 OA
ATOM      2  C2  BZF d   1       1.168  -0.807  -1.382  0.00  0.00     0.174 A 
ATOM      3  C3  BZF d   1      -0.056  -0.268  -1.204  0.00  0.00    -0.012 A 
ATOM      4  C3A BZF d   1      -0.252  -0.238   0.213  0.00  0.00    -0.107 A 
ATOM      5  C4  BZF d   1      -1.270   0.199   1.010  0.00  0.00     0.055 A 
ATOM      6  C5  BZF d   1      -1.181   0.017   2.354  0.00  0.00    -0.016 A 
ATOM      7  C6  BZF d   1      -0.093  -0.602   2.933  0.00  0.00     0.022 A 
ATOM      8  C7  BZF d   1       0.944  -1.049   2.182  0.00  0.00     0.029 A 
ATOM      9  C7A BZF d   1       0.872  -0.837   0.827  0.00  0.00     0.058 A 
ENDROOT
TORSDOF 0
ENDMDL
