MODEL 1
REMARK minimizedAffinity -4.51231718
REMARK minimizedRMSD -1
REMARK  0 active torsions:
REMARK  status: ('A' for Active; 'I' for Inactive)
ROOT
ATOM      1  O1  BZF d   1       0.417  -0.345   2.852  0.00  0.00    -0.204 OA
ATOM      2  C2  BZF d   1       1.780  -0.548   2.746  0.00  0.00     0.174 A 
ATOM      3  C3  BZF d   1       2.147  -0.669   1.454  0.00  0.00    -0.012 A 
ATOM      4  C3A BZF d   1       0.952  -0.441   0.701  0.00  0.00    -0.107 A 
ATOM      5  C4  BZF d   1       0.676  -0.412  -0.636  0.00  0.00     0.055 A 
ATOM      6  C5  BZF d   1      -0.609  -0.235  -1.042  0.00  0.00    -0.016 A 
ATOM      7  C6  BZF d   1      -1.642  -0.089  -0.139  0.00  0.00     0.022 A 
ATOM      8  C7  BZF d   1      -1.417  -0.105   1.197  0.00  0.00     0.029 A 
ATOM      9  C7A BZF d   1      -0.115  -0.251   1.610  0.00  0.00     0.058 A 
ENDROOT
TORSDOF 0
ENDMDL
