MODEL 1
REMARK minimizedAffinity -5.27830791
REMARK minimizedRMSD -1
REMARK  0 active torsions:
REMARK  status: ('A' for Active; 'I' for Inactive)
ROOT
ATOM      1  O1  BZF d   1      -0.672   2.752  -1.591  0.00  0.00    -0.204 OA
ATOM      2  C2  BZF d   1      -1.360   2.482  -2.759  0.00  0.00     0.174 A 
ATOM      3  C3  BZF d   1      -1.521   1.153  -2.923  0.00  0.00    -0.012 A 
ATOM      4  C3A BZF d   1      -0.977   0.560  -1.740  0.00  0.00    -0.107 A 
ATOM      5  C4  BZF d   1      -0.858  -0.730  -1.306  0.00  0.00     0.055 A 
ATOM      6  C5  BZF d   1      -0.211  -0.976  -0.137  0.00  0.00    -0.016 A 
ATOM      7  C6  BZF d   1       0.335   0.040   0.619  0.00  0.00     0.022 A 
ATOM      8  C7  BZF d   1       0.238   1.336   0.232  0.00  0.00     0.029 A 
ATOM      9  C7A BZF d   1      -0.444   1.591  -0.932  0.00  0.00     0.058 A 
ENDROOT
TORSDOF 0
ENDMDL
