MODEL 1
REMARK minimizedAffinity -3.78359509
REMARK minimizedRMSD -1
REMARK  0 active torsions:
REMARK  status: ('A' for Active; 'I' for Inactive)
ROOT
ATOM      1  O1  BZF d   1      -0.145  -0.777   3.017  0.00  0.00    -0.204 OA
ATOM      2  C2  BZF d   1       1.198  -1.058   3.178  0.00  0.00     0.174 A 
ATOM      3  C3  BZF d   1       1.862  -0.904   2.014  0.00  0.00    -0.012 A 
ATOM      4  C3A BZF d   1       0.889  -0.413   1.088  0.00  0.00    -0.107 A 
ATOM      5  C4  BZF d   1       0.943  -0.052  -0.228  0.00  0.00     0.055 A 
ATOM      6  C5  BZF d   1      -0.202   0.317  -0.860  0.00  0.00    -0.016 A 
ATOM      7  C6  BZF d   1      -1.418   0.331  -0.208  0.00  0.00     0.022 A 
ATOM      8  C7  BZF d   1      -1.521  -0.013   1.098  0.00  0.00     0.029 A 
ATOM      9  C7A BZF d   1      -0.360  -0.355   1.748  0.00  0.00     0.058 A 
ENDROOT
TORSDOF 0
ENDMDL
