MODEL 1
REMARK minimizedAffinity -2.23076081
REMARK minimizedRMSD -1
REMARK  0 active torsions:
REMARK  status: ('A' for Active; 'I' for Inactive)
ROOT
ATOM      1  O1  BZF d   1       1.660  -1.528  -1.369  0.00  0.00    -0.204 OA
ATOM      2  C2  BZF d   1       0.886  -1.360  -2.501  0.00  0.00     0.174 A 
ATOM      3  C3  BZF d   1      -0.210  -0.624  -2.226  0.00  0.00    -0.012 A 
ATOM      4  C3A BZF d   1      -0.067  -0.233  -0.856  0.00  0.00    -0.107 A 
ATOM      5  C4  BZF d   1      -0.828   0.523  -0.011  0.00  0.00     0.055 A 
ATOM      6  C5  BZF d   1      -0.445   0.651   1.286  0.00  0.00    -0.016 A 
ATOM      7  C6  BZF d   1       0.688   0.034   1.773  0.00  0.00     0.022 A 
ATOM      8  C7  BZF d   1       1.478  -0.721   0.972  0.00  0.00     0.029 A 
ATOM      9  C7A BZF d   1       1.112  -0.826  -0.348  0.00  0.00     0.058 A 
ENDROOT
TORSDOF 0
ENDMDL
