MODEL 1
REMARK minimizedAffinity -3.45620704
REMARK minimizedRMSD -1
REMARK  0 active torsions:
REMARK  status: ('A' for Active; 'I' for Inactive)
ROOT
ATOM      1  O1  BZF d   1       1.805  -0.679   2.448  0.00  0.00    -0.204 OA
ATOM      2  C2  BZF d   1       1.071  -1.262   3.463  0.00  0.00     0.174 A 
ATOM      3  C3  BZF d   1      -0.218  -1.410   3.097  0.00  0.00    -0.012 A 
ATOM      4  C3A BZF d   1      -0.276  -0.972   1.736  0.00  0.00    -0.107 A 
ATOM      5  C4  BZF d   1      -1.282  -0.894   0.817  0.00  0.00     0.055 A 
ATOM      6  C5  BZF d   1      -1.023  -0.351  -0.402  0.00  0.00    -0.016 A 
ATOM      7  C6  BZF d   1       0.227   0.127  -0.732  0.00  0.00     0.022 A 
ATOM      8  C7  BZF d   1       1.259   0.067   0.145  0.00  0.00     0.029 A 
ATOM      9  C7A BZF d   1       1.008  -0.511   1.365  0.00  0.00     0.058 A 
ENDROOT
TORSDOF 0
ENDMDL
