MODEL 1
REMARK minimizedAffinity -3.58287692
REMARK minimizedRMSD -1
REMARK  0 active torsions:
REMARK  status: ('A' for Active; 'I' for Inactive)
ROOT
ATOM      1  O1  BZF d   1      -1.291   0.962  -0.794  0.00  0.00    -0.204 OA
ATOM      2  C2  BZF d   1      -0.595   0.699  -1.958  0.00  0.00     0.174 A 
ATOM      3  C3  BZF d   1       0.474  -0.085  -1.709  0.00  0.00    -0.012 A 
ATOM      4  C3A BZF d   1       0.392  -0.403  -0.316  0.00  0.00    -0.107 A 
ATOM      5  C4  BZF d   1       1.160  -1.160   0.521  0.00  0.00     0.055 A 
ATOM      6  C5  BZF d   1       0.847  -1.207   1.843  0.00  0.00    -0.016 A 
ATOM      7  C6  BZF d   1      -0.222  -0.505   2.361  0.00  0.00     0.022 A 
ATOM      8  C7  BZF d   1      -1.016   0.256   1.569  0.00  0.00     0.029 A 
ATOM      9  C7A BZF d   1      -0.722   0.278   0.228  0.00  0.00     0.058 A 
ENDROOT
TORSDOF 0
ENDMDL
