MODEL 1
REMARK minimizedAffinity -3.80896878
REMARK minimizedRMSD -1
REMARK  0 active torsions:
REMARK  status: ('A' for Active; 'I' for Inactive)
ROOT
ATOM      1  O1  BZF d   1       0.063  -0.582   3.017  0.00  0.00    -0.204 OA
ATOM      2  C2  BZF d   1       1.431  -0.422   3.127  0.00  0.00     0.174 A 
ATOM      3  C3  BZF d   1       1.989  -0.228   1.914  0.00  0.00    -0.012 A 
ATOM      4  C3A BZF d   1       0.891  -0.176   0.999  0.00  0.00    -0.107 A 
ATOM      5  C4  BZF d   1       0.802   0.010  -0.351  0.00  0.00     0.055 A 
ATOM      6  C5  BZF d   1      -0.415  -0.068  -0.950  0.00  0.00    -0.016 A 
ATOM      7  C6  BZF d   1      -1.562  -0.336  -0.232  0.00  0.00     0.022 A 
ATOM      8  C7  BZF d   1      -1.524  -0.523   1.110  0.00  0.00     0.029 A 
ATOM      9  C7A BZF d   1      -0.300  -0.412   1.723  0.00  0.00     0.058 A 
ENDROOT
TORSDOF 0
ENDMDL
