MODEL 1
REMARK minimizedAffinity 6.55684948
REMARK minimizedRMSD -1
REMARK  2 active torsions:
REMARK  status: ('A' for Active; 'I' for Inactive)
REMARK    1  A    between atoms: C2'_3  and  C1'_4 
REMARK    2  A    between atoms: C1'_4  and  C1_5 
ROOT
ATOM      1  C1  I4B d   1       0.568   0.311   1.454  0.00  0.00    -0.075 A 
ATOM      2  C2  I4B d   1      -0.480  -0.390   0.911  0.00  0.00     0.003 A 
ATOM      3  C3  I4B d   1      -1.738   0.234   0.732  0.00  0.00     0.002 A 
ATOM      4  C4  I4B d   1      -1.917   1.536   1.153  0.00  0.00    -0.004 A 
ATOM      5  C5  I4B d   1      -0.847   2.253   1.682  0.00  0.00     0.002 A 
ATOM      6  C6  I4B d   1       0.407   1.641   1.822  0.00  0.00     0.003 A 
ENDROOT
BRANCH   1   7
ATOM      7  C1' I4B d   1       1.874  -0.389   1.660  0.00  0.00     0.060 C 
BRANCH   7   8
ATOM      8  C2' I4B d   1       2.142  -0.448   3.150  0.00  0.00    -0.013 C 
ATOM      9  C4' I4B d   1       1.082  -1.245   3.863  0.00  0.00     0.013 C 
ATOM     10  C3' I4B d   1       3.501  -1.050   3.352  0.00  0.00     0.013 C 
ENDBRANCH   7   8
ENDBRANCH   1   7
TORSDOF 2
ENDMDL
