MODEL 1
REMARK minimizedAffinity -0.259418726
REMARK minimizedRMSD -1
REMARK  2 active torsions:
REMARK  status: ('A' for Active; 'I' for Inactive)
REMARK    1  A    between atoms: C2'_3  and  C1'_4 
REMARK    2  A    between atoms: C1'_4  and  C1_5 
ROOT
ATOM      1  C1  I4B d   1      -1.879   1.680   2.319  0.00  0.00    -0.075 A 
ATOM      2  C2  I4B d   1      -1.948   0.312   2.233  0.00  0.00     0.003 A 
ATOM      3  C3  I4B d   1      -0.862  -0.424   1.701  0.00  0.00     0.002 A 
ATOM      4  C4  I4B d   1       0.246   0.247   1.224  0.00  0.00    -0.004 A 
ATOM      5  C5  I4B d   1       0.323   1.633   1.333  0.00  0.00     0.002 A 
ATOM      6  C6  I4B d   1      -0.741   2.353   1.895  0.00  0.00     0.003 A 
ENDROOT
BRANCH   1   7
ATOM      7  C1' I4B d   1      -3.058   2.429   2.856  0.00  0.00     0.060 C 
BRANCH   7   8
ATOM      8  C2' I4B d   1      -3.497   1.751   4.137  0.00  0.00    -0.013 C 
ATOM      9  C4' I4B d   1      -4.265   2.699   5.020  0.00  0.00     0.013 C 
ATOM     10  C3' I4B d   1      -4.330   0.559   3.769  0.00  0.00     0.013 C 
ENDBRANCH   7   8
ENDBRANCH   1   7
TORSDOF 2
ENDMDL
