MODEL 1
REMARK minimizedAffinity 1.05528462
REMARK minimizedRMSD -1
REMARK  2 active torsions:
REMARK  status: ('A' for Active; 'I' for Inactive)
REMARK    1  A    between atoms: C2'_3  and  C1'_4 
REMARK    2  A    between atoms: C1'_4  and  C1_5 
ROOT
ATOM      1  C1  I4B d   1      -0.629   2.644   2.320  0.00  0.00    -0.075 A 
ATOM      2  C2  I4B d   1      -0.794   3.645   1.395  0.00  0.00     0.003 A 
ATOM      3  C3  I4B d   1      -2.006   4.376   1.346  0.00  0.00     0.002 A 
ATOM      4  C4  I4B d   1      -3.037   4.042   2.200  0.00  0.00    -0.004 A 
ATOM      5  C5  I4B d   1      -2.859   3.042   3.152  0.00  0.00     0.002 A 
ATOM      6  C6  I4B d   1      -1.643   2.347   3.221  0.00  0.00     0.003 A 
ENDROOT
BRANCH   1   7
ATOM      7  C1' I4B d   1       0.651   1.870   2.322  0.00  0.00     0.060 C 
BRANCH   7   8
ATOM      8  C2' I4B d   1       0.484   0.688   1.389  0.00  0.00    -0.013 C 
ATOM      9  C4' I4B d   1      -0.641  -0.206   1.838  0.00  0.00     0.013 C 
ATOM     10  C3' I4B d   1       0.236   1.220   0.009  0.00  0.00     0.013 C 
ENDBRANCH   7   8
ENDBRANCH   1   7
TORSDOF 2
ENDMDL
