MODEL 1
REMARK minimizedAffinity -3.89502907
REMARK minimizedRMSD -1
REMARK  2 active torsions:
REMARK  status: ('A' for Active; 'I' for Inactive)
REMARK    1  A    between atoms: C2'_3  and  C1'_4 
REMARK    2  A    between atoms: C1'_4  and  C1_5 
ROOT
ATOM      1  C1  I4B d   1      -1.430  -0.109   1.716  0.00  0.00    -0.075 A 
ATOM      2  C2  I4B d   1      -2.221   0.828   2.333  0.00  0.00     0.003 A 
ATOM      3  C3  I4B d   1      -1.854   2.196   2.312  0.00  0.00     0.002 A 
ATOM      4  C4  I4B d   1      -0.670   2.573   1.712  0.00  0.00    -0.004 A 
ATOM      5  C5  I4B d   1       0.120   1.624   1.068  0.00  0.00     0.002 A 
ATOM      6  C6  I4B d   1      -0.269   0.277   1.059  0.00  0.00     0.003 A 
ENDROOT
BRANCH   1   7
ATOM      7  C1' I4B d   1      -1.831  -1.548   1.785  0.00  0.00     0.060 C 
BRANCH   7   8
ATOM      8  C2' I4B d   1      -1.568  -2.039   3.194  0.00  0.00    -0.013 C 
ATOM      9  C4' I4B d   1      -2.796  -2.679   3.787  0.00  0.00     0.013 C 
ATOM     10  C3' I4B d   1      -0.425  -3.008   3.142  0.00  0.00     0.013 C 
ENDBRANCH   7   8
ENDBRANCH   1   7
TORSDOF 2
ENDMDL
