MODEL 1
REMARK minimizedAffinity 2.33166003
REMARK minimizedRMSD -1
REMARK  2 active torsions:
REMARK  status: ('A' for Active; 'I' for Inactive)
REMARK    1  A    between atoms: C2'_3  and  C1'_4 
REMARK    2  A    between atoms: C1'_4  and  C1_5 
ROOT
ATOM      1  C1  I4B d   1      -0.608  -0.867   2.836  0.00  0.00    -0.075 A 
ATOM      2  C2  I4B d   1      -0.493  -1.724   3.902  0.00  0.00     0.003 A 
ATOM      3  C3  I4B d   1      -1.652  -2.257   4.516  0.00  0.00     0.002 A 
ATOM      4  C4  I4B d   1      -2.898  -1.871   4.067  0.00  0.00    -0.004 A 
ATOM      5  C5  I4B d   1      -3.013  -1.021   2.971  0.00  0.00     0.002 A 
ATOM      6  C6  I4B d   1      -1.861  -0.525   2.343  0.00  0.00     0.003 A 
ENDROOT
BRANCH   1   7
ATOM      7  C1' I4B d   1       0.636  -0.297   2.232  0.00  0.00     0.060 C 
BRANCH   7   8
ATOM      8  C2' I4B d   1       0.228   0.814   1.286  0.00  0.00    -0.013 C 
ATOM      9  C4' I4B d   1      -0.133   2.067   2.040  0.00  0.00     0.013 C 
ATOM     10  C3' I4B d   1       1.367   1.060   0.342  0.00  0.00     0.013 C 
ENDBRANCH   7   8
ENDBRANCH   1   7
TORSDOF 2
ENDMDL
