MODEL 1
REMARK minimizedAffinity 0.579040945
REMARK minimizedRMSD -1
REMARK  2 active torsions:
REMARK  status: ('A' for Active; 'I' for Inactive)
REMARK    1  A    between atoms: C2'_3  and  C1'_4 
REMARK    2  A    between atoms: C1'_4  and  C1_5 
ROOT
ATOM      1  C1  I4B d   1      -1.353   0.372   2.095  0.00  0.00    -0.075 A 
ATOM      2  C2  I4B d   1      -1.040   1.463   1.324  0.00  0.00     0.003 A 
ATOM      3  C3  I4B d   1       0.289   1.951   1.286  0.00  0.00     0.002 A 
ATOM      4  C4  I4B d   1       1.255   1.354   2.069  0.00  0.00    -0.004 A 
ATOM      5  C5  I4B d   1       0.941   0.233   2.833  0.00  0.00     0.002 A 
ATOM      6  C6  I4B d   1      -0.369  -0.269   2.837  0.00  0.00     0.003 A 
ENDROOT
BRANCH   1   7
ATOM      7  C1' I4B d   1      -2.773  -0.098   2.138  0.00  0.00     0.060 C 
BRANCH   7   8
ATOM      8  C2' I4B d   1      -3.350   0.284   3.485  0.00  0.00    -0.013 C 
ATOM      9  C4' I4B d   1      -4.389   1.365   3.347  0.00  0.00     0.013 C 
ATOM     10  C3' I4B d   1      -3.933  -0.951   4.105  0.00  0.00     0.013 C 
ENDBRANCH   7   8
ENDBRANCH   1   7
TORSDOF 2
ENDMDL
