MODEL 1
REMARK minimizedAffinity 0.774618268
REMARK minimizedRMSD -1
REMARK  2 active torsions:
REMARK  status: ('A' for Active; 'I' for Inactive)
REMARK    1  A    between atoms: C2'_3  and  C1'_4 
REMARK    2  A    between atoms: C1'_4  and  C1_5 
ROOT
ATOM      1  C1  I4B d   1      -1.320   0.321   1.883  0.00  0.00    -0.075 A 
ATOM      2  C2  I4B d   1      -0.887   1.279   1.001  0.00  0.00     0.003 A 
ATOM      3  C3  I4B d   1       0.367   1.142   0.358  0.00  0.00     0.002 A 
ATOM      4  C4  I4B d   1       1.172   0.063   0.663  0.00  0.00    -0.004 A 
ATOM      5  C5  I4B d   1       0.722  -0.919   1.541  0.00  0.00     0.002 A 
ATOM      6  C6  I4B d   1      -0.537  -0.796   2.145  0.00  0.00     0.003 A 
ENDROOT
BRANCH   1   7
ATOM      7  C1' I4B d   1      -2.635   0.514   2.569  0.00  0.00     0.060 C 
BRANCH   7   8
ATOM      8  C2' I4B d   1      -2.858   2.003   2.740  0.00  0.00    -0.013 C 
ATOM      9  C4' I4B d   1      -3.876   2.283   3.814  0.00  0.00     0.013 C 
ATOM     10  C3' I4B d   1      -1.538   2.635   3.067  0.00  0.00     0.013 C 
ENDBRANCH   7   8
ENDBRANCH   1   7
TORSDOF 2
ENDMDL
