MODEL 1
REMARK minimizedAffinity -1.48687339
REMARK minimizedRMSD -1
REMARK  2 active torsions:
REMARK  status: ('A' for Active; 'I' for Inactive)
REMARK    1  A    between atoms: C2'_3  and  C1'_4 
REMARK    2  A    between atoms: C1'_4  and  C1_5 
ROOT
ATOM      1  C1  I4B d   1      -1.447   0.049   2.048  0.00  0.00    -0.075 A 
ATOM      2  C2  I4B d   1      -0.505   0.908   1.539  0.00  0.00     0.003 A 
ATOM      3  C3  I4B d   1      -0.620   2.302   1.758  0.00  0.00     0.002 A 
ATOM      4  C4  I4B d   1      -1.713   2.795   2.443  0.00  0.00    -0.004 A 
ATOM      5  C5  I4B d   1      -2.654   1.920   2.977  0.00  0.00     0.002 A 
ATOM      6  C6  I4B d   1      -2.515   0.538   2.789  0.00  0.00     0.003 A 
ENDROOT
BRANCH   1   7
ATOM      7  C1' I4B d   1      -1.312  -1.415   1.770  0.00  0.00     0.060 C 
BRANCH   7   8
ATOM      8  C2' I4B d   1      -1.137  -2.128   3.095  0.00  0.00    -0.013 C 
ATOM      9  C4' I4B d   1      -2.446  -2.239   3.831  0.00  0.00     0.013 C 
ATOM     10  C3' I4B d   1      -0.554  -3.481   2.820  0.00  0.00     0.013 C 
ENDBRANCH   7   8
ENDBRANCH   1   7
TORSDOF 2
ENDMDL
