MODEL 1
REMARK minimizedAffinity -0.425551802
REMARK minimizedRMSD -1
REMARK  2 active torsions:
REMARK  status: ('A' for Active; 'I' for Inactive)
REMARK    1  A    between atoms: C2'_3  and  C1'_4 
REMARK    2  A    between atoms: C1'_4  and  C1_5 
ROOT
ATOM      1  C1  I4B d   1       0.656   0.470   1.692  0.00  0.00    -0.075 A 
ATOM      2  C2  I4B d   1      -0.356  -0.455   1.641  0.00  0.00     0.003 A 
ATOM      3  C3  I4B d   1      -1.696  -0.059   1.870  0.00  0.00     0.002 A 
ATOM      4  C4  I4B d   1      -1.971   1.253   2.194  0.00  0.00    -0.004 A 
ATOM      5  C5  I4B d   1      -0.946   2.195   2.223  0.00  0.00     0.002 A 
ATOM      6  C6  I4B d   1       0.374   1.804   1.959  0.00  0.00     0.003 A 
ENDROOT
BRANCH   1   7
ATOM      7  C1' I4B d   1       2.064   0.012   1.478  0.00  0.00     0.060 C 
BRANCH   7   8
ATOM      8  C2' I4B d   1       2.523  -0.692   2.739  0.00  0.00    -0.013 C 
ATOM      9  C4' I4B d   1       4.020  -0.852   2.760  0.00  0.00     0.013 C 
ATOM     10  C3' I4B d   1       2.047   0.108   3.915  0.00  0.00     0.013 C 
ENDBRANCH   7   8
ENDBRANCH   1   7
TORSDOF 2
ENDMDL
