MODEL 1
REMARK minimizedAffinity 3.71615219
REMARK minimizedRMSD -1
REMARK  2 active torsions:
REMARK  status: ('A' for Active; 'I' for Inactive)
REMARK    1  A    between atoms: C2'_3  and  C1'_4 
REMARK    2  A    between atoms: C1'_4  and  C1_5 
ROOT
ATOM      1  C1  I4B d   1      -2.763   1.982   2.995  0.00  0.00    -0.075 A 
ATOM      2  C2  I4B d   1      -2.539   3.029   2.135  0.00  0.00     0.003 A 
ATOM      3  C3  I4B d   1      -1.264   3.205   1.544  0.00  0.00     0.002 A 
ATOM      4  C4  I4B d   1      -0.236   2.347   1.878  0.00  0.00    -0.004 A 
ATOM      5  C5  I4B d   1      -0.471   1.274   2.732  0.00  0.00     0.002 A 
ATOM      6  C6  I4B d   1      -1.746   1.082   3.284  0.00  0.00     0.003 A 
ENDROOT
BRANCH   1   7
ATOM      7  C1' I4B d   1      -4.112   1.845   3.626  0.00  0.00     0.060 C 
BRANCH   7   8
ATOM      8  C2' I4B d   1      -4.043   2.457   5.011  0.00  0.00    -0.013 C 
ATOM      9  C4' I4B d   1      -4.910   3.685   5.107  0.00  0.00     0.013 C 
ATOM     10  C3' I4B d   1      -4.471   1.414   6.000  0.00  0.00     0.013 C 
ENDBRANCH   7   8
ENDBRANCH   1   7
TORSDOF 2
ENDMDL
