MODEL 1
REMARK minimizedAffinity 0.459137678
REMARK minimizedRMSD -1
REMARK  2 active torsions:
REMARK  status: ('A' for Active; 'I' for Inactive)
REMARK    1  A    between atoms: C2'_3  and  C1'_4 
REMARK    2  A    between atoms: C1'_4  and  C1_5 
ROOT
ATOM      1  C1  I4B d   1      -2.019  -1.108   2.522  0.00  0.00    -0.075 A 
ATOM      2  C2  I4B d   1      -3.279  -1.267   3.044  0.00  0.00     0.003 A 
ATOM      3  C3  I4B d   1      -3.560  -2.351   3.911  0.00  0.00     0.002 A 
ATOM      4  C4  I4B d   1      -2.573  -3.274   4.187  0.00  0.00    -0.004 A 
ATOM      5  C5  I4B d   1      -1.290  -3.099   3.675  0.00  0.00     0.002 A 
ATOM      6  C6  I4B d   1      -1.008  -2.003   2.848  0.00  0.00     0.003 A 
ENDROOT
BRANCH   1   7
ATOM      7  C1' I4B d   1      -1.765   0.029   1.584  0.00  0.00     0.060 C 
BRANCH   7   8
ATOM      8  C2' I4B d   1      -0.875   1.029   2.293  0.00  0.00    -0.013 C 
ATOM      9  C4' I4B d   1      -0.010   1.778   1.315  0.00  0.00     0.013 C 
ATOM     10  C3' I4B d   1      -1.755   1.966   3.066  0.00  0.00     0.013 C 
ENDBRANCH   7   8
ENDBRANCH   1   7
TORSDOF 2
ENDMDL
