MODEL 1
REMARK minimizedAffinity 3.23480415
REMARK minimizedRMSD -1
REMARK  0 active torsions:
REMARK  status: ('A' for Active; 'I' for Inactive)
ROOT
ATOM      1  N1  IND d   1      -0.847  -4.824   1.102  0.00  0.00    -0.196 N 
ATOM      2  C2  IND d   1       0.120  -5.723   1.456  0.00  0.00     0.054 A 
ATOM      3  C3  IND d   1       1.348  -5.221   1.195  0.00  0.00    -0.031 A 
ATOM      4  C4  IND d   1       2.007  -2.906   0.281  0.00  0.00     0.051 A 
ATOM      5  C5  IND d   1       1.472  -1.754  -0.223  0.00  0.00    -0.031 A 
ATOM      6  C6  IND d   1       0.108  -1.562  -0.310  0.00  0.00     0.015 A 
ATOM      7  C7  IND d   1      -0.775  -2.514   0.116  0.00  0.00    -0.016 A 
ATOM      8  C8  IND d   1      -0.234  -3.688   0.621  0.00  0.00    -0.047 A 
ATOM      9  C9  IND d   1       1.149  -3.906   0.673  0.00  0.00    -0.096 A 
ATOM     10  HN1 IND d   1      -1.695  -4.948   1.167  0.00  0.00     0.298 HD
ENDROOT
TORSDOF 0
ENDMDL
