MODEL 1
REMARK minimizedAffinity -2.85617995
REMARK minimizedRMSD -1
REMARK  0 active torsions:
REMARK  status: ('A' for Active; 'I' for Inactive)
ROOT
ATOM      1  N1  IND d   1      -0.405  -3.631   0.023  0.00  0.00    -0.196 N 
ATOM      2  C2  IND d   1       0.770  -4.306  -0.153  0.00  0.00     0.054 A 
ATOM      3  C3  IND d   1       1.742  -3.460  -0.562  0.00  0.00    -0.031 A 
ATOM      4  C4  IND d   1       1.652  -0.911  -0.909  0.00  0.00     0.051 A 
ATOM      5  C5  IND d   1       0.786   0.147  -0.907  0.00  0.00    -0.031 A 
ATOM      6  C6  IND d   1      -0.547  -0.003  -0.586  0.00  0.00     0.015 A 
ATOM      7  C7  IND d   1      -1.064  -1.220  -0.242  0.00  0.00    -0.016 A 
ATOM      8  C8  IND d   1      -0.190  -2.297  -0.250  0.00  0.00    -0.047 A 
ATOM      9  C9  IND d   1       1.155  -2.159  -0.616  0.00  0.00    -0.096 A 
ATOM     10  HN1 IND d   1      -1.153  -3.980   0.264  0.00  0.00     0.298 HD
ENDROOT
TORSDOF 0
ENDMDL
