MODEL 1
REMARK minimizedAffinity -0.141954631
REMARK minimizedRMSD -1
REMARK  0 active torsions:
REMARK  status: ('A' for Active; 'I' for Inactive)
ROOT
ATOM      1  N1  IND d   1       1.735  -3.826   0.280  0.00  0.00    -0.196 N 
ATOM      2  C2  IND d   1       0.559  -4.298   0.793  0.00  0.00     0.054 A 
ATOM      3  C3  IND d   1      -0.432  -3.399   0.602  0.00  0.00    -0.031 A 
ATOM      4  C4  IND d   1      -0.371  -1.132  -0.617  0.00  0.00     0.051 A 
ATOM      5  C5  IND d   1       0.487  -0.257  -1.221  0.00  0.00    -0.031 A 
ATOM      6  C6  IND d   1       1.832  -0.533  -1.361  0.00  0.00     0.015 A 
ATOM      7  C7  IND d   1       2.369  -1.705  -0.910  0.00  0.00    -0.016 A 
ATOM      8  C8  IND d   1       1.502  -2.594  -0.290  0.00  0.00    -0.047 A 
ATOM      9  C9  IND d   1       0.144  -2.300  -0.107  0.00  0.00    -0.096 A 
ATOM     10  HN1 IND d   1       2.494  -4.231   0.308  0.00  0.00     0.298 HD
ENDROOT
TORSDOF 0
ENDMDL
