MODEL 1
REMARK minimizedAffinity -5.47662592
REMARK minimizedRMSD -1
REMARK  0 active torsions:
REMARK  status: ('A' for Active; 'I' for Inactive)
ROOT
ATOM      1  N1  IND d   1       1.981  -4.644   0.191  0.00  0.00    -0.196 N 
ATOM      2  C2  IND d   1       1.023  -5.426   0.774  0.00  0.00     0.054 A 
ATOM      3  C3  IND d   1      -0.133  -4.738   0.902  0.00  0.00    -0.031 A 
ATOM      4  C4  IND d   1      -0.709  -2.350   0.132  0.00  0.00     0.051 A 
ATOM      5  C5  IND d   1      -0.149  -1.231  -0.418  0.00  0.00    -0.031 A 
ATOM      6  C6  IND d   1       1.176  -1.192  -0.803  0.00  0.00     0.015 A 
ATOM      7  C7  IND d   1       1.990  -2.280  -0.662  0.00  0.00    -0.016 A 
ATOM      8  C8  IND d   1       1.427  -3.416  -0.098  0.00  0.00    -0.047 A 
ATOM      9  C9  IND d   1       0.095  -3.447   0.334  0.00  0.00    -0.096 A 
ATOM     10  HN1 IND d   1       2.792  -4.879   0.032  0.00  0.00     0.298 HD
ENDROOT
TORSDOF 0
ENDMDL
