MODEL 1
REMARK minimizedAffinity -6.15813875
REMARK minimizedRMSD -1
REMARK  0 active torsions:
REMARK  status: ('A' for Active; 'I' for Inactive)
ROOT
ATOM      1  N1  IND d   1       2.181  -3.976   0.485  0.00  0.00    -0.196 N 
ATOM      2  C2  IND d   1       1.191  -4.914   0.392  0.00  0.00     0.054 A 
ATOM      3  C3  IND d   1       0.022  -4.331   0.042  0.00  0.00    -0.031 A 
ATOM      4  C4  IND d   1      -0.471  -1.869  -0.526  0.00  0.00     0.051 A 
ATOM      5  C5  IND d   1       0.108  -0.631  -0.547  0.00  0.00    -0.031 A 
ATOM      6  C6  IND d   1       1.435  -0.442  -0.220  0.00  0.00     0.015 A 
ATOM      7  C7  IND d   1       2.239  -1.489   0.130  0.00  0.00    -0.016 A 
ATOM      8  C8  IND d   1       1.653  -2.747   0.158  0.00  0.00    -0.047 A 
ATOM      9  C9  IND d   1       0.296  -2.939  -0.131  0.00  0.00    -0.096 A 
ATOM     10  HN1 IND d   1       2.997  -4.129   0.711  0.00  0.00     0.298 HD
ENDROOT
TORSDOF 0
ENDMDL
