MODEL 1
REMARK minimizedAffinity 4.81456995
REMARK minimizedRMSD -1
REMARK  0 active torsions:
REMARK  status: ('A' for Active; 'I' for Inactive)
ROOT
ATOM      1  N1  IND d   1       1.783  -0.868  -1.201  0.00  0.00    -0.196 N 
ATOM      2  C2  IND d   1       0.636  -0.161  -1.428  0.00  0.00     0.054 A 
ATOM      3  C3  IND d   1      -0.427  -0.807  -0.898  0.00  0.00    -0.031 A 
ATOM      4  C4  IND d   1      -0.501  -2.983   0.475  0.00  0.00     0.051 A 
ATOM      5  C5  IND d   1       0.290  -4.008   0.913  0.00  0.00    -0.031 A 
ATOM      6  C6  IND d   1       1.648  -4.037   0.667  0.00  0.00     0.015 A 
ATOM      7  C7  IND d   1       2.269  -3.033  -0.021  0.00  0.00    -0.016 A 
ATOM      8  C8  IND d   1       1.467  -1.995  -0.473  0.00  0.00    -0.047 A 
ATOM      9  C9  IND d   1       0.082  -1.980  -0.263  0.00  0.00    -0.096 A 
ATOM     10  HN1 IND d   1       2.570  -0.647  -1.467  0.00  0.00     0.298 HD
ENDROOT
TORSDOF 0
ENDMDL
