MODEL 1
REMARK minimizedAffinity -1.15435302
REMARK minimizedRMSD -1
REMARK  0 active torsions:
REMARK  status: ('A' for Active; 'I' for Inactive)
ROOT
ATOM      1  N1  IND d   1      -1.730  -3.809  -0.787  0.00  0.00    -0.196 N 
ATOM      2  C2  IND d   1      -1.479  -4.513   0.358  0.00  0.00     0.054 A 
ATOM      3  C3  IND d   1      -0.510  -3.907   1.079  0.00  0.00    -0.031 A 
ATOM      4  C4  IND d   1       0.733  -1.700   0.621  0.00  0.00     0.051 A 
ATOM      5  C5  IND d   1       0.872  -0.717  -0.319  0.00  0.00    -0.031 A 
ATOM      6  C6  IND d   1       0.135  -0.714  -1.485  0.00  0.00     0.015 A 
ATOM      7  C7  IND d   1      -0.782  -1.691  -1.751  0.00  0.00    -0.016 A 
ATOM      8  C8  IND d   1      -0.921  -2.694  -0.802  0.00  0.00    -0.047 A 
ATOM      9  C9  IND d   1      -0.145  -2.726   0.363  0.00  0.00    -0.096 A 
ATOM     10  HN1 IND d   1      -2.297  -4.027  -1.396  0.00  0.00     0.298 HD
ENDROOT
TORSDOF 0
ENDMDL
