MODEL 1
REMARK minimizedAffinity 8.7652626
REMARK minimizedRMSD -1
REMARK  0 active torsions:
REMARK  status: ('A' for Active; 'I' for Inactive)
ROOT
ATOM      1  N1  IND d   1       3.170  -1.828   0.310  0.00  0.00    -0.196 N 
ATOM      2  C2  IND d   1       3.107  -3.192   0.243  0.00  0.00     0.054 A 
ATOM      3  C3  IND d   1       1.976  -3.579  -0.388  0.00  0.00    -0.031 A 
ATOM      4  C4  IND d   1       0.138  -2.145  -1.480  0.00  0.00     0.051 A 
ATOM      5  C5  IND d   1      -0.262  -0.848  -1.643  0.00  0.00    -0.031 A 
ATOM      6  C6  IND d   1       0.478   0.210  -1.156  0.00  0.00     0.015 A 
ATOM      7  C7  IND d   1       1.657   0.010  -0.494  0.00  0.00    -0.016 A 
ATOM      8  C8  IND d   1       2.062  -1.306  -0.321  0.00  0.00    -0.047 A 
ATOM      9  C9  IND d   1       1.294  -2.385  -0.776  0.00  0.00    -0.096 A 
ATOM     10  HN1 IND d   1       3.796  -1.372   0.684  0.00  0.00     0.298 HD
ENDROOT
TORSDOF 0
ENDMDL
