MODEL 1
REMARK minimizedAffinity -1.88694465
REMARK minimizedRMSD -1
REMARK  0 active torsions:
REMARK  status: ('A' for Active; 'I' for Inactive)
ROOT
ATOM      1  N1  IND d   1       0.321  -3.774   0.505  0.00  0.00    -0.196 N 
ATOM      2  C2  IND d   1       1.673  -3.955   0.583  0.00  0.00     0.054 A 
ATOM      3  C3  IND d   1       2.321  -2.889   0.063  0.00  0.00    -0.031 A 
ATOM      4  C4  IND d   1       1.363  -0.692  -0.878  0.00  0.00     0.051 A 
ATOM      5  C5  IND d   1       0.183  -0.079  -1.191  0.00  0.00    -0.031 A 
ATOM      6  C6  IND d   1      -1.037  -0.677  -0.947  0.00  0.00     0.015 A 
ATOM      7  C7  IND d   1      -1.122  -1.911  -0.368  0.00  0.00    -0.016 A 
ATOM      8  C8  IND d   1       0.075  -2.540  -0.056  0.00  0.00    -0.047 A 
ATOM      9  C9  IND d   1       1.316  -1.956  -0.339  0.00  0.00    -0.096 A 
ATOM     10  HN1 IND d   1      -0.276  -4.337   0.762  0.00  0.00     0.298 HD
ENDROOT
TORSDOF 0
ENDMDL
