MODEL 1
REMARK minimizedAffinity -4.93810701
REMARK minimizedRMSD -1
REMARK  0 active torsions:
REMARK  status: ('A' for Active; 'I' for Inactive)
ROOT
ATOM      1  N1  IND d   1       2.172  -4.055  -0.077  0.00  0.00    -0.196 N 
ATOM      2  C2  IND d   1       1.332  -4.806   0.697  0.00  0.00     0.054 A 
ATOM      3  C3  IND d   1       0.210  -4.109   0.986  0.00  0.00    -0.031 A 
ATOM      4  C4  IND d   1      -0.501  -1.759   0.209  0.00  0.00     0.051 A 
ATOM      5  C5  IND d   1      -0.048  -0.670  -0.481  0.00  0.00    -0.031 A 
ATOM      6  C6  IND d   1       1.192  -0.654  -1.086  0.00  0.00     0.015 A 
ATOM      7  C7  IND d   1       2.024  -1.736  -1.033  0.00  0.00    -0.016 A 
ATOM      8  C8  IND d   1       1.571  -2.841  -0.327  0.00  0.00    -0.047 A 
ATOM      9  C9  IND d   1       0.331  -2.848   0.325  0.00  0.00    -0.096 A 
ATOM     10  HN1 IND d   1       2.946  -4.300  -0.359  0.00  0.00     0.298 HD
ENDROOT
TORSDOF 0
ENDMDL
