MODEL 1
REMARK minimizedAffinity 2.37931871
REMARK minimizedRMSD -1
REMARK  0 active torsions:
REMARK  status: ('A' for Active; 'I' for Inactive)
ROOT
ATOM      1  N1  IND d   1       2.460  -1.581  -1.094  0.00  0.00    -0.196 N 
ATOM      2  C2  IND d   1       1.710  -0.828  -1.954  0.00  0.00     0.054 A 
ATOM      3  C3  IND d   1       0.415  -1.215  -1.912  0.00  0.00    -0.031 A 
ATOM      4  C4  IND d   1      -0.713  -2.992  -0.429  0.00  0.00     0.051 A 
ATOM      5  C5  IND d   1      -0.432  -3.964   0.489  0.00  0.00    -0.031 A 
ATOM      6  C6  IND d   1       0.852  -4.195   0.937  0.00  0.00     0.015 A 
ATOM      7  C7  IND d   1       1.907  -3.451   0.491  0.00  0.00    -0.016 A 
ATOM      8  C8  IND d   1       1.627  -2.467  -0.447  0.00  0.00    -0.047 A 
ATOM      9  C9  IND d   1       0.332  -2.256  -0.937  0.00  0.00    -0.096 A 
ATOM     10  HN1 IND d   1       3.309  -1.512  -0.977  0.00  0.00     0.298 HD
ENDROOT
TORSDOF 0
ENDMDL
