MODEL 1
REMARK minimizedAffinity -0.544708014
REMARK minimizedRMSD -1
REMARK  0 active torsions:
REMARK  status: ('A' for Active; 'I' for Inactive)
ROOT
ATOM      1  N1  IND d   1       1.975  -4.304   0.275  0.00  0.00    -0.196 N 
ATOM      2  C2  IND d   1       0.880  -5.055   0.598  0.00  0.00     0.054 A 
ATOM      3  C3  IND d   1      -0.251  -4.330   0.441  0.00  0.00    -0.031 A 
ATOM      4  C4  IND d   1      -0.543  -1.926  -0.433  0.00  0.00     0.051 A 
ATOM      5  C5  IND d   1       0.170  -0.826  -0.821  0.00  0.00    -0.031 A 
ATOM      6  C6  IND d   1       1.549  -0.831  -0.866  0.00  0.00     0.015 A 
ATOM      7  C7  IND d   1       2.269  -1.944  -0.535  0.00  0.00    -0.016 A 
ATOM      8  C8  IND d   1       1.549  -3.060  -0.135  0.00  0.00    -0.047 A 
ATOM      9  C9  IND d   1       0.151  -3.048  -0.046  0.00  0.00    -0.096 A 
ATOM     10  HN1 IND d   1       2.793  -4.565   0.320  0.00  0.00     0.298 HD
ENDROOT
TORSDOF 0
ENDMDL
