MODEL 1
REMARK minimizedAffinity -2.53161931
REMARK minimizedRMSD -1
REMARK  0 active torsions:
REMARK  status: ('A' for Active; 'I' for Inactive)
ROOT
ATOM      1  N1  IND d   1       1.750  -3.862   0.489  0.00  0.00    -0.196 N 
ATOM      2  C2  IND d   1       0.654  -4.390   1.113  0.00  0.00     0.054 A 
ATOM      3  C3  IND d   1      -0.431  -3.614   0.895  0.00  0.00    -0.031 A 
ATOM      4  C4  IND d   1      -0.659  -1.488  -0.539  0.00  0.00     0.051 A 
ATOM      5  C5  IND d   1       0.076  -0.600  -1.274  0.00  0.00    -0.031 A 
ATOM      6  C6  IND d   1       1.433  -0.759  -1.465  0.00  0.00     0.015 A 
ATOM      7  C7  IND d   1       2.107  -1.823  -0.935  0.00  0.00    -0.016 A 
ATOM      8  C8  IND d   1       1.366  -2.722  -0.182  0.00  0.00    -0.047 A 
ATOM      9  C9  IND d   1      -0.004  -2.543   0.050  0.00  0.00    -0.096 A 
ATOM     10  HN1 IND d   1       2.546  -4.187   0.512  0.00  0.00     0.298 HD
ENDROOT
TORSDOF 0
ENDMDL
