MODEL 1
REMARK minimizedAffinity -2.41967511
REMARK minimizedRMSD -1
REMARK  0 active torsions:
REMARK  status: ('A' for Active; 'I' for Inactive)
ROOT
ATOM      1  N1  IND d   1       2.643  -4.214   0.749  0.00  0.00    -0.196 N 
ATOM      2  C2  IND d   1       1.597  -5.032   1.073  0.00  0.00     0.054 A 
ATOM      3  C3  IND d   1       0.424  -4.456   0.726  0.00  0.00    -0.031 A 
ATOM      4  C4  IND d   1      -0.007  -2.221  -0.477  0.00  0.00     0.051 A 
ATOM      5  C5  IND d   1       0.634  -1.107  -0.943  0.00  0.00    -0.031 A 
ATOM      6  C6  IND d   1       2.005  -0.970  -0.869  0.00  0.00     0.015 A 
ATOM      7  C7  IND d   1       2.791  -1.952  -0.335  0.00  0.00    -0.016 A 
ATOM      8  C8  IND d   1       2.143  -3.081   0.145  0.00  0.00    -0.047 A 
ATOM      9  C9  IND d   1       0.749  -3.207   0.112  0.00  0.00    -0.096 A 
ATOM     10  HN1 IND d   1       3.474  -4.379   0.898  0.00  0.00     0.298 HD
ENDROOT
TORSDOF 0
ENDMDL
