MODEL 1
REMARK minimizedAffinity -6.46505785
REMARK minimizedRMSD -1
REMARK  0 active torsions:
REMARK  status: ('A' for Active; 'I' for Inactive)
ROOT
ATOM      1  N1  IND d   1       1.869  -3.964   0.436  0.00  0.00    -0.196 N 
ATOM      2  C2  IND d   1       0.761  -4.647   0.854  0.00  0.00     0.054 A 
ATOM      3  C3  IND d   1      -0.341  -3.872   0.739  0.00  0.00    -0.031 A 
ATOM      4  C4  IND d   1      -0.572  -1.489  -0.207  0.00  0.00     0.051 A 
ATOM      5  C5  IND d   1       0.167  -0.441  -0.679  0.00  0.00    -0.031 A 
ATOM      6  C6  IND d   1       1.539  -0.516  -0.808  0.00  0.00     0.015 A 
ATOM      7  C7  IND d   1       2.224  -1.651  -0.480  0.00  0.00    -0.016 A 
ATOM      8  C8  IND d   1       1.477  -2.715   0.006  0.00  0.00    -0.047 A 
ATOM      9  C9  IND d   1       0.090  -2.630   0.180  0.00  0.00    -0.096 A 
ATOM     10  HN1 IND d   1       2.674  -4.264   0.440  0.00  0.00     0.298 HD
ENDROOT
TORSDOF 0
ENDMDL
