MODEL 1
REMARK minimizedAffinity -3.17467213
REMARK minimizedRMSD -1
REMARK  0 active torsions:
REMARK  status: ('A' for Active; 'I' for Inactive)
ROOT
ATOM      1  N1  IND d   1       0.250  -3.814   0.389  0.00  0.00    -0.196 N 
ATOM      2  C2  IND d   1      -1.095  -3.601   0.508  0.00  0.00     0.054 A 
ATOM      3  C3  IND d   1      -1.399  -2.323   0.188  0.00  0.00    -0.031 A 
ATOM      4  C4  IND d   1       0.138  -0.438  -0.656  0.00  0.00     0.051 A 
ATOM      5  C5  IND d   1       1.452  -0.144  -0.891  0.00  0.00    -0.031 A 
ATOM      6  C6  IND d   1       2.452  -1.077  -0.710  0.00  0.00     0.015 A 
ATOM      7  C7  IND d   1       2.173  -2.349  -0.297  0.00  0.00    -0.016 A 
ATOM      8  C8  IND d   1       0.841  -2.650  -0.051  0.00  0.00    -0.047 A 
ATOM      9  C9  IND d   1      -0.174  -1.694  -0.191  0.00  0.00    -0.096 A 
ATOM     10  HN1 IND d   1       0.658  -4.551   0.560  0.00  0.00     0.298 HD
ENDROOT
TORSDOF 0
ENDMDL
