MODEL 1
REMARK minimizedAffinity -2.47156739
REMARK minimizedRMSD -1
REMARK  0 active torsions:
REMARK  status: ('A' for Active; 'I' for Inactive)
ROOT
ATOM      1  N1  IND d   1      -0.505  -4.624   1.283  0.00  0.00    -0.196 N 
ATOM      2  C2  IND d   1       0.615  -5.393   1.434  0.00  0.00     0.054 A 
ATOM      3  C3  IND d   1       1.700  -4.743   0.957  0.00  0.00    -0.031 A 
ATOM      4  C4  IND d   1       1.886  -2.368  -0.020  0.00  0.00     0.051 A 
ATOM      5  C5  IND d   1       1.127  -1.294  -0.392  0.00  0.00    -0.031 A 
ATOM      6  C6  IND d   1      -0.242  -1.274  -0.220  0.00  0.00     0.015 A 
ATOM      7  C7  IND d   1      -0.905  -2.327   0.345  0.00  0.00    -0.016 A 
ATOM      8  C8  IND d   1      -0.138  -3.422   0.718  0.00  0.00    -0.047 A 
ATOM      9  C9  IND d   1       1.246  -3.465   0.507  0.00  0.00    -0.096 A 
ATOM     10  HN1 IND d   1      -1.304  -4.852   1.504  0.00  0.00     0.298 HD
ENDROOT
TORSDOF 0
ENDMDL
