MODEL 1
REMARK minimizedAffinity 27.5707951
REMARK minimizedRMSD -1
REMARK  0 active torsions:
REMARK  status: ('A' for Active; 'I' for Inactive)
ROOT
ATOM      1  C   UNL d   1       3.074   4.043   4.902  0.00  0.00     0.124 A 
ATOM      2  C1  UNL d   1       4.140   4.854   4.536  0.00  0.00     0.062 A 
ATOM      3  C2  UNL d   1       4.975   4.481   3.488  0.00  0.00     0.162 A 
ATOM      4  C3  UNL d   1       4.748   3.291   2.796  0.00  0.00    -0.034 A 
ATOM      5  C4  UNL d   1       3.675   2.480   3.171  0.00  0.00     0.162 A 
ATOM      6  C5  UNL d   1       2.843   2.858   4.219  0.00  0.00     0.062 A 
ATOM      7  F   UNL d   1       1.813   2.073   4.571  0.00  0.00    -0.097 F 
ATOM      8  F1  UNL d   1       3.428   1.330   2.527  0.00  0.00    -0.096 F 
ATOM      9  I   UNL d   1       5.995   2.729   1.228  0.00  0.00    -0.060 I 
ATOM     10  F2  UNL d   1       5.998   5.283   3.156  0.00  0.00    -0.096 F 
ATOM     11  F3  UNL d   1       4.366   5.999   5.195  0.00  0.00    -0.097 F 
ATOM     12  F4  UNL d   1       2.272   4.405   5.912  0.00  0.00    -0.092 F 
ENDROOT
TORSDOF 0
ENDMDL
