MODEL 1
REMARK minimizedAffinity 15.959425
REMARK minimizedRMSD -1
REMARK  0 active torsions:
REMARK  status: ('A' for Active; 'I' for Inactive)
ROOT
ATOM      1  C   UNL d   1       2.466  -1.339   5.140  0.00  0.00     0.124 A 
ATOM      2  C1  UNL d   1       2.345  -0.163   4.412  0.00  0.00     0.062 A 
ATOM      3  C2  UNL d   1       1.291   0.002   3.519  0.00  0.00     0.162 A 
ATOM      4  C3  UNL d   1       0.347  -1.011   3.349  0.00  0.00    -0.034 A 
ATOM      5  C4  UNL d   1       0.475  -2.191   4.084  0.00  0.00     0.162 A 
ATOM      6  C5  UNL d   1       1.531  -2.351   4.975  0.00  0.00     0.062 A 
ATOM      7  F   UNL d   1       1.646  -3.488   5.678  0.00  0.00    -0.097 F 
ATOM      8  F1  UNL d   1      -0.414  -3.185   3.945  0.00  0.00    -0.096 F 
ATOM      9  I   UNL d   1      -1.232  -0.767   2.015  0.00  0.00    -0.060 I 
ATOM     10  F2  UNL d   1       1.199   1.149   2.829  0.00  0.00    -0.096 F 
ATOM     11  F3  UNL d   1       3.248   0.816   4.568  0.00  0.00    -0.097 F 
ATOM     12  F4  UNL d   1       3.482  -1.496   5.998  0.00  0.00    -0.092 F 
ENDROOT
TORSDOF 0
ENDMDL
