MODEL 1
REMARK minimizedAffinity 8.71360016
REMARK minimizedRMSD -1
REMARK  0 active torsions:
REMARK  status: ('A' for Active; 'I' for Inactive)
ROOT
ATOM      1  C   UNL d   1       4.483   2.611   3.519  0.00  0.00     0.124 A 
ATOM      2  C1  UNL d   1       5.251   3.759   3.656  0.00  0.00     0.062 A 
ATOM      3  C2  UNL d   1       5.247   4.728   2.657  0.00  0.00     0.162 A 
ATOM      4  C3  UNL d   1       4.471   4.553   1.511  0.00  0.00    -0.034 A 
ATOM      5  C4  UNL d   1       3.702   3.396   1.379  0.00  0.00     0.162 A 
ATOM      6  C5  UNL d   1       3.710   2.430   2.381  0.00  0.00     0.062 A 
ATOM      7  F   UNL d   1       2.967   1.321   2.246  0.00  0.00    -0.097 F 
ATOM      8  F1  UNL d   1       2.944   3.196   0.291  0.00  0.00    -0.096 F 
ATOM      9  I   UNL d   1       4.461   6.000   0.015  0.00  0.00    -0.060 I 
ATOM     10  F2  UNL d   1       5.998   5.827   2.817  0.00  0.00    -0.096 F 
ATOM     11  F3  UNL d   1       6.000   3.935   4.754  0.00  0.00    -0.097 F 
ATOM     12  F4  UNL d   1       4.490   1.680   4.481  0.00  0.00    -0.092 F 
ENDROOT
TORSDOF 0
ENDMDL
