MODEL 1
REMARK minimizedAffinity 20.4161434
REMARK minimizedRMSD -1
REMARK  0 active torsions:
REMARK  status: ('A' for Active; 'I' for Inactive)
ROOT
ATOM      1  C   UNL d   1      -2.481   3.376   0.971  0.00  0.00     0.124 A 
ATOM      2  C1  UNL d   1      -2.092   4.438   0.166  0.00  0.00     0.062 A 
ATOM      3  C2  UNL d   1      -2.978   4.974  -0.764  0.00  0.00     0.162 A 
ATOM      4  C3  UNL d   1      -4.264   4.448  -0.894  0.00  0.00    -0.034 A 
ATOM      5  C4  UNL d   1      -4.648   3.380  -0.082  0.00  0.00     0.162 A 
ATOM      6  C5  UNL d   1      -3.758   2.848   0.846  0.00  0.00     0.062 A 
ATOM      7  F   UNL d   1      -4.136   1.822   1.622  0.00  0.00    -0.097 F 
ATOM      8  F1  UNL d   1      -5.876   2.850  -0.181  0.00  0.00    -0.096 F 
ATOM      9  I   UNL d   1      -5.592   5.246  -2.283  0.00  0.00    -0.060 I 
ATOM     10  F2  UNL d   1      -2.575   6.000  -1.528  0.00  0.00    -0.096 F 
ATOM     11  F3  UNL d   1      -0.858   4.950   0.285  0.00  0.00    -0.097 F 
ATOM     12  F4  UNL d   1      -1.626   2.862   1.864  0.00  0.00    -0.092 F 
ENDROOT
TORSDOF 0
ENDMDL
