MODEL 1
REMARK minimizedAffinity 15.9888649
REMARK minimizedRMSD -1
REMARK  0 active torsions:
REMARK  status: ('A' for Active; 'I' for Inactive)
ROOT
ATOM      1  C   UNL d   1      -0.759  -0.578   2.686  0.00  0.00     0.124 A 
ATOM      2  C1  UNL d   1      -0.909  -1.831   3.266  0.00  0.00     0.062 A 
ATOM      3  C2  UNL d   1       0.159  -2.426   3.931  0.00  0.00     0.162 A 
ATOM      4  C3  UNL d   1       1.386  -1.769   4.021  0.00  0.00    -0.034 A 
ATOM      5  C4  UNL d   1       1.529  -0.511   3.434  0.00  0.00     0.162 A 
ATOM      6  C5  UNL d   1       0.459   0.080   2.770  0.00  0.00     0.062 A 
ATOM      7  F   UNL d   1       0.605   1.290   2.211  0.00  0.00    -0.097 F 
ATOM      8  F1  UNL d   1       2.696   0.148   3.502  0.00  0.00    -0.096 F 
ATOM      9  I   UNL d   1       2.986  -2.656   5.014  0.00  0.00    -0.060 I 
ATOM     10  F2  UNL d   1      -0.014  -3.637   4.482  0.00  0.00    -0.096 F 
ATOM     11  F3  UNL d   1      -2.085  -2.469   3.185  0.00  0.00    -0.097 F 
ATOM     12  F4  UNL d   1      -1.788  -0.008   2.046  0.00  0.00    -0.092 F 
ENDROOT
TORSDOF 0
ENDMDL
