MODEL 1
REMARK minimizedAffinity 32.866436
REMARK minimizedRMSD -1
REMARK  0 active torsions:
REMARK  status: ('A' for Active; 'I' for Inactive)
ROOT
ATOM      1  C   UNL d   1      -0.404  -1.468  -2.378  0.00  0.00     0.124 A 
ATOM      2  C1  UNL d   1      -0.142  -1.128  -3.698  0.00  0.00     0.062 A 
ATOM      3  C2  UNL d   1      -0.613  -1.930  -4.734  0.00  0.00     0.162 A 
ATOM      4  C3  UNL d   1      -1.352  -3.079  -4.454  0.00  0.00    -0.034 A 
ATOM      5  C4  UNL d   1      -1.611  -3.415  -3.124  0.00  0.00     0.162 A 
ATOM      6  C5  UNL d   1      -1.138  -2.611  -2.092  0.00  0.00     0.062 A 
ATOM      7  F   UNL d   1      -1.392  -2.941  -0.817  0.00  0.00    -0.097 F 
ATOM      8  F1  UNL d   1      -2.318  -4.514  -2.819  0.00  0.00    -0.096 F 
ATOM      9  I   UNL d   1      -2.058  -4.281  -6.000  0.00  0.00    -0.060 I 
ATOM     10  F2  UNL d   1      -0.345  -1.577  -6.000  0.00  0.00    -0.096 F 
ATOM     11  F3  UNL d   1       0.567  -0.025  -3.976  0.00  0.00    -0.097 F 
ATOM     12  F4  UNL d   1       0.051  -0.696  -1.383  0.00  0.00    -0.092 F 
ENDROOT
TORSDOF 0
ENDMDL
