MODEL 1
REMARK minimizedAffinity 19.7034588
REMARK minimizedRMSD -1
REMARK  0 active torsions:
REMARK  status: ('A' for Active; 'I' for Inactive)
ROOT
ATOM      1  C   UNL d   1       0.279  -1.744   4.048  0.00  0.00     0.124 A 
ATOM      2  C1  UNL d   1      -0.992  -2.300   3.992  0.00  0.00     0.062 A 
ATOM      3  C2  UNL d   1      -2.031  -1.610   3.375  0.00  0.00     0.162 A 
ATOM      4  C3  UNL d   1      -1.804  -0.356   2.808  0.00  0.00    -0.034 A 
ATOM      5  C4  UNL d   1      -0.524   0.197   2.870  0.00  0.00     0.162 A 
ATOM      6  C5  UNL d   1       0.512  -0.497   3.487  0.00  0.00     0.062 A 
ATOM      7  F   UNL d   1       1.739   0.042   3.541  0.00  0.00    -0.097 F 
ATOM      8  F1  UNL d   1      -0.270   1.401   2.335  0.00  0.00    -0.096 F 
ATOM      9  I   UNL d   1      -3.355   0.680   1.885  0.00  0.00    -0.060 I 
ATOM     10  F2  UNL d   1      -3.249  -2.171   3.335  0.00  0.00    -0.096 F 
ATOM     11  F3  UNL d   1      -1.219  -3.505   4.534  0.00  0.00    -0.097 F 
ATOM     12  F4  UNL d   1       1.277  -2.410   4.643  0.00  0.00    -0.092 F 
ENDROOT
TORSDOF 0
ENDMDL
