MODEL 1
REMARK minimizedAffinity 17.9230499
REMARK minimizedRMSD -1
REMARK  0 active torsions:
REMARK  status: ('A' for Active; 'I' for Inactive)
ROOT
ATOM      1  C   UNL d   1      -0.476   0.384   2.855  0.00  0.00     0.124 A 
ATOM      2  C1  UNL d   1       0.210  -0.791   2.580  0.00  0.00     0.062 A 
ATOM      3  C2  UNL d   1       1.185  -1.254   3.459  0.00  0.00     0.162 A 
ATOM      4  C3  UNL d   1       1.480  -0.542   4.622  0.00  0.00    -0.034 A 
ATOM      5  C4  UNL d   1       0.786   0.639   4.891  0.00  0.00     0.162 A 
ATOM      6  C5  UNL d   1      -0.187   1.098   4.010  0.00  0.00     0.062 A 
ATOM      7  F   UNL d   1      -0.849   2.233   4.277  0.00  0.00    -0.097 F 
ATOM      8  F1  UNL d   1       1.044   1.348   6.000  0.00  0.00    -0.096 F 
ATOM      9  I   UNL d   1       2.937  -1.231   5.938  0.00  0.00    -0.060 I 
ATOM     10  F2  UNL d   1       1.832  -2.392   3.168  0.00  0.00    -0.096 F 
ATOM     11  F3  UNL d   1      -0.067  -1.481   1.465  0.00  0.00    -0.097 F 
ATOM     12  F4  UNL d   1      -1.413   0.828   2.007  0.00  0.00    -0.092 F 
ENDROOT
TORSDOF 0
ENDMDL
