MODEL 1
REMARK minimizedAffinity 26.0929356
REMARK minimizedRMSD -1
REMARK  0 active torsions:
REMARK  status: ('A' for Active; 'I' for Inactive)
ROOT
ATOM      1  C   UNL d   1       5.504   1.700   1.943  0.00  0.00     0.124 A 
ATOM      2  C1  UNL d   1       4.990   2.964   1.691  0.00  0.00     0.062 A 
ATOM      3  C2  UNL d   1       4.474   3.730   2.733  0.00  0.00     0.162 A 
ATOM      4  C3  UNL d   1       4.471   3.235   4.036  0.00  0.00    -0.034 A 
ATOM      5  C4  UNL d   1       4.989   1.962   4.282  0.00  0.00     0.162 A 
ATOM      6  C5  UNL d   1       5.503   1.200   3.238  0.00  0.00     0.062 A 
ATOM      7  F   UNL d   1       6.000  -0.022   3.483  0.00  0.00    -0.097 F 
ATOM      8  F1  UNL d   1       5.001   1.455   5.524  0.00  0.00    -0.096 F 
ATOM      9  I   UNL d   1       3.701   4.378   5.596  0.00  0.00    -0.060 I 
ATOM     10  F2  UNL d   1       3.984   4.949   2.460  0.00  0.00    -0.096 F 
ATOM     11  F3  UNL d   1       4.989   3.449   0.441  0.00  0.00    -0.097 F 
ATOM     12  F4  UNL d   1       5.999   0.964   0.940  0.00  0.00    -0.092 F 
ENDROOT
TORSDOF 0
ENDMDL
