MODEL 1
REMARK minimizedAffinity 17.8571529
REMARK minimizedRMSD -1
REMARK  0 active torsions:
REMARK  status: ('A' for Active; 'I' for Inactive)
ROOT
ATOM      1  C   UNL d   1       0.584  -1.466  -4.700  0.00  0.00     0.124 A 
ATOM      2  C1  UNL d   1       1.690  -0.804  -4.186  0.00  0.00     0.062 A 
ATOM      3  C2  UNL d   1       2.948  -1.398  -4.237  0.00  0.00     0.162 A 
ATOM      4  C3  UNL d   1       3.107  -2.662  -4.805  0.00  0.00    -0.034 A 
ATOM      5  C4  UNL d   1       1.990  -3.322  -5.320  0.00  0.00     0.162 A 
ATOM      6  C5  UNL d   1       0.735  -2.724  -5.266  0.00  0.00     0.062 A 
ATOM      7  F   UNL d   1      -0.333  -3.366  -5.763  0.00  0.00    -0.097 F 
ATOM      8  F1  UNL d   1       2.107  -4.538  -5.873  0.00  0.00    -0.096 F 
ATOM      9  I   UNL d   1       4.986  -3.553  -4.884  0.00  0.00    -0.060 I 
ATOM     10  F2  UNL d   1       3.999  -0.734  -3.733  0.00  0.00    -0.096 F 
ATOM     11  F3  UNL d   1       1.547   0.412  -3.638  0.00  0.00    -0.097 F 
ATOM     12  F4  UNL d   1      -0.625  -0.893  -4.649  0.00  0.00    -0.092 F 
ENDROOT
TORSDOF 0
ENDMDL
