MODEL 1
REMARK minimizedAffinity 27.5987148
REMARK minimizedRMSD -1
REMARK  0 active torsions:
REMARK  status: ('A' for Active; 'I' for Inactive)
ROOT
ATOM      1  C   UNL d   1      -1.445  -4.870  -2.767  0.00  0.00     0.124 A 
ATOM      2  C1  UNL d   1      -1.076  -4.870  -4.105  0.00  0.00     0.062 A 
ATOM      3  C2  UNL d   1      -0.619  -3.700  -4.705  0.00  0.00     0.162 A 
ATOM      4  C3  UNL d   1      -0.528  -2.520  -3.967  0.00  0.00    -0.034 A 
ATOM      5  C4  UNL d   1      -0.902  -2.527  -2.622  0.00  0.00     0.162 A 
ATOM      6  C5  UNL d   1      -1.358  -3.699  -2.027  0.00  0.00     0.062 A 
ATOM      7  F   UNL d   1      -1.714  -3.697  -0.734  0.00  0.00    -0.097 F 
ATOM      8  F1  UNL d   1      -0.826  -1.410  -1.884  0.00  0.00    -0.096 F 
ATOM      9  I   UNL d   1       0.155  -0.769  -4.861  0.00  0.00    -0.060 I 
ATOM     10  F2  UNL d   1      -0.269  -3.729  -6.000  0.00  0.00    -0.096 F 
ATOM     11  F3  UNL d   1      -1.161  -5.999  -4.823  0.00  0.00    -0.097 F 
ATOM     12  F4  UNL d   1      -1.886  -5.996  -2.193  0.00  0.00    -0.092 F 
ENDROOT
TORSDOF 0
ENDMDL
