MODEL 1
REMARK minimizedAffinity 11.0528631
REMARK minimizedRMSD -1
REMARK  1 active torsions:
REMARK  status: ('A' for Active; 'I' for Inactive)
REMARK    1  A    between atoms: C1_2  and  C2_3 
ROOT
ATOM      1  C2  UNL d   1       2.535   3.852  -5.479  0.00  0.00    -0.076 A 
ATOM      2  C3  UNL d   1       3.777   3.206  -5.359  0.00  0.00     0.004 A 
ATOM      3  C4  UNL d   1       4.969   3.899  -5.563  0.00  0.00    -0.003 A 
ATOM      4  C5  UNL d   1       4.938   5.250  -5.890  0.00  0.00     0.000 A 
ATOM      5  C6  UNL d   1       3.715   5.912  -5.996  0.00  0.00     0.000 A 
ATOM      6  C7  UNL d   1       2.505   5.232  -5.777  0.00  0.00    -0.073 A 
ATOM      7  C8  UNL d   1       1.214   5.993  -5.911  0.00  0.00     0.078 C 
ENDROOT
BRANCH   1   8
ATOM      8  C1  UNL d   1       1.274   3.043  -5.273  0.00  0.00     0.053 C 
ATOM      9  C   UNL d   1       0.324   3.688  -4.276  0.00  0.00     0.018 C 
ENDBRANCH   1   8
TORSDOF 1
ENDMDL
