MODEL 1
REMARK minimizedAffinity 13.6675663
REMARK minimizedRMSD -1
REMARK  1 active torsions:
REMARK  status: ('A' for Active; 'I' for Inactive)
REMARK    1  A    between atoms: C1_2  and  C2_3 
ROOT
ATOM      1  C2  UNL d   1       2.028   4.458   3.479  0.00  0.00    -0.076 A 
ATOM      2  C3  UNL d   1       3.376   4.211   3.167  0.00  0.00     0.004 A 
ATOM      3  C4  UNL d   1       4.402   4.855   3.857  0.00  0.00    -0.003 A 
ATOM      4  C5  UNL d   1       4.096   5.755   4.872  0.00  0.00     0.000 A 
ATOM      5  C6  UNL d   1       2.765   5.999   5.207  0.00  0.00     0.000 A 
ATOM      6  C7  UNL d   1       1.719   5.346   4.532  0.00  0.00    -0.073 A 
ATOM      7  C8  UNL d   1       0.301   5.651   4.930  0.00  0.00     0.078 C 
ENDROOT
BRANCH   1   8
ATOM      8  C1  UNL d   1       0.958   3.751   2.679  0.00  0.00     0.053 C 
ATOM      9  C   UNL d   1       1.534   2.926   1.538  0.00  0.00     0.018 C 
ENDBRANCH   1   8
TORSDOF 1
ENDMDL
