MODEL 1
REMARK minimizedAffinity 11.1231194
REMARK minimizedRMSD -1
REMARK  1 active torsions:
REMARK  status: ('A' for Active; 'I' for Inactive)
REMARK    1  A    between atoms: C1_2  and  C2_3 
ROOT
ATOM      1  C2  UNL d   1      -2.386   0.564  -1.894  0.00  0.00    -0.076 A 
ATOM      2  C3  UNL d   1      -3.706   0.837  -2.293  0.00  0.00     0.004 A 
ATOM      3  C4  UNL d   1      -4.742  -0.047  -1.996  0.00  0.00    -0.003 A 
ATOM      4  C5  UNL d   1      -4.475  -1.218  -1.295  0.00  0.00     0.000 A 
ATOM      5  C6  UNL d   1      -3.174  -1.496  -0.876  0.00  0.00     0.000 A 
ATOM      6  C7  UNL d   1      -2.121  -0.607  -1.153  0.00  0.00    -0.073 A 
ATOM      7  C8  UNL d   1      -0.737  -0.960  -0.683  0.00  0.00     0.078 C 
ENDROOT
BRANCH   1   8
ATOM      8  C1  UNL d   1      -1.300   1.547  -2.268  0.00  0.00     0.053 C 
ATOM      9  C   UNL d   1      -1.836   2.744  -3.037  0.00  0.00     0.018 C 
ENDBRANCH   1   8
TORSDOF 1
ENDMDL
