MODEL 1
REMARK minimizedAffinity 8.70516682
REMARK minimizedRMSD -1
REMARK  1 active torsions:
REMARK  status: ('A' for Active; 'I' for Inactive)
REMARK    1  A    between atoms: C1_2  and  C2_3 
ROOT
ATOM      1  C2  UNL d   1       3.579   3.822  -5.792  0.00  0.00    -0.076 A 
ATOM      2  C3  UNL d   1       3.533   5.212  -6.000  0.00  0.00     0.004 A 
ATOM      3  C4  UNL d   1       4.692   5.984  -5.947  0.00  0.00    -0.003 A 
ATOM      4  C5  UNL d   1       5.917   5.379  -5.686  0.00  0.00     0.000 A 
ATOM      5  C6  UNL d   1       5.984   3.999  -5.495  0.00  0.00     0.000 A 
ATOM      6  C7  UNL d   1       4.827   3.204  -5.562  0.00  0.00    -0.073 A 
ATOM      7  C8  UNL d   1       4.956   1.721  -5.342  0.00  0.00     0.078 C 
ENDROOT
BRANCH   1   8
ATOM      8  C1  UNL d   1       2.286   3.040  -5.835  0.00  0.00     0.053 C 
ATOM      9  C   UNL d   1       1.073   3.902  -5.515  0.00  0.00     0.018 C 
ENDBRANCH   1   8
TORSDOF 1
ENDMDL
