MODEL 1
REMARK minimizedAffinity 3.68736649
REMARK minimizedRMSD -1
REMARK  1 active torsions:
REMARK  status: ('A' for Active; 'I' for Inactive)
REMARK    1  A    between atoms: C1_2  and  C2_3 
ROOT
ATOM      1  C2  UNL d   1       2.469  -2.520   0.306  0.00  0.00    -0.076 A 
ATOM      2  C3  UNL d   1       2.162  -2.888  -1.015  0.00  0.00     0.004 A 
ATOM      3  C4  UNL d   1       1.015  -2.408  -1.645  0.00  0.00    -0.003 A 
ATOM      4  C5  UNL d   1       0.157  -1.552  -0.965  0.00  0.00     0.000 A 
ATOM      5  C6  UNL d   1       0.455  -1.162   0.341  0.00  0.00     0.000 A 
ATOM      6  C7  UNL d   1       1.616  -1.624   0.985  0.00  0.00    -0.073 A 
ATOM      7  C8  UNL d   1       1.885  -1.176   2.395  0.00  0.00     0.078 C 
ENDROOT
BRANCH   1   8
ATOM      8  C1  UNL d   1       3.713  -3.093   0.947  0.00  0.00     0.053 C 
ATOM      9  C   UNL d   1       4.972  -2.789   0.151  0.00  0.00     0.018 C 
ENDBRANCH   1   8
TORSDOF 1
ENDMDL
