MODEL 1
REMARK minimizedAffinity 3.4376967
REMARK minimizedRMSD -1
REMARK  1 active torsions:
REMARK  status: ('A' for Active; 'I' for Inactive)
REMARK    1  A    between atoms: C1_2  and  C2_3 
ROOT
ATOM      1  C2  UNL d   1       1.404   0.117   1.695  0.00  0.00    -0.077 A 
ATOM      2  C3  UNL d   1       1.392  -1.216   1.261  0.00  0.00     0.002 A 
ATOM      3  C4  UNL d   1       0.272  -2.020   1.482  0.00  0.00     0.002 A 
ATOM      4  C5  UNL d   1      -0.844  -1.500   2.134  0.00  0.00    -0.004 A 
ATOM      5  C6  UNL d   1      -0.840  -0.176   2.572  0.00  0.00     0.002 A 
ATOM      6  C7  UNL d   1       0.278   0.629   2.353  0.00  0.00     0.002 A 
ENDROOT
BRANCH   1   7
ATOM      7  C1  UNL d   1       2.592   1.000   1.414  0.00  0.00     0.055 C 
ATOM      8  C   UNL d   1       2.449   1.709   0.075  0.00  0.00     0.019 C 
ENDBRANCH   1   7
TORSDOF 1
ENDMDL
