MODEL 1
REMARK minimizedAffinity 8.88800621
REMARK minimizedRMSD -1
REMARK  1 active torsions:
REMARK  status: ('A' for Active; 'I' for Inactive)
REMARK    1  A    between atoms: C1_2  and  C2_3 
ROOT
ATOM      1  C2  UNL d   1       0.087   0.232   2.769  0.00  0.00    -0.077 A 
ATOM      2  C3  UNL d   1       1.416  -0.203   2.671  0.00  0.00     0.002 A 
ATOM      3  C4  UNL d   1       1.711  -1.458   2.135  0.00  0.00     0.002 A 
ATOM      4  C5  UNL d   1       0.683  -2.286   1.688  0.00  0.00    -0.004 A 
ATOM      5  C6  UNL d   1      -0.642  -1.863   1.783  0.00  0.00     0.002 A 
ATOM      6  C7  UNL d   1      -0.939  -0.609   2.320  0.00  0.00     0.002 A 
ENDROOT
BRANCH   1   7
ATOM      7  C1  UNL d   1      -0.230   1.605   3.302  0.00  0.00     0.055 C 
ATOM      8  C   UNL d   1      -1.703   1.941   3.125  0.00  0.00     0.019 C 
ENDBRANCH   1   7
TORSDOF 1
ENDMDL
