MODEL 1
REMARK minimizedAffinity 3.96950293
REMARK minimizedRMSD -1
REMARK  1 active torsions:
REMARK  status: ('A' for Active; 'I' for Inactive)
REMARK    1  A    between atoms: C1_2  and  C2_3 
ROOT
ATOM      1  C2  UNL d   1      -1.355  -1.551   0.523  0.00  0.00    -0.077 A 
ATOM      2  C3  UNL d   1      -2.394  -1.060   1.326  0.00  0.00     0.002 A 
ATOM      3  C4  UNL d   1      -3.615  -0.694   0.756  0.00  0.00     0.002 A 
ATOM      4  C5  UNL d   1      -3.810  -0.820  -0.618  0.00  0.00    -0.004 A 
ATOM      5  C6  UNL d   1      -2.782  -1.306  -1.426  0.00  0.00     0.002 A 
ATOM      6  C7  UNL d   1      -1.560  -1.670  -0.858  0.00  0.00     0.002 A 
ENDROOT
BRANCH   1   7
ATOM      7  C1  UNL d   1      -0.054  -1.991   1.142  0.00  0.00     0.055 C 
ATOM      8  C   UNL d   1       0.294  -1.146   2.359  0.00  0.00     0.019 C 
ENDBRANCH   1   7
TORSDOF 1
ENDMDL
