MODEL 1
REMARK minimizedAffinity -1.30621207
REMARK minimizedRMSD -1
REMARK  1 active torsions:
REMARK  status: ('A' for Active; 'I' for Inactive)
REMARK    1  A    between atoms: C1_2  and  C2_3 
ROOT
ATOM      1  C2  UNL d   1       4.640   2.624   5.951  0.00  0.00    -0.077 A 
ATOM      2  C3  UNL d   1       5.859   3.315   5.995  0.00  0.00     0.002 A 
ATOM      3  C4  UNL d   1       5.880   4.712   5.997  0.00  0.00     0.002 A 
ATOM      4  C5  UNL d   1       4.685   5.428   5.960  0.00  0.00    -0.004 A 
ATOM      5  C6  UNL d   1       3.468   4.749   5.913  0.00  0.00     0.002 A 
ATOM      6  C7  UNL d   1       3.445   3.354   5.909  0.00  0.00     0.002 A 
ENDROOT
BRANCH   1   7
ATOM      7  C1  UNL d   1       4.614   1.119   5.998  0.00  0.00     0.055 C 
ATOM      8  C   UNL d   1       5.213   0.515   4.736  0.00  0.00     0.019 C 
ENDBRANCH   1   7
TORSDOF 1
ENDMDL
