MODEL 1
REMARK minimizedAffinity 9.12725544
REMARK minimizedRMSD -1
REMARK  1 active torsions:
REMARK  status: ('A' for Active; 'I' for Inactive)
REMARK    1  A    between atoms: C1_2  and  C2_3 
ROOT
ATOM      1  C2  UNL d   1      -4.011   3.994  -4.449  0.00  0.00    -0.077 A 
ATOM      2  C3  UNL d   1      -4.898   3.220  -5.210  0.00  0.00     0.002 A 
ATOM      3  C4  UNL d   1      -5.888   3.833  -5.980  0.00  0.00     0.002 A 
ATOM      4  C5  UNL d   1      -5.998   5.221  -5.999  0.00  0.00    -0.004 A 
ATOM      5  C6  UNL d   1      -5.122   6.000  -5.244  0.00  0.00     0.002 A 
ATOM      6  C7  UNL d   1      -4.133   5.389  -4.473  0.00  0.00     0.002 A 
ENDROOT
BRANCH   1   7
ATOM      7  C1  UNL d   1      -2.911   3.337  -3.656  0.00  0.00     0.055 C 
ATOM      8  C   UNL d   1      -2.733   1.880  -4.059  0.00  0.00     0.019 C 
ENDBRANCH   1   7
TORSDOF 1
ENDMDL
