MODEL 1
REMARK minimizedAffinity 13.6617527
REMARK minimizedRMSD -1
REMARK  1 active torsions:
REMARK  status: ('A' for Active; 'I' for Inactive)
REMARK    1  A    between atoms: C1_2  and  C2_3 
ROOT
ATOM      1  C2  UNL d   1      -1.898  -1.856  -1.329  0.00  0.00    -0.077 A 
ATOM      2  C3  UNL d   1      -1.353  -2.455  -0.185  0.00  0.00     0.002 A 
ATOM      3  C4  UNL d   1      -1.912  -2.217   1.072  0.00  0.00     0.002 A 
ATOM      4  C5  UNL d   1      -3.022  -1.384   1.196  0.00  0.00    -0.004 A 
ATOM      5  C6  UNL d   1      -3.570  -0.781   0.065  0.00  0.00     0.002 A 
ATOM      6  C7  UNL d   1      -3.011  -1.016  -1.192  0.00  0.00     0.002 A 
ENDROOT
BRANCH   1   7
ATOM      7  C1  UNL d   1      -1.326  -2.150  -2.691  0.00  0.00     0.055 C 
ATOM      8  C   UNL d   1      -2.404  -2.111  -3.764  0.00  0.00     0.019 C 
ENDBRANCH   1   7
TORSDOF 1
ENDMDL
