MODEL 1
REMARK minimizedAffinity 12.9536295
REMARK minimizedRMSD -1
REMARK  1 active torsions:
REMARK  status: ('A' for Active; 'I' for Inactive)
REMARK    1  A    between atoms: C1_2  and  C2_3 
ROOT
ATOM      1  C2  UNL d   1       3.791   0.262  -2.477  0.00  0.00    -0.077 A 
ATOM      2  C3  UNL d   1       4.108  -1.087  -2.689  0.00  0.00     0.002 A 
ATOM      3  C4  UNL d   1       5.206  -1.439  -3.477  0.00  0.00     0.002 A 
ATOM      4  C5  UNL d   1       5.998  -0.448  -4.054  0.00  0.00    -0.004 A 
ATOM      5  C6  UNL d   1       5.690   0.896  -3.850  0.00  0.00     0.002 A 
ATOM      6  C7  UNL d   1       4.592   1.250  -3.065  0.00  0.00     0.002 A 
ENDROOT
BRANCH   1   7
ATOM      7  C1  UNL d   1       2.637   0.645  -1.588  0.00  0.00     0.055 C 
ATOM      8  C   UNL d   1       2.923   1.935  -0.833  0.00  0.00     0.019 C 
ENDBRANCH   1   7
TORSDOF 1
ENDMDL
