MODEL 1
REMARK minimizedAffinity 5.89850903
REMARK minimizedRMSD -1
REMARK  1 active torsions:
REMARK  status: ('A' for Active; 'I' for Inactive)
REMARK    1  A    between atoms: C1_2  and  C2_3 
ROOT
ATOM      1  C2  UNL d   1      -3.231  -1.748   0.730  0.00  0.00    -0.077 A 
ATOM      2  C3  UNL d   1      -2.338  -1.427   1.762  0.00  0.00     0.002 A 
ATOM      3  C4  UNL d   1      -1.012  -1.100   1.473  0.00  0.00     0.002 A 
ATOM      4  C5  UNL d   1      -0.568  -1.086   0.152  0.00  0.00    -0.004 A 
ATOM      5  C6  UNL d   1      -1.447  -1.406  -0.881  0.00  0.00     0.002 A 
ATOM      6  C7  UNL d   1      -2.773  -1.734  -0.594  0.00  0.00     0.002 A 
ENDROOT
BRANCH   1   7
ATOM      7  C1  UNL d   1      -4.674  -2.053   1.036  0.00  0.00     0.055 C 
ATOM      8  C   UNL d   1      -4.843  -3.479   1.539  0.00  0.00     0.019 C 
ENDBRANCH   1   7
TORSDOF 1
ENDMDL
