MODEL 1
REMARK minimizedAffinity 14.2502317
REMARK minimizedRMSD -1
REMARK  1 active torsions:
REMARK  status: ('A' for Active; 'I' for Inactive)
REMARK    1  A    between atoms: C1_2  and  C2_3 
ROOT
ATOM      1  C2  UNL d   1       4.794   3.451   4.632  0.00  0.00    -0.077 A 
ATOM      2  C3  UNL d   1       5.723   4.279   5.277  0.00  0.00     0.002 A 
ATOM      3  C4  UNL d   1       5.298   5.423   5.956  0.00  0.00     0.002 A 
ATOM      4  C5  UNL d   1       3.943   5.746   6.000  0.00  0.00    -0.004 A 
ATOM      5  C6  UNL d   1       3.012   4.930   5.360  0.00  0.00     0.002 A 
ATOM      6  C7  UNL d   1       3.435   3.787   4.680  0.00  0.00     0.002 A 
ENDROOT
BRANCH   1   7
ATOM      7  C1  UNL d   1       5.245   2.190   3.942  0.00  0.00     0.055 C 
ATOM      8  C   UNL d   1       4.962   2.247   2.447  0.00  0.00     0.019 C 
ENDBRANCH   1   7
TORSDOF 1
ENDMDL
