MODEL 1
REMARK minimizedAffinity 10.9562035
REMARK minimizedRMSD -1
REMARK  1 active torsions:
REMARK  status: ('A' for Active; 'I' for Inactive)
REMARK    1  A    between atoms: C1_2  and  C2_3 
ROOT
ATOM      1  C2  UNL d   1      -1.726  -1.663  -2.309  0.00  0.00    -0.077 A 
ATOM      2  C3  UNL d   1      -1.006  -2.474  -1.420  0.00  0.00     0.002 A 
ATOM      3  C4  UNL d   1      -1.177  -2.335  -0.041  0.00  0.00     0.002 A 
ATOM      4  C5  UNL d   1      -2.071  -1.392   0.461  0.00  0.00    -0.004 A 
ATOM      5  C6  UNL d   1      -2.790  -0.580  -0.415  0.00  0.00     0.002 A 
ATOM      6  C7  UNL d   1      -2.620  -0.716  -1.793  0.00  0.00     0.002 A 
ENDROOT
BRANCH   1   7
ATOM      7  C1  UNL d   1      -1.580  -1.844  -3.797  0.00  0.00     0.055 C 
ATOM      8  C   UNL d   1      -2.811  -2.506  -4.398  0.00  0.00     0.019 C 
ENDBRANCH   1   7
TORSDOF 1
ENDMDL
