MODEL 1
REMARK minimizedAffinity 8.53005505
REMARK minimizedRMSD -1
REMARK  1 active torsions:
REMARK  status: ('A' for Active; 'I' for Inactive)
REMARK    1  A    between atoms: C1_2  and  C2_3 
ROOT
ATOM      1  C2  UNL d   1      -2.610  -0.361   5.656  0.00  0.00    -0.077 A 
ATOM      2  C3  UNL d   1      -1.481  -1.133   5.347  0.00  0.00     0.002 A 
ATOM      3  C4  UNL d   1      -1.552  -2.527   5.365  0.00  0.00     0.002 A 
ATOM      4  C5  UNL d   1      -2.750  -3.161   5.687  0.00  0.00    -0.004 A 
ATOM      5  C6  UNL d   1      -3.878  -2.403   5.997  0.00  0.00     0.002 A 
ATOM      6  C7  UNL d   1      -3.809  -1.009   5.981  0.00  0.00     0.002 A 
ENDROOT
BRANCH   1   7
ATOM      7  C1  UNL d   1      -2.549   1.143   5.589  0.00  0.00     0.055 C 
ATOM      8  C   UNL d   1      -3.942   1.755   5.603  0.00  0.00     0.019 C 
ENDBRANCH   1   7
TORSDOF 1
ENDMDL
