MODEL 1
REMARK minimizedAffinity 4.47519302
REMARK minimizedRMSD -1
REMARK  1 active torsions:
REMARK  status: ('A' for Active; 'I' for Inactive)
REMARK    1  A    between atoms: C1_2  and  C2_3 
ROOT
ATOM      1  C2  UNL d   1      -3.124  -0.562   5.294  0.00  0.00    -0.077 A 
ATOM      2  C3  UNL d   1      -1.770  -0.864   5.493  0.00  0.00     0.002 A 
ATOM      3  C4  UNL d   1      -1.379  -2.158   5.843  0.00  0.00     0.002 A 
ATOM      4  C5  UNL d   1      -2.335  -3.160   5.992  0.00  0.00    -0.004 A 
ATOM      5  C6  UNL d   1      -3.685  -2.869   5.799  0.00  0.00     0.002 A 
ATOM      6  C7  UNL d   1      -4.078  -1.576   5.450  0.00  0.00     0.002 A 
ENDROOT
BRANCH   1   7
ATOM      7  C1  UNL d   1      -3.543   0.821   4.868  0.00  0.00     0.055 C 
ATOM      8  C   UNL d   1      -3.318   1.835   5.980  0.00  0.00     0.019 C 
ENDBRANCH   1   7
TORSDOF 1
ENDMDL
