MODEL 1
REMARK minimizedAffinity 9.45443821
REMARK minimizedRMSD -1
REMARK  1 active torsions:
REMARK  status: ('A' for Active; 'I' for Inactive)
REMARK    1  A    between atoms: C1_2  and  C2_3 
ROOT
ATOM      1  C2  UNL d   1      -1.902  -1.346   5.823  0.00  0.00    -0.077 A 
ATOM      2  C3  UNL d   1      -3.284  -1.583   5.844  0.00  0.00     0.002 A 
ATOM      3  C4  UNL d   1      -3.776  -2.887   5.929  0.00  0.00     0.002 A 
ATOM      4  C5  UNL d   1      -2.894  -3.963   5.997  0.00  0.00    -0.004 A 
ATOM      5  C6  UNL d   1      -1.518  -3.738   5.975  0.00  0.00     0.002 A 
ATOM      6  C7  UNL d   1      -1.025  -2.436   5.889  0.00  0.00     0.002 A 
ENDROOT
BRANCH   1   7
ATOM      7  C1  UNL d   1      -1.370   0.062   5.782  0.00  0.00     0.055 C 
ATOM      8  C   UNL d   1      -2.494   1.075   5.615  0.00  0.00     0.019 C 
ENDBRANCH   1   7
TORSDOF 1
ENDMDL
