MODEL 1
REMARK minimizedAffinity 13.2616587
REMARK minimizedRMSD -1
REMARK  3 active torsions:
REMARK  status: ('A' for Active; 'I' for Inactive)
REMARK    1  A    between atoms: C3'_2  and  C2'_3 
REMARK    2  A    between atoms: C2'_3  and  C1'_4 
REMARK    3  A    between atoms: C1'_4  and  C1_5 
ROOT
ATOM      1  C1  N4B d   1       5.227  -1.263  -3.484  0.00  0.00    -0.075 A 
ATOM      2  C2  N4B d   1       4.887  -1.837  -2.239  0.00  0.00     0.002 A 
ATOM      3  C3  N4B d   1       4.256  -1.079  -1.283  0.00  0.00     0.002 A 
ATOM      4  C4  N4B d   1       3.973   0.254  -1.541  0.00  0.00    -0.004 A 
ATOM      5  C5  N4B d   1       4.282   0.793  -2.755  0.00  0.00     0.002 A 
ATOM      6  C6  N4B d   1       4.913   0.043  -3.727  0.00  0.00     0.002 A 
ENDROOT
BRANCH   1   7
ATOM      7  C1' N4B d   1       5.995  -2.027  -4.528  0.00  0.00     0.057 C 
BRANCH   7   8
ATOM      8  C2' N4B d   1       5.123  -2.191  -5.770  0.00  0.00     0.009 C 
BRANCH   8   9
ATOM      9  C3' N4B d   1       4.726  -3.640  -5.998  0.00  0.00     0.004 C 
ATOM     10  C4' N4B d   1       5.896  -4.577  -5.950  0.00  0.00     0.003 C 
ENDBRANCH   8   9
ENDBRANCH   7   8
ENDBRANCH   1   7
TORSDOF 3
ENDMDL
