MODEL 1
REMARK minimizedAffinity 21.7668095
REMARK minimizedRMSD -1
REMARK  3 active torsions:
REMARK  status: ('A' for Active; 'I' for Inactive)
REMARK    1  A    between atoms: C3'_2  and  C2'_3 
REMARK    2  A    between atoms: C2'_3  and  C1'_4 
REMARK    3  A    between atoms: C1'_4  and  C1_5 
ROOT
ATOM      1  C1  N4B d   1       0.686  -0.334   2.930  0.00  0.00    -0.075 A 
ATOM      2  C2  N4B d   1       1.342  -0.030   4.143  0.00  0.00     0.002 A 
ATOM      3  C3  N4B d   1       0.608   0.204   5.280  0.00  0.00     0.002 A 
ATOM      4  C4  N4B d   1      -0.777   0.159   5.224  0.00  0.00    -0.004 A 
ATOM      5  C5  N4B d   1      -1.402  -0.161   4.054  0.00  0.00     0.002 A 
ATOM      6  C6  N4B d   1      -0.677  -0.402   2.904  0.00  0.00     0.002 A 
ENDROOT
BRANCH   1   7
ATOM      7  C1' N4B d   1       1.443  -0.513   1.642  0.00  0.00     0.057 C 
BRANCH   7   8
ATOM      8  C2' N4B d   1       2.238   0.755   1.348  0.00  0.00     0.009 C 
BRANCH   8   9
ATOM      9  C3' N4B d   1       3.713   0.463   1.131  0.00  0.00     0.004 C 
ATOM     10  C4' N4B d   1       4.597   1.188   2.102  0.00  0.00     0.003 C 
ENDBRANCH   8   9
ENDBRANCH   7   8
ENDBRANCH   1   7
TORSDOF 3
ENDMDL
