MODEL 1
REMARK minimizedAffinity 13.9021492
REMARK minimizedRMSD -1
REMARK  3 active torsions:
REMARK  status: ('A' for Active; 'I' for Inactive)
REMARK    1  A    between atoms: C3'_2  and  C2'_3 
REMARK    2  A    between atoms: C2'_3  and  C1'_4 
REMARK    3  A    between atoms: C1'_4  and  C1_5 
ROOT
ATOM      1  C1  N4B d   1       2.767  -1.574   0.559  0.00  0.00    -0.075 A 
ATOM      2  C2  N4B d   1       3.096  -0.481   1.391  0.00  0.00     0.002 A 
ATOM      3  C3  N4B d   1       2.336  -0.211   2.503  0.00  0.00     0.002 A 
ATOM      4  C4  N4B d   1       1.235  -1.004   2.790  0.00  0.00    -0.004 A 
ATOM      5  C5  N4B d   1       0.938  -2.072   1.995  0.00  0.00     0.002 A 
ATOM      6  C6  N4B d   1       1.696  -2.358   0.877  0.00  0.00     0.002 A 
ENDROOT
BRANCH   1   7
ATOM      7  C1' N4B d   1       3.517  -1.857  -0.714  0.00  0.00     0.057 C 
BRANCH   7   8
ATOM      8  C2' N4B d   1       4.153  -0.565  -1.219  0.00  0.00     0.009 C 
BRANCH   8   9
ATOM      9  C3' N4B d   1       4.650  -0.698  -2.648  0.00  0.00     0.004 C 
ATOM     10  C4' N4B d   1       4.391   0.530  -3.469  0.00  0.00     0.003 C 
ENDBRANCH   8   9
ENDBRANCH   7   8
ENDBRANCH   1   7
TORSDOF 3
ENDMDL
