MODEL 1
REMARK minimizedAffinity 7.99177599
REMARK minimizedRMSD -1
REMARK  3 active torsions:
REMARK  status: ('A' for Active; 'I' for Inactive)
REMARK    1  A    between atoms: C3'_2  and  C2'_3 
REMARK    2  A    between atoms: C2'_3  and  C1'_4 
REMARK    3  A    between atoms: C1'_4  and  C1_5 
ROOT
ATOM      1  C1  N4B d   1       0.800  -1.601   2.119  0.00  0.00    -0.075 A 
ATOM      2  C2  N4B d   1      -0.052  -2.568   1.540  0.00  0.00     0.002 A 
ATOM      3  C3  N4B d   1      -1.324  -2.742   2.027  0.00  0.00     0.002 A 
ATOM      4  C4  N4B d   1      -1.758  -1.978   3.100  0.00  0.00    -0.004 A 
ATOM      5  C5  N4B d   1      -0.939  -1.028   3.636  0.00  0.00     0.002 A 
ATOM      6  C6  N4B d   1       0.341  -0.839   3.154  0.00  0.00     0.002 A 
ENDROOT
BRANCH   1   7
ATOM      7  C1' N4B d   1       2.228  -1.433   1.676  0.00  0.00     0.057 C 
BRANCH   7   8
ATOM      8  C2' N4B d   1       2.563   0.054   1.620  0.00  0.00     0.009 C 
BRANCH   8   9
ATOM      9  C3' N4B d   1       3.396   0.495   2.811  0.00  0.00     0.004 C 
ATOM     10  C4' N4B d   1       4.810   0.001   2.745  0.00  0.00     0.003 C 
ENDBRANCH   8   9
ENDBRANCH   7   8
ENDBRANCH   1   7
TORSDOF 3
ENDMDL
