MODEL 1
REMARK minimizedAffinity 18.9216022
REMARK minimizedRMSD -1
REMARK  3 active torsions:
REMARK  status: ('A' for Active; 'I' for Inactive)
REMARK    1  A    between atoms: C3'_2  and  C2'_3 
REMARK    2  A    between atoms: C2'_3  and  C1'_4 
REMARK    3  A    between atoms: C1'_4  and  C1_5 
ROOT
ATOM      1  C1  N4B d   1      -2.903   5.188  -2.676  0.00  0.00    -0.075 A 
ATOM      2  C2  N4B d   1      -2.973   3.777  -2.689  0.00  0.00     0.002 A 
ATOM      3  C3  N4B d   1      -3.905   3.129  -1.916  0.00  0.00     0.002 A 
ATOM      4  C4  N4B d   1      -4.761   3.866  -1.111  0.00  0.00    -0.004 A 
ATOM      5  C5  N4B d   1      -4.704   5.229  -1.124  0.00  0.00     0.002 A 
ATOM      6  C6  N4B d   1      -3.775   5.894  -1.899  0.00  0.00     0.002 A 
ENDROOT
BRANCH   1   7
ATOM      7  C1' N4B d   1      -1.845   5.937  -3.439  0.00  0.00     0.057 C 
BRANCH   7   8
ATOM      8  C2' N4B d   1      -2.238   6.000  -4.911  0.00  0.00     0.009 C 
BRANCH   8   9
ATOM      9  C3' N4B d   1      -1.776   4.771  -5.676  0.00  0.00     0.004 C 
ATOM     10  C4' N4B d   1      -2.900   3.832  -6.000  0.00  0.00     0.003 C 
ENDBRANCH   8   9
ENDBRANCH   7   8
ENDBRANCH   1   7
TORSDOF 3
ENDMDL
