MODEL 1
REMARK minimizedAffinity 15.4951639
REMARK minimizedRMSD -1
REMARK  3 active torsions:
REMARK  status: ('A' for Active; 'I' for Inactive)
REMARK    1  A    between atoms: C3'_2  and  C2'_3 
REMARK    2  A    between atoms: C2'_3  and  C1'_4 
REMARK    3  A    between atoms: C1'_4  and  C1_5 
ROOT
ATOM      1  C1  N4B d   1      -2.682   4.205  -2.708  0.00  0.00    -0.075 A 
ATOM      2  C2  N4B d   1      -2.816   3.355  -3.828  0.00  0.00     0.002 A 
ATOM      3  C3  N4B d   1      -2.612   3.850  -5.093  0.00  0.00     0.002 A 
ATOM      4  C4  N4B d   1      -2.295   5.189  -5.262  0.00  0.00    -0.004 A 
ATOM      5  C5  N4B d   1      -2.143   5.997  -4.174  0.00  0.00     0.002 A 
ATOM      6  C6  N4B d   1      -2.340   5.512  -2.896  0.00  0.00     0.002 A 
ENDROOT
BRANCH   1   7
ATOM      7  C1' N4B d   1      -2.979   3.730  -1.311  0.00  0.00     0.057 C 
BRANCH   7   8
ATOM      8  C2' N4B d   1      -4.425   3.249  -1.242  0.00  0.00     0.009 C 
BRANCH   8   9
ATOM      9  C3' N4B d   1      -5.065   3.564   0.099  0.00  0.00     0.004 C 
ATOM     10  C4' N4B d   1      -5.997   4.737   0.037  0.00  0.00     0.003 C 
ENDBRANCH   8   9
ENDBRANCH   7   8
ENDBRANCH   1   7
TORSDOF 3
ENDMDL
