MODEL 1
REMARK minimizedAffinity 10.0413742
REMARK minimizedRMSD -1
REMARK  3 active torsions:
REMARK  status: ('A' for Active; 'I' for Inactive)
REMARK    1  A    between atoms: C3'_2  and  C2'_3 
REMARK    2  A    between atoms: C2'_3  and  C1'_4 
REMARK    3  A    between atoms: C1'_4  and  C1_5 
ROOT
ATOM      1  C1  N4B d   1       0.920  -1.062   1.986  0.00  0.00    -0.075 A 
ATOM      2  C2  N4B d   1      -0.140  -0.719   2.855  0.00  0.00     0.002 A 
ATOM      3  C3  N4B d   1      -0.977  -1.696   3.336  0.00  0.00     0.002 A 
ATOM      4  C4  N4B d   1      -0.787  -3.014   2.949  0.00  0.00    -0.004 A 
ATOM      5  C5  N4B d   1       0.255  -3.341   2.130  0.00  0.00     0.002 A 
ATOM      6  C6  N4B d   1       1.106  -2.370   1.642  0.00  0.00     0.002 A 
ENDROOT
BRANCH   1   7
ATOM      7  C1' N4B d   1       1.808  -0.019   1.367  0.00  0.00     0.057 C 
BRANCH   7   8
ATOM      8  C2' N4B d   1       1.001   0.791   0.356  0.00  0.00     0.009 C 
BRANCH   8   9
ATOM      9  C3' N4B d   1       1.688   2.097  -0.005  0.00  0.00     0.004 C 
ATOM     10  C4' N4B d   1       0.805   3.020  -0.790  0.00  0.00     0.003 C 
ENDBRANCH   8   9
ENDBRANCH   7   8
ENDBRANCH   1   7
TORSDOF 3
ENDMDL
