MODEL 1
REMARK minimizedAffinity 16.9863129
REMARK minimizedRMSD -1
REMARK  3 active torsions:
REMARK  status: ('A' for Active; 'I' for Inactive)
REMARK    1  A    between atoms: C3'_2  and  C2'_3 
REMARK    2  A    between atoms: C2'_3  and  C1'_4 
REMARK    3  A    between atoms: C1'_4  and  C1_5 
ROOT
ATOM      1  C1  N4B d   1       1.546  -1.082   2.747  0.00  0.00    -0.075 A 
ATOM      2  C2  N4B d   1       1.683  -0.638   4.080  0.00  0.00     0.002 A 
ATOM      3  C3  N4B d   1       0.569  -0.307   4.812  0.00  0.00     0.002 A 
ATOM      4  C4  N4B d   1      -0.686  -0.394   4.228  0.00  0.00    -0.004 A 
ATOM      5  C5  N4B d   1      -0.812  -0.848   2.948  0.00  0.00     0.002 A 
ATOM      6  C6  N4B d   1       0.299  -1.188   2.202  0.00  0.00     0.002 A 
ENDROOT
BRANCH   1   7
ATOM      7  C1' N4B d   1       2.740  -1.374   1.880  0.00  0.00     0.057 C 
BRANCH   7   8
ATOM      8  C2' N4B d   1       3.466  -0.067   1.572  0.00  0.00     0.009 C 
BRANCH   8   9
ATOM      9  C3' N4B d   1       4.495   0.274   2.636  0.00  0.00     0.004 C 
ATOM     10  C4' N4B d   1       5.635  -0.700   2.676  0.00  0.00     0.003 C 
ENDBRANCH   8   9
ENDBRANCH   7   8
ENDBRANCH   1   7
TORSDOF 3
ENDMDL
