MODEL 1
REMARK minimizedAffinity 10.7545061
REMARK minimizedRMSD -1
REMARK  3 active torsions:
REMARK  status: ('A' for Active; 'I' for Inactive)
REMARK    1  A    between atoms: C3'_2  and  C2'_3 
REMARK    2  A    between atoms: C2'_3  and  C1'_4 
REMARK    3  A    between atoms: C1'_4  and  C1_5 
ROOT
ATOM      1  C1  N4B d   1       0.562  -0.763   3.502  0.00  0.00    -0.075 A 
ATOM      2  C2  N4B d   1       1.288  -0.528   4.690  0.00  0.00     0.002 A 
ATOM      3  C3  N4B d   1       0.622  -0.243   5.857  0.00  0.00     0.002 A 
ATOM      4  C4  N4B d   1      -0.763  -0.170   5.856  0.00  0.00    -0.004 A 
ATOM      5  C5  N4B d   1      -1.458  -0.424   4.710  0.00  0.00     0.002 A 
ATOM      6  C6  N4B d   1      -0.802  -0.715   3.531  0.00  0.00     0.002 A 
ENDROOT
BRANCH   1   7
ATOM      7  C1' N4B d   1       1.249  -0.993   2.184  0.00  0.00     0.057 C 
BRANCH   7   8
ATOM      8  C2' N4B d   1       2.289   0.102   1.963  0.00  0.00     0.009 C 
BRANCH   8   9
ATOM      9  C3' N4B d   1       3.704  -0.450   1.963  0.00  0.00     0.004 C 
ATOM     10  C4' N4B d   1       4.658   0.399   2.749  0.00  0.00     0.003 C 
ENDBRANCH   8   9
ENDBRANCH   7   8
ENDBRANCH   1   7
TORSDOF 3
ENDMDL
