MODEL 1
REMARK minimizedAffinity 17.9546738
REMARK minimizedRMSD -1
REMARK  3 active torsions:
REMARK  status: ('A' for Active; 'I' for Inactive)
REMARK    1  A    between atoms: C3'_2  and  C2'_3 
REMARK    2  A    between atoms: C2'_3  and  C1'_4 
REMARK    3  A    between atoms: C1'_4  and  C1_5 
ROOT
ATOM      1  C1  N4B d   1      -2.177  -2.441   2.064  0.00  0.00    -0.075 A 
ATOM      2  C2  N4B d   1      -0.936  -2.534   1.396  0.00  0.00     0.002 A 
ATOM      3  C3  N4B d   1       0.025  -1.574   1.597  0.00  0.00     0.002 A 
ATOM      4  C4  N4B d   1      -0.237  -0.506   2.443  0.00  0.00    -0.004 A 
ATOM      5  C5  N4B d   1      -1.429  -0.438   3.104  0.00  0.00     0.002 A 
ATOM      6  C6  N4B d   1      -2.403  -1.398   2.914  0.00  0.00     0.002 A 
ENDROOT
BRANCH   1   7
ATOM      7  C1' N4B d   1      -3.290  -3.420   1.810  0.00  0.00     0.057 C 
BRANCH   7   8
ATOM      8  C2' N4B d   1      -3.033  -4.139   0.489  0.00  0.00     0.009 C 
BRANCH   8   9
ATOM      9  C3' N4B d   1      -4.314  -4.679  -0.123  0.00  0.00     0.004 C 
ATOM     10  C4' N4B d   1      -4.110  -5.975  -0.849  0.00  0.00     0.003 C 
ENDBRANCH   8   9
ENDBRANCH   7   8
ENDBRANCH   1   7
TORSDOF 3
ENDMDL
