MODEL 1
REMARK minimizedAffinity 9.88821125
REMARK minimizedRMSD -1
REMARK  3 active torsions:
REMARK  status: ('A' for Active; 'I' for Inactive)
REMARK    1  A    between atoms: C3'_2  and  C2'_3 
REMARK    2  A    between atoms: C2'_3  and  C1'_4 
REMARK    3  A    between atoms: C1'_4  and  C1_5 
ROOT
ATOM      1  C1  N4B d   1      -2.175   4.049  -3.585  0.00  0.00    -0.075 A 
ATOM      2  C2  N4B d   1      -2.356   3.362  -4.806  0.00  0.00     0.002 A 
ATOM      3  C3  N4B d   1      -2.150   4.014  -5.997  0.00  0.00     0.002 A 
ATOM      4  C4  N4B d   1      -1.782   5.351  -5.993  0.00  0.00    -0.004 A 
ATOM      5  C5  N4B d   1      -1.585   6.000  -4.810  0.00  0.00     0.002 A 
ATOM      6  C6  N4B d   1      -1.785   5.357  -3.605  0.00  0.00     0.002 A 
ENDROOT
BRANCH   1   7
ATOM      7  C1' N4B d   1      -2.472   3.404  -2.260  0.00  0.00     0.057 C 
BRANCH   7   8
ATOM      8  C2' N4B d   1      -3.404   4.309  -1.459  0.00  0.00     0.009 C 
BRANCH   8   9
ATOM      9  C3' N4B d   1      -4.831   3.789  -1.449  0.00  0.00     0.004 C 
ATOM     10  C4' N4B d   1      -5.585   4.186  -0.215  0.00  0.00     0.003 C 
ENDBRANCH   8   9
ENDBRANCH   7   8
ENDBRANCH   1   7
TORSDOF 3
ENDMDL
