MODEL 1
REMARK minimizedAffinity 13.5638361
REMARK minimizedRMSD -1
REMARK  0 active torsions:
REMARK  status: ('A' for Active; 'I' for Inactive)
ROOT
ATOM      1  C   UNL d   1      -4.924   0.651   6.000  0.00  0.00     0.077 C 
ATOM      2  C1  UNL d   1      -4.141   1.747   5.340  0.00  0.00    -0.074 A 
ATOM      3  C2  UNL d   1      -3.491   1.533   4.121  0.00  0.00    -0.005 A 
ATOM      4  C3  UNL d   1      -2.775   2.565   3.515  0.00  0.00     0.006 A 
ATOM      5  C4  UNL d   1      -2.702   3.820   4.121  0.00  0.00    -0.005 A 
ATOM      6  C5  UNL d   1      -3.347   4.053   5.340  0.00  0.00    -0.074 A 
ATOM      7  C6  UNL d   1      -3.286   5.399   6.000  0.00  0.00     0.077 C 
ATOM      8  C7  UNL d   1      -4.070   3.013   5.939  0.00  0.00    -0.001 A 
ENDROOT
TORSDOF 0
ENDMDL
