MODEL 1
REMARK minimizedAffinity 11.3260822
REMARK minimizedRMSD -1
REMARK  0 active torsions:
REMARK  status: ('A' for Active; 'I' for Inactive)
ROOT
ATOM      1  C   UNL d   1       2.538  -2.903   0.788  0.00  0.00     0.077 C 
ATOM      2  C1  UNL d   1       1.481  -2.077   1.459  0.00  0.00    -0.074 A 
ATOM      3  C2  UNL d   1       1.784  -0.825   2.003  0.00  0.00    -0.005 A 
ATOM      4  C3  UNL d   1       0.788  -0.064   2.615  0.00  0.00     0.006 A 
ATOM      5  C4  UNL d   1      -0.519  -0.548   2.690  0.00  0.00    -0.005 A 
ATOM      6  C5  UNL d   1      -0.841  -1.797   2.152  0.00  0.00    -0.074 A 
ATOM      7  C6  UNL d   1      -2.243  -2.327   2.215  0.00  0.00     0.077 C 
ATOM      8  C7  UNL d   1       0.164  -2.553   1.532  0.00  0.00    -0.001 A 
ENDROOT
TORSDOF 0
ENDMDL
