MODEL 1
REMARK minimizedAffinity 6.1008873
REMARK minimizedRMSD -1
REMARK  0 active torsions:
REMARK  status: ('A' for Active; 'I' for Inactive)
ROOT
ATOM      1  C   UNL d   1      -1.932  -3.429   3.480  0.00  0.00     0.077 C 
ATOM      2  C1  UNL d   1      -0.828  -2.512   3.043  0.00  0.00    -0.074 A 
ATOM      3  C2  UNL d   1      -0.749  -1.202   3.525  0.00  0.00    -0.005 A 
ATOM      4  C3  UNL d   1       0.289  -0.364   3.118  0.00  0.00     0.006 A 
ATOM      5  C4  UNL d   1       1.256  -0.827   2.225  0.00  0.00    -0.005 A 
ATOM      6  C5  UNL d   1       1.194  -2.134   1.733  0.00  0.00    -0.074 A 
ATOM      7  C6  UNL d   1       2.231  -2.651   0.781  0.00  0.00     0.077 C 
ATOM      8  C7  UNL d   1       0.152  -2.972   2.153  0.00  0.00    -0.001 A 
ENDROOT
TORSDOF 0
ENDMDL
