MODEL 1
REMARK minimizedAffinity 5.68756104
REMARK minimizedRMSD -1
REMARK  0 active torsions:
REMARK  status: ('A' for Active; 'I' for Inactive)
ROOT
ATOM      1  C   UNL d   1       4.827  -6.000   5.942  0.00  0.00     0.077 C 
ATOM      2  C1  UNL d   1       4.901  -4.561   5.525  0.00  0.00    -0.074 A 
ATOM      3  C2  UNL d   1       5.918  -3.727   5.998  0.00  0.00    -0.005 A 
ATOM      4  C3  UNL d   1       5.979  -2.393   5.594  0.00  0.00     0.006 A 
ATOM      5  C4  UNL d   1       5.025  -1.881   4.714  0.00  0.00    -0.005 A 
ATOM      6  C5  UNL d   1       4.000  -2.701   4.230  0.00  0.00    -0.074 A 
ATOM      7  C6  UNL d   1       2.972  -2.169   3.276  0.00  0.00     0.077 C 
ATOM      8  C7  UNL d   1       3.950  -4.041   4.635  0.00  0.00    -0.001 A 
ENDROOT
TORSDOF 0
ENDMDL
