MODEL 1
REMARK minimizedAffinity 19.1430912
REMARK minimizedRMSD -1
REMARK  0 active torsions:
REMARK  status: ('A' for Active; 'I' for Inactive)
ROOT
ATOM      1  C   UNL d   1      -2.410  -1.778   1.617  0.00  0.00     0.077 C 
ATOM      2  C1  UNL d   1      -2.787  -0.574   2.428  0.00  0.00    -0.074 A 
ATOM      3  C2  UNL d   1      -2.033  -0.193   3.542  0.00  0.00    -0.005 A 
ATOM      4  C3  UNL d   1      -2.390   0.935   4.281  0.00  0.00     0.006 A 
ATOM      5  C4  UNL d   1      -3.503   1.692   3.913  0.00  0.00    -0.005 A 
ATOM      6  C5  UNL d   1      -4.268   1.327   2.801  0.00  0.00    -0.074 A 
ATOM      7  C6  UNL d   1      -5.462   2.136   2.386  0.00  0.00     0.077 C 
ATOM      8  C7  UNL d   1      -3.899   0.196   2.060  0.00  0.00    -0.001 A 
ENDROOT
TORSDOF 0
ENDMDL
