MODEL 1
REMARK minimizedAffinity 11.2510452
REMARK minimizedRMSD -1
REMARK  0 active torsions:
REMARK  status: ('A' for Active; 'I' for Inactive)
ROOT
ATOM      1  C   UNL d   1      -3.439  -1.720  -0.019  0.00  0.00     0.077 C 
ATOM      2  C1  UNL d   1      -2.893  -1.219   1.285  0.00  0.00    -0.074 A 
ATOM      3  C2  UNL d   1      -1.753  -1.794   1.855  0.00  0.00    -0.005 A 
ATOM      4  C3  UNL d   1      -1.251  -1.311   3.064  0.00  0.00     0.006 A 
ATOM      5  C4  UNL d   1      -1.883  -0.250   3.713  0.00  0.00    -0.005 A 
ATOM      6  C5  UNL d   1      -3.023   0.338   3.157  0.00  0.00    -0.074 A 
ATOM      7  C6  UNL d   1      -3.709   1.486   3.837  0.00  0.00     0.077 C 
ATOM      8  C7  UNL d   1      -3.517  -0.148   1.939  0.00  0.00    -0.001 A 
ENDROOT
TORSDOF 0
ENDMDL
