MODEL 1
REMARK minimizedAffinity 8.03774452
REMARK minimizedRMSD -1
REMARK  0 active torsions:
REMARK  status: ('A' for Active; 'I' for Inactive)
ROOT
ATOM      1  C   UNL d   1      -4.050   5.105   5.475  0.00  0.00     0.077 C 
ATOM      2  C1  UNL d   1      -4.459   3.722   5.062  0.00  0.00    -0.074 A 
ATOM      3  C2  UNL d   1      -4.503   2.678   5.991  0.00  0.00    -0.005 A 
ATOM      4  C3  UNL d   1      -4.895   1.399   5.593  0.00  0.00     0.006 A 
ATOM      5  C4  UNL d   1      -5.246   1.153   4.266  0.00  0.00    -0.005 A 
ATOM      6  C5  UNL d   1      -5.209   2.185   3.323  0.00  0.00    -0.074 A 
ATOM      7  C6  UNL d   1      -5.593   1.939   1.894  0.00  0.00     0.077 C 
ATOM      8  C7  UNL d   1      -4.821   3.468   3.731  0.00  0.00    -0.001 A 
ENDROOT
TORSDOF 0
ENDMDL
