MODEL 1
REMARK minimizedAffinity -3.46962881
REMARK minimizedRMSD -1
REMARK  0 active torsions:
REMARK  status: ('A' for Active; 'I' for Inactive)
ROOT
ATOM      1  C   UNL d   1       0.973  -1.048   2.906  0.00  0.00     0.023 A 
ATOM      2  C1  UNL d   1      -0.385  -0.805   2.698  0.00  0.00     0.003 A 
ATOM      3  C2  UNL d   1      -0.840  -0.411   1.438  0.00  0.00     0.048 A 
ATOM      4  C3  UNL d   1       0.067  -0.263   0.390  0.00  0.00     0.023 A 
ATOM      5  C4  UNL d   1       1.427  -0.506   0.593  0.00  0.00     0.048 A 
ATOM      6  C5  UNL d   1       1.877  -0.899   1.855  0.00  0.00     0.003 A 
ATOM      7  I   UNL d   1      -0.608   0.323  -1.486  0.00  0.00    -0.146 I 
ENDROOT
TORSDOF 0
ENDMDL
