MODEL 1
REMARK minimizedAffinity -4.26322079
REMARK minimizedRMSD -1
REMARK  0 active torsions:
REMARK  status: ('A' for Active; 'I' for Inactive)
ROOT
ATOM      1  C   UNL d   1       0.394  -0.567   2.856  0.00  0.00     0.023 A 
ATOM      2  C1  UNL d   1       1.460  -0.467   1.962  0.00  0.00     0.003 A 
ATOM      3  C2  UNL d   1       1.233  -0.062   0.645  0.00  0.00     0.048 A 
ATOM      4  C3  UNL d   1      -0.063   0.244   0.229  0.00  0.00     0.023 A 
ATOM      5  C4  UNL d   1      -1.132   0.146   1.120  0.00  0.00     0.048 A 
ATOM      6  C5  UNL d   1      -0.901  -0.261   2.436  0.00  0.00     0.003 A 
ATOM      7  I   UNL d   1      -0.403   0.848  -1.730  0.00  0.00    -0.146 I 
ENDROOT
TORSDOF 0
ENDMDL
