MODEL 1
REMARK minimizedAffinity -2.11195493
REMARK minimizedRMSD -1
REMARK  0 active torsions:
REMARK  status: ('A' for Active; 'I' for Inactive)
ROOT
ATOM      1  C   UNL d   1      -0.046  -0.080  -1.563  0.00  0.00     0.023 A 
ATOM      2  C1  UNL d   1      -0.840   0.274  -0.472  0.00  0.00     0.003 A 
ATOM      3  C2  UNL d   1      -0.427  -0.039   0.824  0.00  0.00     0.048 A 
ATOM      4  C3  UNL d   1       0.781  -0.707   1.023  0.00  0.00     0.023 A 
ATOM      5  C4  UNL d   1       1.579  -1.063  -0.065  0.00  0.00     0.048 A 
ATOM      6  C5  UNL d   1       1.162  -0.748  -1.360  0.00  0.00     0.003 A 
ATOM      7  I   UNL d   1       1.398  -1.174   2.952  0.00  0.00    -0.146 I 
ENDROOT
TORSDOF 0
ENDMDL
