MODEL 1
REMARK minimizedAffinity -3.72512341
REMARK minimizedRMSD -1
REMARK  0 active torsions:
REMARK  status: ('A' for Active; 'I' for Inactive)
ROOT
ATOM      1  C   UNL d   1       2.795  -0.501   1.101  0.00  0.00     0.023 A 
ATOM      2  C1  UNL d   1       2.152  -0.258   2.315  0.00  0.00     0.003 A 
ATOM      3  C2  UNL d   1       0.759  -0.304   2.391  0.00  0.00     0.048 A 
ATOM      4  C3  UNL d   1       0.014  -0.595   1.249  0.00  0.00     0.023 A 
ATOM      5  C4  UNL d   1       0.652  -0.840   0.032  0.00  0.00     0.048 A 
ATOM      6  C5  UNL d   1       2.046  -0.792  -0.039  0.00  0.00     0.003 A 
ATOM      7  I   UNL d   1      -2.061  -0.664   1.359  0.00  0.00    -0.146 I 
ENDROOT
TORSDOF 0
ENDMDL
