MODEL 1
REMARK minimizedAffinity -2.08240986
REMARK minimizedRMSD -1
REMARK  0 active torsions:
REMARK  status: ('A' for Active; 'I' for Inactive)
ROOT
ATOM      1  C   UNL d   1       0.977  -0.909   2.243  0.00  0.00     0.023 A 
ATOM      2  C1  UNL d   1      -0.313  -0.380   2.276  0.00  0.00     0.003 A 
ATOM      3  C2  UNL d   1      -0.844   0.239   1.143  0.00  0.00     0.048 A 
ATOM      4  C3  UNL d   1      -0.080   0.326  -0.020  0.00  0.00     0.023 A 
ATOM      5  C4  UNL d   1       1.212  -0.203  -0.058  0.00  0.00     0.048 A 
ATOM      6  C5  UNL d   1       1.739  -0.821   1.078  0.00  0.00     0.003 A 
ATOM      7  I   UNL d   1      -0.868   1.247  -1.708  0.00  0.00    -0.146 I 
ENDROOT
TORSDOF 0
ENDMDL
