MODEL 1
REMARK minimizedAffinity -4.02299309
REMARK minimizedRMSD -1
REMARK  0 active torsions:
REMARK  status: ('A' for Active; 'I' for Inactive)
ROOT
ATOM      1  C   UNL d   1       1.683  -0.767   2.905  0.00  0.00     0.023 A 
ATOM      2  C1  UNL d   1       2.362  -0.353   1.758  0.00  0.00     0.003 A 
ATOM      3  C2  UNL d   1       1.646   0.014   0.617  0.00  0.00     0.048 A 
ATOM      4  C3  UNL d   1       0.253  -0.032   0.629  0.00  0.00     0.023 A 
ATOM      5  C4  UNL d   1      -0.430  -0.444   1.775  0.00  0.00     0.048 A 
ATOM      6  C5  UNL d   1       0.289  -0.812   2.913  0.00  0.00     0.003 A 
ATOM      7  I   UNL d   1      -0.814   0.515  -1.069  0.00  0.00    -0.146 I 
ENDROOT
TORSDOF 0
ENDMDL
