MODEL 1
REMARK minimizedAffinity -2.98467445
REMARK minimizedRMSD -1
REMARK  0 active torsions:
REMARK  status: ('A' for Active; 'I' for Inactive)
ROOT
ATOM      1  C   UNL d   1       0.455  -1.046  -1.997  0.00  0.00     0.023 A 
ATOM      2  C1  UNL d   1      -0.614  -0.428  -1.347  0.00  0.00     0.003 A 
ATOM      3  C2  UNL d   1      -0.570  -0.226   0.034  0.00  0.00     0.048 A 
ATOM      4  C3  UNL d   1       0.545  -0.644   0.759  0.00  0.00     0.023 A 
ATOM      5  C4  UNL d   1       1.617  -1.262   0.113  0.00  0.00     0.048 A 
ATOM      6  C5  UNL d   1       1.569  -1.463  -1.268  0.00  0.00     0.003 A 
ATOM      7  I   UNL d   1       0.612  -0.344   2.815  0.00  0.00    -0.146 I 
ENDROOT
TORSDOF 0
ENDMDL
