MODEL 1
REMARK minimizedAffinity -3.69997859
REMARK minimizedRMSD -1
REMARK  0 active torsions:
REMARK  status: ('A' for Active; 'I' for Inactive)
ROOT
ATOM      1  C   UNL d   1       2.320  -0.287   1.040  0.00  0.00     0.023 A 
ATOM      2  C1  UNL d   1       2.261  -1.050  -0.126  0.00  0.00     0.003 A 
ATOM      3  C2  UNL d   1       1.184  -0.904  -1.003  0.00  0.00     0.048 A 
ATOM      4  C3  UNL d   1       0.171   0.007  -0.709  0.00  0.00     0.023 A 
ATOM      5  C4  UNL d   1       0.226   0.773   0.456  0.00  0.00     0.048 A 
ATOM      6  C5  UNL d   1       1.304   0.624   1.331  0.00  0.00     0.003 A 
ATOM      7  I   UNL d   1      -1.433   0.225  -2.013  0.00  0.00    -0.146 I 
ENDROOT
TORSDOF 0
ENDMDL
