MODEL 1
REMARK minimizedAffinity 9.4472065
REMARK minimizedRMSD -1
REMARK  0 active torsions:
REMARK  status: ('A' for Active; 'I' for Inactive)
ROOT
ATOM      1  C1  DEN d   1       2.594   0.022   0.498  0.00  0.00     0.130 A 
ATOM      2  C2  DEN d   1       3.589   0.892  -0.122  0.00  0.00    -0.031 A 
ATOM      3  C3  DEN d   1       4.031   0.256  -1.380  0.00  0.00     0.027 A 
ATOM      4  C4  DEN d   1       3.270  -1.977  -2.423  0.00  0.00     0.027 A 
ATOM      5  C5  DEN d   1       2.452  -3.073  -2.257  0.00  0.00    -0.003 A 
ATOM      6  C6  DEN d   1       1.655  -3.229  -1.153  0.00  0.00     0.001 A 
ATOM      7  C7  DEN d   1       1.626  -2.251  -0.194  0.00  0.00     0.017 A 
ATOM      8  C8  DEN d   1       2.454  -1.147  -0.351  0.00  0.00    -0.094 A 
ATOM      9  C9  DEN d   1       3.243  -1.002  -1.479  0.00  0.00    -0.072 A 
ENDROOT
TORSDOF 0
ENDMDL
