MODEL 1
REMARK minimizedAffinity 5.21248198
REMARK minimizedRMSD -1
REMARK  0 active torsions:
REMARK  status: ('A' for Active; 'I' for Inactive)
ROOT
ATOM      1  C1  DEN d   1       1.790   0.133   0.726  0.00  0.00     0.130 A 
ATOM      2  C2  DEN d   1       1.471   0.451  -0.663  0.00  0.00    -0.031 A 
ATOM      3  C3  DEN d   1       0.311   1.366  -0.668  0.00  0.00     0.027 A 
ATOM      4  C4  DEN d   1      -1.011   2.319   1.332  0.00  0.00     0.027 A 
ATOM      5  C5  DEN d   1      -1.120   2.325   2.705  0.00  0.00    -0.003 A 
ATOM      6  C6  DEN d   1      -0.296   1.581   3.506  0.00  0.00     0.001 A 
ATOM      7  C7  DEN d   1       0.705   0.833   2.943  0.00  0.00     0.017 A 
ATOM      8  C8  DEN d   1       0.816   0.816   1.559  0.00  0.00    -0.094 A 
ATOM      9  C9  DEN d   1      -0.019   1.585   0.766  0.00  0.00    -0.072 A 
ENDROOT
TORSDOF 0
ENDMDL
