MODEL 1
REMARK minimizedAffinity 12.4020338
REMARK minimizedRMSD -1
REMARK  0 active torsions:
REMARK  status: ('A' for Active; 'I' for Inactive)
ROOT
ATOM      1  C1  DEN d   1       4.640   2.557  -0.735  0.00  0.00     0.130 A 
ATOM      2  C2  DEN d   1       6.000   2.187  -0.354  0.00  0.00    -0.031 A 
ATOM      3  C3  DEN d   1       6.000   0.753   0.001  0.00  0.00     0.027 A 
ATOM      4  C4  DEN d   1       4.037  -0.920  -0.006  0.00  0.00     0.027 A 
ATOM      5  C5  DEN d   1       2.688  -1.067  -0.244  0.00  0.00    -0.003 A 
ATOM      6  C6  DEN d   1       1.896  -0.018  -0.626  0.00  0.00     0.001 A 
ATOM      7  C7  DEN d   1       2.454   1.217  -0.826  0.00  0.00     0.017 A 
ATOM      8  C8  DEN d   1       3.811   1.375  -0.581  0.00  0.00    -0.094 A 
ATOM      9  C9  DEN d   1       4.598   0.299  -0.206  0.00  0.00    -0.072 A 
ENDROOT
TORSDOF 0
ENDMDL
