MODEL 1
REMARK minimizedAffinity 7.20986605
REMARK minimizedRMSD -1
REMARK  0 active torsions:
REMARK  status: ('A' for Active; 'I' for Inactive)
ROOT
ATOM      1  C1  DEN d   1       2.261  -2.409   0.598  0.00  0.00     0.130 A 
ATOM      2  C2  DEN d   1       2.909  -1.206   0.082  0.00  0.00    -0.031 A 
ATOM      3  C3  DEN d   1       2.201  -0.799  -1.149  0.00  0.00     0.027 A 
ATOM      4  C4  DEN d   1       0.174  -1.905  -2.296  0.00  0.00     0.027 A 
ATOM      5  C5  DEN d   1      -0.716  -2.955  -2.235  0.00  0.00    -0.003 A 
ATOM      6  C6  DEN d   1      -0.654  -3.908  -1.253  0.00  0.00     0.001 A 
ATOM      7  C7  DEN d   1       0.289  -3.804  -0.265  0.00  0.00     0.017 A 
ATOM      8  C8  DEN d   1       1.194  -2.753  -0.324  0.00  0.00    -0.094 A 
ATOM      9  C9  DEN d   1       1.108  -1.793  -1.318  0.00  0.00    -0.072 A 
ENDROOT
TORSDOF 0
ENDMDL
