MODEL 1
REMARK minimizedAffinity 9.62560272
REMARK minimizedRMSD -1
REMARK  0 active torsions:
REMARK  status: ('A' for Active; 'I' for Inactive)
ROOT
ATOM      1  C1  DEN d   1       0.145  -0.228   3.042  0.00  0.00     0.130 A 
ATOM      2  C2  DEN d   1       1.198  -0.047   4.037  0.00  0.00    -0.031 A 
ATOM      3  C3  DEN d   1       1.337   1.400   4.296  0.00  0.00     0.027 A 
ATOM      4  C4  DEN d   1       0.027   3.367   3.263  0.00  0.00     0.027 A 
ATOM      5  C5  DEN d   1      -0.958   3.710   2.364  0.00  0.00    -0.003 A 
ATOM      6  C6  DEN d   1      -1.616   2.775   1.610  0.00  0.00     0.001 A 
ATOM      7  C7  DEN d   1      -1.328   1.446   1.773  0.00  0.00     0.017 A 
ATOM      8  C8  DEN d   1      -0.330   1.093   2.672  0.00  0.00    -0.094 A 
ATOM      9  C9  DEN d   1       0.315   2.052   3.435  0.00  0.00    -0.072 A 
ENDROOT
TORSDOF 0
ENDMDL
