MODEL 1
REMARK minimizedAffinity 10.3784552
REMARK minimizedRMSD -1
REMARK  0 active torsions:
REMARK  status: ('A' for Active; 'I' for Inactive)
ROOT
ATOM      1  C1  DEN d   1       4.229   0.434  -1.854  0.00  0.00     0.130 A 
ATOM      2  C2  DEN d   1       4.916   1.220  -0.833  0.00  0.00    -0.031 A 
ATOM      3  C3  DEN d   1       4.573   0.653   0.487  0.00  0.00     0.027 A 
ATOM      4  C4  DEN d   1       3.056  -1.357   1.044  0.00  0.00     0.027 A 
ATOM      5  C5  DEN d   1       2.244  -2.333   0.510  0.00  0.00    -0.003 A 
ATOM      6  C6  DEN d   1       2.011  -2.433  -0.836  0.00  0.00     0.001 A 
ATOM      7  C7  DEN d   1       2.634  -1.569  -1.698  0.00  0.00     0.017 A 
ATOM      8  C8  DEN d   1       3.448  -0.578  -1.167  0.00  0.00    -0.094 A 
ATOM      9  C9  DEN d   1       3.680  -0.501   0.196  0.00  0.00    -0.072 A 
ENDROOT
TORSDOF 0
ENDMDL
