MODEL 1
REMARK minimizedAffinity 8.63779163
REMARK minimizedRMSD -1
REMARK  0 active torsions:
REMARK  status: ('A' for Active; 'I' for Inactive)
ROOT
ATOM      1  C1  DEN d   1       5.286  -0.299  -0.700  0.00  0.00     0.130 A 
ATOM      2  C2  DEN d   1       5.228   1.150  -0.869  0.00  0.00    -0.031 A 
ATOM      3  C3  DEN d   1       3.813   1.534  -1.046  0.00  0.00     0.027 A 
ATOM      4  C4  DEN d   1       1.716   0.032  -1.071  0.00  0.00     0.027 A 
ATOM      5  C5  DEN d   1       1.264  -1.265  -0.979  0.00  0.00    -0.003 A 
ATOM      6  C6  DEN d   1       2.116  -2.327  -0.823  0.00  0.00     0.001 A 
ATOM      7  C7  DEN d   1       3.463  -2.104  -0.709  0.00  0.00     0.017 A 
ATOM      8  C8  DEN d   1       3.927  -0.800  -0.808  0.00  0.00    -0.094 A 
ATOM      9  C9  DEN d   1       3.049   0.261  -0.954  0.00  0.00    -0.072 A 
ENDROOT
TORSDOF 0
ENDMDL
