MODEL 1
REMARK minimizedAffinity 8.25664806
REMARK minimizedRMSD -1
REMARK  0 active torsions:
REMARK  status: ('A' for Active; 'I' for Inactive)
ROOT
ATOM      1  C1  DEN d   1       1.855  -1.349   0.388  0.00  0.00     0.130 A 
ATOM      2  C2  DEN d   1       1.383  -2.622  -0.150  0.00  0.00    -0.031 A 
ATOM      3  C3  DEN d   1       2.006  -2.816  -1.475  0.00  0.00     0.027 A 
ATOM      4  C4  DEN d   1       3.650  -1.280  -2.735  0.00  0.00     0.027 A 
ATOM      5  C5  DEN d   1       4.334  -0.086  -2.685  0.00  0.00    -0.003 A 
ATOM      6  C6  DEN d   1       4.213   0.780  -1.631  0.00  0.00     0.001 A 
ATOM      7  C7  DEN d   1       3.426   0.443  -0.562  0.00  0.00     0.017 A 
ATOM      8  C8  DEN d   1       2.728  -0.756  -0.609  0.00  0.00    -0.094 A 
ATOM      9  C9  DEN d   1       2.872  -1.624  -1.678  0.00  0.00    -0.072 A 
ENDROOT
TORSDOF 0
ENDMDL
