MODEL 1
REMARK minimizedAffinity 6.10571003
REMARK minimizedRMSD -1
REMARK  0 active torsions:
REMARK  status: ('A' for Active; 'I' for Inactive)
ROOT
ATOM      1  C1  DEN d   1      -5.996   3.161  -2.612  0.00  0.00     0.130 A 
ATOM      2  C2  DEN d   1      -5.248   4.075  -3.472  0.00  0.00    -0.031 A 
ATOM      3  C3  DEN d   1      -3.901   3.506  -3.679  0.00  0.00     0.027 A 
ATOM      4  C4  DEN d   1      -2.907   1.310  -2.761  0.00  0.00     0.027 A 
ATOM      5  C5  DEN d   1      -3.158   0.207  -1.976  0.00  0.00    -0.003 A 
ATOM      6  C6  DEN d   1      -4.350   0.029  -1.326  0.00  0.00     0.001 A 
ATOM      7  C7  DEN d   1      -5.354   0.947  -1.486  0.00  0.00     0.017 A 
ATOM      8  C8  DEN d   1      -5.106   2.066  -2.269  0.00  0.00    -0.094 A 
ATOM      9  C9  DEN d   1      -3.899   2.222  -2.928  0.00  0.00    -0.072 A 
ENDROOT
TORSDOF 0
ENDMDL
