MODEL 1
REMARK minimizedAffinity -3.73110723
REMARK minimizedRMSD -1
REMARK  0 active torsions:
REMARK  status: ('A' for Active; 'I' for Inactive)
ROOT
ATOM      1  C   UNL d   1       0.876   0.316  -0.748  0.00  0.00    -0.002 A 
ATOM      2  C1  UNL d   1       0.375  -0.908  -0.327  0.00  0.00     0.010 A 
ATOM      3  C2  UNL d   1      -0.591  -0.972   0.678  0.00  0.00     0.041 A 
ATOM      4  C3  UNL d   1      -1.052   0.226   1.258  0.00  0.00    -0.075 A 
ATOM      5  S   UNL d   1      -2.233   0.391   2.504  0.00  0.00     0.015 SA
ATOM      6  C4  UNL d   1      -2.101   2.091   2.507  0.00  0.00     0.022 A 
ATOM      7  C5  UNL d   1      -1.183   2.538   1.586  0.00  0.00     0.026 A 
ATOM      8  C6  UNL d   1      -0.564   1.471   0.851  0.00  0.00    -0.082 A 
ATOM      9  C7  UNL d   1       0.416   1.503  -0.170  0.00  0.00     0.045 A 
ENDROOT
TORSDOF 0
ENDMDL
