MODEL 1
REMARK minimizedAffinity -3.52224088
REMARK minimizedRMSD -1
REMARK  0 active torsions:
REMARK  status: ('A' for Active; 'I' for Inactive)
ROOT
ATOM      1  C   UNL d   1      -1.671   1.890   2.568  0.00  0.00    -0.002 A 
ATOM      2  C1  UNL d   1      -0.847   2.679   1.778  0.00  0.00     0.010 A 
ATOM      3  C2  UNL d   1      -0.199   2.137   0.666  0.00  0.00     0.041 A 
ATOM      4  C3  UNL d   1      -0.398   0.777   0.357  0.00  0.00    -0.075 A 
ATOM      5  S   UNL d   1       0.291  -0.103  -0.956  0.00  0.00     0.015 SA
ATOM      6  C4  UNL d   1      -0.493  -1.545  -0.500  0.00  0.00     0.022 A 
ATOM      7  C5  UNL d   1      -1.266  -1.378   0.625  0.00  0.00     0.026 A 
ATOM      8  C6  UNL d   1      -1.224  -0.037   1.137  0.00  0.00    -0.082 A 
ATOM      9  C7  UNL d   1      -1.866   0.542   2.259  0.00  0.00     0.045 A 
ENDROOT
TORSDOF 0
ENDMDL
