MODEL 1
REMARK minimizedAffinity -0.847063184
REMARK minimizedRMSD -1
REMARK  0 active torsions:
REMARK  status: ('A' for Active; 'I' for Inactive)
ROOT
ATOM      1  C   UNL d   1      -2.625   0.893   3.299  0.00  0.00    -0.002 A 
ATOM      2  C1  UNL d   1      -2.709  -0.312   2.615  0.00  0.00     0.010 A 
ATOM      3  C2  UNL d   1      -1.972  -0.518   1.447  0.00  0.00     0.041 A 
ATOM      4  C3  UNL d   1      -1.140   0.516   0.974  0.00  0.00    -0.075 A 
ATOM      5  S   UNL d   1      -0.145   0.488  -0.433  0.00  0.00     0.015 SA
ATOM      6  C4  UNL d   1       0.416   2.074  -0.159  0.00  0.00     0.022 A 
ATOM      7  C5  UNL d   1      -0.132   2.626   0.974  0.00  0.00     0.026 A 
ATOM      8  C6  UNL d   1      -1.038   1.737   1.647  0.00  0.00    -0.082 A 
ATOM      9  C7  UNL d   1      -1.798   1.916   2.828  0.00  0.00     0.045 A 
ENDROOT
TORSDOF 0
ENDMDL
