MODEL 1
REMARK minimizedAffinity -3.87375593
REMARK minimizedRMSD -1
REMARK  0 active torsions:
REMARK  status: ('A' for Active; 'I' for Inactive)
ROOT
ATOM      1  C   UNL d   1       2.477   0.580  -3.126  0.00  0.00    -0.002 A 
ATOM      2  C1  UNL d   1       2.660  -0.638  -2.486  0.00  0.00     0.010 A 
ATOM      3  C2  UNL d   1       1.883  -0.981  -1.378  0.00  0.00     0.041 A 
ATOM      4  C3  UNL d   1       0.908  -0.072  -0.921  0.00  0.00    -0.075 A 
ATOM      5  S   UNL d   1      -0.160  -0.279   0.416  0.00  0.00     0.015 SA
ATOM      6  C4  UNL d   1      -0.885   1.244   0.168  0.00  0.00     0.022 A 
ATOM      7  C5  UNL d   1      -0.337   1.907  -0.904  0.00  0.00     0.026 A 
ATOM      8  C6  UNL d   1       0.705   1.160  -1.550  0.00  0.00    -0.082 A 
ATOM      9  C7  UNL d   1       1.510   1.479  -2.670  0.00  0.00     0.045 A 
ENDROOT
TORSDOF 0
ENDMDL
