MODEL 1
REMARK minimizedAffinity -3.08614516
REMARK minimizedRMSD -1
REMARK  0 active torsions:
REMARK  status: ('A' for Active; 'I' for Inactive)
ROOT
ATOM      1  C   UNL d   1      -1.418   1.933   3.591  0.00  0.00    -0.002 A 
ATOM      2  C1  UNL d   1      -2.237   0.826   3.417  0.00  0.00     0.010 A 
ATOM      3  C2  UNL d   1      -2.163   0.065   2.249  0.00  0.00     0.041 A 
ATOM      4  C3  UNL d   1      -1.243   0.437   1.249  0.00  0.00    -0.075 A 
ATOM      5  S   UNL d   1      -0.977  -0.347  -0.263  0.00  0.00     0.015 SA
ATOM      6  C4  UNL d   1       0.231   0.769  -0.714  0.00  0.00     0.022 A 
ATOM      7  C5  UNL d   1       0.438   1.723   0.254  0.00  0.00     0.026 A 
ATOM      8  C6  UNL d   1      -0.407   1.547   1.402  0.00  0.00    -0.082 A 
ATOM      9  C7  UNL d   1      -0.506   2.299   2.597  0.00  0.00     0.045 A 
ENDROOT
TORSDOF 0
ENDMDL
