MODEL 1
REMARK minimizedAffinity -4.84579515
REMARK minimizedRMSD -1
REMARK  0 active torsions:
REMARK  status: ('A' for Active; 'I' for Inactive)
ROOT
ATOM      1  C   UNL d   1       1.580  -1.893  -1.222  0.00  0.00    -0.002 A 
ATOM      2  C1  UNL d   1       0.672  -2.242  -0.233  0.00  0.00     0.010 A 
ATOM      3  C2  UNL d   1      -0.208  -1.293   0.291  0.00  0.00     0.041 A 
ATOM      4  C3  UNL d   1      -0.162   0.026  -0.204  0.00  0.00    -0.075 A 
ATOM      5  S   UNL d   1      -1.144   1.355   0.286  0.00  0.00     0.015 SA
ATOM      6  C4  UNL d   1      -0.382   2.417  -0.808  0.00  0.00     0.022 A 
ATOM      7  C5  UNL d   1       0.600   1.790  -1.537  0.00  0.00     0.026 A 
ATOM      8  C6  UNL d   1       0.743   0.401  -1.201  0.00  0.00    -0.082 A 
ATOM      9  C7  UNL d   1       1.623  -0.584  -1.711  0.00  0.00     0.045 A 
ENDROOT
TORSDOF 0
ENDMDL
