MODEL 1
REMARK minimizedAffinity -3.07866502
REMARK minimizedRMSD -1
REMARK  0 active torsions:
REMARK  status: ('A' for Active; 'I' for Inactive)
ROOT
ATOM      1  C   UNL d   1       1.786  -2.069  -0.810  0.00  0.00    -0.002 A 
ATOM      2  C1  UNL d   1       1.839  -1.279  -1.950  0.00  0.00     0.010 A 
ATOM      3  C2  UNL d   1       1.054  -0.129  -2.054  0.00  0.00     0.041 A 
ATOM      4  C3  UNL d   1       0.209   0.219  -0.982  0.00  0.00    -0.075 A 
ATOM      5  S   UNL d   1      -0.842   1.583  -0.886  0.00  0.00     0.015 SA
ATOM      6  C4  UNL d   1      -1.384   1.150   0.670  0.00  0.00     0.022 A 
ATOM      7  C5  UNL d   1      -0.789  -0.005   1.121  0.00  0.00     0.026 A 
ATOM      8  C6  UNL d   1       0.139  -0.560   0.177  0.00  0.00    -0.082 A 
ATOM      9  C7  UNL d   1       0.947  -1.720   0.252  0.00  0.00     0.045 A 
ENDROOT
TORSDOF 0
ENDMDL
