MODEL 1
REMARK minimizedAffinity -2.58165216
REMARK minimizedRMSD -1
REMARK  0 active torsions:
REMARK  status: ('A' for Active; 'I' for Inactive)
ROOT
ATOM      1  C   UNL d   1      -2.179   1.941   2.747  0.00  0.00    -0.002 A 
ATOM      2  C1  UNL d   1      -2.373   0.573   2.881  0.00  0.00     0.010 A 
ATOM      3  C2  UNL d   1      -1.817  -0.317   1.961  0.00  0.00     0.041 A 
ATOM      4  C3  UNL d   1      -1.052   0.195   0.894  0.00  0.00    -0.075 A 
ATOM      5  S   UNL d   1      -0.273  -0.706  -0.353  0.00  0.00     0.015 SA
ATOM      6  C4  UNL d   1       0.337   0.703  -1.092  0.00  0.00     0.022 A 
ATOM      7  C5  UNL d   1      -0.035   1.842  -0.418  0.00  0.00     0.026 A 
ATOM      8  C6  UNL d   1      -0.841   1.568   0.738  0.00  0.00    -0.082 A 
ATOM      9  C7  UNL d   1      -1.419   2.445   1.688  0.00  0.00     0.045 A 
ENDROOT
TORSDOF 0
ENDMDL
