MODEL 1
REMARK minimizedAffinity -3.16492963
REMARK minimizedRMSD -1
REMARK  0 active torsions:
REMARK  status: ('A' for Active; 'I' for Inactive)
ROOT
ATOM      1  C   UNL d   1       3.034  -0.829  -1.129  0.00  0.00    -0.002 A 
ATOM      2  C1  UNL d   1       1.989  -1.638  -1.552  0.00  0.00     0.010 A 
ATOM      3  C2  UNL d   1       0.663  -1.252  -1.344  0.00  0.00     0.041 A 
ATOM      4  C3  UNL d   1       0.403  -0.027  -0.698  0.00  0.00    -0.075 A 
ATOM      5  S   UNL d   1      -1.141   0.650  -0.336  0.00  0.00     0.015 SA
ATOM      6  C4  UNL d   1      -0.449   2.029   0.388  0.00  0.00     0.022 A 
ATOM      7  C5  UNL d   1       0.925   1.990   0.363  0.00  0.00     0.026 A 
ATOM      8  C6  UNL d   1       1.439   0.805  -0.264  0.00  0.00    -0.082 A 
ATOM      9  C7  UNL d   1       2.772   0.385  -0.489  0.00  0.00     0.045 A 
ENDROOT
TORSDOF 0
ENDMDL
