MODEL 1
REMARK minimizedAffinity 0.528065383
REMARK minimizedRMSD -1
REMARK  0 active torsions:
REMARK  status: ('A' for Active; 'I' for Inactive)
ROOT
ATOM      1  C   UNL d   1       3.062   1.781   0.296  0.00  0.00    -0.002 A 
ATOM      2  C1  UNL d   1       1.989   2.654   0.401  0.00  0.00     0.010 A 
ATOM      3  C2  UNL d   1       0.681   2.196   0.225  0.00  0.00     0.041 A 
ATOM      4  C3  UNL d   1       0.469   0.832  -0.059  0.00  0.00    -0.075 A 
ATOM      5  S   UNL d   1      -1.044   0.046  -0.312  0.00  0.00     0.015 SA
ATOM      6  C4  UNL d   1      -0.301  -1.467  -0.564  0.00  0.00     0.022 A 
ATOM      7  C5  UNL d   1       1.068  -1.392  -0.461  0.00  0.00     0.026 A 
ATOM      8  C6  UNL d   1       1.535  -0.066  -0.168  0.00  0.00    -0.082 A 
ATOM      9  C7  UNL d   1       2.848   0.429   0.015  0.00  0.00     0.045 A 
ENDROOT
TORSDOF 0
ENDMDL
