MODEL 1
REMARK minimizedAffinity -5.04476452
REMARK minimizedRMSD -1
REMARK  0 active torsions:
REMARK  status: ('A' for Active; 'I' for Inactive)
ROOT
ATOM      1  C   UNL d   1       2.689  -0.939  -1.171  0.00  0.00    -0.002 A 
ATOM      2  C1  UNL d   1       1.554  -1.734  -1.107  0.00  0.00     0.010 A 
ATOM      3  C2  UNL d   1       0.392  -1.264  -0.491  0.00  0.00     0.041 A 
ATOM      4  C3  UNL d   1       0.390   0.032   0.062  0.00  0.00    -0.075 A 
ATOM      5  S   UNL d   1      -0.918   0.818   0.864  0.00  0.00     0.015 SA
ATOM      6  C4  UNL d   1      -0.001   2.228   1.138  0.00  0.00     0.022 A 
ATOM      7  C5  UNL d   1       1.275   2.118   0.637  0.00  0.00     0.026 A 
ATOM      8  C6  UNL d   1       1.521   0.851   0.008  0.00  0.00    -0.082 A 
ATOM      9  C7  UNL d   1       2.684   0.346  -0.622  0.00  0.00     0.045 A 
ENDROOT
TORSDOF 0
ENDMDL
