MODEL 1
REMARK minimizedAffinity 23.2343197
REMARK minimizedRMSD -1
REMARK  0 active torsions:
REMARK  status: ('A' for Active; 'I' for Inactive)
ROOT
ATOM      1  C   UNL d   1       2.059  -0.851  -2.515  0.00  0.00     0.020 A 
ATOM      2  C1  UNL d   1       2.431  -0.637  -1.189  0.00  0.00     0.020 A 
ATOM      3  C2  UNL d   1       1.747  -1.286  -0.158  0.00  0.00     0.034 A 
ATOM      4  C3  UNL d   1       0.689  -2.153  -0.453  0.00  0.00     0.017 A 
ATOM      5  C4  UNL d   1       0.317  -2.368  -1.785  0.00  0.00     0.017 A 
ATOM      6  C5  UNL d   1       1.004  -1.715  -2.813  0.00  0.00     0.034 A 
ATOM      7 Cl   UNL d   1      -0.979  -3.423  -2.227  0.00  0.00    -0.070 Cl
ATOM      8 Cl1  UNL d   1      -0.111  -2.924   0.870  0.00  0.00    -0.070 Cl
ENDROOT
TORSDOF 0
ENDMDL
