MODEL 1
REMARK minimizedAffinity 14.8961735
REMARK minimizedRMSD -1
REMARK  0 active torsions:
REMARK  status: ('A' for Active; 'I' for Inactive)
ROOT
ATOM      1  C   UNL d   1       2.647  -2.564  -0.504  0.00  0.00     0.020 A 
ATOM      2  C1  UNL d   1       1.571  -2.754  -1.370  0.00  0.00     0.020 A 
ATOM      3  C2  UNL d   1       1.129  -1.701  -2.175  0.00  0.00     0.034 A 
ATOM      4  C3  UNL d   1       1.762  -0.455  -2.114  0.00  0.00     0.017 A 
ATOM      5  C4  UNL d   1       2.842  -0.266  -1.244  0.00  0.00     0.017 A 
ATOM      6  C5  UNL d   1       3.281  -1.323  -0.441  0.00  0.00     0.034 A 
ATOM      7 Cl   UNL d   1       3.675   1.244  -1.115  0.00  0.00    -0.070 Cl
ATOM      8 Cl1  UNL d   1       1.163   0.802  -3.138  0.00  0.00    -0.070 Cl
ENDROOT
TORSDOF 0
ENDMDL
