MODEL 1
REMARK minimizedAffinity 16.2765026
REMARK minimizedRMSD -1
REMARK  0 active torsions:
REMARK  status: ('A' for Active; 'I' for Inactive)
ROOT
ATOM      1  C   UNL d   1      -4.190   0.065   4.222  0.00  0.00     0.020 A 
ATOM      2  C1  UNL d   1      -3.965   0.284   2.863  0.00  0.00     0.020 A 
ATOM      3  C2  UNL d   1      -2.926   1.123   2.454  0.00  0.00     0.034 A 
ATOM      4  C3  UNL d   1      -2.108   1.745   3.404  0.00  0.00     0.017 A 
ATOM      5  C4  UNL d   1      -2.335   1.524   4.768  0.00  0.00     0.017 A 
ATOM      6  C5  UNL d   1      -3.377   0.684   5.172  0.00  0.00     0.034 A 
ATOM      7 Cl   UNL d   1      -1.367   2.257   5.999  0.00  0.00    -0.070 Cl
ATOM      8 Cl1  UNL d   1      -0.841   2.768   2.827  0.00  0.00    -0.070 Cl
ENDROOT
TORSDOF 0
ENDMDL
