MODEL 1
REMARK minimizedAffinity 11.6312571
REMARK minimizedRMSD -1
REMARK  0 active torsions:
REMARK  status: ('A' for Active; 'I' for Inactive)
ROOT
ATOM      1  C   UNL d   1      -0.082  -3.185  -1.517  0.00  0.00     0.020 A 
ATOM      2  C1  UNL d   1       0.589  -3.119  -0.297  0.00  0.00     0.020 A 
ATOM      3  C2  UNL d   1       1.461  -2.060  -0.036  0.00  0.00     0.034 A 
ATOM      4  C3  UNL d   1       1.666  -1.064  -0.997  0.00  0.00     0.017 A 
ATOM      5  C4  UNL d   1       0.992  -1.131  -2.222  0.00  0.00     0.017 A 
ATOM      6  C5  UNL d   1       0.120  -2.193  -2.478  0.00  0.00     0.034 A 
ATOM      7 Cl   UNL d   1       1.194   0.061  -3.457  0.00  0.00    -0.070 Cl
ATOM      8 Cl1  UNL d   1       2.759   0.216  -0.608  0.00  0.00    -0.070 Cl
ENDROOT
TORSDOF 0
ENDMDL
