MODEL 1
REMARK minimizedAffinity 18.7984314
REMARK minimizedRMSD -1
REMARK  0 active torsions:
REMARK  status: ('A' for Active; 'I' for Inactive)
ROOT
ATOM      1  C   UNL d   1      -5.510   4.441  -5.997  0.00  0.00     0.020 A 
ATOM      2  C1  UNL d   1      -5.284   3.066  -5.998  0.00  0.00     0.020 A 
ATOM      3  C2  UNL d   1      -3.977   2.573  -5.998  0.00  0.00     0.034 A 
ATOM      4  C3  UNL d   1      -2.891   3.456  -5.998  0.00  0.00     0.017 A 
ATOM      5  C4  UNL d   1      -3.119   4.837  -5.998  0.00  0.00     0.017 A 
ATOM      6  C5  UNL d   1      -4.430   5.325  -5.997  0.00  0.00     0.034 A 
ATOM      7 Cl   UNL d   1      -1.831   5.989  -5.998  0.00  0.00    -0.070 Cl
ATOM      8 Cl1  UNL d   1      -1.303   2.777  -5.998  0.00  0.00    -0.070 Cl
ENDROOT
TORSDOF 0
ENDMDL
