MODEL 1
REMARK minimizedAffinity 17.8725529
REMARK minimizedRMSD -1
REMARK  0 active torsions:
REMARK  status: ('A' for Active; 'I' for Inactive)
ROOT
ATOM      1  C   UNL d   1      -2.655  -1.965  -2.726  0.00  0.00     0.020 A 
ATOM      2  C1  UNL d   1      -2.796  -3.260  -2.229  0.00  0.00     0.020 A 
ATOM      3  C2  UNL d   1      -1.753  -3.851  -1.514  0.00  0.00     0.034 A 
ATOM      4  C3  UNL d   1      -0.564  -3.147  -1.292  0.00  0.00     0.017 A 
ATOM      5  C4  UNL d   1      -0.423  -1.847  -1.791  0.00  0.00     0.017 A 
ATOM      6  C5  UNL d   1      -1.471  -1.260  -2.507  0.00  0.00     0.034 A 
ATOM      7 Cl   UNL d   1       1.014  -0.915  -1.558  0.00  0.00    -0.070 Cl
ATOM      8 Cl1  UNL d   1       0.685  -3.939  -0.399  0.00  0.00    -0.070 Cl
ENDROOT
TORSDOF 0
ENDMDL
