MODEL 1
REMARK minimizedAffinity 16.9514618
REMARK minimizedRMSD -1
REMARK  0 active torsions:
REMARK  status: ('A' for Active; 'I' for Inactive)
ROOT
ATOM      1  C   UNL d   1       5.262   1.612  -0.733  0.00  0.00     0.020 A 
ATOM      2  C1  UNL d   1       3.924   1.801  -1.077  0.00  0.00     0.020 A 
ATOM      3  C2  UNL d   1       3.012   0.752  -0.937  0.00  0.00     0.034 A 
ATOM      4  C3  UNL d   1       3.437  -0.490  -0.451  0.00  0.00     0.017 A 
ATOM      5  C4  UNL d   1       4.780  -0.678  -0.106  0.00  0.00     0.017 A 
ATOM      6  C5  UNL d   1       5.689   0.375  -0.249  0.00  0.00     0.034 A 
ATOM      7 Cl   UNL d   1       5.379  -2.182   0.500  0.00  0.00    -0.070 Cl
ATOM      8 Cl1  UNL d   1       2.255  -1.741  -0.302  0.00  0.00    -0.070 Cl
ENDROOT
TORSDOF 0
ENDMDL
