MODEL 1
REMARK minimizedAffinity 5.46146297
REMARK minimizedRMSD -1
REMARK  0 active torsions:
REMARK  status: ('A' for Active; 'I' for Inactive)
ROOT
ATOM      1  C   UNL d   1      -5.151  -1.330   3.364  0.00  0.00     0.020 A 
ATOM      2  C1  UNL d   1      -5.999  -1.088   4.444  0.00  0.00     0.020 A 
ATOM      3  C2  UNL d   1      -5.845   0.072   5.207  0.00  0.00     0.034 A 
ATOM      4  C3  UNL d   1      -4.841   0.994   4.890  0.00  0.00     0.017 A 
ATOM      5  C4  UNL d   1      -3.990   0.751   3.806  0.00  0.00     0.017 A 
ATOM      6  C5  UNL d   1      -4.149  -0.412   3.046  0.00  0.00     0.034 A 
ATOM      7 Cl   UNL d   1      -2.728   1.842   3.354  0.00  0.00    -0.070 Cl
ATOM      8 Cl1  UNL d   1      -4.708   2.408   5.875  0.00  0.00    -0.070 Cl
ENDROOT
TORSDOF 0
ENDMDL
