MODEL 1
REMARK minimizedAffinity 14.2260313
REMARK minimizedRMSD -1
REMARK  0 active torsions:
REMARK  status: ('A' for Active; 'I' for Inactive)
ROOT
ATOM      1  C   UNL d   1       2.627  -3.347  -1.805  0.00  0.00     0.020 A 
ATOM      2  C1  UNL d   1       3.729  -3.021  -1.014  0.00  0.00     0.020 A 
ATOM      3  C2  UNL d   1       3.951  -1.695  -0.638  0.00  0.00     0.034 A 
ATOM      4  C3  UNL d   1       3.071  -0.689  -1.053  0.00  0.00     0.017 A 
ATOM      5  C4  UNL d   1       1.966  -1.016  -1.847  0.00  0.00     0.017 A 
ATOM      6  C5  UNL d   1       1.748  -2.346  -2.220  0.00  0.00     0.034 A 
ATOM      7 Cl   UNL d   1       0.836   0.170  -2.397  0.00  0.00    -0.070 Cl
ATOM      8 Cl1  UNL d   1       3.407   0.930  -0.551  0.00  0.00    -0.070 Cl
ENDROOT
TORSDOF 0
ENDMDL
