MODEL 1
REMARK minimizedAffinity 11.5037766
REMARK minimizedRMSD -1
REMARK  0 active torsions:
REMARK  status: ('A' for Active; 'I' for Inactive)
ROOT
ATOM      1  C   UNL d   1      -1.337   0.752   2.301  0.00  0.00     0.020 A 
ATOM      2  C1  UNL d   1      -0.103   0.104   2.262  0.00  0.00     0.020 A 
ATOM      3  C2  UNL d   1       0.725   0.110   3.386  0.00  0.00     0.034 A 
ATOM      4  C3  UNL d   1       0.320   0.765   4.555  0.00  0.00     0.017 A 
ATOM      5  C4  UNL d   1      -0.919   1.414   4.594  0.00  0.00     0.017 A 
ATOM      6  C5  UNL d   1      -1.744   1.405   3.465  0.00  0.00     0.034 A 
ATOM      7 Cl   UNL d   1      -1.488   2.243   6.000  0.00  0.00    -0.070 Cl
ATOM      8 Cl1  UNL d   1       1.394   0.732   5.908  0.00  0.00    -0.070 Cl
ENDROOT
TORSDOF 0
ENDMDL
