MODEL 1
REMARK minimizedAffinity 0.212618262
REMARK minimizedRMSD -1
REMARK  0 active torsions:
REMARK  status: ('A' for Active; 'I' for Inactive)
ROOT
ATOM      1  C   UNL d   1       1.877  -2.077  -1.539  0.00  0.00     0.020 A 
ATOM      2  C1  UNL d   1       3.105  -2.184  -0.886  0.00  0.00     0.020 A 
ATOM      3  C2  UNL d   1       3.784  -3.404  -0.872  0.00  0.00     0.034 A 
ATOM      4  C3  UNL d   1       3.237  -4.522  -1.511  0.00  0.00     0.017 A 
ATOM      5  C4  UNL d   1       2.005  -4.414  -2.166  0.00  0.00     0.017 A 
ATOM      6  C5  UNL d   1       1.329  -3.190  -2.178  0.00  0.00     0.034 A 
ATOM      7 Cl   UNL d   1       1.266  -5.750  -2.977  0.00  0.00    -0.070 Cl
ATOM      8 Cl1  UNL d   1       4.132  -5.999  -1.453  0.00  0.00    -0.070 Cl
ENDROOT
TORSDOF 0
ENDMDL
