MODEL 1
REMARK minimizedAffinity 11.405283
REMARK minimizedRMSD -1
REMARK  0 active torsions:
REMARK  status: ('A' for Active; 'I' for Inactive)
ROOT
ATOM      1  C   UNL d   1       1.157   4.745  -1.412  0.00  0.00     0.020 A 
ATOM      2  C1  UNL d   1       0.641   5.138  -0.177  0.00  0.00     0.020 A 
ATOM      3  C2  UNL d   1       0.722   4.277   0.919  0.00  0.00     0.034 A 
ATOM      4  C3  UNL d   1       1.320   3.019   0.784  0.00  0.00     0.017 A 
ATOM      5  C4  UNL d   1       1.838   2.626  -0.456  0.00  0.00     0.017 A 
ATOM      6  C5  UNL d   1       1.754   3.492  -1.550  0.00  0.00     0.034 A 
ATOM      7 Cl   UNL d   1       2.590   1.089  -0.700  0.00  0.00    -0.070 Cl
ATOM      8 Cl1  UNL d   1       1.385   2.006   2.182  0.00  0.00    -0.070 Cl
ENDROOT
TORSDOF 0
ENDMDL
