MODEL 1
REMARK minimizedAffinity 4.74136496
REMARK minimizedRMSD -1
REMARK  0 active torsions:
REMARK  status: ('A' for Active; 'I' for Inactive)
ROOT
ATOM      1  C   UNL d   1      -5.999  -5.257  -5.700  0.00  0.00     0.020 A 
ATOM      2  C1  UNL d   1      -5.818  -3.907  -6.000  0.00  0.00     0.020 A 
ATOM      3  C2  UNL d   1      -4.805  -3.182  -5.370  0.00  0.00     0.034 A 
ATOM      4  C3  UNL d   1      -3.969  -3.805  -4.436  0.00  0.00     0.017 A 
ATOM      5  C4  UNL d   1      -4.152  -5.160  -4.136  0.00  0.00     0.017 A 
ATOM      6  C5  UNL d   1      -5.167  -5.882  -4.770  0.00  0.00     0.034 A 
ATOM      7 Cl   UNL d   1      -3.160  -5.999  -2.995  0.00  0.00    -0.070 Cl
ATOM      8 Cl1  UNL d   1      -2.737  -2.848  -3.695  0.00  0.00    -0.070 Cl
ENDROOT
TORSDOF 0
ENDMDL
