MODEL 1
REMARK minimizedAffinity 9.93200684
REMARK minimizedRMSD -1
REMARK  0 active torsions:
REMARK  status: ('A' for Active; 'I' for Inactive)
ROOT
ATOM      1  C   UNL d   1      -2.265  -4.584  -2.841  0.00  0.00     0.020 A 
ATOM      2  C1  UNL d   1      -3.129  -3.890  -3.687  0.00  0.00     0.020 A 
ATOM      3  C2  UNL d   1      -2.930  -2.529  -3.925  0.00  0.00     0.034 A 
ATOM      4  C3  UNL d   1      -1.863  -1.857  -3.315  0.00  0.00     0.017 A 
ATOM      5  C4  UNL d   1      -0.997  -2.555  -2.466  0.00  0.00     0.017 A 
ATOM      6  C5  UNL d   1      -1.201  -3.918  -2.232  0.00  0.00     0.034 A 
ATOM      7 Cl   UNL d   1       0.341  -1.794  -1.679  0.00  0.00    -0.070 Cl
ATOM      8 Cl1  UNL d   1      -1.676  -0.173  -3.654  0.00  0.00    -0.070 Cl
ENDROOT
TORSDOF 0
ENDMDL
