MODEL 1
REMARK minimizedAffinity 20.9311562
REMARK minimizedRMSD -1
REMARK  0 active torsions:
REMARK  status: ('A' for Active; 'I' for Inactive)
ROOT
ATOM      1  C   UNL d   1      -3.044  -3.687  -3.105  0.00  0.00     0.020 A 
ATOM      2  C1  UNL d   1      -1.886  -4.300  -2.629  0.00  0.00     0.020 A 
ATOM      3  C2  UNL d   1      -0.818  -3.521  -2.179  0.00  0.00     0.034 A 
ATOM      4  C3  UNL d   1      -0.906  -2.124  -2.205  0.00  0.00     0.017 A 
ATOM      5  C4  UNL d   1      -2.069  -1.510  -2.682  0.00  0.00     0.017 A 
ATOM      6  C5  UNL d   1      -3.135  -2.295  -3.131  0.00  0.00     0.034 A 
ATOM      7 Cl   UNL d   1      -2.251   0.208  -2.744  0.00  0.00    -0.070 Cl
ATOM      8 Cl1  UNL d   1       0.454  -1.224  -1.633  0.00  0.00    -0.070 Cl
ENDROOT
TORSDOF 0
ENDMDL
