MODEL 1
REMARK minimizedAffinity 9.95367718
REMARK minimizedRMSD -1
REMARK  0 active torsions:
REMARK  status: ('A' for Active; 'I' for Inactive)
ROOT
ATOM      1  C   UNL d   1      -1.295  -0.386   2.472  0.00  0.00     0.020 A 
ATOM      2  C1  UNL d   1      -1.112   0.899   2.983  0.00  0.00     0.020 A 
ATOM      3  C2  UNL d   1      -2.216   1.659   3.375  0.00  0.00     0.034 A 
ATOM      4  C3  UNL d   1      -3.508   1.135   3.257  0.00  0.00     0.017 A 
ATOM      5  C4  UNL d   1      -3.692  -0.154   2.744  0.00  0.00     0.017 A 
ATOM      6  C5  UNL d   1      -2.583  -0.911   2.353  0.00  0.00     0.034 A 
ATOM      7 Cl   UNL d   1      -5.256  -0.868   2.568  0.00  0.00    -0.070 Cl
ATOM      8 Cl1  UNL d   1      -4.828   2.130   3.761  0.00  0.00    -0.070 Cl
ENDROOT
TORSDOF 0
ENDMDL
