MODEL 1
REMARK minimizedAffinity 14.9286671
REMARK minimizedRMSD -1
REMARK  0 active torsions:
REMARK  status: ('A' for Active; 'I' for Inactive)
ROOT
ATOM      1  C   UNL d   1      -2.746   2.930  -5.448  0.00  0.00     0.020 A 
ATOM      2  C1  UNL d   1      -2.260   3.042  -4.146  0.00  0.00     0.020 A 
ATOM      3  C2  UNL d   1      -2.004   1.892  -3.395  0.00  0.00     0.034 A 
ATOM      4  C3  UNL d   1      -2.236   0.626  -3.946  0.00  0.00     0.017 A 
ATOM      5  C4  UNL d   1      -2.724   0.515  -5.253  0.00  0.00     0.017 A 
ATOM      6  C5  UNL d   1      -2.977   1.670  -6.000  0.00  0.00     0.034 A 
ATOM      7 Cl   UNL d   1      -3.033  -1.012  -6.000  0.00  0.00    -0.070 Cl
ATOM      8 Cl1  UNL d   1      -1.898  -0.752  -2.960  0.00  0.00    -0.070 Cl
ENDROOT
TORSDOF 0
ENDMDL
