MODEL 1
REMARK minimizedAffinity 9.46852684
REMARK minimizedRMSD -1
REMARK  0 active torsions:
REMARK  status: ('A' for Active; 'I' for Inactive)
ROOT
ATOM      1  C   UNL d   1       1.493  -0.989  -0.787  0.00  0.00     0.020 A 
ATOM      2  C1  UNL d   1       1.770  -0.350  -1.995  0.00  0.00     0.020 A 
ATOM      3  C2  UNL d   1       2.513  -1.007  -2.978  0.00  0.00     0.034 A 
ATOM      4  C3  UNL d   1       2.981  -2.307  -2.756  0.00  0.00     0.017 A 
ATOM      5  C4  UNL d   1       2.703  -2.948  -1.543  0.00  0.00     0.017 A 
ATOM      6  C5  UNL d   1       1.959  -2.285  -0.562  0.00  0.00     0.034 A 
ATOM      7 Cl   UNL d   1       3.247  -4.551  -1.196  0.00  0.00    -0.070 Cl
ATOM      8 Cl1  UNL d   1       3.893  -3.059  -4.016  0.00  0.00    -0.070 Cl
ENDROOT
TORSDOF 0
ENDMDL
