MODEL 1
REMARK minimizedAffinity 7.98073864
REMARK minimizedRMSD -1
REMARK  0 active torsions:
REMARK  status: ('A' for Active; 'I' for Inactive)
ROOT
ATOM      1  C   UNL d   1      -1.114   2.635   3.740  0.00  0.00     0.020 A 
ATOM      2  C1  UNL d   1      -1.034   1.397   3.104  0.00  0.00     0.020 A 
ATOM      3  C2  UNL d   1      -2.194   0.654   2.873  0.00  0.00     0.034 A 
ATOM      4  C3  UNL d   1      -3.439   1.149   3.279  0.00  0.00     0.017 A 
ATOM      5  C4  UNL d   1      -3.518   2.392   3.917  0.00  0.00     0.017 A 
ATOM      6  C5  UNL d   1      -2.353   3.131   4.145  0.00  0.00     0.034 A 
ATOM      7 Cl   UNL d   1      -5.018   3.068   4.447  0.00  0.00    -0.070 Cl
ATOM      8 Cl1  UNL d   1      -4.832   0.177   2.962  0.00  0.00    -0.070 Cl
ENDROOT
TORSDOF 0
ENDMDL
