MODEL 1
REMARK minimizedAffinity -2.60834908
REMARK minimizedRMSD -1
REMARK  0 active torsions:
REMARK  status: ('A' for Active; 'I' for Inactive)
ROOT
ATOM      1  C   UNL d   1       0.869   1.599   0.255  0.00  0.00     0.020 A 
ATOM      2  C1  UNL d   1       1.359   2.189  -0.910  0.00  0.00     0.020 A 
ATOM      3  C2  UNL d   1       1.518   1.422  -2.067  0.00  0.00     0.034 A 
ATOM      4  C3  UNL d   1       1.186   0.063  -2.061  0.00  0.00     0.017 A 
ATOM      5  C4  UNL d   1       0.694  -0.528  -0.892  0.00  0.00     0.017 A 
ATOM      6  C5  UNL d   1       0.537   0.244   0.263  0.00  0.00     0.034 A 
ATOM      7 Cl   UNL d   1       0.263  -2.200  -0.808  0.00  0.00    -0.070 Cl
ATOM      8 Cl1  UNL d   1       1.408  -0.824  -3.528  0.00  0.00    -0.070 Cl
ENDROOT
TORSDOF 0
ENDMDL
