MODEL 1
REMARK minimizedAffinity 5.25614834
REMARK minimizedRMSD -1
REMARK  3 active torsions:
REMARK  status: ('A' for Active; 'I' for Inactive)
REMARK    1  A    between atoms: C3'_2  and  C2'_3 
REMARK    2  A    between atoms: C2'_3  and  C1'_4 
REMARK    3  A    between atoms: C1'_4  and  C1_5 
ROOT
ATOM      1  C1  N4B d   1      -0.282  -1.708   2.351  0.00  0.00    -0.075 A 
ATOM      2  C2  N4B d   1       0.818  -2.355   1.746  0.00  0.00     0.002 A 
ATOM      3  C3  N4B d   1       1.016  -3.700   1.940  0.00  0.00     0.002 A 
ATOM      4  C4  N4B d   1       0.141  -4.412   2.747  0.00  0.00    -0.004 A 
ATOM      5  C5  N4B d   1      -0.934  -3.785   3.307  0.00  0.00     0.002 A 
ATOM      6  C6  N4B d   1      -1.147  -2.435   3.117  0.00  0.00     0.002 A 
ENDROOT
BRANCH   1   7
ATOM      7  C1' N4B d   1      -0.491  -0.223   2.238  0.00  0.00     0.057 C 
BRANCH   7   8
ATOM      8  C2' N4B d   1      -1.279   0.077   0.966  0.00  0.00     0.009 C 
BRANCH   8   9
ATOM      9  C3' N4B d   1      -2.757   0.285   1.250  0.00  0.00     0.004 C 
ATOM     10  C4' N4B d   1      -3.614  -0.819   0.707  0.00  0.00     0.003 C 
ENDBRANCH   8   9
ENDBRANCH   7   8
ENDBRANCH   1   7
TORSDOF 3
ENDMDL
