MODEL 1
REMARK minimizedAffinity -5.03458166
REMARK minimizedRMSD -1
REMARK  0 active torsions:
REMARK  status: ('A' for Active; 'I' for Inactive)
ROOT
ATOM      1  C4' PXY d   1      -0.749   0.118  -1.831  0.00  0.00     0.077 C 
ATOM      2  C1' PXY d   1       1.690  -1.138   3.258  0.00  0.00     0.077 C 
ATOM      3  C1  PXY d   1       1.062  -0.808   1.918  0.00  0.00    -0.082 A 
ATOM      4  C2  PXY d   1      -0.166  -0.317   1.874  0.00  0.00     0.003 A 
ATOM      5  C3  PXY d   1      -0.761  -0.042   0.670  0.00  0.00     0.003 A 
ATOM      6  C4  PXY d   1      -0.072  -0.222  -0.500  0.00  0.00    -0.082 A 
ATOM      7  C5  PXY d   1       1.185  -0.712  -0.463  0.00  0.00     0.003 A 
ATOM      8  C6  PXY d   1       1.756  -1.023   0.768  0.00  0.00     0.003 A 
ENDROOT
TORSDOF 0
ENDMDL
