MODEL 1
REMARK minimizedAffinity -4.88283205
REMARK minimizedRMSD -1
REMARK  0 active torsions:
REMARK  status: ('A' for Active; 'I' for Inactive)
ROOT
ATOM      1  C4' PXY d   1      -1.008   1.116  -1.767  0.00  0.00     0.077 C 
ATOM      2  C1' PXY d   1       1.119  -1.132   3.115  0.00  0.00     0.077 C 
ATOM      3  C1  PXY d   1       0.549  -0.545   1.839  0.00  0.00    -0.082 A 
ATOM      4  C2  PXY d   1       1.275  -0.555   0.733  0.00  0.00     0.003 A 
ATOM      5  C3  PXY d   1       0.788   0.001  -0.422  0.00  0.00     0.003 A 
ATOM      6  C4  PXY d   1      -0.477   0.525  -0.458  0.00  0.00    -0.082 A 
ATOM      7  C5  PXY d   1      -1.228   0.530   0.664  0.00  0.00     0.003 A 
ATOM      8  C6  PXY d   1      -0.699  -0.003   1.836  0.00  0.00     0.003 A 
ENDROOT
TORSDOF 0
ENDMDL
