MODEL 1
REMARK minimizedAffinity -4.68204355
REMARK minimizedRMSD -1
REMARK  0 active torsions:
REMARK  status: ('A' for Active; 'I' for Inactive)
ROOT
ATOM      1  C4' PXY d   1      -1.930   0.019   2.336  0.00  0.00     0.077 C 
ATOM      2  C1' PXY d   1       3.164  -1.412   0.008  0.00  0.00     0.077 C 
ATOM      3  C1  PXY d   1       1.830  -1.045   0.629  0.00  0.00    -0.082 A 
ATOM      4  C2  PXY d   1       0.851  -0.601  -0.142  0.00  0.00     0.003 A 
ATOM      5  C3  PXY d   1      -0.351  -0.234   0.407  0.00  0.00     0.003 A 
ATOM      6  C4  PXY d   1      -0.570  -0.373   1.751  0.00  0.00    -0.082 A 
ATOM      7  C5  PXY d   1       0.421  -0.835   2.543  0.00  0.00     0.003 A 
ATOM      8  C6  PXY d   1       1.647  -1.163   1.972  0.00  0.00     0.003 A 
ENDROOT
TORSDOF 0
ENDMDL
