MODEL 1
REMARK minimizedAffinity -4.62710238
REMARK minimizedRMSD -1
REMARK  0 active torsions:
REMARK  status: ('A' for Active; 'I' for Inactive)
ROOT
ATOM      1  C4' PXY d   1      -2.287   1.286  -2.664  0.00  0.00     0.077 C 
ATOM      2  C1' PXY d   1       0.624  -0.307   2.070  0.00  0.00     0.077 C 
ATOM      3  C1  PXY d   1      -0.128   0.109   0.821  0.00  0.00    -0.082 A 
ATOM      4  C2  PXY d   1      -1.210   0.864   0.930  0.00  0.00     0.003 A 
ATOM      5  C3  PXY d   1      -1.921   1.223  -0.186  0.00  0.00     0.003 A 
ATOM      6  C4  PXY d   1      -1.490   0.850  -1.431  0.00  0.00    -0.082 A 
ATOM      7  C5  PXY d   1      -0.382   0.089  -1.551  0.00  0.00     0.003 A 
ATOM      8  C6  PXY d   1       0.303  -0.299  -0.403  0.00  0.00     0.003 A 
ENDROOT
TORSDOF 0
ENDMDL
