MODEL 1
REMARK minimizedAffinity -4.80758524
REMARK minimizedRMSD -1
REMARK  0 active torsions:
REMARK  status: ('A' for Active; 'I' for Inactive)
ROOT
ATOM      1  C4' PXY d   1      -1.146   1.076  -2.042  0.00  0.00     0.077 C 
ATOM      2  C1' PXY d   1       0.754  -1.387   2.830  0.00  0.00     0.077 C 
ATOM      3  C1  PXY d   1       0.268  -0.742   1.547  0.00  0.00    -0.082 A 
ATOM      4  C2  PXY d   1      -0.766   0.083   1.580  0.00  0.00     0.003 A 
ATOM      5  C3  PXY d   1      -1.239   0.650   0.425  0.00  0.00     0.003 A 
ATOM      6  C4  PXY d   1      -0.614   0.410  -0.770  0.00  0.00    -0.082 A 
ATOM      7  C5  PXY d   1       0.447  -0.422  -0.811  0.00  0.00     0.003 A 
ATOM      8  C6  PXY d   1       0.886  -1.019   0.367  0.00  0.00     0.003 A 
ENDROOT
TORSDOF 0
ENDMDL
