MODEL 1
REMARK minimizedAffinity -4.33537769
REMARK minimizedRMSD -1
REMARK  0 active torsions:
REMARK  status: ('A' for Active; 'I' for Inactive)
ROOT
ATOM      1  C4' PXY d   1      -1.704   0.984  -1.483  0.00  0.00     0.077 C 
ATOM      2  C1' PXY d   1       1.193  -1.583   2.810  0.00  0.00     0.077 C 
ATOM      3  C1  PXY d   1       0.422  -0.913   1.690  0.00  0.00    -0.082 A 
ATOM      4  C2  PXY d   1       0.977  -0.790   0.496  0.00  0.00     0.003 A 
ATOM      5  C3  PXY d   1       0.307  -0.158  -0.520  0.00  0.00     0.003 A 
ATOM      6  C4  PXY d   1      -0.967   0.306  -0.325  0.00  0.00    -0.082 A 
ATOM      7  C5  PXY d   1      -1.545   0.175   0.887  0.00  0.00     0.003 A 
ATOM      8  C6  PXY d   1      -0.831  -0.433   1.916  0.00  0.00     0.003 A 
ENDROOT
TORSDOF 0
ENDMDL
