MODEL 1
REMARK minimizedAffinity -3.91809869
REMARK minimizedRMSD -1
REMARK  0 active torsions:
REMARK  status: ('A' for Active; 'I' for Inactive)
ROOT
ATOM      1  C4' PXY d   1      -1.066   0.382  -1.063  0.00  0.00     0.077 C 
ATOM      2  C1' PXY d   1       2.126  -1.383   3.421  0.00  0.00     0.077 C 
ATOM      3  C1  PXY d   1       1.279  -0.926   2.251  0.00  0.00    -0.082 A 
ATOM      4  C2  PXY d   1       1.851  -0.689   1.081  0.00  0.00     0.003 A 
ATOM      5  C3  PXY d   1       1.104  -0.244   0.021  0.00  0.00     0.003 A 
ATOM      6  C4  PXY d   1      -0.251  -0.091   0.144  0.00  0.00    -0.082 A 
ATOM      7  C5  PXY d   1      -0.844  -0.340   1.330  0.00  0.00     0.003 A 
ATOM      8  C6  PXY d   1      -0.062  -0.752   2.406  0.00  0.00     0.003 A 
ENDROOT
TORSDOF 0
ENDMDL
