MODEL 1
REMARK minimizedAffinity -4.64947176
REMARK minimizedRMSD -1
REMARK  0 active torsions:
REMARK  status: ('A' for Active; 'I' for Inactive)
ROOT
ATOM      1  C4' PXY d   1      -0.379   0.400  -2.262  0.00  0.00     0.077 C 
ATOM      2  C1' PXY d   1       1.055  -0.974   3.166  0.00  0.00     0.077 C 
ATOM      3  C1  PXY d   1       0.667  -0.617   1.745  0.00  0.00    -0.082 A 
ATOM      4  C2  PXY d   1       1.585  -0.633   0.792  0.00  0.00     0.003 A 
ATOM      5  C3  PXY d   1       1.257  -0.282  -0.492  0.00  0.00     0.003 A 
ATOM      6  C4  PXY d   1      -0.034   0.038  -0.815  0.00  0.00    -0.082 A 
ATOM      7  C5  PXY d   1      -0.979   0.047   0.149  0.00  0.00     0.003 A 
ATOM      8  C6  PXY d   1      -0.618  -0.273   1.455  0.00  0.00     0.003 A 
ENDROOT
TORSDOF 0
ENDMDL
