MODEL 1
REMARK minimizedAffinity 2.60097766
REMARK minimizedRMSD -1
REMARK  0 active torsions:
REMARK  status: ('A' for Active; 'I' for Inactive)
ROOT
ATOM      1  C4' PXY d   1      -1.799  -0.006   2.448  0.00  0.00     0.077 C 
ATOM      2  C1' PXY d   1       3.631  -1.771   3.346  0.00  0.00     0.077 C 
ATOM      3  C1  PXY d   1       2.205  -1.318   3.102  0.00  0.00    -0.082 A 
ATOM      4  C2  PXY d   1       1.873  -0.056   3.321  0.00  0.00     0.003 A 
ATOM      5  C3  PXY d   1       0.581   0.363   3.137  0.00  0.00     0.003 A 
ATOM      6  C4  PXY d   1      -0.369  -0.506   2.672  0.00  0.00    -0.082 A 
ATOM      7  C5  PXY d   1      -0.036  -1.792   2.435  0.00  0.00     0.003 A 
ATOM      8  C6  PXY d   1       1.272  -2.208   2.668  0.00  0.00     0.003 A 
ENDROOT
TORSDOF 0
ENDMDL
