MODEL 1
REMARK minimizedAffinity -2.93206406
REMARK minimizedRMSD -1
REMARK  0 active torsions:
REMARK  status: ('A' for Active; 'I' for Inactive)
ROOT
ATOM      1  C4' PXY d   1       1.885  -1.461   2.640  0.00  0.00     0.077 C 
ATOM      2  C1' PXY d   1      -3.451   0.633   1.892  0.00  0.00     0.077 C 
ATOM      3  C1  PXY d   1      -2.048   0.094   2.095  0.00  0.00    -0.082 A 
ATOM      4  C2  PXY d   1      -1.553  -0.781   1.236  0.00  0.00     0.003 A 
ATOM      5  C3  PXY d   1      -0.299  -1.303   1.422  0.00  0.00     0.003 A 
ATOM      6  C4  PXY d   1       0.477  -0.883   2.469  0.00  0.00    -0.082 A 
ATOM      7  C5  PXY d   1      -0.017   0.018   3.345  0.00  0.00     0.003 A 
ATOM      8  C6  PXY d   1      -1.308   0.504   3.161  0.00  0.00     0.003 A 
ENDROOT
TORSDOF 0
ENDMDL
