MODEL 1
REMARK minimizedAffinity 5.21600199
REMARK minimizedRMSD -1
REMARK  0 active torsions:
REMARK  status: ('A' for Active; 'I' for Inactive)
ROOT
ATOM      1  C4' PXY d   1       1.935  -0.647   0.960  0.00  0.00     0.077 C 
ATOM      2  C1' PXY d   1      -1.580  -3.791   4.303  0.00  0.00     0.077 C 
ATOM      3  C1  PXY d   1      -0.666  -2.956   3.427  0.00  0.00    -0.082 A 
ATOM      4  C2  PXY d   1       0.145  -3.555   2.570  0.00  0.00     0.003 A 
ATOM      5  C3  PXY d   1       1.001  -2.817   1.794  0.00  0.00     0.003 A 
ATOM      6  C4  PXY d   1       0.989  -1.449   1.857  0.00  0.00    -0.082 A 
ATOM      7  C5  PXY d   1       0.156  -0.831   2.722  0.00  0.00     0.003 A 
ATOM      8  C6  PXY d   1      -0.675  -1.600   3.530  0.00  0.00     0.003 A 
ENDROOT
TORSDOF 0
ENDMDL
