MODEL 1
REMARK minimizedAffinity -3.99602437
REMARK minimizedRMSD -1
REMARK  0 active torsions:
REMARK  status: ('A' for Active; 'I' for Inactive)
ROOT
ATOM      1  C1  BNZ d   1      -0.534  -1.249   0.764  0.00  0.00     0.000 A 
ATOM      2  C2  BNZ d   1      -0.811   0.085   0.905  0.00  0.00     0.000 A 
ATOM      3  C3  BNZ d   1      -0.529   0.969  -0.098  0.00  0.00     0.000 A 
ATOM      4  C4  BNZ d   1       0.066   0.526  -1.224  0.00  0.00     0.000 A 
ATOM      5  C5  BNZ d   1       0.361  -0.814  -1.378  0.00  0.00     0.000 A 
ATOM      6  C6  BNZ d   1       0.040  -1.707  -0.382  0.00  0.00     0.000 A 
ENDROOT
TORSDOF 0
ENDMDL
