MODEL 1
REMARK minimizedAffinity -3.59894156
REMARK minimizedRMSD -1
REMARK  0 active torsions:
REMARK  status: ('A' for Active; 'I' for Inactive)
ROOT
ATOM      1  C1  BNZ d   1      -0.852  -2.295   0.995  0.00  0.00     0.000 A 
ATOM      2  C2  BNZ d   1      -0.039  -3.368   0.742  0.00  0.00     0.000 A 
ATOM      3  C3  BNZ d   1       1.043  -3.247  -0.084  0.00  0.00     0.000 A 
ATOM      4  C4  BNZ d   1       1.288  -2.066  -0.687  0.00  0.00     0.000 A 
ATOM      5  C5  BNZ d   1       0.473  -0.977  -0.450  0.00  0.00     0.000 A 
ATOM      6  C6  BNZ d   1      -0.594  -1.093   0.413  0.00  0.00     0.000 A 
ENDROOT
TORSDOF 0
ENDMDL
