MODEL 1
REMARK minimizedAffinity -3.55932307
REMARK minimizedRMSD -1
REMARK  0 active torsions:
REMARK  status: ('A' for Active; 'I' for Inactive)
ROOT
ATOM      1  C1  BNZ d   1       0.252  -1.096  -0.842  0.00  0.00     0.000 A 
ATOM      2  C2  BNZ d   1       0.070   0.260  -0.801  0.00  0.00     0.000 A 
ATOM      3  C3  BNZ d   1      -0.621   0.843   0.224  0.00  0.00     0.000 A 
ATOM      4  C4  BNZ d   1      -1.163   0.067   1.184  0.00  0.00     0.000 A 
ATOM      5  C5  BNZ d   1      -0.997  -1.303   1.152  0.00  0.00     0.000 A 
ATOM      6  C6  BNZ d   1      -0.268  -1.883   0.139  0.00  0.00     0.000 A 
ENDROOT
TORSDOF 0
ENDMDL
