MODEL 1
REMARK minimizedAffinity -4.22035503
REMARK minimizedRMSD -1
REMARK  0 active torsions:
REMARK  status: ('A' for Active; 'I' for Inactive)
ROOT
ATOM      1  C1  BNZ d   1      -0.942  -0.503   1.090  0.00  0.00     0.000 A 
ATOM      2  C2  BNZ d   1      -0.913  -1.872   1.097  0.00  0.00     0.000 A 
ATOM      3  C3  BNZ d   1      -0.117  -2.560   0.224  0.00  0.00     0.000 A 
ATOM      4  C4  BNZ d   1       0.618  -1.880  -0.679  0.00  0.00     0.000 A 
ATOM      5  C5  BNZ d   1       0.593  -0.500  -0.705  0.00  0.00     0.000 A 
ATOM      6  C6  BNZ d   1      -0.180   0.190   0.200  0.00  0.00     0.000 A 
ENDROOT
TORSDOF 0
ENDMDL
