MODEL 1
REMARK minimizedAffinity -2.68070865
REMARK minimizedRMSD -1
REMARK  0 active torsions:
REMARK  status: ('A' for Active; 'I' for Inactive)
ROOT
ATOM      1  C1  BNZ d   1      -1.567  -0.159   1.242  0.00  0.00     0.000 A 
ATOM      2  C2  BNZ d   1      -0.732   0.771   0.682  0.00  0.00     0.000 A 
ATOM      3  C3  BNZ d   1       0.257   0.394  -0.182  0.00  0.00     0.000 A 
ATOM      4  C4  BNZ d   1       0.437  -0.915  -0.453  0.00  0.00     0.000 A 
ATOM      5  C5  BNZ d   1      -0.390  -1.866   0.111  0.00  0.00     0.000 A 
ATOM      6  C6  BNZ d   1      -1.410  -1.479   0.950  0.00  0.00     0.000 A 
ENDROOT
TORSDOF 0
ENDMDL
