MODEL 1
REMARK minimizedAffinity -3.69223213
REMARK minimizedRMSD -1
REMARK  0 active torsions:
REMARK  status: ('A' for Active; 'I' for Inactive)
ROOT
ATOM      1  C1  BNZ d   1       0.347  -2.414  -0.459  0.00  0.00     0.000 A 
ATOM      2  C2  BNZ d   1       0.651  -1.111  -0.163  0.00  0.00     0.000 A 
ATOM      3  C3  BNZ d   1      -0.144  -0.381   0.676  0.00  0.00     0.000 A 
ATOM      4  C4  BNZ d   1      -1.261  -0.940   1.185  0.00  0.00     0.000 A 
ATOM      5  C5  BNZ d   1      -1.585  -2.248   0.889  0.00  0.00     0.000 A 
ATOM      6  C6  BNZ d   1      -0.762  -2.993   0.075  0.00  0.00     0.000 A 
ENDROOT
TORSDOF 0
ENDMDL
