MODEL 1
REMARK minimizedAffinity -3.883286
REMARK minimizedRMSD -1
REMARK  0 active torsions:
REMARK  status: ('A' for Active; 'I' for Inactive)
ROOT
ATOM      1  C1  BNZ d   1       1.096  -1.507  -0.976  0.00  0.00     0.000 A 
ATOM      2  C2  BNZ d   1       0.809  -2.619  -0.230  0.00  0.00     0.000 A 
ATOM      3  C3  BNZ d   1      -0.089  -2.559   0.798  0.00  0.00     0.000 A 
ATOM      4  C4  BNZ d   1      -0.668  -1.380   1.105  0.00  0.00     0.000 A 
ATOM      5  C5  BNZ d   1      -0.382  -0.248   0.368  0.00  0.00     0.000 A 
ATOM      6  C6  BNZ d   1       0.493  -0.321  -0.691  0.00  0.00     0.000 A 
ENDROOT
TORSDOF 0
ENDMDL
