MODEL 1
REMARK minimizedAffinity -5.19893742
REMARK minimizedRMSD -1
REMARK  0 active torsions:
REMARK  status: ('A' for Active; 'I' for Inactive)
ROOT
ATOM      1  C1  BNZ d   1      -0.110  -2.958  -0.052  0.00  0.00     0.000 A 
ATOM      2  C2  BNZ d   1       0.094  -2.086  -1.088  0.00  0.00     0.000 A 
ATOM      3  C3  BNZ d   1       0.100  -0.736  -0.875  0.00  0.00     0.000 A 
ATOM      4  C4  BNZ d   1      -0.138  -0.259   0.364  0.00  0.00     0.000 A 
ATOM      5  C5  BNZ d   1      -0.354  -1.125   1.417  0.00  0.00     0.000 A 
ATOM      6  C6  BNZ d   1      -0.320  -2.485   1.206  0.00  0.00     0.000 A 
ENDROOT
TORSDOF 0
ENDMDL
