MODEL 1
REMARK minimizedAffinity -3.93017364
REMARK minimizedRMSD -1
REMARK  0 active torsions:
REMARK  status: ('A' for Active; 'I' for Inactive)
ROOT
ATOM      1  C1  BNZ d   1       0.750  -1.121  -0.933  0.00  0.00     0.000 A 
ATOM      2  C2  BNZ d   1       0.750   0.237  -0.753  0.00  0.00     0.000 A 
ATOM      3  C3  BNZ d   1       0.208   0.794   0.371  0.00  0.00     0.000 A 
ATOM      4  C4  BNZ d   1      -0.370  -0.003   1.294  0.00  0.00     0.000 A 
ATOM      5  C5  BNZ d   1      -0.386  -1.373   1.123  0.00  0.00     0.000 A 
ATOM      6  C6  BNZ d   1       0.195  -1.933   0.008  0.00  0.00     0.000 A 
ENDROOT
TORSDOF 0
ENDMDL
