MODEL 1
REMARK minimizedAffinity -4.99990034
REMARK minimizedRMSD -1
REMARK  0 active torsions:
REMARK  status: ('A' for Active; 'I' for Inactive)
ROOT
ATOM      1  C1  BNZ d   1       0.400   0.204  -0.884  0.00  0.00     0.000 A 
ATOM      2  C2  BNZ d   1       0.875  -1.070  -0.725  0.00  0.00     0.000 A 
ATOM      3  C3  BNZ d   1       0.393  -1.878   0.266  0.00  0.00     0.000 A 
ATOM      4  C4  BNZ d   1      -0.533  -1.399   1.121  0.00  0.00     0.000 A 
ATOM      5  C5  BNZ d   1      -1.016  -0.113   0.979  0.00  0.00     0.000 A 
ATOM      6  C6  BNZ d   1      -0.557   0.685  -0.044  0.00  0.00     0.000 A 
ENDROOT
TORSDOF 0
ENDMDL
