MODEL 1
REMARK minimizedAffinity -4.52498055
REMARK minimizedRMSD -1
REMARK  0 active torsions:
REMARK  status: ('A' for Active; 'I' for Inactive)
ROOT
ATOM      1  C1  BNZ d   1      -0.894  -0.588   1.502  0.00  0.00     0.000 A 
ATOM      2  C2  BNZ d   1      -0.323   0.067   0.443  0.00  0.00     0.000 A 
ATOM      3  C3  BNZ d   1       0.428  -0.609  -0.477  0.00  0.00     0.000 A 
ATOM      4  C4  BNZ d   1       0.640  -1.931  -0.316  0.00  0.00     0.000 A 
ATOM      5  C5  BNZ d   1       0.080  -2.605   0.751  0.00  0.00     0.000 A 
ATOM      6  C6  BNZ d   1      -0.708  -1.927   1.654  0.00  0.00     0.000 A 
ENDROOT
TORSDOF 0
ENDMDL
