MODEL 1
REMARK minimizedAffinity -2.29650784
REMARK minimizedRMSD -1
REMARK  0 active torsions:
REMARK  status: ('A' for Active; 'I' for Inactive)
ROOT
ATOM      1  C1  BNZ d   1      -0.460  -0.186   0.765  0.00  0.00     0.000 A 
ATOM      2  C2  BNZ d   1      -0.131   0.830  -0.093  0.00  0.00     0.000 A 
ATOM      3  C3  BNZ d   1       0.103   0.579  -1.416  0.00  0.00     0.000 A 
ATOM      4  C4  BNZ d   1       0.049  -0.689  -1.871  0.00  0.00     0.000 A 
ATOM      5  C5  BNZ d   1      -0.272  -1.725  -1.016  0.00  0.00     0.000 A 
ATOM      6  C6  BNZ d   1      -0.546  -1.464   0.307  0.00  0.00     0.000 A 
ENDROOT
TORSDOF 0
ENDMDL
