MODEL 1
REMARK minimizedAffinity -2.8654995
REMARK minimizedRMSD -1
REMARK  0 active torsions:
REMARK  status: ('A' for Active; 'I' for Inactive)
ROOT
ATOM      1  C1  BNZ d   1       0.274  -0.716  -0.599  0.00  0.00     0.000 A 
ATOM      2  C2  BNZ d   1       0.405  -2.073  -0.473  0.00  0.00     0.000 A 
ATOM      3  C3  BNZ d   1      -0.286  -2.757   0.489  0.00  0.00     0.000 A 
ATOM      4  C4  BNZ d   1      -1.074  -2.078   1.347  0.00  0.00     0.000 A 
ATOM      5  C5  BNZ d   1      -1.210  -0.708   1.238  0.00  0.00     0.000 A 
ATOM      6  C6  BNZ d   1      -0.543  -0.029   0.244  0.00  0.00     0.000 A 
ENDROOT
TORSDOF 0
ENDMDL
