MODEL 1
REMARK minimizedAffinity -3.22288704
REMARK minimizedRMSD -1
REMARK  0 active torsions:
REMARK  status: ('A' for Active; 'I' for Inactive)
ROOT
ATOM      1  C1  BNZ d   1      -0.812  -0.318   0.932  0.00  0.00     0.000 A 
ATOM      2  C2  BNZ d   1      -0.553  -1.663   0.925  0.00  0.00     0.000 A 
ATOM      3  C3  BNZ d   1       0.363  -2.194   0.061  0.00  0.00     0.000 A 
ATOM      4  C4  BNZ d   1       0.989  -1.388  -0.821  0.00  0.00     0.000 A 
ATOM      5  C5  BNZ d   1       0.732  -0.031  -0.832  0.00  0.00     0.000 A 
ATOM      6  C6  BNZ d   1      -0.162   0.506   0.066  0.00  0.00     0.000 A 
ENDROOT
TORSDOF 0
ENDMDL
