MODEL 1
REMARK minimizedAffinity -4.62419748
REMARK minimizedRMSD -1
REMARK  0 active torsions:
REMARK  status: ('A' for Active; 'I' for Inactive)
ROOT
ATOM      1  C2' OXE d   1      -1.670  -2.613   0.875  0.00  0.00     0.078 C 
ATOM      2  C1' OXE d   1      -2.760  -0.029   0.761  0.00  0.00     0.078 C 
ATOM      3  C1  OXE d   1      -1.283  -0.181   0.495  0.00  0.00    -0.078 A 
ATOM      4  C2  OXE d   1      -0.750  -1.443   0.599  0.00  0.00    -0.078 A 
ATOM      5  C3  OXE d   1       0.596  -1.648   0.309  0.00  0.00     0.003 A 
ATOM      6  C4  OXE d   1       1.443  -0.560   0.064  0.00  0.00    -0.002 A 
ATOM      7  C5  OXE d   1       0.927   0.738  -0.007  0.00  0.00    -0.002 A 
ATOM      8  C6  OXE d   1      -0.439   0.939   0.164  0.00  0.00     0.003 A 
ENDROOT
TORSDOF 0
ENDMDL
