MODEL 1
REMARK minimizedAffinity -3.91597939
REMARK minimizedRMSD -1
REMARK  0 active torsions:
REMARK  status: ('A' for Active; 'I' for Inactive)
ROOT
ATOM      1  C2' OXE d   1       2.216  -1.755   1.144  0.00  0.00     0.078 C 
ATOM      2  C1' OXE d   1      -0.428  -2.470   1.758  0.00  0.00     0.078 C 
ATOM      3  C1  OXE d   1      -0.213  -1.314   0.814  0.00  0.00    -0.078 A 
ATOM      4  C2  OXE d   1       1.084  -0.941   0.556  0.00  0.00    -0.078 A 
ATOM      5  C3  OXE d   1       1.339   0.084  -0.350  0.00  0.00     0.003 A 
ATOM      6  C4  OXE d   1       0.287   0.838  -0.883  0.00  0.00    -0.002 A 
ATOM      7  C5  OXE d   1      -1.042   0.501  -0.602  0.00  0.00    -0.002 A 
ATOM      8  C6  OXE d   1      -1.309  -0.597   0.209  0.00  0.00     0.003 A 
ENDROOT
TORSDOF 0
ENDMDL
