MODEL 1
REMARK minimizedAffinity -3.96186662
REMARK minimizedRMSD -1
REMARK  0 active torsions:
REMARK  status: ('A' for Active; 'I' for Inactive)
ROOT
ATOM      1  C2' OXE d   1      -2.893   0.371   1.452  0.00  0.00     0.078 C 
ATOM      2  C1' OXE d   1      -1.909  -2.258   1.476  0.00  0.00     0.078 C 
ATOM      3  C1  OXE d   1      -0.982  -1.164   1.008  0.00  0.00    -0.078 A 
ATOM      4  C2  OXE d   1      -1.487   0.113   0.955  0.00  0.00    -0.078 A 
ATOM      5  C3  OXE d   1      -0.658   1.168   0.582  0.00  0.00     0.003 A 
ATOM      6  C4  OXE d   1       0.638   0.919   0.114  0.00  0.00    -0.002 A 
ATOM      7  C5  OXE d   1       1.159  -0.379   0.122  0.00  0.00    -0.002 A 
ATOM      8  C6  OXE d   1       0.378  -1.424   0.605  0.00  0.00     0.003 A 
ENDROOT
TORSDOF 0
ENDMDL
