MODEL 1
REMARK minimizedAffinity -4.59325933
REMARK minimizedRMSD -1
REMARK  0 active torsions:
REMARK  status: ('A' for Active; 'I' for Inactive)
ROOT
ATOM      1  C2' OXE d   1       0.902   0.820  -0.703  0.00  0.00     0.078 C 
ATOM      2  C1' OXE d   1      -1.325   1.452   0.885  0.00  0.00     0.078 C 
ATOM      3  C1  OXE d   1      -0.852   0.020   0.874  0.00  0.00    -0.078 A 
ATOM      4  C2  OXE d   1       0.209  -0.289   0.058  0.00  0.00    -0.078 A 
ATOM      5  C3  OXE d   1       0.720  -1.584   0.052  0.00  0.00     0.003 A 
ATOM      6  C4  OXE d   1       0.068  -2.607   0.751  0.00  0.00    -0.002 A 
ATOM      7  C5  OXE d   1      -1.039  -2.322   1.557  0.00  0.00    -0.002 A 
ATOM      8  C6  OXE d   1      -1.485  -1.009   1.663  0.00  0.00     0.003 A 
ENDROOT
TORSDOF 0
ENDMDL
