MODEL 1
REMARK minimizedAffinity -4.61114502
REMARK minimizedRMSD -1
REMARK  0 active torsions:
REMARK  status: ('A' for Active; 'I' for Inactive)
ROOT
ATOM      1  C2' OXE d   1       0.218   0.633  -0.659  0.00  0.00     0.078 C 
ATOM      2  C1' OXE d   1       1.839  -1.288   0.591  0.00  0.00     0.078 C 
ATOM      3  C1  OXE d   1       0.359  -1.322   0.878  0.00  0.00    -0.078 A 
ATOM      4  C2  OXE d   1      -0.420  -0.349   0.300  0.00  0.00    -0.078 A 
ATOM      5  C3  OXE d   1      -1.799  -0.368   0.488  0.00  0.00     0.003 A 
ATOM      6  C4  OXE d   1      -2.380  -1.274   1.384  0.00  0.00    -0.002 A 
ATOM      7  C5  OXE d   1      -1.599  -2.248   2.015  0.00  0.00    -0.002 A 
ATOM      8  C6  OXE d   1      -0.237  -2.312   1.741  0.00  0.00     0.003 A 
ENDROOT
TORSDOF 0
ENDMDL
