MODEL 1
REMARK minimizedAffinity -2.98949504
REMARK minimizedRMSD -1
REMARK  0 active torsions:
REMARK  status: ('A' for Active; 'I' for Inactive)
ROOT
ATOM      1  C2' OXE d   1       0.308   1.405  -0.165  0.00  0.00     0.078 C 
ATOM      2  C1' OXE d   1      -1.907   1.237   1.552  0.00  0.00     0.078 C 
ATOM      3  C1  OXE d   1      -1.149  -0.033   1.255  0.00  0.00    -0.078 A 
ATOM      4  C2  OXE d   1      -0.095   0.051   0.377  0.00  0.00    -0.078 A 
ATOM      5  C3  OXE d   1       0.672  -1.080   0.110  0.00  0.00     0.003 A 
ATOM      6  C4  OXE d   1       0.286  -2.331   0.608  0.00  0.00    -0.002 A 
ATOM      7  C5  OXE d   1      -0.808  -2.445   1.472  0.00  0.00    -0.002 A 
ATOM      8  C6  OXE d   1      -1.509  -1.301   1.839  0.00  0.00     0.003 A 
ENDROOT
TORSDOF 0
ENDMDL
