MODEL 1
REMARK minimizedAffinity -2.5988853
REMARK minimizedRMSD -1
REMARK  0 active torsions:
REMARK  status: ('A' for Active; 'I' for Inactive)
ROOT
ATOM      1  C2' OXE d   1      -2.976   0.899   0.352  0.00  0.00     0.078 C 
ATOM      2  C1' OXE d   1      -1.945  -1.704   0.145  0.00  0.00     0.078 C 
ATOM      3  C1  OXE d   1      -0.963  -0.562   0.226  0.00  0.00    -0.078 A 
ATOM      4  C2  OXE d   1      -1.476   0.711   0.280  0.00  0.00    -0.078 A 
ATOM      5  C3  OXE d   1      -0.614   1.796   0.411  0.00  0.00     0.003 A 
ATOM      6  C4  OXE d   1       0.772   1.614   0.334  0.00  0.00    -0.002 A 
ATOM      7  C5  OXE d   1       1.315   0.329   0.239  0.00  0.00    -0.002 A 
ATOM      8  C6  OXE d   1       0.464  -0.771   0.227  0.00  0.00     0.003 A 
ENDROOT
TORSDOF 0
ENDMDL
