MODEL 1
REMARK minimizedAffinity -4.62274456
REMARK minimizedRMSD -1
REMARK  0 active torsions:
REMARK  status: ('A' for Active; 'I' for Inactive)
ROOT
ATOM      1  C2' OXE d   1       1.285  -1.975   0.010  0.00  0.00     0.078 C 
ATOM      2  C1' OXE d   1      -1.281  -2.516   1.010  0.00  0.00     0.078 C 
ATOM      3  C1  OXE d   1      -0.904  -1.073   0.782  0.00  0.00    -0.078 A 
ATOM      4  C2  OXE d   1       0.370  -0.815   0.337  0.00  0.00    -0.078 A 
ATOM      5  C3  OXE d   1       0.751   0.494   0.058  0.00  0.00     0.003 A 
ATOM      6  C4  OXE d   1      -0.098   1.562   0.372  0.00  0.00    -0.002 A 
ATOM      7  C5  OXE d   1      -1.386   1.324   0.864  0.00  0.00    -0.002 A 
ATOM      8  C6  OXE d   1      -1.819   0.013   1.034  0.00  0.00     0.003 A 
ENDROOT
TORSDOF 0
ENDMDL
