MODEL 1
REMARK minimizedAffinity -5.13572502
REMARK minimizedRMSD -1
REMARK  0 active torsions:
REMARK  status: ('A' for Active; 'I' for Inactive)
ROOT
ATOM      1  C2' OXE d   1      -2.673   0.261   1.801  0.00  0.00     0.078 C 
ATOM      2  C1' OXE d   1      -1.440  -2.245   1.516  0.00  0.00     0.078 C 
ATOM      3  C1  OXE d   1      -0.714  -1.038   0.977  0.00  0.00    -0.078 A 
ATOM      4  C2  OXE d   1      -1.346   0.178   1.079  0.00  0.00    -0.078 A 
ATOM      5  C3  OXE d   1      -0.696   1.330   0.647  0.00  0.00     0.003 A 
ATOM      6  C4  OXE d   1       0.527   1.244  -0.029  0.00  0.00    -0.002 A 
ATOM      7  C5  OXE d   1       1.169   0.010  -0.179  0.00  0.00    -0.002 A 
ATOM      8  C6  OXE d   1       0.583  -1.133   0.354  0.00  0.00     0.003 A 
ENDROOT
TORSDOF 0
ENDMDL
