MODEL 1
REMARK minimizedAffinity -3.93968129
REMARK minimizedRMSD -1
REMARK  0 active torsions:
REMARK  status: ('A' for Active; 'I' for Inactive)
ROOT
ATOM      1  C2' OXE d   1      -1.977  -2.307   1.114  0.00  0.00     0.078 C 
ATOM      2  C1' OXE d   1      -2.277   0.482   1.005  0.00  0.00     0.078 C 
ATOM      3  C1  OXE d   1      -0.892  -0.085   0.815  0.00  0.00    -0.078 A 
ATOM      4  C2  OXE d   1      -0.748  -1.447   0.916  0.00  0.00    -0.078 A 
ATOM      5  C3  OXE d   1       0.499  -2.027   0.694  0.00  0.00     0.003 A 
ATOM      6  C4  OXE d   1       1.633  -1.224   0.521  0.00  0.00    -0.002 A 
ATOM      7  C5  OXE d   1       1.514   0.169   0.455  0.00  0.00    -0.002 A 
ATOM      8  C6  OXE d   1       0.255   0.750   0.557  0.00  0.00     0.003 A 
ENDROOT
TORSDOF 0
ENDMDL
