MODEL 1
REMARK minimizedAffinity -3.38054228
REMARK minimizedRMSD -1
REMARK  0 active torsions:
REMARK  status: ('A' for Active; 'I' for Inactive)
ROOT
ATOM      1  C2' OXE d   1      -0.682   2.756  -2.276  0.00  0.00     0.078 C 
ATOM      2  C1' OXE d   1       0.934   1.783  -0.197  0.00  0.00     0.078 C 
ATOM      3  C1  OXE d   1       1.523   1.825  -1.585  0.00  0.00    -0.078 A 
ATOM      4  C2  OXE d   1       0.709   2.259  -2.604  0.00  0.00    -0.078 A 
ATOM      5  C3  OXE d   1       1.220   2.369  -3.894  0.00  0.00     0.003 A 
ATOM      6  C4  OXE d   1       2.504   1.898  -4.191  0.00  0.00    -0.002 A 
ATOM      7  C5  OXE d   1       3.336   1.415  -3.175  0.00  0.00    -0.002 A 
ATOM      8  C6  OXE d   1       2.876   1.412  -1.862  0.00  0.00     0.003 A 
ENDROOT
TORSDOF 0
ENDMDL
