MODEL 1
REMARK minimizedAffinity -4.52504301
REMARK minimizedRMSD -1
REMARK  0 active torsions:
REMARK  status: ('A' for Active; 'I' for Inactive)
ROOT
ATOM      1  C2' OXE d   1       1.220   1.474  -1.614  0.00  0.00     0.078 C 
ATOM      2  C1' OXE d   1      -0.305   1.802   0.720  0.00  0.00     0.078 C 
ATOM      3  C1  OXE d   1       0.111   0.402   0.341  0.00  0.00    -0.078 A 
ATOM      4  C2  OXE d   1       0.817   0.246  -0.827  0.00  0.00    -0.078 A 
ATOM      5  C3  OXE d   1       1.272  -1.017  -1.194  0.00  0.00     0.003 A 
ATOM      6  C4  OXE d   1       0.886  -2.149  -0.466  0.00  0.00    -0.002 A 
ATOM      7  C5  OXE d   1       0.133  -2.017   0.706  0.00  0.00    -0.002 A 
ATOM      8  C6  OXE d   1      -0.225  -0.747   1.145  0.00  0.00     0.003 A 
ENDROOT
TORSDOF 0
ENDMDL
