MODEL 1
REMARK minimizedAffinity -4.31903172
REMARK minimizedRMSD -1
REMARK  0 active torsions:
REMARK  status: ('A' for Active; 'I' for Inactive)
ROOT
ATOM      1  C2' OXE d   1       0.153   0.817  -0.393  0.00  0.00     0.078 C 
ATOM      2  C1' OXE d   1       1.490  -1.647  -0.535  0.00  0.00     0.078 C 
ATOM      3  C1  OXE d   1       0.217  -1.583   0.271  0.00  0.00    -0.078 A 
ATOM      4  C2  OXE d   1      -0.406  -0.362   0.373  0.00  0.00    -0.078 A 
ATOM      5  C3  OXE d   1      -1.613  -0.260   1.059  0.00  0.00     0.003 A 
ATOM      6  C4  OXE d   1      -2.117  -1.353   1.774  0.00  0.00    -0.002 A 
ATOM      7  C5  OXE d   1      -1.477  -2.596   1.715  0.00  0.00    -0.002 A 
ATOM      8  C6  OXE d   1      -0.335  -2.738   0.935  0.00  0.00     0.003 A 
ENDROOT
TORSDOF 0
ENDMDL
