MODEL 1
REMARK minimizedAffinity -3.9469955
REMARK minimizedRMSD -1
REMARK  0 active torsions:
REMARK  status: ('A' for Active; 'I' for Inactive)
ROOT
ATOM      1  C2' OXE d   1       0.651  -2.010   0.644  0.00  0.00     0.078 C 
ATOM      2  C1' OXE d   1       0.284   0.603  -0.314  0.00  0.00     0.078 C 
ATOM      3  C1  OXE d   1      -0.629   0.123   0.787  0.00  0.00    -0.078 A 
ATOM      4  C2  OXE d   1      -0.472  -1.173   1.217  0.00  0.00    -0.078 A 
ATOM      5  C3  OXE d   1      -1.252  -1.650   2.267  0.00  0.00     0.003 A 
ATOM      6  C4  OXE d   1      -2.296  -0.873   2.784  0.00  0.00    -0.002 A 
ATOM      7  C5  OXE d   1      -2.498   0.436   2.333  0.00  0.00    -0.002 A 
ATOM      8  C6  OXE d   1      -1.648   0.962   1.366  0.00  0.00     0.003 A 
ENDROOT
TORSDOF 0
ENDMDL
