MODEL 1
REMARK minimizedAffinity -2.92443395
REMARK minimizedRMSD -1
REMARK  0 active torsions:
REMARK  status: ('A' for Active; 'I' for Inactive)
ROOT
ATOM      1  C2' OXE d   1       0.729   1.217  -0.817  0.00  0.00     0.078 C 
ATOM      2  C1' OXE d   1      -1.616   0.966   0.705  0.00  0.00     0.078 C 
ATOM      3  C1  OXE d   1      -0.718  -0.241   0.591  0.00  0.00    -0.078 A 
ATOM      4  C2  OXE d   1       0.404  -0.123  -0.194  0.00  0.00    -0.078 A 
ATOM      5  C3  OXE d   1       1.294  -1.188  -0.289  0.00  0.00     0.003 A 
ATOM      6  C4  OXE d   1       0.980  -2.428   0.282  0.00  0.00    -0.002 A 
ATOM      7  C5  OXE d   1      -0.177  -2.581   1.053  0.00  0.00    -0.002 A 
ATOM      8  C6  OXE d   1      -1.013  -1.488   1.252  0.00  0.00     0.003 A 
ENDROOT
TORSDOF 0
ENDMDL
