MODEL 1
REMARK minimizedAffinity -5.45654964
REMARK minimizedRMSD -1
REMARK  0 active torsions:
REMARK  status: ('A' for Active; 'I' for Inactive)
ROOT
ATOM      1  C2' OXE d   1       0.882  -1.530  -0.256  0.00  0.00     0.078 C 
ATOM      2  C1' OXE d   1      -0.525   0.888  -0.489  0.00  0.00     0.078 C 
ATOM      3  C1  OXE d   1      -1.158  -0.220   0.316  0.00  0.00    -0.078 A 
ATOM      4  C2  OXE d   1      -0.483  -1.415   0.386  0.00  0.00    -0.078 A 
ATOM      5  C3  OXE d   1      -0.996  -2.452   1.160  0.00  0.00     0.003 A 
ATOM      6  C4  OXE d   1      -2.265  -2.341   1.743  0.00  0.00    -0.002 A 
ATOM      7  C5  OXE d   1      -2.986  -1.146   1.651  0.00  0.00    -0.002 A 
ATOM      8  C6  OXE d   1      -2.429  -0.064   0.978  0.00  0.00     0.003 A 
ENDROOT
TORSDOF 0
ENDMDL
