MODEL 1
REMARK minimizedAffinity -5.25162888
REMARK minimizedRMSD -1
REMARK  0 active torsions:
REMARK  status: ('A' for Active; 'I' for Inactive)
ROOT
ATOM      1  C2' OXE d   1      -2.040  -2.614   1.304  0.00  0.00     0.078 C 
ATOM      2  C1' OXE d   1      -2.771   0.096   1.300  0.00  0.00     0.078 C 
ATOM      3  C1  OXE d   1      -1.383  -0.259   0.829  0.00  0.00    -0.078 A 
ATOM      4  C2  OXE d   1      -1.018  -1.583   0.878  0.00  0.00    -0.078 A 
ATOM      5  C3  OXE d   1       0.232  -1.971   0.404  0.00  0.00     0.003 A 
ATOM      6  C4  OXE d   1       1.175  -1.009   0.022  0.00  0.00    -0.002 A 
ATOM      7  C5  OXE d   1       0.837   0.348   0.002  0.00  0.00    -0.002 A 
ATOM      8  C6  OXE d   1      -0.449   0.735   0.361  0.00  0.00     0.003 A 
ENDROOT
TORSDOF 0
ENDMDL
