MODEL 1
REMARK minimizedAffinity -3.33525991
REMARK minimizedRMSD -1
REMARK  0 active torsions:
REMARK  status: ('A' for Active; 'I' for Inactive)
ROOT
ATOM      1  C2' OXE d   1       2.069  -1.189   0.823  0.00  0.00     0.078 C 
ATOM      2  C1' OXE d   1       0.650   0.759  -0.616  0.00  0.00     0.078 C 
ATOM      3  C1  OXE d   1      -0.126  -0.410  -0.061  0.00  0.00    -0.078 A 
ATOM      4  C2  OXE d   1       0.584  -1.382   0.601  0.00  0.00    -0.078 A 
ATOM      5  C3  OXE d   1      -0.089  -2.454   1.180  0.00  0.00     0.003 A 
ATOM      6  C4  OXE d   1      -1.461  -2.630   0.962  0.00  0.00    -0.002 A 
ATOM      7  C5  OXE d   1      -2.196  -1.672   0.256  0.00  0.00    -0.002 A 
ATOM      8  C6  OXE d   1      -1.553  -0.537  -0.225  0.00  0.00     0.003 A 
ENDROOT
TORSDOF 0
ENDMDL
