MODEL 1
REMARK minimizedAffinity -5.3253231
REMARK minimizedRMSD -1
REMARK  0 active torsions:
REMARK  status: ('A' for Active; 'I' for Inactive)
ROOT
ATOM      1  C2' OXE d   1      -1.812  -2.671   0.607  0.00  0.00     0.078 C 
ATOM      2  C1' OXE d   1      -2.820  -0.071   0.279  0.00  0.00     0.078 C 
ATOM      3  C1  OXE d   1      -1.325  -0.258   0.222  0.00  0.00    -0.078 A 
ATOM      4  C2  OXE d   1      -0.838  -1.526   0.430  0.00  0.00    -0.078 A 
ATOM      5  C3  OXE d   1       0.531  -1.763   0.334  0.00  0.00     0.003 A 
ATOM      6  C4  OXE d   1       1.426  -0.698   0.181  0.00  0.00    -0.002 A 
ATOM      7  C5  OXE d   1       0.953   0.607   0.006  0.00  0.00    -0.002 A 
ATOM      8  C6  OXE d   1      -0.418   0.838  -0.018  0.00  0.00     0.003 A 
ENDROOT
TORSDOF 0
ENDMDL
