MODEL 1
REMARK minimizedAffinity -2.70276475
REMARK minimizedRMSD -1
REMARK  1 active torsions:
REMARK  status: ('A' for Active; 'I' for Inactive)
REMARK    1  A    between atoms: N_2  and  C1_3 
ROOT
ATOM      1  C1  UNL d   1       0.908  -1.512  -0.179  0.00  0.00     0.143 A 
ATOM      2  C2  UNL d   1       0.907  -1.219  -1.547  0.00  0.00    -0.057 A 
ATOM      3  C3  UNL d   1       0.552   0.051  -2.017  0.00  0.00     0.033 A 
ATOM      4  C4  UNL d   1       0.163   1.046  -1.127  0.00  0.00    -0.042 A 
ATOM      5  C5  UNL d   1       0.132   0.770   0.236  0.00  0.00     0.033 A 
ATOM      6  C6  UNL d   1       0.494  -0.498   0.700  0.00  0.00    -0.057 A 
ENDROOT
BRANCH   1   7
ATOM      7  N   UNL d   1       1.156  -2.783   0.345  0.00  0.00    -0.732 N 
ATOM      8  C   UNL d   1       0.099  -3.769   0.416  0.00  0.00     0.284 C 
ATOM      9  H3  UNL d   1       2.054  -3.157   0.048  0.00  0.00     0.395 HD
ENDBRANCH   1   7
TORSDOF 1
ENDMDL
