MODEL 1
REMARK minimizedAffinity -1.90905726
REMARK minimizedRMSD -1
REMARK  1 active torsions:
REMARK  status: ('A' for Active; 'I' for Inactive)
REMARK    1  A    between atoms: N_2  and  C1_3 
ROOT
ATOM      1  C1  UNL d   1      -0.452  -0.642   0.580  0.00  0.00     0.143 A 
ATOM      2  C2  UNL d   1      -1.167  -0.344   1.745  0.00  0.00    -0.057 A 
ATOM      3  C3  UNL d   1      -1.925  -1.321   2.402  0.00  0.00     0.033 A 
ATOM      4  C4  UNL d   1      -2.005  -2.611   1.887  0.00  0.00    -0.042 A 
ATOM      5  C5  UNL d   1      -1.323  -2.923   0.716  0.00  0.00     0.033 A 
ATOM      6  C6  UNL d   1      -0.562  -1.945   0.068  0.00  0.00    -0.057 A 
ENDROOT
BRANCH   1   7
ATOM      7  N   UNL d   1       0.239   0.310  -0.173  0.00  0.00    -0.732 N 
ATOM      8  C   UNL d   1       0.537   1.614   0.381  0.00  0.00     0.284 C 
ATOM      9  H3  UNL d   1       1.002  -0.098  -0.709  0.00  0.00     0.395 HD
ENDBRANCH   1   7
TORSDOF 1
ENDMDL
