MODEL 1
REMARK minimizedAffinity -3.10547733
REMARK minimizedRMSD -1
REMARK  1 active torsions:
REMARK  status: ('A' for Active; 'I' for Inactive)
REMARK    1  A    between atoms: N_2  and  C1_3 
ROOT
ATOM      1  C1  UNL d   1      -0.574  -0.997  -0.199  0.00  0.00     0.143 A 
ATOM      2  C2  UNL d   1       0.664  -1.033  -0.849  0.00  0.00    -0.057 A 
ATOM      3  C3  UNL d   1       1.223  -2.243  -1.280  0.00  0.00     0.033 A 
ATOM      4  C4  UNL d   1       0.564  -3.444  -1.041  0.00  0.00    -0.042 A 
ATOM      5  C5  UNL d   1      -0.656  -3.434  -0.374  0.00  0.00     0.033 A 
ATOM      6  C6  UNL d   1      -1.212  -2.222   0.048  0.00  0.00    -0.057 A 
ENDROOT
BRANCH   1   7
ATOM      7  N   UNL d   1      -1.135   0.164   0.340  0.00  0.00    -0.732 N 
ATOM      8  C   UNL d   1      -2.336   0.096   1.145  0.00  0.00     0.284 C 
ATOM      9  H3  UNL d   1      -0.431   0.806   0.697  0.00  0.00     0.395 HD
ENDBRANCH   1   7
TORSDOF 1
ENDMDL
