MODEL 1
REMARK minimizedAffinity -0.242348149
REMARK minimizedRMSD -1
REMARK  1 active torsions:
REMARK  status: ('A' for Active; 'I' for Inactive)
REMARK    1  A    between atoms: N_2  and  C1_3 
ROOT
ATOM      1  C1  UNL d   1      -0.240  -1.848   0.155  0.00  0.00     0.143 A 
ATOM      2  C2  UNL d   1      -1.049  -2.990   0.115  0.00  0.00    -0.057 A 
ATOM      3  C3  UNL d   1      -2.312  -3.006   0.720  0.00  0.00     0.033 A 
ATOM      4  C4  UNL d   1      -2.778  -1.887   1.402  0.00  0.00    -0.042 A 
ATOM      5  C5  UNL d   1      -1.981  -0.750   1.475  0.00  0.00     0.033 A 
ATOM      6  C6  UNL d   1      -0.723  -0.737   0.864  0.00  0.00    -0.057 A 
ENDROOT
BRANCH   1   7
ATOM      7  N   UNL d   1       1.065  -1.802  -0.342  0.00  0.00    -0.732 N 
ATOM      8  C   UNL d   1       1.316  -1.892  -1.765  0.00  0.00     0.284 C 
ATOM      9  H3  UNL d   1       1.639  -1.113   0.138  0.00  0.00     0.395 HD
ENDBRANCH   1   7
TORSDOF 1
ENDMDL
