MODEL 1
REMARK minimizedAffinity -2.31350851
REMARK minimizedRMSD -1
REMARK  1 active torsions:
REMARK  status: ('A' for Active; 'I' for Inactive)
REMARK    1  A    between atoms: N_2  and  C1_3 
ROOT
ATOM      1  C1  UNL d   1      -0.889  -1.962   0.151  0.00  0.00     0.143 A 
ATOM      2  C2  UNL d   1       0.237  -1.676  -0.627  0.00  0.00    -0.057 A 
ATOM      3  C3  UNL d   1       0.751  -0.376  -0.711  0.00  0.00     0.033 A 
ATOM      4  C4  UNL d   1       0.127   0.669  -0.038  0.00  0.00    -0.042 A 
ATOM      5  C5  UNL d   1      -1.009   0.413   0.722  0.00  0.00     0.033 A 
ATOM      6  C6  UNL d   1      -1.513  -0.888   0.807  0.00  0.00    -0.057 A 
ENDROOT
BRANCH   1   7
ATOM      7  N   UNL d   1      -1.506  -3.215   0.197  0.00  0.00    -0.732 N 
ATOM      8  C   UNL d   1      -2.895  -3.339   0.583  0.00  0.00     0.284 C 
ATOM      9  H3  UNL d   1      -1.237  -3.808  -0.585  0.00  0.00     0.395 HD
ENDBRANCH   1   7
TORSDOF 1
ENDMDL
