MODEL 1
REMARK minimizedAffinity -4.78120232
REMARK minimizedRMSD -1
REMARK  1 active torsions:
REMARK  status: ('A' for Active; 'I' for Inactive)
REMARK    1  A    between atoms: N_2  and  C1_3 
ROOT
ATOM      1  C1  UNL d   1      -1.761  -1.747   1.172  0.00  0.00     0.143 A 
ATOM      2  C2  UNL d   1      -0.796  -2.495   0.489  0.00  0.00    -0.057 A 
ATOM      3  C3  UNL d   1       0.325  -1.882  -0.084  0.00  0.00     0.033 A 
ATOM      4  C4  UNL d   1       0.486  -0.502  -0.009  0.00  0.00    -0.042 A 
ATOM      5  C5  UNL d   1      -0.474   0.263   0.644  0.00  0.00     0.033 A 
ATOM      6  C6  UNL d   1      -1.588  -0.355   1.220  0.00  0.00    -0.057 A 
ENDROOT
BRANCH   1   7
ATOM      7  N   UNL d   1      -2.947  -2.285   1.678  0.00  0.00    -0.732 N 
ATOM      8  C   UNL d   1      -4.026  -2.658   0.789  0.00  0.00     0.284 C 
ATOM      9  H3  UNL d   1      -2.782  -2.948   2.433  0.00  0.00     0.395 HD
ENDBRANCH   1   7
TORSDOF 1
ENDMDL
