MODEL 1
REMARK minimizedAffinity -4.79837227
REMARK minimizedRMSD -1
REMARK  1 active torsions:
REMARK  status: ('A' for Active; 'I' for Inactive)
REMARK    1  A    between atoms: N_2  and  C1_3 
ROOT
ATOM      1  C1  UNL d   1      -0.231  -0.574   0.365  0.00  0.00     0.143 A 
ATOM      2  C2  UNL d   1       0.525  -1.452  -0.419  0.00  0.00    -0.057 A 
ATOM      3  C3  UNL d   1       0.316  -2.835  -0.368  0.00  0.00     0.033 A 
ATOM      4  C4  UNL d   1      -0.638  -3.369   0.492  0.00  0.00    -0.042 A 
ATOM      5  C5  UNL d   1      -1.384  -2.518   1.299  0.00  0.00     0.033 A 
ATOM      6  C6  UNL d   1      -1.175  -1.137   1.239  0.00  0.00    -0.057 A 
ENDROOT
BRANCH   1   7
ATOM      7  N   UNL d   1      -0.003   0.803   0.432  0.00  0.00    -0.732 N 
ATOM      8  C   UNL d   1      -0.151   1.632  -0.744  0.00  0.00     0.284 C 
ATOM      9  H3  UNL d   1      -0.377   1.217   1.283  0.00  0.00     0.395 HD
ENDBRANCH   1   7
TORSDOF 1
ENDMDL
