MODEL 1
REMARK minimizedAffinity -4.13694668
REMARK minimizedRMSD -1
REMARK  1 active torsions:
REMARK  status: ('A' for Active; 'I' for Inactive)
REMARK    1  A    between atoms: N_2  and  C1_3 
ROOT
ATOM      1  C1  UNL d   1      -1.586  -2.039   0.902  0.00  0.00     0.143 A 
ATOM      2  C2  UNL d   1      -0.665  -2.645   0.042  0.00  0.00    -0.057 A 
ATOM      3  C3  UNL d   1       0.341  -1.901  -0.586  0.00  0.00     0.033 A 
ATOM      4  C4  UNL d   1       0.426  -0.527  -0.386  0.00  0.00    -0.042 A 
ATOM      5  C5  UNL d   1      -0.495   0.101   0.445  0.00  0.00     0.033 A 
ATOM      6  C6  UNL d   1      -1.493  -0.649   1.075  0.00  0.00    -0.057 A 
ENDROOT
BRANCH   1   7
ATOM      7  N   UNL d   1      -2.669  -2.707   1.479  0.00  0.00    -0.732 N 
ATOM      8  C   UNL d   1      -3.833  -3.044   0.687  0.00  0.00     0.284 C 
ATOM      9  H3  UNL d   1      -2.376  -3.441   2.120  0.00  0.00     0.395 HD
ENDBRANCH   1   7
TORSDOF 1
ENDMDL
