MODEL 1
REMARK minimizedAffinity -3.85182476
REMARK minimizedRMSD -1
REMARK  1 active torsions:
REMARK  status: ('A' for Active; 'I' for Inactive)
REMARK    1  A    between atoms: N_2  and  C1_3 
ROOT
ATOM      1  C1  UNL d   1      -0.358  -0.466   0.365  0.00  0.00     0.143 A 
ATOM      2  C2  UNL d   1       0.853  -1.085   0.037  0.00  0.00    -0.057 A 
ATOM      3  C3  UNL d   1       0.966  -2.479  -0.010  0.00  0.00     0.033 A 
ATOM      4  C4  UNL d   1      -0.127  -3.283   0.301  0.00  0.00    -0.042 A 
ATOM      5  C5  UNL d   1      -1.333  -2.689   0.654  0.00  0.00     0.033 A 
ATOM      6  C6  UNL d   1      -1.442  -1.296   0.693  0.00  0.00    -0.057 A 
ENDROOT
BRANCH   1   7
ATOM      7  N   UNL d   1      -0.508   0.914   0.525  0.00  0.00    -0.732 N 
ATOM      8  C   UNL d   1       0.491   1.828   0.014  0.00  0.00     0.284 C 
ATOM      9  H3  UNL d   1      -1.467   1.220   0.376  0.00  0.00     0.395 HD
ENDBRANCH   1   7
TORSDOF 1
ENDMDL
