MODEL 1
REMARK minimizedAffinity -1.94029629
REMARK minimizedRMSD -1
REMARK  1 active torsions:
REMARK  status: ('A' for Active; 'I' for Inactive)
REMARK    1  A    between atoms: N_2  and  C1_3 
ROOT
ATOM      1  C1  UNL d   1      -0.286  -0.285   0.191  0.00  0.00     0.143 A 
ATOM      2  C2  UNL d   1       0.703  -1.153  -0.286  0.00  0.00    -0.057 A 
ATOM      3  C3  UNL d   1       0.425  -2.503  -0.534  0.00  0.00     0.033 A 
ATOM      4  C4  UNL d   1      -0.843  -3.016  -0.281  0.00  0.00    -0.042 A 
ATOM      5  C5  UNL d   1      -1.834  -2.178   0.216  0.00  0.00     0.033 A 
ATOM      6  C6  UNL d   1      -1.552  -0.829   0.455  0.00  0.00    -0.057 A 
ENDROOT
BRANCH   1   7
ATOM      7  N   UNL d   1      -0.046   1.044   0.550  0.00  0.00    -0.732 N 
ATOM      8  C   UNL d   1       0.842   1.871  -0.237  0.00  0.00     0.284 C 
ATOM      9  H3  UNL d   1      -0.890   1.519   0.863  0.00  0.00     0.395 HD
ENDBRANCH   1   7
TORSDOF 1
ENDMDL
