MODEL 1
REMARK minimizedAffinity -3.95705009
REMARK minimizedRMSD -1
REMARK  1 active torsions:
REMARK  status: ('A' for Active; 'I' for Inactive)
REMARK    1  A    between atoms: N_2  and  C1_3 
ROOT
ATOM      1  C1  UNL d   1       0.065  -1.205  -0.167  0.00  0.00     0.143 A 
ATOM      2  C2  UNL d   1      -0.608  -1.629   0.984  0.00  0.00    -0.057 A 
ATOM      3  C3  UNL d   1      -1.109  -2.932   1.093  0.00  0.00     0.033 A 
ATOM      4  C4  UNL d   1      -0.970  -3.828   0.038  0.00  0.00    -0.042 A 
ATOM      5  C5  UNL d   1      -0.327  -3.420  -1.125  0.00  0.00     0.033 A 
ATOM      6  C6  UNL d   1       0.177  -2.120  -1.226  0.00  0.00    -0.057 A 
ENDROOT
BRANCH   1   7
ATOM      7  N   UNL d   1       0.499   0.107  -0.375  0.00  0.00    -0.732 N 
ATOM      8  C   UNL d   1      -0.276   1.226   0.113  0.00  0.00     0.284 C 
ATOM      9  H3  UNL d   1       1.503   0.209  -0.246  0.00  0.00     0.395 HD
ENDBRANCH   1   7
TORSDOF 1
ENDMDL
