MODEL 1
REMARK minimizedAffinity -4.60316753
REMARK minimizedRMSD -1
REMARK  1 active torsions:
REMARK  status: ('A' for Active; 'I' for Inactive)
REMARK    1  A    between atoms: N_2  and  C1_3 
ROOT
ATOM      1  C1  UNL d   1       0.046  -0.677  -0.594  0.00  0.00     0.143 A 
ATOM      2  C2  UNL d   1      -0.446  -1.084   0.650  0.00  0.00    -0.057 A 
ATOM      3  C3  UNL d   1      -0.575  -2.441   0.971  0.00  0.00     0.033 A 
ATOM      4  C4  UNL d   1      -0.240  -3.417   0.039  0.00  0.00    -0.042 A 
ATOM      5  C5  UNL d   1       0.227  -3.035  -1.214  0.00  0.00     0.033 A 
ATOM      6  C6  UNL d   1       0.360  -1.679  -1.526  0.00  0.00    -0.057 A 
ENDROOT
BRANCH   1   7
ATOM      7  N   UNL d   1       0.105   0.656  -1.009  0.00  0.00    -0.732 N 
ATOM      8  C   UNL d   1       0.124   1.730  -0.039  0.00  0.00     0.284 C 
ATOM      9  H3  UNL d   1       0.740   0.792  -1.792  0.00  0.00     0.395 HD
ENDBRANCH   1   7
TORSDOF 1
ENDMDL
