MODEL 1
REMARK minimizedAffinity -4.25627327
REMARK minimizedRMSD -1
REMARK  1 active torsions:
REMARK  status: ('A' for Active; 'I' for Inactive)
REMARK    1  A    between atoms: N_2  and  C1_3 
ROOT
ATOM      1  C1  UNL d   1       0.054  -0.223  -0.073  0.00  0.00     0.143 A 
ATOM      2  C2  UNL d   1      -0.724  -0.205   1.090  0.00  0.00    -0.057 A 
ATOM      3  C3  UNL d   1      -1.280  -1.380   1.610  0.00  0.00     0.033 A 
ATOM      4  C4  UNL d   1      -1.092  -2.594   0.957  0.00  0.00    -0.042 A 
ATOM      5  C5  UNL d   1      -0.343  -2.632  -0.214  0.00  0.00     0.033 A 
ATOM      6  C6  UNL d   1       0.215  -1.456  -0.724  0.00  0.00    -0.057 A 
ENDROOT
BRANCH   1   7
ATOM      7  N   UNL d   1       0.552   0.925  -0.693  0.00  0.00    -0.732 N 
ATOM      8  C   UNL d   1       0.994   2.055   0.094  0.00  0.00     0.284 C 
ATOM      9  H3  UNL d   1       1.153   0.709  -1.485  0.00  0.00     0.395 HD
ENDBRANCH   1   7
TORSDOF 1
ENDMDL
