MODEL 1
REMARK minimizedAffinity -4.52966499
REMARK minimizedRMSD -1
REMARK  1 active torsions:
REMARK  status: ('A' for Active; 'I' for Inactive)
REMARK    1  A    between atoms: N_2  and  C1_3 
ROOT
ATOM      1  C1  UNL d   1      -0.309  -0.437   0.199  0.00  0.00     0.143 A 
ATOM      2  C2  UNL d   1      -1.295  -0.880   1.088  0.00  0.00    -0.057 A 
ATOM      3  C3  UNL d   1      -1.376  -2.224   1.472  0.00  0.00     0.033 A 
ATOM      4  C4  UNL d   1      -0.487  -3.158   0.949  0.00  0.00    -0.042 A 
ATOM      5  C5  UNL d   1       0.485  -2.745   0.044  0.00  0.00     0.033 A 
ATOM      6  C6  UNL d   1       0.565  -1.400  -0.330  0.00  0.00    -0.057 A 
ENDROOT
BRANCH   1   7
ATOM      7  N   UNL d   1      -0.238   0.867  -0.296  0.00  0.00    -0.732 N 
ATOM      8  C   UNL d   1       0.737   1.801   0.224  0.00  0.00     0.284 C 
ATOM      9  H3  UNL d   1      -0.352   0.905  -1.307  0.00  0.00     0.395 HD
ENDBRANCH   1   7
TORSDOF 1
ENDMDL
