MODEL 1
REMARK minimizedAffinity 10.8589077
REMARK minimizedRMSD -1
REMARK  0 active torsions:
REMARK  status: ('A' for Active; 'I' for Inactive)
ROOT
ATOM      1  O1  BZF d   1       0.240   4.715  -1.464  0.00  0.00    -0.204 OA
ATOM      2  C2  BZF d   1       0.365   5.997  -0.965  0.00  0.00     0.174 A 
ATOM      3  C3  BZF d   1       0.269   5.998   0.381  0.00  0.00    -0.012 A 
ATOM      4  C3A BZF d   1       0.164   4.621   0.752  0.00  0.00    -0.107 A 
ATOM      5  C4  BZF d   1       0.056   3.977   1.951  0.00  0.00     0.055 A 
ATOM      6  C5  BZF d   1      -0.102   2.627   1.965  0.00  0.00    -0.016 A 
ATOM      7  C6  BZF d   1      -0.162   1.891   0.800  0.00  0.00     0.022 A 
ATOM      8  C7  BZF d   1      -0.054   2.485  -0.414  0.00  0.00     0.029 A 
ATOM      9  C7A BZF d   1       0.138   3.845  -0.430  0.00  0.00     0.058 A 
ENDROOT
TORSDOF 0
ENDMDL
