MODEL 1
REMARK minimizedAffinity 13.7117968
REMARK minimizedRMSD -1
REMARK  0 active torsions:
REMARK  status: ('A' for Active; 'I' for Inactive)
ROOT
ATOM      1  O1  BZF d   1      -1.366   3.545   0.954  0.00  0.00    -0.204 OA
ATOM      2  C2  BZF d   1      -0.236   3.027   1.557  0.00  0.00     0.174 A 
ATOM      3  C3  BZF d   1       0.880   3.490   0.958  0.00  0.00    -0.012 A 
ATOM      4  C3A BZF d   1       0.421   4.422  -0.025  0.00  0.00    -0.107 A 
ATOM      5  C4  BZF d   1       1.058   5.221  -0.931  0.00  0.00     0.055 A 
ATOM      6  C5  BZF d   1       0.316   5.960  -1.797  0.00  0.00    -0.016 A 
ATOM      7  C6  BZF d   1      -1.063   5.920  -1.788  0.00  0.00     0.022 A 
ATOM      8  C7  BZF d   1      -1.740   5.147  -0.905  0.00  0.00     0.029 A 
ATOM      9  C7A BZF d   1      -0.993   4.424  -0.007  0.00  0.00     0.058 A 
ENDROOT
TORSDOF 0
ENDMDL
