MODEL 1
REMARK minimizedAffinity 11.1716156
REMARK minimizedRMSD -1
REMARK  0 active torsions:
REMARK  status: ('A' for Active; 'I' for Inactive)
ROOT
ATOM      1  O1  BZF d   1       6.000  -4.743  -1.272  0.00  0.00    -0.204 OA
ATOM      2  C2  BZF d   1       5.441  -5.640  -0.382  0.00  0.00     0.174 A 
ATOM      3  C3  BZF d   1       4.203  -6.000  -0.780  0.00  0.00    -0.012 A 
ATOM      4  C3A BZF d   1       4.012  -5.355  -2.043  0.00  0.00    -0.107 A 
ATOM      5  C4  BZF d   1       2.985  -5.340  -2.943  0.00  0.00     0.055 A 
ATOM      6  C5  BZF d   1       3.083  -4.550  -4.044  0.00  0.00    -0.016 A 
ATOM      7  C6  BZF d   1       4.190  -3.759  -4.274  0.00  0.00     0.022 A 
ATOM      8  C7  BZF d   1       5.236  -3.745  -3.412  0.00  0.00     0.029 A 
ATOM      9  C7A BZF d   1       5.154  -4.567  -2.315  0.00  0.00     0.058 A 
ENDROOT
TORSDOF 0
ENDMDL
