MODEL 1
REMARK minimizedAffinity 9.92039871
REMARK minimizedRMSD -1
REMARK  0 active torsions:
REMARK  status: ('A' for Active; 'I' for Inactive)
ROOT
ATOM      1  O1  BZF d   1       1.995   5.103   0.726  0.00  0.00    -0.204 OA
ATOM      2  C2  BZF d   1       0.862   5.121  -0.064  0.00  0.00     0.174 A 
ATOM      3  C3  BZF d   1      -0.071   4.275   0.417  0.00  0.00    -0.012 A 
ATOM      4  C3A BZF d   1       0.480   3.760   1.633  0.00  0.00    -0.107 A 
ATOM      5  C4  BZF d   1       0.020   2.886   2.576  0.00  0.00     0.055 A 
ATOM      6  C5  BZF d   1       0.834   2.537   3.607  0.00  0.00    -0.016 A 
ATOM      7  C6  BZF d   1       2.114   3.039   3.723  0.00  0.00     0.022 A 
ATOM      8  C7  BZF d   1       2.612   3.913   2.815  0.00  0.00     0.029 A 
ATOM      9  C7A BZF d   1       1.780   4.293   1.790  0.00  0.00     0.058 A 
ENDROOT
TORSDOF 0
ENDMDL
