MODEL 1
REMARK minimizedAffinity 5.8800745
REMARK minimizedRMSD -1
REMARK  0 active torsions:
REMARK  status: ('A' for Active; 'I' for Inactive)
ROOT
ATOM      1  O1  BZF d   1       1.413   4.977   0.015  0.00  0.00    -0.204 OA
ATOM      2  C2  BZF d   1       0.158   4.689  -0.487  0.00  0.00     0.174 A 
ATOM      3  C3  BZF d   1      -0.444   3.734   0.250  0.00  0.00    -0.012 A 
ATOM      4  C3A BZF d   1       0.454   3.469   1.331  0.00  0.00    -0.107 A 
ATOM      5  C4  BZF d   1       0.409   2.627   2.406  0.00  0.00     0.055 A 
ATOM      6  C5  BZF d   1       1.483   2.556   3.235  0.00  0.00    -0.016 A 
ATOM      7  C6  BZF d   1       2.619   3.308   3.018  0.00  0.00     0.022 A 
ATOM      8  C7  BZF d   1       2.709   4.160   1.968  0.00  0.00     0.029 A 
ATOM      9  C7A BZF d   1       1.613   4.259   1.147  0.00  0.00     0.058 A 
ENDROOT
TORSDOF 0
ENDMDL
