MODEL 1
REMARK minimizedAffinity 6.84629202
REMARK minimizedRMSD -1
REMARK  0 active torsions:
REMARK  status: ('A' for Active; 'I' for Inactive)
ROOT
ATOM      1  O1  BZF d   1      -0.745   3.420   2.112  0.00  0.00    -0.204 OA
ATOM      2  C2  BZF d   1       0.369   2.604   2.073  0.00  0.00     0.174 A 
ATOM      3  C3  BZF d   1       1.135   2.891   1.000  0.00  0.00    -0.012 A 
ATOM      4  C3A BZF d   1       0.505   4.014   0.377  0.00  0.00    -0.107 A 
ATOM      5  C4  BZF d   1       0.802   4.767  -0.723  0.00  0.00     0.055 A 
ATOM      6  C5  BZF d   1      -0.058   5.748  -1.104  0.00  0.00    -0.016 A 
ATOM      7  C6  BZF d   1      -1.225   6.000  -0.412  0.00  0.00     0.022 A 
ATOM      8  C7  BZF d   1      -1.560   5.283   0.688  0.00  0.00     0.029 A 
ATOM      9  C7A BZF d   1      -0.677   4.313   1.095  0.00  0.00     0.058 A 
ENDROOT
TORSDOF 0
ENDMDL
