MODEL 1
REMARK minimizedAffinity 10.2256403
REMARK minimizedRMSD -1
REMARK  0 active torsions:
REMARK  status: ('A' for Active; 'I' for Inactive)
ROOT
ATOM      1  O1  BZF d   1      -0.915   3.414   1.741  0.00  0.00    -0.204 OA
ATOM      2  C2  BZF d   1      -0.067   2.325   1.760  0.00  0.00     0.174 A 
ATOM      3  C3  BZF d   1       0.804   2.378   0.731  0.00  0.00    -0.012 A 
ATOM      4  C3A BZF d   1       0.539   3.623   0.078  0.00  0.00    -0.107 A 
ATOM      5  C4  BZF d   1       1.088   4.252  -1.003  0.00  0.00     0.055 A 
ATOM      6  C5  BZF d   1       0.551   5.426  -1.427  0.00  0.00    -0.016 A 
ATOM      7  C6  BZF d   1      -0.537   5.996  -0.798  0.00  0.00     0.022 A 
ATOM      8  C7  BZF d   1      -1.113   5.412   0.280  0.00  0.00     0.029 A 
ATOM      9  C7A BZF d   1      -0.552   4.242   0.732  0.00  0.00     0.058 A 
ENDROOT
TORSDOF 0
ENDMDL
