MODEL 1
REMARK minimizedAffinity 7.60499334
REMARK minimizedRMSD -1
REMARK  0 active torsions:
REMARK  status: ('A' for Active; 'I' for Inactive)
ROOT
ATOM      1  O1  BZF d   1      -1.116  -5.465  -3.586  0.00  0.00    -0.204 OA
ATOM      2  C2  BZF d   1      -0.355  -5.354  -4.733  0.00  0.00     0.174 A 
ATOM      3  C3  BZF d   1      -1.120  -5.516  -5.832  0.00  0.00    -0.012 A 
ATOM      4  C3A BZF d   1      -2.458  -5.651  -5.342  0.00  0.00    -0.107 A 
ATOM      5  C4  BZF d   1      -3.668  -5.822  -5.952  0.00  0.00     0.055 A 
ATOM      6  C5  BZF d   1      -4.776  -5.992  -5.184  0.00  0.00    -0.016 A 
ATOM      7  C6  BZF d   1      -4.710  -6.000  -3.806  0.00  0.00     0.022 A 
ATOM      8  C7  BZF d   1      -3.533  -5.828  -3.156  0.00  0.00     0.029 A 
ATOM      9  C7A BZF d   1      -2.416  -5.624  -3.929  0.00  0.00     0.058 A 
ENDROOT
TORSDOF 0
ENDMDL
