MODEL 1
REMARK minimizedAffinity -0.304897666
REMARK minimizedRMSD -1
REMARK  0 active torsions:
REMARK  status: ('A' for Active; 'I' for Inactive)
ROOT
ATOM      1  C1  BNZ d   1      -1.655  -2.487   0.730  0.00  0.00     0.000 A 
ATOM      2  C2  BNZ d   1      -1.642  -3.704   0.102  0.00  0.00     0.000 A 
ATOM      3  C3  BNZ d   1      -1.210  -3.820  -1.190  0.00  0.00     0.000 A 
ATOM      4  C4  BNZ d   1      -0.831  -2.716  -1.864  0.00  0.00     0.000 A 
ATOM      5  C5  BNZ d   1      -0.847  -1.480  -1.248  0.00  0.00     0.000 A 
ATOM      6  C6  BNZ d   1      -1.245  -1.372   0.065  0.00  0.00     0.000 A 
ENDROOT
TORSDOF 0
ENDMDL
