MODEL 1
REMARK minimizedAffinity 2.58691907
REMARK minimizedRMSD -1
REMARK  0 active torsions:
REMARK  status: ('A' for Active; 'I' for Inactive)
ROOT
ATOM      1  C1  BNZ d   1      -3.736  -0.436  -5.871  0.00  0.00     0.000 A 
ATOM      2  C2  BNZ d   1      -4.860  -1.208  -5.999  0.00  0.00     0.000 A 
ATOM      3  C3  BNZ d   1      -5.999  -0.908  -5.305  0.00  0.00     0.000 A 
ATOM      4  C4  BNZ d   1      -6.000   0.139  -4.454  0.00  0.00     0.000 A 
ATOM      5  C5  BNZ d   1      -4.872   0.921  -4.307  0.00  0.00     0.000 A 
ATOM      6  C6  BNZ d   1      -3.740   0.639  -5.037  0.00  0.00     0.000 A 
ENDROOT
TORSDOF 0
ENDMDL
