MODEL 1
REMARK minimizedAffinity 2.60202718
REMARK minimizedRMSD -1
REMARK  0 active torsions:
REMARK  status: ('A' for Active; 'I' for Inactive)
ROOT
ATOM      1  C1  BNZ d   1      -1.131   0.489  -0.634  0.00  0.00     0.000 A 
ATOM      2  C2  BNZ d   1       0.092   0.956  -0.234  0.00  0.00     0.000 A 
ATOM      3  C3  BNZ d   1       0.945   0.162   0.480  0.00  0.00     0.000 A 
ATOM      4  C4  BNZ d   1       0.559  -1.083   0.826  0.00  0.00     0.000 A 
ATOM      5  C5  BNZ d   1      -0.675  -1.565   0.437  0.00  0.00     0.000 A 
ATOM      6  C6  BNZ d   1      -1.516  -0.777  -0.314  0.00  0.00     0.000 A 
ENDROOT
TORSDOF 0
ENDMDL
