MODEL 1
REMARK minimizedAffinity -1.07226408
REMARK minimizedRMSD -1
REMARK  0 active torsions:
REMARK  status: ('A' for Active; 'I' for Inactive)
ROOT
ATOM      1  C1  BNZ d   1       1.893  -0.268   1.966  0.00  0.00     0.000 A 
ATOM      2  C2  BNZ d   1       0.831  -0.618   2.757  0.00  0.00     0.000 A 
ATOM      3  C3  BNZ d   1      -0.331  -1.080   2.206  0.00  0.00     0.000 A 
ATOM      4  C4  BNZ d   1      -0.445  -1.153   0.864  0.00  0.00     0.000 A 
ATOM      5  C5  BNZ d   1       0.613  -0.796   0.052  0.00  0.00     0.000 A 
ATOM      6  C6  BNZ d   1       1.795  -0.368   0.612  0.00  0.00     0.000 A 
ENDROOT
TORSDOF 0
ENDMDL
