MODEL 1
REMARK minimizedAffinity 0.63022697
REMARK minimizedRMSD -1
REMARK  0 active torsions:
REMARK  status: ('A' for Active; 'I' for Inactive)
ROOT
ATOM      1  C1  BNZ d   1      -3.686  -2.623  -4.722  0.00  0.00     0.000 A 
ATOM      2  C2  BNZ d   1      -4.091  -1.393  -4.277  0.00  0.00     0.000 A 
ATOM      3  C3  BNZ d   1      -3.831  -0.992  -2.997  0.00  0.00     0.000 A 
ATOM      4  C4  BNZ d   1      -3.204  -1.835  -2.152  0.00  0.00     0.000 A 
ATOM      5  C5  BNZ d   1      -2.798  -3.083  -2.582  0.00  0.00     0.000 A 
ATOM      6  C6  BNZ d   1      -3.026  -3.468  -3.883  0.00  0.00     0.000 A 
ENDROOT
TORSDOF 0
ENDMDL
