MODEL 1
REMARK minimizedAffinity 3.93426919
REMARK minimizedRMSD -1
REMARK  0 active torsions:
REMARK  status: ('A' for Active; 'I' for Inactive)
ROOT
ATOM      1  C1  BNZ d   1      -3.018   5.785  -2.402  0.00  0.00     0.000 A 
ATOM      2  C2  BNZ d   1      -3.397   6.000  -3.700  0.00  0.00     0.000 A 
ATOM      3  C3  BNZ d   1      -4.701   5.853  -4.082  0.00  0.00     0.000 A 
ATOM      4  C4  BNZ d   1      -5.616   5.452  -3.176  0.00  0.00     0.000 A 
ATOM      5  C5  BNZ d   1      -5.248   5.222  -1.865  0.00  0.00     0.000 A 
ATOM      6  C6  BNZ d   1      -3.941   5.409  -1.476  0.00  0.00     0.000 A 
ENDROOT
TORSDOF 0
ENDMDL
