MODEL 1
REMARK minimizedAffinity 3.14131021
REMARK minimizedRMSD -1
REMARK  0 active torsions:
REMARK  status: ('A' for Active; 'I' for Inactive)
ROOT
ATOM      1  C1  BNZ d   1      -4.086  -0.990  -4.708  0.00  0.00     0.000 A 
ATOM      2  C2  BNZ d   1      -3.746   0.337  -4.724  0.00  0.00     0.000 A 
ATOM      3  C3  BNZ d   1      -4.539   1.254  -5.354  0.00  0.00     0.000 A 
ATOM      4  C4  BNZ d   1      -5.649   0.840  -5.999  0.00  0.00     0.000 A 
ATOM      5  C5  BNZ d   1      -6.000  -0.495  -6.000  0.00  0.00     0.000 A 
ATOM      6  C6  BNZ d   1      -5.219  -1.411  -5.332  0.00  0.00     0.000 A 
ENDROOT
TORSDOF 0
ENDMDL
