MODEL 1
REMARK minimizedAffinity -1.84109247
REMARK minimizedRMSD -1
REMARK  0 active torsions:
REMARK  status: ('A' for Active; 'I' for Inactive)
ROOT
ATOM      1  C1  BNZ d   1      -5.917   2.755  -4.836  0.00  0.00     0.000 A 
ATOM      2  C2  BNZ d   1      -6.000   3.418  -3.641  0.00  0.00     0.000 A 
ATOM      3  C3  BNZ d   1      -6.000   4.785  -3.597  0.00  0.00     0.000 A 
ATOM      4  C4  BNZ d   1      -5.876   5.484  -4.744  0.00  0.00     0.000 A 
ATOM      5  C5  BNZ d   1      -5.782   4.830  -5.955  0.00  0.00     0.000 A 
ATOM      6  C6  BNZ d   1      -5.822   3.455  -5.999  0.00  0.00     0.000 A 
ENDROOT
TORSDOF 0
ENDMDL
