MODEL 1
REMARK minimizedAffinity -1.27561009
REMARK minimizedRMSD -1
REMARK  0 active torsions:
REMARK  status: ('A' for Active; 'I' for Inactive)
ROOT
ATOM      1  C1  BNZ d   1      -5.902   4.001  -3.571  0.00  0.00     0.000 A 
ATOM      2  C2  BNZ d   1      -5.975   2.637  -3.658  0.00  0.00     0.000 A 
ATOM      3  C3  BNZ d   1      -5.995   2.012  -4.874  0.00  0.00     0.000 A 
ATOM      4  C4  BNZ d   1      -5.982   2.754  -6.000  0.00  0.00     0.000 A 
ATOM      5  C5  BNZ d   1      -5.917   4.131  -5.929  0.00  0.00     0.000 A 
ATOM      6  C6  BNZ d   1      -5.858   4.754  -4.704  0.00  0.00     0.000 A 
ENDROOT
TORSDOF 0
ENDMDL
