MODEL 1
REMARK minimizedAffinity 2.74710083
REMARK minimizedRMSD -1
REMARK  0 active torsions:
REMARK  status: ('A' for Active; 'I' for Inactive)
ROOT
ATOM      1  C1  BNZ d   1      -0.398  -2.985  -0.481  0.00  0.00     0.000 A 
ATOM      2  C2  BNZ d   1      -0.396  -1.616  -0.447  0.00  0.00     0.000 A 
ATOM      3  C3  BNZ d   1      -1.014  -0.891  -1.428  0.00  0.00     0.000 A 
ATOM      4  C4  BNZ d   1      -1.597  -1.534  -2.460  0.00  0.00     0.000 A 
ATOM      5  C5  BNZ d   1      -1.599  -2.913  -2.513  0.00  0.00     0.000 A 
ATOM      6  C6  BNZ d   1      -1.010  -3.640  -1.504  0.00  0.00     0.000 A 
ENDROOT
TORSDOF 0
ENDMDL
