MODEL 1
REMARK minimizedAffinity 4.35491276
REMARK minimizedRMSD -1
REMARK  0 active torsions:
REMARK  status: ('A' for Active; 'I' for Inactive)
ROOT
ATOM      1  N1  IND d   1       0.304   2.266  -2.688  0.00  0.00    -0.196 N 
ATOM      2  C2  IND d   1       0.345   0.911  -2.867  0.00  0.00     0.054 A 
ATOM      3  C3  IND d   1       1.266   0.356  -2.047  0.00  0.00    -0.031 A 
ATOM      4  C4  IND d   1       2.746   1.468  -0.259  0.00  0.00     0.051 A 
ATOM      5  C5  IND d   1       3.090   2.690   0.247  0.00  0.00    -0.031 A 
ATOM      6  C6  IND d   1       2.509   3.856  -0.206  0.00  0.00     0.015 A 
ATOM      7  C7  IND d   1       1.550   3.843  -1.179  0.00  0.00    -0.016 A 
ATOM      8  C8  IND d   1       1.204   2.605  -1.701  0.00  0.00    -0.047 A 
ATOM      9  C9  IND d   1       1.820   1.421  -1.274  0.00  0.00    -0.096 A 
ATOM     10  HN1 IND d   1      -0.198   2.814  -3.119  0.00  0.00     0.298 HD
ENDROOT
TORSDOF 0
ENDMDL
