MODEL 1
REMARK minimizedAffinity -4.00312853
REMARK minimizedRMSD -1
REMARK  0 active torsions:
REMARK  status: ('A' for Active; 'I' for Inactive)
ROOT
ATOM      1  N1  IND d   1       5.995  -1.846   5.339  0.00  0.00    -0.196 N 
ATOM      2  C2  IND d   1       5.054  -1.025   4.783  0.00  0.00     0.054 A 
ATOM      3  C3  IND d   1       3.913  -1.710   4.546  0.00  0.00    -0.031 A 
ATOM      4  C4  IND d   1       3.334  -4.159   5.084  0.00  0.00     0.051 A 
ATOM      5  C5  IND d   1       3.883  -5.316   5.561  0.00  0.00    -0.031 A 
ATOM      6  C6  IND d   1       5.190  -5.376   6.000  0.00  0.00     0.015 A 
ATOM      7  C7  IND d   1       5.996  -4.273   5.988  0.00  0.00    -0.016 A 
ATOM      8  C8  IND d   1       5.444  -3.099   5.498  0.00  0.00    -0.047 A 
ATOM      9  C9  IND d   1       4.131  -3.042   5.012  0.00  0.00    -0.096 A 
ATOM     10  HN1 IND d   1       6.796  -1.618   5.554  0.00  0.00     0.298 HD
ENDROOT
TORSDOF 0
ENDMDL
