MODEL 1
REMARK minimizedAffinity 8.94272137
REMARK minimizedRMSD -1
REMARK  0 active torsions:
REMARK  status: ('A' for Active; 'I' for Inactive)
ROOT
ATOM      1  N1  IND d   1       0.356   2.245  -4.837  0.00  0.00    -0.196 N 
ATOM      2  C2  IND d   1       1.064   3.412  -4.765  0.00  0.00     0.054 A 
ATOM      3  C3  IND d   1       1.831   3.429  -3.652  0.00  0.00    -0.031 A 
ATOM      4  C4  IND d   1       2.156   1.607  -1.862  0.00  0.00     0.051 A 
ATOM      5  C5  IND d   1       1.694   0.380  -1.478  0.00  0.00    -0.031 A 
ATOM      6  C6  IND d   1       0.746  -0.304  -2.211  0.00  0.00     0.015 A 
ATOM      7  C7  IND d   1       0.230   0.212  -3.366  0.00  0.00    -0.016 A 
ATOM      8  C8  IND d   1       0.691   1.461  -3.755  0.00  0.00    -0.047 A 
ATOM      9  C9  IND d   1       1.622   2.179  -2.993  0.00  0.00    -0.096 A 
ATOM     10  HN1 IND d   1      -0.204   2.035  -5.455  0.00  0.00     0.298 HD
ENDROOT
TORSDOF 0
ENDMDL
