MODEL 1
REMARK minimizedAffinity -2.83053946
REMARK minimizedRMSD -1
REMARK  0 active torsions:
REMARK  status: ('A' for Active; 'I' for Inactive)
ROOT
ATOM      1  N1  IND d   1      -4.506   5.764   5.459  0.00  0.00    -0.196 N 
ATOM      2  C2  IND d   1      -3.259   5.919   5.997  0.00  0.00     0.054 A 
ATOM      3  C3  IND d   1      -2.331   5.998   5.017  0.00  0.00    -0.031 A 
ATOM      4  C4  IND d   1      -2.646   5.999   2.462  0.00  0.00     0.051 A 
ATOM      5  C5  IND d   1      -3.599   5.844   1.494  0.00  0.00    -0.031 A 
ATOM      6  C6  IND d   1      -4.930   5.653   1.805  0.00  0.00     0.015 A 
ATOM      7  C7  IND d   1      -5.361   5.622   3.100  0.00  0.00    -0.016 A 
ATOM      8  C8  IND d   1      -4.396   5.772   4.086  0.00  0.00    -0.047 A 
ATOM      9  C9  IND d   1      -3.038   5.923   3.778  0.00  0.00    -0.096 A 
ATOM     10  HN1 IND d   1      -5.237   5.677   5.904  0.00  0.00     0.298 HD
ENDROOT
TORSDOF 0
ENDMDL
