MODEL 1
REMARK minimizedAffinity 16.3751507
REMARK minimizedRMSD -1
REMARK  0 active torsions:
REMARK  status: ('A' for Active; 'I' for Inactive)
ROOT
ATOM      1  N1  IND d   1       0.576   0.433  -2.611  0.00  0.00    -0.196 N 
ATOM      2  C2  IND d   1       1.480  -0.121  -1.748  0.00  0.00     0.054 A 
ATOM      3  C3  IND d   1       2.496   0.740  -1.515  0.00  0.00    -0.031 A 
ATOM      4  C4  IND d   1       2.827   3.148  -2.365  0.00  0.00     0.051 A 
ATOM      5  C5  IND d   1       2.284   4.077  -3.208  0.00  0.00    -0.031 A 
ATOM      6  C6  IND d   1       1.119   3.835  -3.907  0.00  0.00     0.015 A 
ATOM      7  C7  IND d   1       0.445   2.654  -3.780  0.00  0.00    -0.016 A 
ATOM      8  C8  IND d   1       0.996   1.705  -2.930  0.00  0.00    -0.047 A 
ATOM      9  C9  IND d   1       2.201   1.929  -2.251  0.00  0.00    -0.096 A 
ATOM     10  HN1 IND d   1      -0.136   0.051  -2.905  0.00  0.00     0.298 HD
ENDROOT
TORSDOF 0
ENDMDL
