MODEL 1
REMARK minimizedAffinity -1.16968036
REMARK minimizedRMSD -1
REMARK  0 active torsions:
REMARK  status: ('A' for Active; 'I' for Inactive)
ROOT
ATOM      1  N1  IND d   1      -3.065   5.999   2.062  0.00  0.00    -0.196 N 
ATOM      2  C2  IND d   1      -4.303   5.900   1.490  0.00  0.00     0.054 A 
ATOM      3  C3  IND d   1      -5.252   5.768   2.443  0.00  0.00    -0.031 A 
ATOM      4  C4  IND d   1      -5.012   5.793   5.006  0.00  0.00     0.051 A 
ATOM      5  C5  IND d   1      -4.074   5.824   6.000  0.00  0.00    -0.031 A 
ATOM      6  C6  IND d   1      -2.725   5.920   5.726  0.00  0.00     0.015 A 
ATOM      7  C7  IND d   1      -2.262   6.000   4.443  0.00  0.00    -0.016 A 
ATOM      8  C8  IND d   1      -3.211   5.962   3.431  0.00  0.00    -0.047 A 
ATOM      9  C9  IND d   1      -4.578   5.822   3.701  0.00  0.00    -0.096 A 
ATOM     10  HN1 IND d   1      -2.321   6.073   1.638  0.00  0.00     0.298 HD
ENDROOT
TORSDOF 0
ENDMDL
