MODEL 1
REMARK minimizedAffinity 6.85440445
REMARK minimizedRMSD -1
REMARK  0 active torsions:
REMARK  status: ('A' for Active; 'I' for Inactive)
ROOT
ATOM      1  N1  IND d   1      -2.632   5.992   4.911  0.00  0.00    -0.196 N 
ATOM      2  C2  IND d   1      -3.381   5.632   5.997  0.00  0.00     0.054 A 
ATOM      3  C3  IND d   1      -4.604   5.209   5.605  0.00  0.00    -0.031 A 
ATOM      4  C4  IND d   1      -5.554   4.929   3.228  0.00  0.00     0.051 A 
ATOM      5  C5  IND d   1      -5.257   5.163   1.915  0.00  0.00    -0.031 A 
ATOM      6  C6  IND d   1      -4.044   5.693   1.525  0.00  0.00     0.015 A 
ATOM      7  C7  IND d   1      -3.074   6.000   2.438  0.00  0.00    -0.016 A 
ATOM      8  C8  IND d   1      -3.375   5.770   3.773  0.00  0.00    -0.047 A 
ATOM      9  C9  IND d   1      -4.621   5.272   4.178  0.00  0.00    -0.096 A 
ATOM     10  HN1 IND d   1      -1.831   6.304   4.936  0.00  0.00     0.298 HD
ENDROOT
TORSDOF 0
ENDMDL
