MODEL 1
REMARK minimizedAffinity 1.01154363
REMARK minimizedRMSD -1
REMARK  0 active torsions:
REMARK  status: ('A' for Active; 'I' for Inactive)
ROOT
ATOM      1  N1  IND d   1      -4.142   5.925   2.031  0.00  0.00    -0.196 N 
ATOM      2  C2  IND d   1      -2.883   5.942   1.498  0.00  0.00     0.054 A 
ATOM      3  C3  IND d   1      -1.957   5.999   2.481  0.00  0.00    -0.031 A 
ATOM      4  C4  IND d   1      -2.279   5.971   5.035  0.00  0.00     0.051 A 
ATOM      5  C5  IND d   1      -3.247   5.998   5.999  0.00  0.00    -0.031 A 
ATOM      6  C6  IND d   1      -4.590   6.000   5.684  0.00  0.00     0.015 A 
ATOM      7  C7  IND d   1      -5.017   5.963   4.386  0.00  0.00    -0.016 A 
ATOM      8  C8  IND d   1      -4.037   5.942   3.405  0.00  0.00    -0.047 A 
ATOM      9  C9  IND d   1      -2.672   5.983   3.718  0.00  0.00    -0.096 A 
ATOM     10  HN1 IND d   1      -4.876   5.908   1.584  0.00  0.00     0.298 HD
ENDROOT
TORSDOF 0
ENDMDL
