MODEL 1
REMARK minimizedAffinity -2.91599631
REMARK minimizedRMSD -1
REMARK  0 active torsions:
REMARK  status: ('A' for Active; 'I' for Inactive)
ROOT
ATOM      1  N1  IND d   1      -4.847   5.984   5.143  0.00  0.00    -0.196 N 
ATOM      2  C2  IND d   1      -3.781   5.999   5.998  0.00  0.00     0.054 A 
ATOM      3  C3  IND d   1      -2.622   5.926   5.305  0.00  0.00    -0.031 A 
ATOM      4  C4  IND d   1      -2.237   5.878   2.760  0.00  0.00     0.051 A 
ATOM      5  C5  IND d   1      -2.907   5.811   1.571  0.00  0.00    -0.031 A 
ATOM      6  C6  IND d   1      -4.285   5.801   1.510  0.00  0.00     0.015 A 
ATOM      7  C7  IND d   1      -5.049   5.869   2.641  0.00  0.00    -0.016 A 
ATOM      8  C8  IND d   1      -4.373   5.930   3.851  0.00  0.00    -0.047 A 
ATOM      9  C9  IND d   1      -2.974   5.898   3.921  0.00  0.00    -0.096 A 
ATOM     10  HN1 IND d   1      -5.675   6.004   5.373  0.00  0.00     0.298 HD
ENDROOT
TORSDOF 0
ENDMDL
