MODEL 1
REMARK minimizedAffinity 3.63679218
REMARK minimizedRMSD -1
REMARK  0 active torsions:
REMARK  status: ('A' for Active; 'I' for Inactive)
ROOT
ATOM      1  N1  IND d   1      -2.239   5.990   4.918  0.00  0.00    -0.196 N 
ATOM      2  C2  IND d   1      -3.074   6.000   6.000  0.00  0.00     0.054 A 
ATOM      3  C3  IND d   1      -4.363   5.905   5.601  0.00  0.00    -0.031 A 
ATOM      4  C4  IND d   1      -5.323   5.620   3.230  0.00  0.00     0.051 A 
ATOM      5  C5  IND d   1      -4.955   5.592   1.914  0.00  0.00    -0.031 A 
ATOM      6  C6  IND d   1      -3.635   5.695   1.525  0.00  0.00     0.015 A 
ATOM      7  C7  IND d   1      -2.629   5.819   2.441  0.00  0.00    -0.016 A 
ATOM      8  C8  IND d   1      -3.001   5.854   3.778  0.00  0.00    -0.047 A 
ATOM      9  C9  IND d   1      -4.342   5.793   4.177  0.00  0.00    -0.096 A 
ATOM     10  HN1 IND d   1      -1.382   6.057   4.944  0.00  0.00     0.298 HD
ENDROOT
TORSDOF 0
ENDMDL
