MODEL 1
REMARK minimizedAffinity 6.89753199
REMARK minimizedRMSD -1
REMARK  0 active torsions:
REMARK  status: ('A' for Active; 'I' for Inactive)
ROOT
ATOM      1  N1  IND d   1      -5.387   5.884   3.190  0.00  0.00    -0.196 N 
ATOM      2  C2  IND d   1      -5.121   5.906   1.849  0.00  0.00     0.054 A 
ATOM      3  C3  IND d   1      -3.788   5.979   1.635  0.00  0.00    -0.031 A 
ATOM      4  C4  IND d   1      -1.855   5.971   3.335  0.00  0.00     0.051 A 
ATOM      5  C5  IND d   1      -1.602   5.998   4.678  0.00  0.00    -0.031 A 
ATOM      6  C6  IND d   1      -2.617   5.986   5.612  0.00  0.00     0.015 A 
ATOM      7  C7  IND d   1      -3.930   5.935   5.237  0.00  0.00    -0.016 A 
ATOM      8  C8  IND d   1      -4.191   5.913   3.874  0.00  0.00    -0.047 A 
ATOM      9  C9  IND d   1      -3.166   5.968   2.921  0.00  0.00    -0.096 A 
ATOM     10  HN1 IND d   1      -6.169   5.856   3.546  0.00  0.00     0.298 HD
ENDROOT
TORSDOF 0
ENDMDL
