MODEL 1
REMARK minimizedAffinity -0.815292478
REMARK minimizedRMSD -1
REMARK  0 active torsions:
REMARK  status: ('A' for Active; 'I' for Inactive)
ROOT
ATOM      1  N1  IND d   1       0.376  -1.260  -4.276  0.00  0.00    -0.196 N 
ATOM      2  C2  IND d   1       0.742  -2.211  -3.366  0.00  0.00     0.054 A 
ATOM      3  C3  IND d   1       1.527  -1.669  -2.408  0.00  0.00    -0.031 A 
ATOM      4  C4  IND d   1       2.253   0.780  -2.082  0.00  0.00     0.051 A 
ATOM      5  C5  IND d   1       2.198   2.008  -2.678  0.00  0.00    -0.031 A 
ATOM      6  C6  IND d   1       1.516   2.215  -3.860  0.00  0.00     0.015 A 
ATOM      7  C7  IND d   1       0.852   1.199  -4.486  0.00  0.00    -0.016 A 
ATOM      8  C8  IND d   1       0.912  -0.052  -3.888  0.00  0.00    -0.047 A 
ATOM      9  C9  IND d   1       1.638  -0.277  -2.711  0.00  0.00    -0.096 A 
ATOM     10  HN1 IND d   1      -0.108  -1.393  -4.975  0.00  0.00     0.298 HD
ENDROOT
TORSDOF 0
ENDMDL
