MODEL 1
REMARK minimizedAffinity 11.7446785
REMARK minimizedRMSD -1
REMARK  0 active torsions:
REMARK  status: ('A' for Active; 'I' for Inactive)
ROOT
ATOM      1  N1  IND d   1       0.339   0.342  -2.159  0.00  0.00    -0.196 N 
ATOM      2  C2  IND d   1       1.214  -0.461  -1.482  0.00  0.00     0.054 A 
ATOM      3  C3  IND d   1       2.488  -0.147  -1.806  0.00  0.00    -0.031 A 
ATOM      4  C4  IND d   1       3.372   1.717  -3.346  0.00  0.00     0.051 A 
ATOM      5  C5  IND d   1       2.953   2.685  -4.215  0.00  0.00    -0.031 A 
ATOM      6  C6  IND d   1       1.614   2.928  -4.446  0.00  0.00     0.015 A 
ATOM      7  C7  IND d   1       0.640   2.217  -3.805  0.00  0.00    -0.016 A 
ATOM      8  C8  IND d   1       1.062   1.228  -2.927  0.00  0.00    -0.047 A 
ATOM      9  C9  IND d   1       2.419   0.948  -2.721  0.00  0.00    -0.096 A 
ATOM     10  HN1 IND d   1      -0.518   0.300  -2.113  0.00  0.00     0.298 HD
ENDROOT
TORSDOF 0
ENDMDL
