MODEL 1
REMARK minimizedAffinity -2.25590229
REMARK minimizedRMSD -1
REMARK  0 active torsions:
REMARK  status: ('A' for Active; 'I' for Inactive)
ROOT
ATOM      1  N1  IND d   1      -2.896   5.999   5.987  0.00  0.00    -0.196 N 
ATOM      2  C2  IND d   1      -1.623   6.000   5.490  0.00  0.00     0.054 A 
ATOM      3  C3  IND d   1      -1.645   5.963   4.139  0.00  0.00    -0.031 A 
ATOM      4  C4  IND d   1      -3.658   6.000   2.535  0.00  0.00     0.051 A 
ATOM      5  C5  IND d   1      -5.024   5.962   2.519  0.00  0.00    -0.031 A 
ATOM      6  C6  IND d   1      -5.766   5.938   3.683  0.00  0.00     0.015 A 
ATOM      7  C7  IND d   1      -5.167   5.961   4.910  0.00  0.00    -0.016 A 
ATOM      8  C8  IND d   1      -3.779   5.992   4.929  0.00  0.00    -0.047 A 
ATOM      9  C9  IND d   1      -3.020   5.974   3.752  0.00  0.00    -0.096 A 
ATOM     10  HN1 IND d   1      -3.110   6.003   6.820  0.00  0.00     0.298 HD
ENDROOT
TORSDOF 0
ENDMDL
