MODEL 1
REMARK minimizedAffinity 10.1082754
REMARK minimizedRMSD -1
REMARK  0 active torsions:
REMARK  status: ('A' for Active; 'I' for Inactive)
ROOT
ATOM      1  N1  IND d   1      -4.157   4.485   1.360  0.00  0.00    -0.196 N 
ATOM      2  C2  IND d   1      -5.494   4.729   1.213  0.00  0.00     0.054 A 
ATOM      3  C3  IND d   1      -5.994   5.294   2.335  0.00  0.00    -0.031 A 
ATOM      4  C4  IND d   1      -4.780   5.999   4.493  0.00  0.00     0.051 A 
ATOM      5  C5  IND d   1      -3.562   5.946   5.110  0.00  0.00    -0.031 A 
ATOM      6  C6  IND d   1      -2.456   5.395   4.495  0.00  0.00     0.015 A 
ATOM      7  C7  IND d   1      -2.526   4.883   3.230  0.00  0.00    -0.016 A 
ATOM      8  C8  IND d   1      -3.763   4.929   2.603  0.00  0.00    -0.047 A 
ATOM      9  C9  IND d   1      -4.898   5.449   3.239  0.00  0.00    -0.096 A 
ATOM     10  HN1 IND d   1      -3.647   4.115   0.774  0.00  0.00     0.298 HD
ENDROOT
TORSDOF 0
ENDMDL
