MODEL 1
REMARK minimizedAffinity 0.179479122
REMARK minimizedRMSD -1
REMARK  0 active torsions:
REMARK  status: ('A' for Active; 'I' for Inactive)
ROOT
ATOM      1  C1  BNZ d   1      -1.157  -0.917   0.444  0.00  0.00     0.000 A 
ATOM      2  C2  BNZ d   1      -1.296  -2.194  -0.032  0.00  0.00     0.000 A 
ATOM      3  C3  BNZ d   1      -2.226  -3.042   0.501  0.00  0.00     0.000 A 
ATOM      4  C4  BNZ d   1      -2.987  -2.626   1.535  0.00  0.00     0.000 A 
ATOM      5  C5  BNZ d   1      -2.852  -1.345   2.032  0.00  0.00     0.000 A 
ATOM      6  C6  BNZ d   1      -1.942  -0.482   1.467  0.00  0.00     0.000 A 
ENDROOT
TORSDOF 0
ENDMDL
