MODEL 1
REMARK minimizedAffinity -0.358645499
REMARK minimizedRMSD -1
REMARK  0 active torsions:
REMARK  status: ('A' for Active; 'I' for Inactive)
ROOT
ATOM      1  C1  BNZ d   1       5.041  -1.974   6.000  0.00  0.00     0.000 A 
ATOM      2  C2  BNZ d   1       5.956  -1.844   4.989  0.00  0.00     0.000 A 
ATOM      3  C3  BNZ d   1       5.992  -2.740   3.957  0.00  0.00     0.000 A 
ATOM      4  C4  BNZ d   1       5.141  -3.786   3.958  0.00  0.00     0.000 A 
ATOM      5  C5  BNZ d   1       4.219  -3.937   4.975  0.00  0.00     0.000 A 
ATOM      6  C6  BNZ d   1       4.160  -3.011   5.991  0.00  0.00     0.000 A 
ENDROOT
TORSDOF 0
ENDMDL
