MODEL 1
REMARK minimizedAffinity -4.801507
REMARK minimizedRMSD -1
REMARK  0 active torsions:
REMARK  status: ('A' for Active; 'I' for Inactive)
ROOT
ATOM      1  C1  BNZ d   1      -0.300  -3.351   1.169  0.00  0.00     0.000 A 
ATOM      2  C2  BNZ d   1      -0.929  -2.389   1.914  0.00  0.00     0.000 A 
ATOM      3  C3  BNZ d   1      -0.980  -1.093   1.484  0.00  0.00     0.000 A 
ATOM      4  C4  BNZ d   1      -0.369  -0.752   0.332  0.00  0.00     0.000 A 
ATOM      5  C5  BNZ d   1       0.277  -1.708  -0.426  0.00  0.00     0.000 A 
ATOM      6  C6  BNZ d   1       0.294  -3.019  -0.010  0.00  0.00     0.000 A 
ENDROOT
TORSDOF 0
ENDMDL
