MODEL 1
REMARK minimizedAffinity -3.50414658
REMARK minimizedRMSD -1
REMARK  0 active torsions:
REMARK  status: ('A' for Active; 'I' for Inactive)
ROOT
ATOM      1  C1  BNZ d   1      -0.735  -0.769   0.909  0.00  0.00     0.000 A 
ATOM      2  C2  BNZ d   1       0.048  -1.893   0.882  0.00  0.00     0.000 A 
ATOM      3  C3  BNZ d   1       1.030  -2.039  -0.057  0.00  0.00     0.000 A 
ATOM      4  C4  BNZ d   1       1.203  -1.081  -0.990  0.00  0.00     0.000 A 
ATOM      5  C5  BNZ d   1       0.415   0.053  -0.982  0.00  0.00     0.000 A 
ATOM      6  C6  BNZ d   1      -0.547   0.214  -0.012  0.00  0.00     0.000 A 
ENDROOT
TORSDOF 0
ENDMDL
