MODEL 1
REMARK minimizedAffinity -5.03671217
REMARK minimizedRMSD -1
REMARK  0 active torsions:
REMARK  status: ('A' for Active; 'I' for Inactive)
ROOT
ATOM      1  C1  BNZ d   1       0.138  -0.186   0.722  0.00  0.00     0.000 A 
ATOM      2  C2  BNZ d   1      -1.137  -0.615   0.978  0.00  0.00     0.000 A 
ATOM      3  C3  BNZ d   1      -1.485  -1.924   0.796  0.00  0.00     0.000 A 
ATOM      4  C4  BNZ d   1      -0.570  -2.794   0.320  0.00  0.00     0.000 A 
ATOM      5  C5  BNZ d   1       0.718  -2.375   0.049  0.00  0.00     0.000 A 
ATOM      6  C6  BNZ d   1       1.075  -1.065   0.270  0.00  0.00     0.000 A 
ENDROOT
TORSDOF 0
ENDMDL
