MODEL 1
REMARK minimizedAffinity -5.17511797
REMARK minimizedRMSD -1
REMARK  0 active torsions:
REMARK  status: ('A' for Active; 'I' for Inactive)
ROOT
ATOM      1  C1  BNZ d   1      -0.871  -0.809   1.192  0.00  0.00     0.000 A 
ATOM      2  C2  BNZ d   1      -0.808  -2.176   1.143  0.00  0.00     0.000 A 
ATOM      3  C3  BNZ d   1      -0.102  -2.810   0.159  0.00  0.00     0.000 A 
ATOM      4  C4  BNZ d   1       0.505  -2.078  -0.797  0.00  0.00     0.000 A 
ATOM      5  C5  BNZ d   1       0.444  -0.699  -0.767  0.00  0.00     0.000 A 
ATOM      6  C6  BNZ d   1      -0.235  -0.064   0.247  0.00  0.00     0.000 A 
ENDROOT
TORSDOF 0
ENDMDL
