MODEL 1
REMARK minimizedAffinity -4.49723244
REMARK minimizedRMSD -1
REMARK  0 active torsions:
REMARK  status: ('A' for Active; 'I' for Inactive)
ROOT
ATOM      1  C1  BNZ d   1      -1.571  -0.994   0.911  0.00  0.00     0.000 A 
ATOM      2  C2  BNZ d   1      -1.498  -2.360   0.985  0.00  0.00     0.000 A 
ATOM      3  C3  BNZ d   1      -0.353  -3.019   0.637  0.00  0.00     0.000 A 
ATOM      4  C4  BNZ d   1       0.703  -2.317   0.177  0.00  0.00     0.000 A 
ATOM      5  C5  BNZ d   1       0.642  -0.941   0.088  0.00  0.00     0.000 A 
ATOM      6  C6  BNZ d   1      -0.500  -0.277   0.476  0.00  0.00     0.000 A 
ENDROOT
TORSDOF 0
ENDMDL
