MODEL 1
REMARK minimizedAffinity -4.14116859
REMARK minimizedRMSD -1
REMARK  0 active torsions:
REMARK  status: ('A' for Active; 'I' for Inactive)
ROOT
ATOM      1  C1  BNZ d   1       1.242  -2.536   1.004  0.00  0.00     0.000 A 
ATOM      2  C2  BNZ d   1       1.152  -1.169   1.034  0.00  0.00     0.000 A 
ATOM      3  C3  BNZ d   1      -0.039  -0.541   0.797  0.00  0.00     0.000 A 
ATOM      4  C4  BNZ d   1      -1.127  -1.276   0.491  0.00  0.00     0.000 A 
ATOM      5  C5  BNZ d   1      -1.050  -2.654   0.448  0.00  0.00     0.000 A 
ATOM      6  C6  BNZ d   1       0.141  -3.285   0.725  0.00  0.00     0.000 A 
ENDROOT
TORSDOF 0
ENDMDL
