MODEL 1
REMARK minimizedAffinity -4.19715977
REMARK minimizedRMSD -1
REMARK  0 active torsions:
REMARK  status: ('A' for Active; 'I' for Inactive)
ROOT
ATOM      1  C1  BNZ d   1      -1.412  -1.976   0.927  0.00  0.00     0.000 A 
ATOM      2  C2  BNZ d   1      -0.215  -2.579   0.647  0.00  0.00     0.000 A 
ATOM      3  C3  BNZ d   1       0.877  -1.836   0.293  0.00  0.00     0.000 A 
ATOM      4  C4  BNZ d   1       0.760  -0.497   0.181  0.00  0.00     0.000 A 
ATOM      5  C5  BNZ d   1      -0.443   0.124   0.451  0.00  0.00     0.000 A 
ATOM      6  C6  BNZ d   1      -1.529  -0.623   0.845  0.00  0.00     0.000 A 
ENDROOT
TORSDOF 0
ENDMDL
