MODEL 1
REMARK minimizedAffinity -4.33264351
REMARK minimizedRMSD -1
REMARK  0 active torsions:
REMARK  status: ('A' for Active; 'I' for Inactive)
ROOT
ATOM      1  C1  BNZ d   1      -0.157  -1.332  -0.782  0.00  0.00     0.000 A 
ATOM      2  C2  BNZ d   1      -0.563  -2.602  -1.095  0.00  0.00     0.000 A 
ATOM      3  C3  BNZ d   1      -1.247  -3.361  -0.188  0.00  0.00     0.000 A 
ATOM      4  C4  BNZ d   1      -1.489  -2.866   1.043  0.00  0.00     0.000 A 
ATOM      5  C5  BNZ d   1      -1.078  -1.591   1.377  0.00  0.00     0.000 A 
ATOM      6  C6  BNZ d   1      -0.424  -0.815   0.448  0.00  0.00     0.000 A 
ENDROOT
TORSDOF 0
ENDMDL
