MODEL 1
REMARK minimizedAffinity -3.79995203
REMARK minimizedRMSD -1
REMARK  0 active torsions:
REMARK  status: ('A' for Active; 'I' for Inactive)
ROOT
ATOM      1  C1  BNZ d   1       0.691  -2.206   0.083  0.00  0.00     0.000 A 
ATOM      2  C2  BNZ d   1       0.305  -0.920  -0.184  0.00  0.00     0.000 A 
ATOM      3  C3  BNZ d   1      -0.820  -0.394   0.387  0.00  0.00     0.000 A 
ATOM      4  C4  BNZ d   1      -1.578  -1.166   1.191  0.00  0.00     0.000 A 
ATOM      5  C5  BNZ d   1      -1.207  -2.468   1.463  0.00  0.00     0.000 A 
ATOM      6  C6  BNZ d   1      -0.053  -2.982   0.918  0.00  0.00     0.000 A 
ENDROOT
TORSDOF 0
ENDMDL
