MODEL 1
REMARK minimizedAffinity -4.74287939
REMARK minimizedRMSD -1
REMARK  0 active torsions:
REMARK  status: ('A' for Active; 'I' for Inactive)
ROOT
ATOM      1  C1  BNZ d   1      -0.161  -0.432   0.017  0.00  0.00     0.000 A 
ATOM      2  C2  BNZ d   1      -0.935  -0.936   1.027  0.00  0.00     0.000 A 
ATOM      3  C3  BNZ d   1      -1.071  -2.286   1.197  0.00  0.00     0.000 A 
ATOM      4  C4  BNZ d   1      -0.466  -3.127   0.335  0.00  0.00     0.000 A 
ATOM      5  C5  BNZ d   1       0.311  -2.634  -0.694  0.00  0.00     0.000 A 
ATOM      6  C6  BNZ d   1       0.477  -1.276  -0.839  0.00  0.00     0.000 A 
ENDROOT
TORSDOF 0
ENDMDL
