MODEL 1
REMARK minimizedAffinity -4.07412529
REMARK minimizedRMSD -1
REMARK  0 active torsions:
REMARK  status: ('A' for Active; 'I' for Inactive)
ROOT
ATOM      1  C1  BNZ d   1       2.145   2.415  -0.424  0.00  0.00     0.000 A 
ATOM      2  C2  BNZ d   1       2.118   3.442   0.481  0.00  0.00     0.000 A 
ATOM      3  C3  BNZ d   1       0.980   3.726   1.183  0.00  0.00     0.000 A 
ATOM      4  C4  BNZ d   1      -0.139   3.011   0.950  0.00  0.00     0.000 A 
ATOM      5  C5  BNZ d   1      -0.130   1.979   0.033  0.00  0.00     0.000 A 
ATOM      6  C6  BNZ d   1       1.028   1.670  -0.643  0.00  0.00     0.000 A 
ENDROOT
TORSDOF 0
ENDMDL
