MODEL 1
REMARK minimizedAffinity 2.80647469
REMARK minimizedRMSD -1
REMARK  0 active torsions:
REMARK  status: ('A' for Active; 'I' for Inactive)
ROOT
ATOM      1  C   UNL d   1       3.829  -4.684   1.227  0.00  0.00     0.172 C 
ATOM      2  N   UNL d   1       2.784  -3.811   0.745  0.00  0.00    -0.070 N 
ATOM      3  C1  UNL d   1       2.005  -4.033  -0.359  0.00  0.00    -0.004 A 
ATOM      4  C2  UNL d   1       1.132  -2.973  -0.480  0.00  0.00    -0.047 A 
ATOM      5  C3  UNL d   1       1.396  -2.084   0.589  0.00  0.00    -0.047 A 
ATOM      6  C4  UNL d   1       2.423  -2.627   1.331  0.00  0.00    -0.004 A 
ENDROOT
TORSDOF 0
ENDMDL
