MODEL 1
REMARK minimizedAffinity 2.55438519
REMARK minimizedRMSD -1
REMARK  0 active torsions:
REMARK  status: ('A' for Active; 'I' for Inactive)
ROOT
ATOM      1  C   UNL d   1       0.107  -1.245   1.587  0.00  0.00     0.172 C 
ATOM      2  N   UNL d   1       1.053  -2.199   1.057  0.00  0.00    -0.070 N 
ATOM      3  C1  UNL d   1       1.698  -2.100  -0.146  0.00  0.00    -0.004 A 
ATOM      4  C2  UNL d   1       2.511  -3.205  -0.281  0.00  0.00    -0.047 A 
ATOM      5  C3  UNL d   1       2.347  -3.996   0.881  0.00  0.00    -0.047 A 
ATOM      6  C4  UNL d   1       1.439  -3.350   1.693  0.00  0.00    -0.004 A 
ENDROOT
TORSDOF 0
ENDMDL
