MODEL 1
REMARK minimizedAffinity -1.75356662
REMARK minimizedRMSD -1
REMARK  0 active torsions:
REMARK  status: ('A' for Active; 'I' for Inactive)
ROOT
ATOM      1  C   UNL d   1      -3.372  -0.723  -2.918  0.00  0.00     0.172 C 
ATOM      2  N   UNL d   1      -4.167  -0.171  -3.990  0.00  0.00    -0.070 N 
ATOM      3  C1  UNL d   1      -3.695   0.216  -5.216  0.00  0.00    -0.004 A 
ATOM      4  C2  UNL d   1      -4.762   0.687  -5.950  0.00  0.00    -0.047 A 
ATOM      5  C3  UNL d   1      -5.915   0.579  -5.137  0.00  0.00    -0.047 A 
ATOM      6  C4  UNL d   1      -5.518   0.046  -3.929  0.00  0.00    -0.004 A 
ENDROOT
TORSDOF 0
ENDMDL
