MODEL 1
REMARK minimizedAffinity 1.74880385
REMARK minimizedRMSD -1
REMARK  0 active torsions:
REMARK  status: ('A' for Active; 'I' for Inactive)
ROOT
ATOM      1  C   UNL d   1      -3.955   0.324  -5.772  0.00  0.00     0.172 C 
ATOM      2  N   UNL d   1      -4.125  -0.062  -4.391  0.00  0.00    -0.070 N 
ATOM      3  C1  UNL d   1      -4.460   0.778  -3.362  0.00  0.00    -0.004 A 
ATOM      4  C2  UNL d   1      -4.523   0.027  -2.208  0.00  0.00    -0.047 A 
ATOM      5  C3  UNL d   1      -4.215  -1.309  -2.555  0.00  0.00    -0.047 A 
ATOM      6  C4  UNL d   1      -3.972  -1.336  -3.912  0.00  0.00    -0.004 A 
ENDROOT
TORSDOF 0
ENDMDL
