MODEL 1
REMARK minimizedAffinity 2.50799036
REMARK minimizedRMSD -1
REMARK  0 active torsions:
REMARK  status: ('A' for Active; 'I' for Inactive)
ROOT
ATOM      1  C   UNL d   1       1.448  -1.677   0.875  0.00  0.00     0.172 C 
ATOM      2  N   UNL d   1       2.272  -2.852   1.032  0.00  0.00    -0.070 N 
ATOM      3  C1  UNL d   1       3.466  -2.906   1.701  0.00  0.00    -0.004 A 
ATOM      4  C2  UNL d   1       3.935  -4.200   1.623  0.00  0.00    -0.047 A 
ATOM      5  C3  UNL d   1       2.991  -4.949   0.881  0.00  0.00    -0.047 A 
ATOM      6  C4  UNL d   1       1.972  -4.090   0.527  0.00  0.00    -0.004 A 
ENDROOT
TORSDOF 0
ENDMDL
