MODEL 1
REMARK minimizedAffinity -2.2061739
REMARK minimizedRMSD -1
REMARK  0 active torsions:
REMARK  status: ('A' for Active; 'I' for Inactive)
ROOT
ATOM      1  C   UNL d   1       0.519   5.627   5.645  0.00  0.00     0.172 C 
ATOM      2  N   UNL d   1       1.881   5.778   5.188  0.00  0.00    -0.070 N 
ATOM      3  C1  UNL d   1       2.987   5.863   5.990  0.00  0.00    -0.004 A 
ATOM      4  C2  UNL d   1       4.090   6.000   5.175  0.00  0.00    -0.047 A 
ATOM      5  C3  UNL d   1       3.630   5.999   3.837  0.00  0.00    -0.047 A 
ATOM      6  C4  UNL d   1       2.259   5.860   3.874  0.00  0.00    -0.004 A 
ENDROOT
TORSDOF 0
ENDMDL
