MODEL 1
REMARK minimizedAffinity -1.61458576
REMARK minimizedRMSD -1
REMARK  0 active torsions:
REMARK  status: ('A' for Active; 'I' for Inactive)
ROOT
ATOM      1  C   UNL d   1      -1.417  -0.968  -2.027  0.00  0.00     0.172 C 
ATOM      2  N   UNL d   1      -1.452  -0.666  -0.615  0.00  0.00    -0.070 N 
ATOM      3  C1  UNL d   1      -0.361  -0.550   0.204  0.00  0.00    -0.004 A 
ATOM      4  C2  UNL d   1      -0.815  -0.256   1.472  0.00  0.00    -0.047 A 
ATOM      5  C3  UNL d   1      -2.227  -0.193   1.412  0.00  0.00    -0.047 A 
ATOM      6  C4  UNL d   1      -2.595  -0.451   0.108  0.00  0.00    -0.004 A 
ENDROOT
TORSDOF 0
ENDMDL
