MODEL 1
REMARK minimizedAffinity -3.59124804
REMARK minimizedRMSD -1
REMARK  0 active torsions:
REMARK  status: ('A' for Active; 'I' for Inactive)
ROOT
ATOM      1  C4' PXY d   1      -1.624  -1.494  -2.606  0.00  0.00     0.077 C 
ATOM      2  C1' PXY d   1       0.011   1.227   2.225  0.00  0.00     0.077 C 
ATOM      3  C1  PXY d   1      -0.412   0.502   0.962  0.00  0.00    -0.082 A 
ATOM      4  C2  PXY d   1      -0.666   1.196  -0.136  0.00  0.00     0.003 A 
ATOM      5  C3  PXY d   1      -1.081   0.559  -1.278  0.00  0.00     0.003 A 
ATOM      6  C4  PXY d   1      -1.185  -0.806  -1.311  0.00  0.00    -0.082 A 
ATOM      7  C5  PXY d   1      -0.917  -1.521  -0.198  0.00  0.00     0.003 A 
ATOM      8  C6  PXY d   1      -0.538  -0.852   0.962  0.00  0.00     0.003 A 
ENDROOT
TORSDOF 0
ENDMDL
