MODEL 1
REMARK minimizedAffinity 3.20693135
REMARK minimizedRMSD -1
REMARK  0 active torsions:
REMARK  status: ('A' for Active; 'I' for Inactive)
ROOT
ATOM      1  C4' PXY d   1       3.458   1.773   1.719  0.00  0.00     0.077 C 
ATOM      2  C1' PXY d   1      -0.962  -1.078  -0.679  0.00  0.00     0.077 C 
ATOM      3  C1  PXY d   1       0.189  -0.321  -0.045  0.00  0.00    -0.082 A 
ATOM      4  C2  PXY d   1       1.404  -0.429  -0.557  0.00  0.00     0.003 A 
ATOM      5  C3  PXY d   1       2.462   0.222   0.022  0.00  0.00     0.003 A 
ATOM      6  C4  PXY d   1       2.265   1.035   1.106  0.00  0.00    -0.082 A 
ATOM      7  C5  PXY d   1       1.026   1.159   1.629  0.00  0.00     0.003 A 
ATOM      8  C6  PXY d   1      -0.027   0.457   1.050  0.00  0.00     0.003 A 
ENDROOT
TORSDOF 0
ENDMDL
