MODEL 1
REMARK minimizedAffinity -4.26990223
REMARK minimizedRMSD -1
REMARK  0 active torsions:
REMARK  status: ('A' for Active; 'I' for Inactive)
ROOT
ATOM      1  C4' PXY d   1      -0.913  -1.524  -1.671  0.00  0.00     0.077 C 
ATOM      2  C1' PXY d   1       0.517   1.649   2.945  0.00  0.00     0.077 C 
ATOM      3  C1  PXY d   1       0.146   0.826   1.727  0.00  0.00    -0.082 A 
ATOM      4  C2  PXY d   1      -0.797  -0.097   1.823  0.00  0.00     0.003 A 
ATOM      5  C3  PXY d   1      -1.122  -0.872   0.739  0.00  0.00     0.003 A 
ATOM      6  C4  PXY d   1      -0.513  -0.663  -0.469  0.00  0.00    -0.082 A 
ATOM      7  C5  PXY d   1       0.443   0.284  -0.578  0.00  0.00     0.003 A 
ATOM      8  C6  PXY d   1       0.787   1.031   0.544  0.00  0.00     0.003 A 
ENDROOT
TORSDOF 0
ENDMDL
