MODEL 1
REMARK minimizedAffinity -3.89978933
REMARK minimizedRMSD -1
REMARK  0 active torsions:
REMARK  status: ('A' for Active; 'I' for Inactive)
ROOT
ATOM      1  C4' PXY d   1       1.114   2.817   0.904  0.00  0.00     0.077 C 
ATOM      2  C1' PXY d   1      -0.915  -2.184  -1.167  0.00  0.00     0.077 C 
ATOM      3  C1  PXY d   1      -0.371  -0.876  -0.628  0.00  0.00    -0.082 A 
ATOM      4  C2  PXY d   1      -1.026  -0.241   0.330  0.00  0.00     0.003 A 
ATOM      5  C3  PXY d   1      -0.565   0.959   0.807  0.00  0.00     0.003 A 
ATOM      6  C4  PXY d   1       0.607   1.488   0.336  0.00  0.00    -0.082 A 
ATOM      7  C5  PXY d   1       1.286   0.841  -0.634  0.00  0.00     0.003 A 
ATOM      8  C6  PXY d   1       0.780  -0.356  -1.134  0.00  0.00     0.003 A 
ENDROOT
TORSDOF 0
ENDMDL
