MODEL 1
REMARK minimizedAffinity -2.93833041
REMARK minimizedRMSD -1
REMARK  0 active torsions:
REMARK  status: ('A' for Active; 'I' for Inactive)
ROOT
ATOM      1  C4' PXY d   1      -0.806  -1.072  -1.929  0.00  0.00     0.077 C 
ATOM      2  C1' PXY d   1       0.503   2.152   2.687  0.00  0.00     0.077 C 
ATOM      3  C1  PXY d   1       0.158   1.296   1.484  0.00  0.00    -0.082 A 
ATOM      4  C2  PXY d   1       0.625   1.626   0.291  0.00  0.00     0.003 A 
ATOM      5  C3  PXY d   1       0.296   0.882  -0.812  0.00  0.00     0.003 A 
ATOM      6  C4  PXY d   1      -0.475  -0.243  -0.685  0.00  0.00    -0.082 A 
ATOM      7  C5  PXY d   1      -0.946  -0.592   0.531  0.00  0.00     0.003 A 
ATOM      8  C6  PXY d   1      -0.635   0.200   1.632  0.00  0.00     0.003 A 
ENDROOT
TORSDOF 0
ENDMDL
