MODEL 1
REMARK minimizedAffinity -4.65186357
REMARK minimizedRMSD -1
REMARK  0 active torsions:
REMARK  status: ('A' for Active; 'I' for Inactive)
ROOT
ATOM      1  C4' PXY d   1      -1.608  -1.325  -1.680  0.00  0.00     0.077 C 
ATOM      2  C1' PXY d   1       1.504   2.254   1.625  0.00  0.00     0.077 C 
ATOM      3  C1  PXY d   1       0.694   1.320   0.748  0.00  0.00    -0.082 A 
ATOM      4  C2  PXY d   1      -0.488   0.895   1.162  0.00  0.00     0.003 A 
ATOM      5  C3  PXY d   1      -1.220   0.025   0.395  0.00  0.00     0.003 A 
ATOM      6  C4  PXY d   1      -0.760  -0.373  -0.831  0.00  0.00    -0.082 A 
ATOM      7  C5  PXY d   1       0.441   0.064  -1.265  0.00  0.00     0.003 A 
ATOM      8  C6  PXY d   1       1.187   0.915  -0.454  0.00  0.00     0.003 A 
ENDROOT
TORSDOF 0
ENDMDL
