MODEL 1
REMARK minimizedAffinity -4.19688749
REMARK minimizedRMSD -1
REMARK  0 active torsions:
REMARK  status: ('A' for Active; 'I' for Inactive)
ROOT
ATOM      1  C4' PXY d   1      -1.410  -0.897  -3.487  0.00  0.00     0.077 C 
ATOM      2  C1' PXY d   1      -5.399  -3.586  -0.281  0.00  0.00     0.077 C 
ATOM      3  C1  PXY d   1      -4.345  -2.879  -1.111  0.00  0.00    -0.082 A 
ATOM      4  C2  PXY d   1      -4.684  -2.326  -2.265  0.00  0.00     0.003 A 
ATOM      5  C3  PXY d   1      -3.737  -1.711  -3.043  0.00  0.00     0.003 A 
ATOM      6  C4  PXY d   1      -2.442  -1.613  -2.611  0.00  0.00    -0.082 A 
ATOM      7  C5  PXY d   1      -2.091  -2.165  -1.430  0.00  0.00     0.003 A 
ATOM      8  C6  PXY d   1      -3.058  -2.821  -0.674  0.00  0.00     0.003 A 
ENDROOT
TORSDOF 0
ENDMDL
