MODEL 1
REMARK minimizedAffinity -5.73713779
REMARK minimizedRMSD -1
REMARK  0 active torsions:
REMARK  status: ('A' for Active; 'I' for Inactive)
ROOT
ATOM      1  C4' PXY d   1       2.210   1.071  -0.127  0.00  0.00     0.077 C 
ATOM      2  C1' PXY d   1      -2.588   0.828   3.088  0.00  0.00     0.077 C 
ATOM      3  C1  PXY d   1      -1.328   0.905   2.248  0.00  0.00    -0.082 A 
ATOM      4  C2  PXY d   1      -1.157   0.056   1.247  0.00  0.00     0.003 A 
ATOM      5  C3  PXY d   1      -0.009   0.090   0.498  0.00  0.00     0.003 A 
ATOM      6  C4  PXY d   1       0.950   1.037   0.742  0.00  0.00    -0.082 A 
ATOM      7  C5  PXY d   1       0.777   1.913   1.754  0.00  0.00     0.003 A 
ATOM      8  C6  PXY d   1      -0.376   1.835   2.529  0.00  0.00     0.003 A 
ENDROOT
TORSDOF 0
ENDMDL
