MODEL 1
REMARK minimizedAffinity -1.13637781
REMARK minimizedRMSD -1
REMARK  0 active torsions:
REMARK  status: ('A' for Active; 'I' for Inactive)
ROOT
ATOM      1  C4' PXY d   1      -0.301  -0.113   0.219  0.00  0.00     0.077 C 
ATOM      2  C1' PXY d   1      -3.057  -2.439  -4.299  0.00  0.00     0.077 C 
ATOM      3  C1  PXY d   1      -2.342  -1.836  -3.106  0.00  0.00    -0.082 A 
ATOM      4  C2  PXY d   1      -1.750  -0.658  -3.224  0.00  0.00     0.003 A 
ATOM      5  C3  PXY d   1      -1.071  -0.113  -2.165  0.00  0.00     0.003 A 
ATOM      6  C4  PXY d   1      -1.043  -0.756  -0.956  0.00  0.00    -0.082 A 
ATOM      7  C5  PXY d   1      -1.653  -1.952  -0.824  0.00  0.00     0.003 A 
ATOM      8  C6  PXY d   1      -2.302  -2.508  -1.923  0.00  0.00     0.003 A 
ENDROOT
TORSDOF 0
ENDMDL
