MODEL 1
REMARK minimizedAffinity -4.13095331
REMARK minimizedRMSD -1
REMARK  0 active torsions:
REMARK  status: ('A' for Active; 'I' for Inactive)
ROOT
ATOM      1  C4' PXY d   1      -1.512  -2.026  -1.637  0.00  0.00     0.077 C 
ATOM      2  C1' PXY d   1       0.430   1.833   2.204  0.00  0.00     0.077 C 
ATOM      3  C1  PXY d   1      -0.072   0.826   1.188  0.00  0.00    -0.082 A 
ATOM      4  C2  PXY d   1      -1.263   0.273   1.348  0.00  0.00     0.003 A 
ATOM      5  C3  PXY d   1      -1.718  -0.664   0.456  0.00  0.00     0.003 A 
ATOM      6  C4  PXY d   1      -0.969  -0.997  -0.641  0.00  0.00    -0.082 A 
ATOM      7  C5  PXY d   1       0.243  -0.429  -0.817  0.00  0.00     0.003 A 
ATOM      8  C6  PXY d   1       0.704   0.489   0.122  0.00  0.00     0.003 A 
ENDROOT
TORSDOF 0
ENDMDL
