MODEL 1
REMARK minimizedAffinity -4.06763935
REMARK minimizedRMSD -1
REMARK  0 active torsions:
REMARK  status: ('A' for Active; 'I' for Inactive)
ROOT
ATOM      1  C4' PXY d   1       1.357   3.301   1.042  0.00  0.00     0.077 C 
ATOM      2  C1' PXY d   1      -1.282  -1.631  -0.418  0.00  0.00     0.077 C 
ATOM      3  C1  PXY d   1      -0.601  -0.334  -0.029  0.00  0.00    -0.082 A 
ATOM      4  C2  PXY d   1       0.438   0.095  -0.728  0.00  0.00     0.003 A 
ATOM      5  C3  PXY d   1       1.085   1.250  -0.371  0.00  0.00     0.003 A 
ATOM      6  C4  PXY d   1       0.632   2.001   0.680  0.00  0.00    -0.082 A 
ATOM      7  C5  PXY d   1      -0.433   1.576   1.391  0.00  0.00     0.003 A 
ATOM      8  C6  PXY d   1      -1.051   0.380   1.038  0.00  0.00     0.003 A 
ENDROOT
TORSDOF 0
ENDMDL
