MODEL 1
REMARK minimizedAffinity -4.09352493
REMARK minimizedRMSD -1
REMARK  0 active torsions:
REMARK  status: ('A' for Active; 'I' for Inactive)
ROOT
ATOM      1  C4' PXY d   1       1.665   2.822   1.071  0.00  0.00     0.077 C 
ATOM      2  C1' PXY d   1      -0.707  -2.149  -0.684  0.00  0.00     0.077 C 
ATOM      3  C1  PXY d   1      -0.073  -0.849  -0.227  0.00  0.00    -0.082 A 
ATOM      4  C2  PXY d   1      -0.657  -0.134   0.721  0.00  0.00     0.003 A 
ATOM      5  C3  PXY d   1      -0.114   1.059   1.123  0.00  0.00     0.003 A 
ATOM      6  C4  PXY d   1       1.066   1.500   0.586  0.00  0.00    -0.082 A 
ATOM      7  C5  PXY d   1       1.673   0.771  -0.374  0.00  0.00     0.003 A 
ATOM      8  C6  PXY d   1       1.085  -0.418  -0.798  0.00  0.00     0.003 A 
ENDROOT
TORSDOF 0
ENDMDL
