MODEL 1
REMARK minimizedAffinity -3.59133983
REMARK minimizedRMSD -1
REMARK  0 active torsions:
REMARK  status: ('A' for Active; 'I' for Inactive)
ROOT
ATOM      1  C4' PXY d   1      -0.785  -0.964  -0.800  0.00  0.00     0.077 C 
ATOM      2  C1' PXY d   1       3.449   2.440   1.177  0.00  0.00     0.077 C 
ATOM      3  C1  PXY d   1       2.331   1.550   0.668  0.00  0.00    -0.082 A 
ATOM      4  C2  PXY d   1       2.615   0.535  -0.130  0.00  0.00     0.003 A 
ATOM      5  C3  PXY d   1       1.613  -0.260  -0.625  0.00  0.00     0.003 A 
ATOM      6  C4  PXY d   1       0.313  -0.045  -0.255  0.00  0.00    -0.082 A 
ATOM      7  C5  PXY d   1       0.016   0.983   0.568  0.00  0.00     0.003 A 
ATOM      8  C6  PXY d   1       1.043   1.803   1.026  0.00  0.00     0.003 A 
ENDROOT
TORSDOF 0
ENDMDL
