MODEL 1
REMARK minimizedAffinity -3.43756318
REMARK minimizedRMSD -1
REMARK  0 active torsions:
REMARK  status: ('A' for Active; 'I' for Inactive)
ROOT
ATOM      1  C4' PXY d   1       3.626   1.163  -0.431  0.00  0.00     0.077 C 
ATOM      2  C1' PXY d   1      -1.592   1.534   2.030  0.00  0.00     0.077 C 
ATOM      3  C1  PXY d   1      -0.220   1.448   1.390  0.00  0.00    -0.082 A 
ATOM      4  C2  PXY d   1      -0.035   0.658   0.345  0.00  0.00     0.003 A 
ATOM      5  C3  PXY d   1       1.206   0.544  -0.227  0.00  0.00     0.003 A 
ATOM      6  C4  PXY d   1       2.256   1.288   0.242  0.00  0.00    -0.082 A 
ATOM      7  C5  PXY d   1       2.072   2.104   1.301  0.00  0.00     0.003 A 
ATOM      8  C6  PXY d   1       0.814   2.174   1.893  0.00  0.00     0.003 A 
ENDROOT
TORSDOF 0
ENDMDL
