MODEL 1
REMARK minimizedAffinity -5.39538002
REMARK minimizedRMSD -1
REMARK  0 active torsions:
REMARK  status: ('A' for Active; 'I' for Inactive)
ROOT
ATOM      1  C4' PXY d   1       3.574   1.738  -0.282  0.00  0.00     0.077 C 
ATOM      2  C1' PXY d   1      -1.440  -0.102   1.929  0.00  0.00     0.077 C 
ATOM      3  C1  PXY d   1      -0.128   0.392   1.354  0.00  0.00    -0.082 A 
ATOM      4  C2  PXY d   1       0.402  -0.223   0.309  0.00  0.00     0.003 A 
ATOM      5  C3  PXY d   1       1.605   0.191  -0.203  0.00  0.00     0.003 A 
ATOM      6  C4  PXY d   1       2.245   1.279   0.326  0.00  0.00    -0.082 A 
ATOM      7  C5  PXY d   1       1.706   1.919   1.385  0.00  0.00     0.003 A 
ATOM      8  C6  PXY d   1       0.505   1.458   1.916  0.00  0.00     0.003 A 
ENDROOT
TORSDOF 0
ENDMDL
