MODEL 1
REMARK minimizedAffinity -1.28567994
REMARK minimizedRMSD -1
REMARK  0 active torsions:
REMARK  status: ('A' for Active; 'I' for Inactive)
ROOT
ATOM      1  C4' PXY d   1       2.727   0.696  -0.848  0.00  0.00     0.077 C 
ATOM      2  C1' PXY d   1      -1.917   0.509   2.589  0.00  0.00     0.077 C 
ATOM      3  C1  PXY d   1      -0.702   0.546   1.683  0.00  0.00    -0.082 A 
ATOM      4  C2  PXY d   1       0.296   1.369   1.961  0.00  0.00     0.003 A 
ATOM      5  C3  PXY d   1       1.388   1.438   1.135  0.00  0.00     0.003 A 
ATOM      6  C4  PXY d   1       1.484   0.618   0.043  0.00  0.00    -0.082 A 
ATOM      7  C5  PXY d   1       0.475  -0.232  -0.241  0.00  0.00     0.003 A 
ATOM      8  C6  PXY d   1      -0.643  -0.258   0.587  0.00  0.00     0.003 A 
ENDROOT
TORSDOF 0
ENDMDL
