MODEL 1
REMARK minimizedAffinity 0.683243692
REMARK minimizedRMSD -1
REMARK  0 active torsions:
REMARK  status: ('A' for Active; 'I' for Inactive)
ROOT
ATOM      1  C4' PXY d   1      -3.447  -1.282  -2.984  0.00  0.00     0.077 C 
ATOM      2  C1' PXY d   1       1.761  -0.512  -0.596  0.00  0.00     0.077 C 
ATOM      3  C1  PXY d   1       0.397  -0.705  -1.231  0.00  0.00    -0.082 A 
ATOM      4  C2  PXY d   1      -0.583  -1.244  -0.525  0.00  0.00     0.003 A 
ATOM      5  C3  PXY d   1      -1.813  -1.455  -1.093  0.00  0.00     0.003 A 
ATOM      6  C4  PXY d   1      -2.057  -1.060  -2.381  0.00  0.00    -0.082 A 
ATOM      7  C5  PXY d   1      -1.066  -0.500  -3.105  0.00  0.00     0.003 A 
ATOM      8  C6  PXY d   1       0.187  -0.332  -2.523  0.00  0.00     0.003 A 
ENDROOT
TORSDOF 0
ENDMDL
