MODEL 1
REMARK minimizedAffinity -4.01365185
REMARK minimizedRMSD -1
REMARK  0 active torsions:
REMARK  status: ('A' for Active; 'I' for Inactive)
ROOT
ATOM      1  C4' PXY d   1       1.297   3.187   1.149  0.00  0.00     0.077 C 
ATOM      2  C1' PXY d   1       0.438  -2.110  -0.999  0.00  0.00     0.077 C 
ATOM      3  C1  PXY d   1       0.676  -0.722  -0.437  0.00  0.00    -0.082 A 
ATOM      4  C2  PXY d   1      -0.221  -0.181   0.370  0.00  0.00     0.003 A 
ATOM      5  C3  PXY d   1      -0.037   1.086   0.861  0.00  0.00     0.003 A 
ATOM      6  C4  PXY d   1       1.103   1.785   0.566  0.00  0.00    -0.082 A 
ATOM      7  C5  PXY d   1       2.028   1.235  -0.248  0.00  0.00     0.003 A 
ATOM      8  C6  PXY d   1       1.803  -0.036  -0.769  0.00  0.00     0.003 A 
ENDROOT
TORSDOF 0
ENDMDL
