MODEL 1
REMARK minimizedAffinity -3.36228895
REMARK minimizedRMSD -1
REMARK  0 active torsions:
REMARK  status: ('A' for Active; 'I' for Inactive)
ROOT
ATOM      1  C4' PXY d   1      -0.084  -1.649  -0.530  0.00  0.00     0.077 C 
ATOM      2  C1' PXY d   1       1.710   3.581   1.155  0.00  0.00     0.077 C 
ATOM      3  C1  PXY d   1       1.243   2.212   0.701  0.00  0.00    -0.082 A 
ATOM      4  C2  PXY d   1       0.332   1.564   1.409  0.00  0.00     0.003 A 
ATOM      5  C3  PXY d   1      -0.078   0.312   1.030  0.00  0.00     0.003 A 
ATOM      6  C4  PXY d   1       0.410  -0.261  -0.114  0.00  0.00    -0.082 A 
ATOM      7  C5  PXY d   1       1.332   0.399  -0.847  0.00  0.00     0.003 A 
ATOM      8  C6  PXY d   1       1.765   1.652  -0.423  0.00  0.00     0.003 A 
ENDROOT
TORSDOF 0
ENDMDL
