MODEL 1
REMARK minimizedAffinity -3.23068213
REMARK minimizedRMSD -1
REMARK  0 active torsions:
REMARK  status: ('A' for Active; 'I' for Inactive)
ROOT
ATOM      1  C4' PXY d   1      -1.007  -1.369  -1.759  0.00  0.00     0.077 C 
ATOM      2  C1' PXY d   1       0.548   2.106   2.590  0.00  0.00     0.077 C 
ATOM      3  C1  PXY d   1       0.148   1.201   1.442  0.00  0.00    -0.082 A 
ATOM      4  C2  PXY d   1      -1.005   0.555   1.489  0.00  0.00     0.003 A 
ATOM      5  C3  PXY d   1      -1.368  -0.292   0.474  0.00  0.00     0.003 A 
ATOM      6  C4  PXY d   1      -0.566  -0.438  -0.626  0.00  0.00    -0.082 A 
ATOM      7  C5  PXY d   1       0.608   0.226  -0.687  0.00  0.00     0.003 A 
ATOM      8  C6  PXY d   1       0.977   1.049   0.373  0.00  0.00     0.003 A 
ENDROOT
TORSDOF 0
ENDMDL
