MODEL 1
REMARK minimizedAffinity -1.61598897
REMARK minimizedRMSD -1
REMARK  1 active torsions:
REMARK  status: ('A' for Active; 'I' for Inactive)
REMARK    1  A    between atoms: C1_2  and  C2_3 
ROOT
ATOM      1  C2  UNL d   1      -0.313   1.464   1.257  0.00  0.00    -0.076 A 
ATOM      2  C3  UNL d   1      -1.604   1.834   1.672  0.00  0.00     0.004 A 
ATOM      3  C4  UNL d   1      -2.699   1.698   0.820  0.00  0.00    -0.003 A 
ATOM      4  C5  UNL d   1      -2.520   1.188  -0.461  0.00  0.00     0.000 A 
ATOM      5  C6  UNL d   1      -1.250   0.799  -0.884  0.00  0.00     0.000 A 
ATOM      6  C7  UNL d   1      -0.138   0.914  -0.032  0.00  0.00    -0.073 A 
ATOM      7  C8  UNL d   1       1.210   0.485  -0.542  0.00  0.00     0.078 C 
ENDROOT
BRANCH   1   8
ATOM      8  C1  UNL d   1       0.840   1.660   2.214  0.00  0.00     0.053 C 
ATOM      9  C   UNL d   1       1.280   0.360   2.871  0.00  0.00     0.018 C 
ENDBRANCH   1   8
TORSDOF 1
ENDMDL
