MODEL 1
REMARK minimizedAffinity 8.60971642
REMARK minimizedRMSD -1
REMARK  1 active torsions:
REMARK  status: ('A' for Active; 'I' for Inactive)
REMARK    1  A    between atoms: C1_2  and  C2_3 
ROOT
ATOM      1  C2  UNL d   1      -0.020   2.701   0.503  0.00  0.00    -0.076 A 
ATOM      2  C3  UNL d   1      -0.312   4.076   0.455  0.00  0.00     0.004 A 
ATOM      3  C4  UNL d   1      -0.674   4.691  -0.742  0.00  0.00    -0.003 A 
ATOM      4  C5  UNL d   1      -0.752   3.941  -1.911  0.00  0.00     0.000 A 
ATOM      5  C6  UNL d   1      -0.483   2.573  -1.878  0.00  0.00     0.000 A 
ATOM      6  C7  UNL d   1      -0.132   1.934  -0.676  0.00  0.00    -0.073 A 
ATOM      7  C8  UNL d   1       0.154   0.458  -0.700  0.00  0.00     0.078 C 
ENDROOT
BRANCH   1   8
ATOM      8  C1  UNL d   1       0.394   2.095   1.825  0.00  0.00     0.053 C 
ATOM      9  C   UNL d   1      -0.794   1.620   2.646  0.00  0.00     0.018 C 
ENDBRANCH   1   8
TORSDOF 1
ENDMDL
