MODEL 1
REMARK minimizedAffinity 10.7169571
REMARK minimizedRMSD -1
REMARK  1 active torsions:
REMARK  status: ('A' for Active; 'I' for Inactive)
REMARK    1  A    between atoms: C1_2  and  C2_3 
ROOT
ATOM      1  C2  UNL d   1      -1.659   2.536   0.649  0.00  0.00    -0.076 A 
ATOM      2  C3  UNL d   1      -2.131   2.298  -0.653  0.00  0.00     0.004 A 
ATOM      3  C4  UNL d   1      -1.285   1.804  -1.644  0.00  0.00    -0.003 A 
ATOM      4  C5  UNL d   1       0.048   1.540  -1.349  0.00  0.00     0.000 A 
ATOM      5  C6  UNL d   1       0.529   1.754  -0.057  0.00  0.00     0.000 A 
ATOM      6  C7  UNL d   1      -0.315   2.236   0.957  0.00  0.00    -0.073 A 
ATOM      7  C8  UNL d   1       0.258   2.453   2.331  0.00  0.00     0.078 C 
ENDROOT
BRANCH   1   8
ATOM      8  C1  UNL d   1      -2.617   3.097   1.675  0.00  0.00     0.053 C 
ATOM      9  C   UNL d   1      -2.763   4.608   1.571  0.00  0.00     0.018 C 
ENDBRANCH   1   8
TORSDOF 1
ENDMDL
