MODEL 1
REMARK minimizedAffinity 7.99805021
REMARK minimizedRMSD -1
REMARK  1 active torsions:
REMARK  status: ('A' for Active; 'I' for Inactive)
REMARK    1  A    between atoms: C1_2  and  C2_3 
ROOT
ATOM      1  C2  UNL d   1       2.162  -3.700  -3.306  0.00  0.00    -0.076 A 
ATOM      2  C3  UNL d   1       2.037  -2.307  -3.163  0.00  0.00     0.004 A 
ATOM      3  C4  UNL d   1       1.967  -1.719  -1.901  0.00  0.00    -0.003 A 
ATOM      4  C5  UNL d   1       2.021  -2.514  -0.761  0.00  0.00     0.000 A 
ATOM      5  C6  UNL d   1       2.162  -3.896  -0.885  0.00  0.00     0.000 A 
ATOM      6  C7  UNL d   1       2.251  -4.503  -2.149  0.00  0.00    -0.073 A 
ATOM      7  C8  UNL d   1       2.396  -5.999  -2.223  0.00  0.00     0.078 C 
ENDROOT
BRANCH   1   8
ATOM      8  C1  UNL d   1       2.206  -4.283  -4.700  0.00  0.00     0.053 C 
ATOM      9  C   UNL d   1       0.885  -4.131  -5.438  0.00  0.00     0.018 C 
ENDBRANCH   1   8
TORSDOF 1
ENDMDL
