MODEL 1
REMARK minimizedAffinity 5.28673315
REMARK minimizedRMSD -1
REMARK  1 active torsions:
REMARK  status: ('A' for Active; 'I' for Inactive)
REMARK    1  A    between atoms: C1_2  and  C2_3 
ROOT
ATOM      1  C2  UNL d   1      -0.119   2.250   0.941  0.00  0.00    -0.076 A 
ATOM      2  C3  UNL d   1       0.531   1.756  -0.204  0.00  0.00     0.004 A 
ATOM      3  C4  UNL d   1      -0.114   1.728  -1.439  0.00  0.00    -0.003 A 
ATOM      4  C5  UNL d   1      -1.419   2.196  -1.551  0.00  0.00     0.000 A 
ATOM      5  C6  UNL d   1      -2.072   2.705  -0.429  0.00  0.00     0.000 A 
ATOM      6  C7  UNL d   1      -1.431   2.755   0.820  0.00  0.00    -0.073 A 
ATOM      7  C8  UNL d   1      -2.185   3.310   1.997  0.00  0.00     0.078 C 
ENDROOT
BRANCH   1   8
ATOM      8  C1  UNL d   1       0.621   2.230   2.259  0.00  0.00     0.053 C 
ATOM      9  C   UNL d   1       1.833   3.148   2.261  0.00  0.00     0.018 C 
ENDBRANCH   1   8
TORSDOF 1
ENDMDL
