MODEL 1
REMARK minimizedAffinity 11.5108023
REMARK minimizedRMSD -1
REMARK  0 active torsions:
REMARK  status: ('A' for Active; 'I' for Inactive)
ROOT
ATOM      1  O1  BZF d   1      -2.597  -4.255   1.085  0.00  0.00    -0.204 OA
ATOM      2  C2  BZF d   1      -1.334  -3.843   0.705  0.00  0.00     0.174 A 
ATOM      3  C3  BZF d   1      -1.408  -2.836  -0.189  0.00  0.00    -0.012 A 
ATOM      4  C3A BZF d   1      -2.803  -2.542  -0.311  0.00  0.00    -0.107 A 
ATOM      5  C4  BZF d   1      -3.511  -1.628  -1.038  0.00  0.00     0.055 A 
ATOM      6  C5  BZF d   1      -4.868  -1.651  -0.987  0.00  0.00    -0.016 A 
ATOM      7  C6  BZF d   1      -5.551  -2.576  -0.224  0.00  0.00     0.022 A 
ATOM      8  C7  BZF d   1      -4.893  -3.499   0.519  0.00  0.00     0.029 A 
ATOM      9  C7A BZF d   1      -3.520  -3.458   0.495  0.00  0.00     0.058 A 
ENDROOT
TORSDOF 0
ENDMDL
