MODEL 1
REMARK minimizedAffinity 1.43045712
REMARK minimizedRMSD -1
REMARK  0 active torsions:
REMARK  status: ('A' for Active; 'I' for Inactive)
ROOT
ATOM      1  O1  BZF d   1      -5.970   0.827   4.819  0.00  0.00    -0.204 OA
ATOM      2  C2  BZF d   1      -5.954  -0.419   5.415  0.00  0.00     0.174 A 
ATOM      3  C3  BZF d   1      -5.999  -1.394   4.485  0.00  0.00    -0.012 A 
ATOM      4  C3A BZF d   1      -5.951  -0.716   3.226  0.00  0.00    -0.107 A 
ATOM      5  C4  BZF d   1      -5.948  -1.144   1.929  0.00  0.00     0.055 A 
ATOM      6  C5  BZF d   1      -5.970  -0.222   0.930  0.00  0.00    -0.016 A 
ATOM      7  C6  BZF d   1      -6.000   1.132   1.191  0.00  0.00     0.022 A 
ATOM      8  C7  BZF d   1      -5.999   1.604   2.462  0.00  0.00     0.029 A 
ATOM      9  C7A BZF d   1      -5.944   0.676   3.473  0.00  0.00     0.058 A 
ENDROOT
TORSDOF 0
ENDMDL
