MODEL 1
REMARK minimizedAffinity 11.8320303
REMARK minimizedRMSD -1
REMARK  0 active torsions:
REMARK  status: ('A' for Active; 'I' for Inactive)
ROOT
ATOM      1  O1  BZF d   1      -2.233  -4.690   0.545  0.00  0.00    -0.204 OA
ATOM      2  C2  BZF d   1      -2.544  -3.376   0.252  0.00  0.00     0.174 A 
ATOM      3  C3  BZF d   1      -1.426  -2.663   0.010  0.00  0.00    -0.012 A 
ATOM      4  C3A BZF d   1      -0.354  -3.609   0.070  0.00  0.00    -0.107 A 
ATOM      5  C4  BZF d   1       0.997  -3.510  -0.101  0.00  0.00     0.055 A 
ATOM      6  C5  BZF d   1       1.770  -4.610   0.098  0.00  0.00    -0.016 A 
ATOM      7  C6  BZF d   1       1.227  -5.821   0.473  0.00  0.00     0.022 A 
ATOM      8  C7  BZF d   1      -0.108  -5.970   0.650  0.00  0.00     0.029 A 
ATOM      9  C7A BZF d   1      -0.896  -4.868   0.417  0.00  0.00     0.058 A 
ENDROOT
TORSDOF 0
ENDMDL
