MODEL 1
REMARK minimizedAffinity 1.50235546
REMARK minimizedRMSD -1
REMARK  0 active torsions:
REMARK  status: ('A' for Active; 'I' for Inactive)
ROOT
ATOM      1  O1  BZF d   1      -2.227  -3.966  -0.154  0.00  0.00    -0.204 OA
ATOM      2  C2  BZF d   1      -2.935  -2.883   0.330  0.00  0.00     0.174 A 
ATOM      3  C3  BZF d   1      -2.101  -1.966   0.862  0.00  0.00    -0.012 A 
ATOM      4  C3A BZF d   1      -0.784  -2.468   0.617  0.00  0.00    -0.107 A 
ATOM      5  C4  BZF d   1       0.467  -1.997   0.895  0.00  0.00     0.055 A 
ATOM      6  C5  BZF d   1       1.546  -2.764   0.587  0.00  0.00    -0.016 A 
ATOM      7  C6  BZF d   1       1.410  -4.008   0.006  0.00  0.00     0.022 A 
ATOM      8  C7  BZF d   1       0.189  -4.516  -0.293  0.00  0.00     0.029 A 
ATOM      9  C7A BZF d   1      -0.901  -3.729  -0.013  0.00  0.00     0.058 A 
ENDROOT
TORSDOF 0
ENDMDL
