MODEL 1
REMARK minimizedAffinity 6.2912097
REMARK minimizedRMSD -1
REMARK  0 active torsions:
REMARK  status: ('A' for Active; 'I' for Inactive)
ROOT
ATOM      1  O1  BZF d   1      -4.553  -3.456   0.686  0.00  0.00    -0.204 OA
ATOM      2  C2  BZF d   1      -5.278  -2.494   0.010  0.00  0.00     0.174 A 
ATOM      3  C3  BZF d   1      -4.459  -1.680  -0.686  0.00  0.00    -0.012 A 
ATOM      4  C3A BZF d   1      -3.147  -2.219  -0.503  0.00  0.00    -0.107 A 
ATOM      5  C4  BZF d   1      -1.911  -1.859  -0.960  0.00  0.00     0.055 A 
ATOM      6  C5  BZF d   1      -0.822  -2.552  -0.537  0.00  0.00    -0.016 A 
ATOM      7  C6  BZF d   1      -0.931  -3.607   0.346  0.00  0.00     0.022 A 
ATOM      8  C7  BZF d   1      -2.136  -4.005   0.822  0.00  0.00     0.029 A 
ATOM      9  C7A BZF d   1      -3.242  -3.327   0.371  0.00  0.00     0.058 A 
ENDROOT
TORSDOF 0
ENDMDL
