MODEL 1
REMARK minimizedAffinity 9.58929634
REMARK minimizedRMSD -1
REMARK  0 active torsions:
REMARK  status: ('A' for Active; 'I' for Inactive)
ROOT
ATOM      1  O1  BZF d   1      -0.810  -3.891   3.431  0.00  0.00    -0.204 OA
ATOM      2  C2  BZF d   1      -1.327  -2.733   3.980  0.00  0.00     0.174 A 
ATOM      3  C3  BZF d   1      -1.766  -1.901   3.014  0.00  0.00    -0.012 A 
ATOM      4  C3A BZF d   1      -1.593  -2.620   1.789  0.00  0.00    -0.107 A 
ATOM      5  C4  BZF d   1      -1.861  -2.328   0.483  0.00  0.00     0.055 A 
ATOM      6  C5  BZF d   1      -1.505  -3.218  -0.480  0.00  0.00    -0.016 A 
ATOM      7  C6  BZF d   1      -0.875  -4.407  -0.173  0.00  0.00     0.022 A 
ATOM      8  C7  BZF d   1      -0.593  -4.743   1.110  0.00  0.00     0.029 A 
ATOM      9  C7A BZF d   1      -0.982  -3.860   2.087  0.00  0.00     0.058 A 
ENDROOT
TORSDOF 0
ENDMDL
