MODEL 1
REMARK minimizedAffinity 8.32878685
REMARK minimizedRMSD -1
REMARK  0 active torsions:
REMARK  status: ('A' for Active; 'I' for Inactive)
ROOT
ATOM      1  O1  BZF d   1      -0.465  -2.759  -0.209  0.00  0.00    -0.204 OA
ATOM      2  C2  BZF d   1      -1.739  -3.251   0.001  0.00  0.00     0.174 A 
ATOM      3  C3  BZF d   1      -1.698  -4.549   0.363  0.00  0.00    -0.012 A 
ATOM      4  C3A BZF d   1      -0.306  -4.866   0.470  0.00  0.00    -0.107 A 
ATOM      5  C4  BZF d   1       0.375  -5.999   0.811  0.00  0.00     0.055 A 
ATOM      6  C5  BZF d   1       1.732  -5.998   0.747  0.00  0.00    -0.016 A 
ATOM      7  C6  BZF d   1       2.439  -4.884   0.343  0.00  0.00     0.022 A 
ATOM      8  C7  BZF d   1       1.808  -3.735   0.000  0.00  0.00     0.029 A 
ATOM      9  C7A BZF d   1       0.437  -3.723   0.095  0.00  0.00     0.058 A 
ENDROOT
TORSDOF 0
ENDMDL
