MODEL 1
REMARK minimizedAffinity 4.96657515
REMARK minimizedRMSD -1
REMARK  0 active torsions:
REMARK  status: ('A' for Active; 'I' for Inactive)
ROOT
ATOM      1  O1  BZF d   1      -2.700   1.440  -0.789  0.00  0.00    -0.204 OA
ATOM      2  C2  BZF d   1      -4.042   1.466  -0.465  0.00  0.00     0.174 A 
ATOM      3  C3  BZF d   1      -4.735   0.593  -1.224  0.00  0.00    -0.012 A 
ATOM      4  C3A BZF d   1      -3.751  -0.083  -2.013  0.00  0.00    -0.107 A 
ATOM      5  C4  BZF d   1      -3.818  -1.075  -2.949  0.00  0.00     0.055 A 
ATOM      6  C5  BZF d   1      -2.681  -1.461  -3.585  0.00  0.00    -0.016 A 
ATOM      7  C6  BZF d   1      -1.462  -0.873  -3.314  0.00  0.00     0.022 A 
ATOM      8  C7  BZF d   1      -1.345   0.111  -2.389  0.00  0.00     0.029 A 
ATOM      9  C7A BZF d   1      -2.487   0.480  -1.721  0.00  0.00     0.058 A 
ENDROOT
TORSDOF 0
ENDMDL
