MODEL 1
REMARK minimizedAffinity 5.57082415
REMARK minimizedRMSD -1
REMARK  0 active torsions:
REMARK  status: ('A' for Active; 'I' for Inactive)
ROOT
ATOM      1  O1  BZF d   1      -3.094  -2.805  -0.150  0.00  0.00    -0.204 OA
ATOM      2  C2  BZF d   1      -1.755  -2.466  -0.101  0.00  0.00     0.174 A 
ATOM      3  C3  BZF d   1      -1.524  -1.333  -0.796  0.00  0.00    -0.012 A 
ATOM      4  C3A BZF d   1      -2.812  -0.890  -1.234  0.00  0.00    -0.107 A 
ATOM      5  C4  BZF d   1      -3.238   0.187  -1.956  0.00  0.00     0.055 A 
ATOM      6  C5  BZF d   1      -4.556   0.289  -2.275  0.00  0.00    -0.016 A 
ATOM      7  C6  BZF d   1      -5.471  -0.669  -1.893  0.00  0.00     0.022 A 
ATOM      8  C7  BZF d   1      -5.096  -1.754  -1.171  0.00  0.00     0.029 A 
ATOM      9  C7A BZF d   1      -3.771  -1.843  -0.820  0.00  0.00     0.058 A 
ENDROOT
TORSDOF 0
ENDMDL
