MODEL 1
REMARK minimizedAffinity -3.80059457
REMARK minimizedRMSD -1
REMARK  0 active torsions:
REMARK  status: ('A' for Active; 'I' for Inactive)
ROOT
ATOM      1  O1  BZF d   1       0.778  -0.716  -0.369  0.00  0.00    -0.204 OA
ATOM      2  C2  BZF d   1       1.089  -1.437   0.767  0.00  0.00     0.174 A 
ATOM      3  C3  BZF d   1       0.030  -2.164   1.178  0.00  0.00    -0.012 A 
ATOM      4  C3A BZF d   1      -0.979  -1.951   0.187  0.00  0.00    -0.107 A 
ATOM      5  C4  BZF d   1      -2.253  -2.416   0.029  0.00  0.00     0.055 A 
ATOM      6  C5  BZF d   1      -3.001  -1.958  -1.009  0.00  0.00    -0.016 A 
ATOM      7  C6  BZF d   1      -2.508  -1.031  -1.904  0.00  0.00     0.022 A 
ATOM      8  C7  BZF d   1      -1.249  -0.543  -1.792  0.00  0.00     0.029 A 
ATOM      9  C7A BZF d   1      -0.480  -1.030  -0.763  0.00  0.00     0.058 A 
ENDROOT
TORSDOF 0
ENDMDL
