MODEL 1
REMARK minimizedAffinity 9.45907402
REMARK minimizedRMSD -1
REMARK  0 active torsions:
REMARK  status: ('A' for Active; 'I' for Inactive)
ROOT
ATOM      1  O1  BZF d   1       1.847  -2.420   6.000  0.00  0.00    -0.204 OA
ATOM      2  C2  BZF d   1       0.574  -1.955   5.732  0.00  0.00     0.174 A 
ATOM      3  C3  BZF d   1       0.485  -1.508   4.463  0.00  0.00    -0.012 A 
ATOM      4  C3A BZF d   1       1.758  -1.793   3.874  0.00  0.00    -0.107 A 
ATOM      5  C4  BZF d   1       2.280  -1.598   2.627  0.00  0.00     0.055 A 
ATOM      6  C5  BZF d   1       3.580  -1.921   2.397  0.00  0.00    -0.016 A 
ATOM      7  C6  BZF d   1       4.387  -2.434   3.392  0.00  0.00     0.022 A 
ATOM      8  C7  BZF d   1       3.913  -2.649   4.643  0.00  0.00     0.029 A 
ATOM      9  C7A BZF d   1       2.590  -2.355   4.869  0.00  0.00     0.058 A 
ENDROOT
TORSDOF 0
ENDMDL
