MODEL 1
REMARK minimizedAffinity 10.0911322
REMARK minimizedRMSD -1
REMARK  0 active torsions:
REMARK  status: ('A' for Active; 'I' for Inactive)
ROOT
ATOM      1  O1  BZF d   1      -3.441  -3.864   0.583  0.00  0.00    -0.204 OA
ATOM      2  C2  BZF d   1      -3.696  -2.619   0.040  0.00  0.00     0.174 A 
ATOM      3  C3  BZF d   1      -2.557  -2.050  -0.407  0.00  0.00    -0.012 A 
ATOM      4  C3A BZF d   1      -1.541  -3.038  -0.210  0.00  0.00    -0.107 A 
ATOM      5  C4  BZF d   1      -0.201  -3.071  -0.471  0.00  0.00     0.055 A 
ATOM      6  C5  BZF d   1       0.520  -4.158  -0.090  0.00  0.00    -0.016 A 
ATOM      7  C6  BZF d   1      -0.065  -5.226   0.558  0.00  0.00     0.022 A 
ATOM      8  C7  BZF d   1      -1.392  -5.241   0.835  0.00  0.00     0.029 A 
ATOM      9  C7A BZF d   1      -2.129  -4.158   0.422  0.00  0.00     0.058 A 
ENDROOT
TORSDOF 0
ENDMDL
