MODEL 1
REMARK minimizedAffinity 7.76658916
REMARK minimizedRMSD -1
REMARK  0 active torsions:
REMARK  status: ('A' for Active; 'I' for Inactive)
ROOT
ATOM      1  O1  BZF d   1      -2.859   1.917  -1.474  0.00  0.00    -0.204 OA
ATOM      2  C2  BZF d   1      -3.691   2.930  -1.911  0.00  0.00     0.174 A 
ATOM      3  C3  BZF d   1      -3.051   4.118  -1.888  0.00  0.00    -0.012 A 
ATOM      4  C3A BZF d   1      -1.710   3.815  -1.495  0.00  0.00    -0.107 A 
ATOM      5  C4  BZF d   1      -0.592   4.577  -1.307  0.00  0.00     0.055 A 
ATOM      6  C5  BZF d   1       0.543   3.984  -0.850  0.00  0.00    -0.016 A 
ATOM      7  C6  BZF d   1       0.593   2.635  -0.566  0.00  0.00     0.022 A 
ATOM      8  C7  BZF d   1      -0.489   1.838  -0.740  0.00  0.00     0.029 A 
ATOM      9  C7A BZF d   1      -1.627   2.428  -1.233  0.00  0.00     0.058 A 
ENDROOT
TORSDOF 0
ENDMDL
