MODEL 1
REMARK minimizedAffinity 8.67306519
REMARK minimizedRMSD -1
REMARK  0 active torsions:
REMARK  status: ('A' for Active; 'I' for Inactive)
ROOT
ATOM      1  O1  BZF d   1       0.195   2.975   0.373  0.00  0.00    -0.204 OA
ATOM      2  C2  BZF d   1      -0.053   2.372  -0.844  0.00  0.00     0.174 A 
ATOM      3  C3  BZF d   1       0.099   1.035  -0.756  0.00  0.00    -0.012 A 
ATOM      4  C3A BZF d   1       0.376   0.779   0.625  0.00  0.00    -0.107 A 
ATOM      5  C4  BZF d   1       0.608  -0.362   1.340  0.00  0.00     0.055 A 
ATOM      6  C5  BZF d   1       0.918  -0.262   2.659  0.00  0.00    -0.016 A 
ATOM      7  C6  BZF d   1       1.011   0.960   3.293  0.00  0.00     0.022 A 
ATOM      8  C7  BZF d   1       0.785   2.118   2.626  0.00  0.00     0.029 A 
ATOM      9  C7A BZF d   1       0.439   2.019   1.301  0.00  0.00     0.058 A 
ENDROOT
TORSDOF 0
ENDMDL
