MODEL 1
REMARK minimizedAffinity 3.54887486
REMARK minimizedRMSD -1
REMARK  2 active torsions:
REMARK  status: ('A' for Active; 'I' for Inactive)
REMARK    1  A    between atoms: C1_2  and  C2_3 
REMARK    2  A    between atoms: C2_3  and  C3_4 
ROOT
ATOM      1  C3  UNL d   1      -1.977  -1.107   0.191  0.00  0.00    -0.075 A 
ATOM      2  C4  UNL d   1      -3.296  -1.137  -0.286  0.00  0.00     0.002 A 
ATOM      3  C5  UNL d   1      -3.861  -2.332  -0.733  0.00  0.00     0.002 A 
ATOM      4  C6  UNL d   1      -3.113  -3.507  -0.719  0.00  0.00    -0.004 A 
ATOM      5  C7  UNL d   1      -1.797  -3.486  -0.262  0.00  0.00     0.002 A 
ATOM      6  C8  UNL d   1      -1.231  -2.293   0.190  0.00  0.00     0.002 A 
ENDROOT
BRANCH   1   7
ATOM      7  C2  UNL d   1      -1.370   0.177   0.704  0.00  0.00     0.056 C 
BRANCH   7   8
ATOM      8  C1  UNL d   1      -1.852   1.432  -0.031  0.00  0.00     0.007 C 
ATOM      9  C   UNL d   1      -0.838   2.568  -0.008  0.00  0.00     0.009 C 
ENDBRANCH   7   8
ENDBRANCH   1   7
TORSDOF 2
ENDMDL
