MODEL 1
REMARK minimizedAffinity 5.35620737
REMARK minimizedRMSD -1
REMARK  2 active torsions:
REMARK  status: ('A' for Active; 'I' for Inactive)
REMARK    1  A    between atoms: C1_2  and  C2_3 
REMARK    2  A    between atoms: C2_3  and  C3_4 
ROOT
ATOM      1  C3  UNL d   1      -2.330  -2.038  -0.684  0.00  0.00    -0.075 A 
ATOM      2  C4  UNL d   1      -1.227  -2.566  -1.369  0.00  0.00     0.002 A 
ATOM      3  C5  UNL d   1      -0.962  -3.935  -1.338  0.00  0.00     0.002 A 
ATOM      4  C6  UNL d   1      -1.789  -4.791  -0.615  0.00  0.00    -0.004 A 
ATOM      5  C7  UNL d   1      -2.879  -4.276   0.084  0.00  0.00     0.002 A 
ATOM      6  C8  UNL d   1      -3.148  -2.906   0.051  0.00  0.00     0.002 A 
ENDROOT
BRANCH   1   7
ATOM      7  C2  UNL d   1      -2.639  -0.561  -0.737  0.00  0.00     0.056 C 
BRANCH   7   8
ATOM      8  C1  UNL d   1      -1.965   0.258   0.369  0.00  0.00     0.007 C 
ATOM      9  C   UNL d   1      -1.757   1.719  -0.008  0.00  0.00     0.009 C 
ENDBRANCH   7   8
ENDBRANCH   1   7
TORSDOF 2
ENDMDL
