MODEL 1
REMARK minimizedAffinity 3.01054597
REMARK minimizedRMSD -1
REMARK  2 active torsions:
REMARK  status: ('A' for Active; 'I' for Inactive)
REMARK    1  A    between atoms: C1_2  and  C2_3 
REMARK    2  A    between atoms: C2_3  and  C3_4 
ROOT
ATOM      1  C3  UNL d   1       2.004  -3.107   3.037  0.00  0.00    -0.075 A 
ATOM      2  C4  UNL d   1       1.980  -2.590   1.734  0.00  0.00     0.002 A 
ATOM      3  C5  UNL d   1       1.423  -1.336   1.481  0.00  0.00     0.002 A 
ATOM      4  C6  UNL d   1       0.876  -0.589   2.522  0.00  0.00    -0.004 A 
ATOM      5  C7  UNL d   1       0.881  -1.101   3.818  0.00  0.00     0.002 A 
ATOM      6  C8  UNL d   1       1.441  -2.353   4.075  0.00  0.00     0.002 A 
ENDROOT
BRANCH   1   7
ATOM      7  C2  UNL d   1       2.632  -4.451   3.323  0.00  0.00     0.056 C 
BRANCH   7   8
ATOM      8  C1  UNL d   1       1.842  -5.639   2.765  0.00  0.00     0.007 C 
ATOM      9  C   UNL d   1       0.587  -5.956   3.568  0.00  0.00     0.009 C 
ENDBRANCH   7   8
ENDBRANCH   1   7
TORSDOF 2
ENDMDL
