MODEL 1
REMARK minimizedAffinity 14.8798075
REMARK minimizedRMSD -1
REMARK  2 active torsions:
REMARK  status: ('A' for Active; 'I' for Inactive)
REMARK    1  A    between atoms: C1_2  and  C2_3 
REMARK    2  A    between atoms: C2_3  and  C3_4 
ROOT
ATOM      1  C3  UNL d   1       0.437  -0.500   1.240  0.00  0.00    -0.075 A 
ATOM      2  C4  UNL d   1      -0.731  -1.266   1.110  0.00  0.00     0.002 A 
ATOM      3  C5  UNL d   1      -1.876  -0.719   0.531  0.00  0.00     0.002 A 
ATOM      4  C6  UNL d   1      -1.872   0.600   0.083  0.00  0.00    -0.004 A 
ATOM      5  C7  UNL d   1      -0.722   1.375   0.221  0.00  0.00     0.002 A 
ATOM      6  C8  UNL d   1       0.426   0.829   0.797  0.00  0.00     0.002 A 
ENDROOT
BRANCH   1   7
ATOM      7  C2  UNL d   1       1.688  -1.095   1.839  0.00  0.00     0.056 C 
BRANCH   7   8
ATOM      8  C1  UNL d   1       2.188  -2.352   1.119  0.00  0.00     0.007 C 
ATOM      9  C   UNL d   1       3.345  -2.078   0.167  0.00  0.00     0.009 C 
ENDBRANCH   7   8
ENDBRANCH   1   7
TORSDOF 2
ENDMDL
