MODEL 1
REMARK minimizedAffinity 8.43899822
REMARK minimizedRMSD -1
REMARK  2 active torsions:
REMARK  status: ('A' for Active; 'I' for Inactive)
REMARK    1  A    between atoms: C1_2  and  C2_3 
REMARK    2  A    between atoms: C2_3  and  C3_4 
ROOT
ATOM      1  C3  UNL d   1      -1.035  -0.080   0.828  0.00  0.00    -0.075 A 
ATOM      2  C4  UNL d   1      -1.334  -1.450   0.854  0.00  0.00     0.002 A 
ATOM      3  C5  UNL d   1      -2.391  -1.959   0.100  0.00  0.00     0.002 A 
ATOM      4  C6  UNL d   1      -3.168  -1.106  -0.681  0.00  0.00    -0.004 A 
ATOM      5  C7  UNL d   1      -2.890   0.259  -0.702  0.00  0.00     0.002 A 
ATOM      6  C8  UNL d   1      -1.831   0.771   0.049  0.00  0.00     0.002 A 
ENDROOT
BRANCH   1   7
ATOM      7  C2  UNL d   1       0.126   0.472   1.620  0.00  0.00     0.056 C 
BRANCH   7   8
ATOM      8  C1  UNL d   1       0.720  -0.516   2.629  0.00  0.00     0.007 C 
ATOM      9  C   UNL d   1       1.878  -1.327   2.064  0.00  0.00     0.009 C 
ENDBRANCH   7   8
ENDBRANCH   1   7
TORSDOF 2
ENDMDL
