MODEL 1
REMARK minimizedAffinity 10.6248827
REMARK minimizedRMSD -1
REMARK  2 active torsions:
REMARK  status: ('A' for Active; 'I' for Inactive)
REMARK    1  A    between atoms: C1_2  and  C2_3 
REMARK    2  A    between atoms: C2_3  and  C3_4 
ROOT
ATOM      1  C3  UNL d   1      -1.234  -0.790   1.112  0.00  0.00    -0.075 A 
ATOM      2  C4  UNL d   1      -1.022   0.572   0.852  0.00  0.00     0.002 A 
ATOM      3  C5  UNL d   1       0.138   1.206   1.299  0.00  0.00     0.002 A 
ATOM      4  C6  UNL d   1       1.093   0.491   2.018  0.00  0.00    -0.004 A 
ATOM      5  C7  UNL d   1       0.885  -0.858   2.296  0.00  0.00     0.002 A 
ATOM      6  C8  UNL d   1      -0.272  -1.496   1.846  0.00  0.00     0.002 A 
ENDROOT
BRANCH   1   7
ATOM      7  C2  UNL d   1      -2.473  -1.489   0.606  0.00  0.00     0.056 C 
BRANCH   7   8
ATOM      8  C1  UNL d   1      -2.186  -2.747  -0.220  0.00  0.00     0.007 C 
ATOM      9  C   UNL d   1      -2.747  -4.017   0.407  0.00  0.00     0.009 C 
ENDBRANCH   7   8
ENDBRANCH   1   7
TORSDOF 2
ENDMDL
