MODEL 1
REMARK minimizedAffinity 2.26952791
REMARK minimizedRMSD -1
REMARK  0 active torsions:
REMARK  status: ('A' for Active; 'I' for Inactive)
ROOT
ATOM      1  C   UNL d   1       2.239  -1.128   3.202  0.00  0.00     0.023 A 
ATOM      2  C1  UNL d   1       3.535  -1.143   2.685  0.00  0.00     0.003 A 
ATOM      3  C2  UNL d   1       4.603  -1.549   3.486  0.00  0.00     0.048 A 
ATOM      4  C3  UNL d   1       4.369  -1.941   4.804  0.00  0.00     0.023 A 
ATOM      5  C4  UNL d   1       3.074  -1.930   5.325  0.00  0.00     0.048 A 
ATOM      6  C5  UNL d   1       2.009  -1.521   4.520  0.00  0.00     0.003 A 
ATOM      7  I   UNL d   1       5.958  -2.548   5.999  0.00  0.00    -0.146 I 
ENDROOT
TORSDOF 0
ENDMDL
