MODEL 1
REMARK minimizedAffinity 6.39233494
REMARK minimizedRMSD -1
REMARK  0 active torsions:
REMARK  status: ('A' for Active; 'I' for Inactive)
ROOT
ATOM      1  C   UNL d   1       2.088  -1.913   4.372  0.00  0.00     0.023 A 
ATOM      2  C1  UNL d   1       2.190  -3.103   3.652  0.00  0.00     0.003 A 
ATOM      3  C2  UNL d   1       1.977  -3.107   2.272  0.00  0.00     0.048 A 
ATOM      4  C3  UNL d   1       1.664  -1.916   1.618  0.00  0.00     0.023 A 
ATOM      5  C4  UNL d   1       1.562  -0.722   2.334  0.00  0.00     0.048 A 
ATOM      6  C5  UNL d   1       1.774  -0.724   3.713  0.00  0.00     0.003 A 
ATOM      7  I   UNL d   1       1.348  -1.919  -0.436  0.00  0.00    -0.146 I 
ENDROOT
TORSDOF 0
ENDMDL
