MODEL 1
REMARK minimizedAffinity 1.80282557
REMARK minimizedRMSD -1
REMARK  0 active torsions:
REMARK  status: ('A' for Active; 'I' for Inactive)
ROOT
ATOM      1  C   UNL d   1       3.301   3.082   2.219  0.00  0.00     0.023 A 
ATOM      2  C1  UNL d   1       3.566   1.929   1.480  0.00  0.00     0.003 A 
ATOM      3  C2  UNL d   1       3.378   0.670   2.055  0.00  0.00     0.048 A 
ATOM      4  C3  UNL d   1       2.923   0.572   3.369  0.00  0.00     0.023 A 
ATOM      5  C4  UNL d   1       2.655   1.722   4.112  0.00  0.00     0.048 A 
ATOM      6  C5  UNL d   1       2.846   2.978   3.534  0.00  0.00     0.003 A 
ATOM      7  I   UNL d   1       2.642  -1.300   4.227  0.00  0.00    -0.146 I 
ENDROOT
TORSDOF 0
ENDMDL
