MODEL 1
REMARK minimizedAffinity 12.2335777
REMARK minimizedRMSD -1
REMARK  0 active torsions:
REMARK  status: ('A' for Active; 'I' for Inactive)
ROOT
ATOM      1  C   UNL d   1       1.679  -2.211   3.762  0.00  0.00     0.023 A 
ATOM      2  C1  UNL d   1       2.714  -1.349   3.398  0.00  0.00     0.003 A 
ATOM      3  C2  UNL d   1       3.951  -1.432   4.040  0.00  0.00     0.048 A 
ATOM      4  C3  UNL d   1       4.147  -2.380   5.043  0.00  0.00     0.023 A 
ATOM      5  C4  UNL d   1       3.115  -3.246   5.410  0.00  0.00     0.048 A 
ATOM      6  C5  UNL d   1       1.880  -3.158   4.766  0.00  0.00     0.003 A 
ATOM      7  I   UNL d   1       5.989  -2.506   6.000  0.00  0.00    -0.146 I 
ENDROOT
TORSDOF 0
ENDMDL
