MODEL 1
REMARK minimizedAffinity 5.09832382
REMARK minimizedRMSD -1
REMARK  0 active torsions:
REMARK  status: ('A' for Active; 'I' for Inactive)
ROOT
ATOM      1  C   UNL d   1       2.579  -3.053   4.080  0.00  0.00     0.023 A 
ATOM      2  C1  UNL d   1       3.835  -2.455   3.967  0.00  0.00     0.003 A 
ATOM      3  C2  UNL d   1       3.947  -1.149   3.486  0.00  0.00     0.048 A 
ATOM      4  C3  UNL d   1       2.800  -0.446   3.121  0.00  0.00     0.023 A 
ATOM      5  C4  UNL d   1       1.541  -1.039   3.233  0.00  0.00     0.048 A 
ATOM      6  C5  UNL d   1       1.434  -2.346   3.713  0.00  0.00     0.003 A 
ATOM      7  I   UNL d   1       2.964   1.499   2.405  0.00  0.00    -0.146 I 
ENDROOT
TORSDOF 0
ENDMDL
