MODEL 1
REMARK minimizedAffinity 2.42891979
REMARK minimizedRMSD -1
REMARK  0 active torsions:
REMARK  status: ('A' for Active; 'I' for Inactive)
ROOT
ATOM      1  C   UNL d   1       2.495  -1.757   2.529  0.00  0.00     0.023 A 
ATOM      2  C1  UNL d   1       1.818  -1.251   3.639  0.00  0.00     0.003 A 
ATOM      3  C2  UNL d   1       1.328  -2.121   4.615  0.00  0.00     0.048 A 
ATOM      4  C3  UNL d   1       1.518  -3.495   4.475  0.00  0.00     0.023 A 
ATOM      5  C4  UNL d   1       2.195  -4.006   3.366  0.00  0.00     0.048 A 
ATOM      6  C5  UNL d   1       2.683  -3.132   2.393  0.00  0.00     0.003 A 
ATOM      7  I   UNL d   1       0.789  -4.792   5.926  0.00  0.00    -0.146 I 
ENDROOT
TORSDOF 0
ENDMDL
