MODEL 1
REMARK minimizedAffinity 12.0458746
REMARK minimizedRMSD -1
REMARK  0 active torsions:
REMARK  status: ('A' for Active; 'I' for Inactive)
ROOT
ATOM      1  C   UNL d   1       1.691  -1.042   4.366  0.00  0.00     0.023 A 
ATOM      2  C1  UNL d   1       1.808   0.315   4.669  0.00  0.00     0.003 A 
ATOM      3  C2  UNL d   1       2.263   1.212   3.701  0.00  0.00     0.048 A 
ATOM      4  C3  UNL d   1       2.599   0.746   2.430  0.00  0.00     0.023 A 
ATOM      5  C4  UNL d   1       2.484  -0.611   2.122  0.00  0.00     0.048 A 
ATOM      6  C5  UNL d   1       2.029  -1.504   3.094  0.00  0.00     0.003 A 
ATOM      7  I   UNL d   1       3.277   2.079   0.987  0.00  0.00    -0.146 I 
ENDROOT
TORSDOF 0
ENDMDL
