MODEL 1
REMARK minimizedAffinity 8.49865627
REMARK minimizedRMSD -1
REMARK  0 active torsions:
REMARK  status: ('A' for Active; 'I' for Inactive)
ROOT
ATOM      1  C   UNL d   1      -0.139  -1.306  -1.460  0.00  0.00     0.023 A 
ATOM      2  C1  UNL d   1      -0.657  -0.799  -0.268  0.00  0.00     0.003 A 
ATOM      3  C2  UNL d   1       0.123  -0.801   0.891  0.00  0.00     0.048 A 
ATOM      4  C3  UNL d   1       1.420  -1.312   0.850  0.00  0.00     0.023 A 
ATOM      5  C4  UNL d   1       1.943  -1.820  -0.340  0.00  0.00     0.048 A 
ATOM      6  C5  UNL d   1       1.159  -1.816  -1.496  0.00  0.00     0.003 A 
ATOM      7  I   UNL d   1       2.582  -1.317   2.574  0.00  0.00    -0.146 I 
ENDROOT
TORSDOF 0
ENDMDL
