MODEL 1
REMARK minimizedAffinity -1.12377691
REMARK minimizedRMSD -1
REMARK  0 active torsions:
REMARK  status: ('A' for Active; 'I' for Inactive)
ROOT
ATOM      1  C4' PXY d   1       1.187  -4.539  -1.913  0.00  0.00     0.077 C 
ATOM      2  C1' PXY d   1       5.141  -2.976  -5.830  0.00  0.00     0.077 C 
ATOM      3  C1  PXY d   1       4.095  -3.377  -4.808  0.00  0.00    -0.082 A 
ATOM      4  C2  PXY d   1       4.476  -3.912  -3.659  0.00  0.00     0.003 A 
ATOM      5  C3  PXY d   1       3.542  -4.310  -2.737  0.00  0.00     0.003 A 
ATOM      6  C4  PXY d   1       2.208  -4.110  -2.971  0.00  0.00    -0.082 A 
ATOM      7  C5  PXY d   1       1.813  -3.555  -4.136  0.00  0.00     0.003 A 
ATOM      8  C6  PXY d   1       2.774  -3.196  -5.076  0.00  0.00     0.003 A 
ENDROOT
TORSDOF 0
ENDMDL
