MODEL 1
REMARK minimizedAffinity 9.6878891
REMARK minimizedRMSD -1
REMARK  0 active torsions:
REMARK  status: ('A' for Active; 'I' for Inactive)
ROOT
ATOM      1  C4' PXY d   1       5.884  -4.647   1.730  0.00  0.00     0.077 C 
ATOM      2  C1' PXY d   1       1.462  -1.776   4.099  0.00  0.00     0.077 C 
ATOM      3  C1  PXY d   1       2.617  -2.526   3.466  0.00  0.00    -0.082 A 
ATOM      4  C2  PXY d   1       3.265  -3.441   4.168  0.00  0.00     0.003 A 
ATOM      5  C3  PXY d   1       4.332  -4.107   3.622  0.00  0.00     0.003 A 
ATOM      6  C4  PXY d   1       4.706  -3.871   2.326  0.00  0.00    -0.082 A 
ATOM      7  C5  PXY d   1       4.042  -2.947   1.599  0.00  0.00     0.003 A 
ATOM      8  C6  PXY d   1       2.988  -2.253   2.186  0.00  0.00     0.003 A 
ENDROOT
TORSDOF 0
ENDMDL
