MODEL 1
REMARK minimizedAffinity 5.56830359
REMARK minimizedRMSD -1
REMARK  0 active torsions:
REMARK  status: ('A' for Active; 'I' for Inactive)
ROOT
ATOM      1  C4' PXY d   1      -6.000   5.259  -2.807  0.00  0.00     0.077 C 
ATOM      2  C1' PXY d   1      -2.960   0.375  -3.375  0.00  0.00     0.077 C 
ATOM      3  C1  PXY d   1      -3.750   1.662  -3.235  0.00  0.00    -0.082 A 
ATOM      4  C2  PXY d   1      -4.422   1.898  -2.121  0.00  0.00     0.003 A 
ATOM      5  C3  PXY d   1      -5.167   3.042  -1.989  0.00  0.00     0.003 A 
ATOM      6  C4  PXY d   1      -5.182   3.978  -2.989  0.00  0.00    -0.082 A 
ATOM      7  C5  PXY d   1      -4.490   3.749  -4.125  0.00  0.00     0.003 A 
ATOM      8  C6  PXY d   1      -3.773   2.563  -4.255  0.00  0.00     0.003 A 
ENDROOT
TORSDOF 0
ENDMDL
