MODEL 1
REMARK minimizedAffinity 1.06045234
REMARK minimizedRMSD -1
REMARK  0 active torsions:
REMARK  status: ('A' for Active; 'I' for Inactive)
ROOT
ATOM      1  C4' PXY d   1       5.998   3.009  -5.014  0.00  0.00     0.077 C 
ATOM      2  C1' PXY d   1       3.563   5.999  -0.708  0.00  0.00     0.077 C 
ATOM      3  C1  PXY d   1       4.194   5.204  -1.834  0.00  0.00    -0.082 A 
ATOM      4  C2  PXY d   1       5.411   5.513  -2.250  0.00  0.00     0.003 A 
ATOM      5  C3  PXY d   1       5.984   4.826  -3.290  0.00  0.00     0.003 A 
ATOM      6  C4  PXY d   1       5.326   3.778  -3.874  0.00  0.00    -0.082 A 
ATOM      7  C5  PXY d   1       4.088   3.450  -3.448  0.00  0.00     0.003 A 
ATOM      8  C6  PXY d   1       3.507   4.186  -2.419  0.00  0.00     0.003 A 
ENDROOT
TORSDOF 0
ENDMDL
