MODEL 1
REMARK minimizedAffinity -5.11428738
REMARK minimizedRMSD -1
REMARK  0 active torsions:
REMARK  status: ('A' for Active; 'I' for Inactive)
ROOT
ATOM      1  C4' PXY d   1      -0.699   0.356  -0.487  0.00  0.00     0.077 C 
ATOM      2  C1' PXY d   1       4.188  -1.112   2.228  0.00  0.00     0.077 C 
ATOM      3  C1  PXY d   1       2.909  -0.715   1.519  0.00  0.00    -0.082 A 
ATOM      4  C2  PXY d   1       1.927  -1.594   1.399  0.00  0.00     0.003 A 
ATOM      5  C3  PXY d   1       0.776  -1.261   0.732  0.00  0.00     0.003 A 
ATOM      6  C4  PXY d   1       0.607   0.001   0.230  0.00  0.00    -0.082 A 
ATOM      7  C5  PXY d   1       1.599   0.907   0.358  0.00  0.00     0.003 A 
ATOM      8  C6  PXY d   1       2.776   0.537   1.002  0.00  0.00     0.003 A 
ENDROOT
TORSDOF 0
ENDMDL
