MODEL 1
REMARK minimizedAffinity -0.817292988
REMARK minimizedRMSD -1
REMARK  0 active torsions:
REMARK  status: ('A' for Active; 'I' for Inactive)
ROOT
ATOM      1  C   UNL d   1       0.066  -4.708   3.656  0.00  0.00     0.023 A 
ATOM      2  C1  UNL d   1      -0.607  -3.502   3.853  0.00  0.00     0.003 A 
ATOM      3  C2  UNL d   1      -0.258  -2.376   3.105  0.00  0.00     0.048 A 
ATOM      4  C3  UNL d   1       0.765  -2.464   2.160  0.00  0.00     0.023 A 
ATOM      5  C4  UNL d   1       1.440  -3.668   1.959  0.00  0.00     0.048 A 
ATOM      6  C5  UNL d   1       1.088  -4.791   2.711  0.00  0.00     0.003 A 
ATOM      7  I   UNL d   1       1.286  -0.789   1.045  0.00  0.00    -0.146 I 
ENDROOT
TORSDOF 0
ENDMDL
