MODEL 1
REMARK minimizedAffinity -1.2201761
REMARK minimizedRMSD -1
REMARK  0 active torsions:
REMARK  status: ('A' for Active; 'I' for Inactive)
ROOT
ATOM      1  C   UNL d   1       1.683  -0.553   1.864  0.00  0.00     0.023 A 
ATOM      2  C1  UNL d   1       0.774  -1.274   2.638  0.00  0.00     0.003 A 
ATOM      3  C2  UNL d   1      -0.545  -1.428   2.207  0.00  0.00     0.048 A 
ATOM      4  C3  UNL d   1      -0.949  -0.858   1.000  0.00  0.00     0.023 A 
ATOM      5  C4  UNL d   1      -0.042  -0.136   0.221  0.00  0.00     0.048 A 
ATOM      6  C5  UNL d   1       1.275   0.015   0.657  0.00  0.00     0.003 A 
ATOM      7  I   UNL d   1      -2.912  -1.085   0.356  0.00  0.00    -0.146 I 
ENDROOT
TORSDOF 0
ENDMDL
