MODEL 1
REMARK minimizedAffinity -2.51566172
REMARK minimizedRMSD -1
REMARK  0 active torsions:
REMARK  status: ('A' for Active; 'I' for Inactive)
ROOT
ATOM      1  C   UNL d   1       0.613  -1.686   2.872  0.00  0.00     0.023 A 
ATOM      2  C1  UNL d   1       1.623  -0.999   2.198  0.00  0.00     0.003 A 
ATOM      3  C2  UNL d   1       1.300  -0.105   1.176  0.00  0.00     0.048 A 
ATOM      4  C3  UNL d   1      -0.036   0.099   0.833  0.00  0.00     0.023 A 
ATOM      5  C4  UNL d   1      -1.051  -0.585   1.505  0.00  0.00     0.048 A 
ATOM      6  C5  UNL d   1      -0.722  -1.479   2.526  0.00  0.00     0.003 A 
ATOM      7  I   UNL d   1      -0.520   1.429  -0.689  0.00  0.00    -0.146 I 
ENDROOT
TORSDOF 0
ENDMDL
