MODEL 1
REMARK minimizedAffinity -4.9202714
REMARK minimizedRMSD -1
REMARK  1 active torsions:
REMARK  status: ('A' for Active; 'I' for Inactive)
REMARK    1  A    between atoms: C1_2  and  C2_3 
ROOT
ATOM      1  C2  UNL d   1      -0.050   0.232  -0.230  0.00  0.00    -0.077 A 
ATOM      2  C3  UNL d   1      -0.988   1.117  -0.778  0.00  0.00     0.002 A 
ATOM      3  C4  UNL d   1      -1.548   2.128   0.006  0.00  0.00     0.002 A 
ATOM      4  C5  UNL d   1      -1.172   2.265   1.341  0.00  0.00    -0.004 A 
ATOM      5  C6  UNL d   1      -0.241   1.388   1.896  0.00  0.00     0.002 A 
ATOM      6  C7  UNL d   1       0.319   0.377   1.114  0.00  0.00     0.002 A 
ENDROOT
BRANCH   1   7
ATOM      7  C1  UNL d   1       0.592  -0.828  -1.088  0.00  0.00     0.055 C 
ATOM      8  C   UNL d   1      -0.394  -1.937  -1.427  0.00  0.00     0.019 C 
ENDBRANCH   1   7
TORSDOF 1
ENDMDL
