MODEL 1
REMARK minimizedAffinity -2.04388571
REMARK minimizedRMSD -1
REMARK  1 active torsions:
REMARK  status: ('A' for Active; 'I' for Inactive)
REMARK    1  A    between atoms: C1_2  and  C2_3 
ROOT
ATOM      1  C2  UNL d   1      -1.223   1.000   1.031  0.00  0.00    -0.077 A 
ATOM      2  C3  UNL d   1      -0.077   0.493   1.660  0.00  0.00     0.002 A 
ATOM      3  C4  UNL d   1       0.915  -0.146   0.914  0.00  0.00     0.002 A 
ATOM      4  C5  UNL d   1       0.773  -0.280  -0.466  0.00  0.00    -0.004 A 
ATOM      5  C6  UNL d   1      -0.363   0.219  -1.101  0.00  0.00     0.002 A 
ATOM      6  C7  UNL d   1      -1.356   0.857  -0.356  0.00  0.00     0.002 A 
ENDROOT
BRANCH   1   7
ATOM      7  C1  UNL d   1      -2.270   1.733   1.827  0.00  0.00     0.055 C 
ATOM      8  C   UNL d   1      -1.740   3.059   2.351  0.00  0.00     0.019 C 
ENDBRANCH   1   7
TORSDOF 1
ENDMDL
