MODEL 1
REMARK minimizedAffinity -4.81012154
REMARK minimizedRMSD -1
REMARK  1 active torsions:
REMARK  status: ('A' for Active; 'I' for Inactive)
REMARK    1  A    between atoms: C1_2  and  C2_3 
ROOT
ATOM      1  C2  UNL d   1      -0.570   1.160   0.092  0.00  0.00    -0.077 A 
ATOM      2  C3  UNL d   1       0.194   0.008   0.327  0.00  0.00     0.002 A 
ATOM      3  C4  UNL d   1       1.050  -0.485  -0.659  0.00  0.00     0.002 A 
ATOM      4  C5  UNL d   1       1.155   0.170  -1.885  0.00  0.00    -0.004 A 
ATOM      5  C6  UNL d   1       0.398   1.315  -2.129  0.00  0.00     0.002 A 
ATOM      6  C7  UNL d   1      -0.460   1.808  -1.145  0.00  0.00     0.002 A 
ENDROOT
BRANCH   1   7
ATOM      7  C1  UNL d   1      -1.457   1.721   1.172  0.00  0.00     0.055 C 
ATOM      8  C   UNL d   1      -0.778   2.868   1.906  0.00  0.00     0.019 C 
ENDBRANCH   1   7
TORSDOF 1
ENDMDL
