MODEL 1
REMARK minimizedAffinity 3.27782893
REMARK minimizedRMSD -1
REMARK  0 active torsions:
REMARK  status: ('A' for Active; 'I' for Inactive)
ROOT
ATOM      1  C4' PXY d   1       3.237  -2.037  -1.295  0.00  0.00     0.077 C 
ATOM      2  C1' PXY d   1       4.938   2.770   1.429  0.00  0.00     0.077 C 
ATOM      3  C1  PXY d   1       4.500   1.502   0.722  0.00  0.00    -0.082 A 
ATOM      4  C2  PXY d   1       4.012   1.573  -0.505  0.00  0.00     0.003 A 
ATOM      5  C3  PXY d   1       3.581   0.441  -1.147  0.00  0.00     0.003 A 
ATOM      6  C4  PXY d   1       3.701  -0.784  -0.546  0.00  0.00    -0.082 A 
ATOM      7  C5  PXY d   1       4.207  -0.866   0.702  0.00  0.00     0.003 A 
ATOM      8  C6  PXY d   1       4.600   0.300   1.352  0.00  0.00     0.003 A 
ENDROOT
TORSDOF 0
ENDMDL
