MODEL 1
REMARK minimizedAffinity 1.71532166
REMARK minimizedRMSD -1
REMARK  0 active torsions:
REMARK  status: ('A' for Active; 'I' for Inactive)
ROOT
ATOM      1  C4' PXY d   1       2.698   0.494   5.604  0.00  0.00     0.077 C 
ATOM      2  C1' PXY d   1       5.981   5.252   5.602  0.00  0.00     0.077 C 
ATOM      3  C1  PXY d   1       5.112   4.010   5.611  0.00  0.00    -0.082 A 
ATOM      4  C2  PXY d   1       5.629   2.847   5.249  0.00  0.00     0.003 A 
ATOM      5  C3  PXY d   1       4.849   1.720   5.221  0.00  0.00     0.003 A 
ATOM      6  C4  PXY d   1       3.540   1.773   5.619  0.00  0.00    -0.082 A 
ATOM      7  C5  PXY d   1       3.008   2.953   6.000  0.00  0.00     0.003 A 
ATOM      8  C6  PXY d   1       3.806   4.094   5.982  0.00  0.00     0.003 A 
ENDROOT
TORSDOF 0
ENDMDL
