MODEL 1
REMARK minimizedAffinity -0.191363975
REMARK minimizedRMSD -1
REMARK  0 active torsions:
REMARK  status: ('A' for Active; 'I' for Inactive)
ROOT
ATOM      1  C4' PXY d   1       5.354   2.629   5.238  0.00  0.00     0.077 C 
ATOM      2  C1' PXY d   1       0.690   6.000   5.790  0.00  0.00     0.077 C 
ATOM      3  C1  PXY d   1       1.918   5.124   5.636  0.00  0.00    -0.082 A 
ATOM      4  C2  PXY d   1       1.864   3.853   5.999  0.00  0.00     0.003 A 
ATOM      5  C3  PXY d   1       2.974   3.054   5.896  0.00  0.00     0.003 A 
ATOM      6  C4  PXY d   1       4.136   3.549   5.367  0.00  0.00    -0.082 A 
ATOM      7  C5  PXY d   1       4.196   4.842   4.984  0.00  0.00     0.003 A 
ATOM      8  C6  PXY d   1       3.070   5.646   5.135  0.00  0.00     0.003 A 
ENDROOT
TORSDOF 0
ENDMDL
