MODEL 1
REMARK minimizedAffinity 3.48067021
REMARK minimizedRMSD -1
REMARK  0 active torsions:
REMARK  status: ('A' for Active; 'I' for Inactive)
ROOT
ATOM      1  C4' PXY d   1       0.354  -5.999   6.000  0.00  0.00     0.077 C 
ATOM      2  C1' PXY d   1       0.115  -0.532   4.137  0.00  0.00     0.077 C 
ATOM      3  C1  PXY d   1       0.165  -1.968   4.623  0.00  0.00    -0.082 A 
ATOM      4  C2  PXY d   1       1.112  -2.339   5.468  0.00  0.00     0.003 A 
ATOM      5  C3  PXY d   1       1.191  -3.641   5.893  0.00  0.00     0.003 A 
ATOM      6  C4  PXY d   1       0.259  -4.559   5.490  0.00  0.00    -0.082 A 
ATOM      7  C5  PXY d   1      -0.717  -4.185   4.636  0.00  0.00     0.003 A 
ATOM      8  C6  PXY d   1      -0.756  -2.869   4.185  0.00  0.00     0.003 A 
ENDROOT
TORSDOF 0
ENDMDL
