MODEL 1
REMARK minimizedAffinity 0.00677129813
REMARK minimizedRMSD -1
REMARK  0 active torsions:
REMARK  status: ('A' for Active; 'I' for Inactive)
ROOT
ATOM      1  C4' PXY d   1       5.887   2.382   5.243  0.00  0.00     0.077 C 
ATOM      2  C1' PXY d   1       1.125   5.621   5.743  0.00  0.00     0.077 C 
ATOM      3  C1  PXY d   1       2.369   4.764   5.621  0.00  0.00    -0.082 A 
ATOM      4  C2  PXY d   1       3.482   5.291   5.137  0.00  0.00     0.003 A 
ATOM      5  C3  PXY d   1       4.607   4.522   4.990  0.00  0.00     0.003 A 
ATOM      6  C4  PXY d   1       4.609   3.213   5.393  0.00  0.00    -0.082 A 
ATOM      7  C5  PXY d   1       3.481   2.670   5.897  0.00  0.00     0.003 A 
ATOM      8  C6  PXY d   1       2.337   3.457   6.000  0.00  0.00     0.003 A 
ENDROOT
TORSDOF 0
ENDMDL
