MODEL 1
REMARK minimizedAffinity -2.53176284
REMARK minimizedRMSD -1
REMARK  0 active torsions:
REMARK  status: ('A' for Active; 'I' for Inactive)
ROOT
ATOM      1  C4' PXY d   1       3.377   0.355   5.860  0.00  0.00     0.077 C 
ATOM      2  C1' PXY d   1       4.465   6.000   5.258  0.00  0.00     0.077 C 
ATOM      3  C1  PXY d   1       4.189   4.517   5.407  0.00  0.00    -0.082 A 
ATOM      4  C2  PXY d   1       3.002   4.111   5.829  0.00  0.00     0.003 A 
ATOM      5  C3  PXY d   1       2.746   2.775   6.000  0.00  0.00     0.003 A 
ATOM      6  C4  PXY d   1       3.697   1.842   5.686  0.00  0.00    -0.082 A 
ATOM      7  C5  PXY d   1       4.907   2.247   5.245  0.00  0.00     0.003 A 
ATOM      8  C6  PXY d   1       5.160   3.610   5.117  0.00  0.00     0.003 A 
ENDROOT
TORSDOF 0
ENDMDL
