MODEL 1
REMARK minimizedAffinity -0.383394837
REMARK minimizedRMSD -1
REMARK  0 active torsions:
REMARK  status: ('A' for Active; 'I' for Inactive)
ROOT
ATOM      1  C4' PXY d   1       5.993   1.929   4.963  0.00  0.00     0.077 C 
ATOM      2  C1' PXY d   1       1.363   5.240   5.974  0.00  0.00     0.077 C 
ATOM      3  C1  PXY d   1       2.573   4.363   5.718  0.00  0.00    -0.082 A 
ATOM      4  C2  PXY d   1       3.672   4.897   5.212  0.00  0.00     0.003 A 
ATOM      5  C3  PXY d   1       4.765   4.113   4.944  0.00  0.00     0.003 A 
ATOM      6  C4  PXY d   1       4.750   2.778   5.247  0.00  0.00    -0.082 A 
ATOM      7  C5  PXY d   1       3.636   2.227   5.774  0.00  0.00     0.003 A 
ATOM      8  C6  PXY d   1       2.523   3.033   6.000  0.00  0.00     0.003 A 
ENDROOT
TORSDOF 0
ENDMDL
