MODEL 1
REMARK minimizedAffinity -2.85914469
REMARK minimizedRMSD -1
REMARK  0 active torsions:
REMARK  status: ('A' for Active; 'I' for Inactive)
ROOT
ATOM      1  C4' PXY d   1       5.934   5.793   5.241  0.00  0.00     0.077 C 
ATOM      2  C1' PXY d   1       3.127   0.740   5.180  0.00  0.00     0.077 C 
ATOM      3  C1  PXY d   1       3.873   2.059   5.192  0.00  0.00    -0.082 A 
ATOM      4  C2  PXY d   1       3.477   3.028   6.000  0.00  0.00     0.003 A 
ATOM      5  C3  PXY d   1       4.121   4.239   6.000  0.00  0.00     0.003 A 
ATOM      6  C4  PXY d   1       5.215   4.441   5.203  0.00  0.00    -0.082 A 
ATOM      7  C5  PXY d   1       5.633   3.453   4.383  0.00  0.00     0.003 A 
ATOM      8  C6  PXY d   1       4.940   2.246   4.368  0.00  0.00     0.003 A 
ENDROOT
TORSDOF 0
ENDMDL
