MODEL 1
REMARK minimizedAffinity 2.71263027
REMARK minimizedRMSD -1
REMARK  0 active torsions:
REMARK  status: ('A' for Active; 'I' for Inactive)
ROOT
ATOM      1  C4' PXY d   1       5.585   2.666   5.179  0.00  0.00     0.077 C 
ATOM      2  C1' PXY d   1       0.865   5.999   5.341  0.00  0.00     0.077 C 
ATOM      3  C1  PXY d   1       2.106   5.130   5.287  0.00  0.00    -0.082 A 
ATOM      4  C2  PXY d   1       2.156   4.017   6.000  0.00  0.00     0.003 A 
ATOM      5  C3  PXY d   1       3.283   3.235   5.988  0.00  0.00     0.003 A 
ATOM      6  C4  PXY d   1       4.349   3.569   5.195  0.00  0.00    -0.082 A 
ATOM      7  C5  PXY d   1       4.301   4.698   4.456  0.00  0.00     0.003 A 
ATOM      8  C6  PXY d   1       3.164   5.499   4.515  0.00  0.00     0.003 A 
ENDROOT
TORSDOF 0
ENDMDL
