MODEL 1
REMARK minimizedAffinity -2.66398025
REMARK minimizedRMSD -1
REMARK  1 active torsions:
REMARK  status: ('A' for Active; 'I' for Inactive)
REMARK    1  A    between atoms: C1_2  and  C2_3 
ROOT
ATOM      1  C2  UNL d   1       0.475  -0.347  -1.233  0.00  0.00    -0.073 A 
ATOM      2  C3  UNL d   1      -0.875  -0.035  -1.431  0.00  0.00    -0.002 A 
ATOM      3  C4  UNL d   1      -1.693   0.279  -0.345  0.00  0.00     0.004 A 
ATOM      4  C5  UNL d   1      -1.169   0.292   0.947  0.00  0.00    -0.004 A 
ATOM      5  C6  UNL d   1       0.181  -0.005   1.165  0.00  0.00    -0.075 A 
ATOM      6  C7  UNL d   1       0.759   0.002   2.549  0.00  0.00     0.076 C 
ATOM      7  C8  UNL d   1       0.995  -0.323   0.069  0.00  0.00     0.001 A 
ENDROOT
BRANCH   1   8
ATOM      8  C1  UNL d   1       1.364  -0.681  -2.403  0.00  0.00     0.053 C 
ATOM      9  C   UNL d   1       0.740  -1.728  -3.312  0.00  0.00     0.018 C 
ENDBRANCH   1   8
TORSDOF 1
ENDMDL
