MODEL 1
REMARK minimizedAffinity -6.44544649
REMARK minimizedRMSD -1
REMARK  1 active torsions:
REMARK  status: ('A' for Active; 'I' for Inactive)
REMARK    1  A    between atoms: C1_2  and  C2_3 
ROOT
ATOM      1  C2  UNL d   1      -0.101   0.149   1.387  0.00  0.00    -0.073 A 
ATOM      2  C3  UNL d   1      -0.022  -0.782   2.429  0.00  0.00    -0.002 A 
ATOM      3  C4  UNL d   1      -1.182  -1.360   2.947  0.00  0.00     0.004 A 
ATOM      4  C5  UNL d   1      -2.430  -1.018   2.426  0.00  0.00    -0.004 A 
ATOM      5  C6  UNL d   1      -2.529  -0.099   1.377  0.00  0.00    -0.075 A 
ATOM      6  C7  UNL d   1      -3.864   0.281   0.806  0.00  0.00     0.076 C 
ATOM      7  C8  UNL d   1      -1.360   0.479   0.863  0.00  0.00     0.001 A 
ENDROOT
BRANCH   1   8
ATOM      8  C1  UNL d   1       1.149   0.771   0.819  0.00  0.00     0.053 C 
ATOM      9  C   UNL d   1       2.343   0.595   1.744  0.00  0.00     0.018 C 
ENDBRANCH   1   8
TORSDOF 1
ENDMDL
