MODEL 1
REMARK minimizedAffinity -5.00783443
REMARK minimizedRMSD -1
REMARK  1 active torsions:
REMARK  status: ('A' for Active; 'I' for Inactive)
REMARK    1  A    between atoms: C1_2  and  C2_3 
ROOT
ATOM      1  C2  UNL d   1       0.377  -0.173   0.257  0.00  0.00    -0.073 A 
ATOM      2  C3  UNL d   1       1.522  -0.294   1.054  0.00  0.00    -0.002 A 
ATOM      3  C4  UNL d   1       1.412  -0.671   2.393  0.00  0.00     0.004 A 
ATOM      4  C5  UNL d   1       0.160  -0.937   2.947  0.00  0.00    -0.004 A 
ATOM      5  C6  UNL d   1      -0.994  -0.834   2.164  0.00  0.00    -0.075 A 
ATOM      6  C7  UNL d   1      -2.349  -1.115   2.745  0.00  0.00     0.076 C 
ATOM      7  C8  UNL d   1      -0.876  -0.452   0.821  0.00  0.00     0.001 A 
ENDROOT
BRANCH   1   8
ATOM      8  C1  UNL d   1       0.491   0.227  -1.191  0.00  0.00     0.053 C 
ATOM      9  C   UNL d   1       0.590  -0.980  -2.110  0.00  0.00     0.018 C 
ENDBRANCH   1   8
TORSDOF 1
ENDMDL
