MODEL 1
REMARK minimizedAffinity -6.02370214
REMARK minimizedRMSD -1
REMARK  1 active torsions:
REMARK  status: ('A' for Active; 'I' for Inactive)
REMARK    1  A    between atoms: C1_2  and  C2_3 
ROOT
ATOM      1  C2  UNL d   1      -1.097   0.065   2.227  0.00  0.00    -0.073 A 
ATOM      2  C3  UNL d   1       0.075   0.349   2.938  0.00  0.00    -0.002 A 
ATOM      3  C4  UNL d   1       1.265   0.612   2.258  0.00  0.00     0.004 A 
ATOM      4  C5  UNL d   1       1.294   0.602   0.864  0.00  0.00    -0.004 A 
ATOM      5  C6  UNL d   1       0.131   0.333   0.136  0.00  0.00    -0.075 A 
ATOM      6  C7  UNL d   1       0.146   0.316  -1.365  0.00  0.00     0.076 C 
ATOM      7  C8  UNL d   1      -1.060   0.066   0.825  0.00  0.00     0.001 A 
ENDROOT
BRANCH   1   8
ATOM      8  C1  UNL d   1      -2.386  -0.214   2.956  0.00  0.00     0.053 C 
ATOM      9  C   UNL d   1      -2.153  -0.958   4.261  0.00  0.00     0.018 C 
ENDBRANCH   1   8
TORSDOF 1
ENDMDL
