MODEL 1
REMARK minimizedAffinity -4.29038858
REMARK minimizedRMSD -1
REMARK  1 active torsions:
REMARK  status: ('A' for Active; 'I' for Inactive)
REMARK    1  A    between atoms: C1_2  and  C2_3 
ROOT
ATOM      1  C2  UNL d   1      -0.083   0.426   0.010  0.00  0.00    -0.073 A 
ATOM      2  C3  UNL d   1       0.986  -0.179   0.681  0.00  0.00    -0.002 A 
ATOM      3  C4  UNL d   1       0.907  -0.430   2.052  0.00  0.00     0.004 A 
ATOM      4  C5  UNL d   1      -0.243  -0.087   2.763  0.00  0.00    -0.004 A 
ATOM      5  C6  UNL d   1      -1.327   0.507   2.108  0.00  0.00    -0.075 A 
ATOM      6  C7  UNL d   1      -2.570   0.885   2.859  0.00  0.00     0.076 C 
ATOM      7  C8  UNL d   1      -1.238   0.759   0.732  0.00  0.00     0.001 A 
ENDROOT
BRANCH   1   8
ATOM      8  C1  UNL d   1      -0.004   0.693  -1.470  0.00  0.00     0.053 C 
ATOM      9  C   UNL d   1       0.654  -0.453  -2.223  0.00  0.00     0.018 C 
ENDBRANCH   1   8
TORSDOF 1
ENDMDL
