MODEL 1
REMARK minimizedAffinity -2.76476336
REMARK minimizedRMSD -1
REMARK  1 active torsions:
REMARK  status: ('A' for Active; 'I' for Inactive)
REMARK    1  A    between atoms: C1_2  and  C2_3 
ROOT
ATOM      1  C2  UNL d   1       0.355  -0.887  -1.584  0.00  0.00    -0.073 A 
ATOM      2  C3  UNL d   1      -0.151   0.372  -1.924  0.00  0.00    -0.002 A 
ATOM      3  C4  UNL d   1      -0.303   1.358  -0.948  0.00  0.00     0.004 A 
ATOM      4  C5  UNL d   1       0.055   1.098   0.374  0.00  0.00    -0.004 A 
ATOM      5  C6  UNL d   1       0.575  -0.150   0.732  0.00  0.00    -0.075 A 
ATOM      6  C7  UNL d   1       0.963  -0.446   2.151  0.00  0.00     0.076 C 
ATOM      7  C8  UNL d   1       0.722  -1.136  -0.253  0.00  0.00     0.001 A 
ENDROOT
BRANCH   1   8
ATOM      8  C1  UNL d   1       0.528  -1.953  -2.635  0.00  0.00     0.053 C 
ATOM      9  C   UNL d   1       1.982  -2.117  -3.048  0.00  0.00     0.018 C 
ENDBRANCH   1   8
TORSDOF 1
ENDMDL
