MODEL 1
REMARK minimizedAffinity -3.27909446
REMARK minimizedRMSD -1
REMARK  1 active torsions:
REMARK  status: ('A' for Active; 'I' for Inactive)
REMARK    1  A    between atoms: C1_2  and  C2_3 
ROOT
ATOM      1  C2  UNL d   1       0.401   0.087  -0.773  0.00  0.00    -0.073 A 
ATOM      2  C3  UNL d   1       1.350  -0.042   0.247  0.00  0.00    -0.002 A 
ATOM      3  C4  UNL d   1       0.972   0.098   1.583  0.00  0.00     0.004 A 
ATOM      4  C5  UNL d   1      -0.358   0.362   1.912  0.00  0.00    -0.004 A 
ATOM      5  C6  UNL d   1      -1.322   0.483   0.907  0.00  0.00    -0.075 A 
ATOM      6  C7  UNL d   1      -2.756   0.770   1.245  0.00  0.00     0.076 C 
ATOM      7  C8  UNL d   1      -0.934   0.344  -0.432  0.00  0.00     0.001 A 
ENDROOT
BRANCH   1   8
ATOM      8  C1  UNL d   1       0.804  -0.070  -2.217  0.00  0.00     0.053 C 
ATOM      9  C   UNL d   1       0.121  -1.260  -2.873  0.00  0.00     0.018 C 
ENDBRANCH   1   8
TORSDOF 1
ENDMDL
