MODEL 1
REMARK minimizedAffinity -5.81711912
REMARK minimizedRMSD -1
REMARK  1 active torsions:
REMARK  status: ('A' for Active; 'I' for Inactive)
REMARK    1  A    between atoms: C1_2  and  C2_3 
ROOT
ATOM      1  C2  UNL d   1      -0.650  -0.362   1.810  0.00  0.00    -0.073 A 
ATOM      2  C3  UNL d   1      -1.321  -0.317   0.583  0.00  0.00    -0.002 A 
ATOM      3  C4  UNL d   1      -0.645   0.063  -0.577  0.00  0.00     0.004 A 
ATOM      4  C5  UNL d   1       0.709   0.395  -0.524  0.00  0.00    -0.004 A 
ATOM      5  C6  UNL d   1       1.400   0.344   0.691  0.00  0.00    -0.075 A 
ATOM      6  C7  UNL d   1       2.856   0.700   0.766  0.00  0.00     0.076 C 
ATOM      7  C8  UNL d   1       0.713  -0.036   1.852  0.00  0.00     0.001 A 
ENDROOT
BRANCH   1   8
ATOM      8  C1  UNL d   1      -1.375  -0.778   3.064  0.00  0.00     0.053 C 
ATOM      9  C   UNL d   1      -1.810   0.419   3.894  0.00  0.00     0.018 C 
ENDBRANCH   1   8
TORSDOF 1
ENDMDL
