MODEL 1
REMARK minimizedAffinity -6.46929502
REMARK minimizedRMSD -1
REMARK  1 active torsions:
REMARK  status: ('A' for Active; 'I' for Inactive)
REMARK    1  A    between atoms: C1_2  and  C2_3 
ROOT
ATOM      1  C2  UNL d   1      -1.622   0.121   1.859  0.00  0.00    -0.073 A 
ATOM      2  C3  UNL d   1      -0.496   0.209   2.686  0.00  0.00    -0.002 A 
ATOM      3  C4  UNL d   1       0.763   0.461   2.139  0.00  0.00     0.004 A 
ATOM      4  C5  UNL d   1       0.909   0.635   0.763  0.00  0.00    -0.004 A 
ATOM      5  C6  UNL d   1      -0.206   0.562  -0.079  0.00  0.00    -0.075 A 
ATOM      6  C7  UNL d   1      -0.065   0.744  -1.562  0.00  0.00     0.076 C 
ATOM      7  C8  UNL d   1      -1.466   0.306   0.477  0.00  0.00     0.001 A 
ENDROOT
BRANCH   1   8
ATOM      8  C1  UNL d   1      -2.984  -0.144   2.445  0.00  0.00     0.053 C 
ATOM      9  C   UNL d   1      -2.901  -0.617   3.888  0.00  0.00     0.018 C 
ENDBRANCH   1   8
TORSDOF 1
ENDMDL
