MODEL 1
REMARK minimizedAffinity -2.43130922
REMARK minimizedRMSD -1
REMARK  1 active torsions:
REMARK  status: ('A' for Active; 'I' for Inactive)
REMARK    1  A    between atoms: C3_4  and  O_7 
ROOT
ATOM      1  C   UNL d   1      -0.159   0.824  -0.775  0.00  0.00    -0.033 A 
ATOM      2  C1  UNL d   1      -0.732   0.800   0.498  0.00  0.00     0.039 A 
ATOM      3  C2  UNL d   1      -0.891  -0.413   1.171  0.00  0.00    -0.080 A 
ATOM      4  C3  UNL d   1      -0.473  -1.592   0.561  0.00  0.00     0.150 A 
ATOM      5  C4  UNL d   1       0.102  -1.575  -0.705  0.00  0.00    -0.007 A 
ATOM      6  C5  UNL d   1       0.260  -0.363  -1.376  0.00  0.00     0.039 A 
ENDROOT
BRANCH   4   7
ATOM      7  O   UNL d   1      -0.613  -2.801   1.177  0.00  0.00    -0.526 OA
ATOM      8  H5  UNL d   1      -1.052  -2.661   2.033  0.00  0.00     0.418 HD
ENDBRANCH   4   7
TORSDOF 1
ENDMDL
