MODEL 1
REMARK minimizedAffinity 5.16414022
REMARK minimizedRMSD -1
REMARK  1 active torsions:
REMARK  status: ('A' for Active; 'I' for Inactive)
REMARK    1  A    between atoms: C3_4  and  O_7 
ROOT
ATOM      1  C   UNL d   1       4.369   3.525  -0.899  0.00  0.00    -0.033 A 
ATOM      2  C1  UNL d   1       3.811   4.676  -0.339  0.00  0.00     0.039 A 
ATOM      3  C2  UNL d   1       2.819   4.569   0.638  0.00  0.00    -0.080 A 
ATOM      4  C3  UNL d   1       2.395   3.307   1.046  0.00  0.00     0.150 A 
ATOM      5  C4  UNL d   1       2.949   2.156   0.495  0.00  0.00    -0.007 A 
ATOM      6  C5  UNL d   1       3.938   2.265  -0.481  0.00  0.00     0.039 A 
ENDROOT
BRANCH   4   7
ATOM      7  O   UNL d   1       1.426   3.153   1.992  0.00  0.00    -0.526 OA
ATOM      8  H5  UNL d   1       1.116   4.033   2.262  0.00  0.00     0.418 HD
ENDBRANCH   4   7
TORSDOF 1
ENDMDL
