MODEL 1
REMARK minimizedAffinity -3.14252305
REMARK minimizedRMSD -1
REMARK  1 active torsions:
REMARK  status: ('A' for Active; 'I' for Inactive)
REMARK    1  A    between atoms: C3_4  and  O_7 
ROOT
ATOM      1  C   UNL d   1       0.488   2.524   0.153  0.00  0.00    -0.033 A 
ATOM      2  C1  UNL d   1       1.201   1.346   0.380  0.00  0.00     0.039 A 
ATOM      3  C2  UNL d   1       2.401   1.380   1.092  0.00  0.00    -0.080 A 
ATOM      4  C3  UNL d   1       2.876   2.598   1.571  0.00  0.00     0.150 A 
ATOM      5  C4  UNL d   1       2.169   3.775   1.352  0.00  0.00    -0.007 A 
ATOM      6  C5  UNL d   1       0.971   3.739   0.640  0.00  0.00     0.039 A 
ENDROOT
BRANCH   4   7
ATOM      7  O   UNL d   1       4.046   2.682   2.267  0.00  0.00    -0.526 OA
ATOM      8  H5  UNL d   1       4.439   1.795   2.317  0.00  0.00     0.418 HD
ENDBRANCH   4   7
TORSDOF 1
ENDMDL
