MODEL 1
REMARK minimizedAffinity -3.94982576
REMARK minimizedRMSD -1
REMARK  1 active torsions:
REMARK  status: ('A' for Active; 'I' for Inactive)
REMARK    1  A    between atoms: C3_4  and  O_7 
ROOT
ATOM      1  C   UNL d   1      -0.018  -3.173  -1.633  0.00  0.00    -0.033 A 
ATOM      2  C1  UNL d   1      -1.158  -3.514  -2.363  0.00  0.00     0.039 A 
ATOM      3  C2  UNL d   1      -2.345  -3.831  -1.699  0.00  0.00    -0.080 A 
ATOM      4  C3  UNL d   1      -2.378  -3.803  -0.307  0.00  0.00     0.150 A 
ATOM      5  C4  UNL d   1      -1.246  -3.461   0.426  0.00  0.00    -0.007 A 
ATOM      6  C5  UNL d   1      -0.062  -3.146  -0.239  0.00  0.00     0.039 A 
ENDROOT
BRANCH   4   7
ATOM      7  O   UNL d   1      -3.512  -4.109   0.385  0.00  0.00    -0.526 OA
ATOM      8  H5  UNL d   1      -4.204  -4.354  -0.251  0.00  0.00     0.418 HD
ENDBRANCH   4   7
TORSDOF 1
ENDMDL
