MODEL 1
REMARK minimizedAffinity 0.244344175
REMARK minimizedRMSD -1
REMARK  1 active torsions:
REMARK  status: ('A' for Active; 'I' for Inactive)
REMARK    1  A    between atoms: C3_4  and  O_7 
ROOT
ATOM      1  C   UNL d   1       5.918  -1.109   4.395  0.00  0.00    -0.033 A 
ATOM      2  C1  UNL d   1       5.938  -2.035   3.351  0.00  0.00     0.039 A 
ATOM      3  C2  UNL d   1       5.964  -3.403   3.630  0.00  0.00    -0.080 A 
ATOM      4  C3  UNL d   1       5.968  -3.831   4.955  0.00  0.00     0.150 A 
ATOM      5  C4  UNL d   1       5.944  -2.913   6.000  0.00  0.00    -0.007 A 
ATOM      6  C5  UNL d   1       5.920  -1.547   5.720  0.00  0.00     0.039 A 
ENDROOT
BRANCH   4   7
ATOM      7  O   UNL d   1       5.997  -5.155   5.276  0.00  0.00    -0.526 OA
ATOM      8  H5  UNL d   1       6.040  -5.671   4.454  0.00  0.00     0.418 HD
ENDBRANCH   4   7
TORSDOF 1
ENDMDL
