MODEL 1
REMARK minimizedAffinity 0.890923798
REMARK minimizedRMSD -1
REMARK  1 active torsions:
REMARK  status: ('A' for Active; 'I' for Inactive)
REMARK    1  A    between atoms: C3_4  and  O_7 
ROOT
ATOM      1  C   UNL d   1      -0.686   0.745  -0.985  0.00  0.00    -0.033 A 
ATOM      2  C1  UNL d   1       0.431   0.180  -1.602  0.00  0.00     0.039 A 
ATOM      3  C2  UNL d   1       0.799  -1.136  -1.314  0.00  0.00    -0.080 A 
ATOM      4  C3  UNL d   1       0.041  -1.875  -0.410  0.00  0.00     0.150 A 
ATOM      5  C4  UNL d   1      -1.076  -1.320   0.205  0.00  0.00    -0.007 A 
ATOM      6  C5  UNL d   1      -1.441  -0.005  -0.083  0.00  0.00     0.039 A 
ENDROOT
BRANCH   4   7
ATOM      7  O   UNL d   1       0.363  -3.162  -0.094  0.00  0.00    -0.526 OA
ATOM      8  H5  UNL d   1       1.174  -3.402  -0.573  0.00  0.00     0.418 HD
ENDBRANCH   4   7
TORSDOF 1
ENDMDL
