MODEL 1
REMARK minimizedAffinity -3.19026089
REMARK minimizedRMSD -1
REMARK  1 active torsions:
REMARK  status: ('A' for Active; 'I' for Inactive)
REMARK    1  A    between atoms: C3_4  and  O_7 
ROOT
ATOM      1  C   UNL d   1      -0.828  -2.448  -0.003  0.00  0.00    -0.033 A 
ATOM      2  C1  UNL d   1      -1.076  -1.772   1.194  0.00  0.00     0.039 A 
ATOM      3  C2  UNL d   1      -0.665  -0.446   1.347  0.00  0.00    -0.080 A 
ATOM      4  C3  UNL d   1      -0.011   0.192   0.297  0.00  0.00     0.150 A 
ATOM      5  C4  UNL d   1       0.235  -0.474  -0.900  0.00  0.00    -0.007 A 
ATOM      6  C5  UNL d   1      -0.174  -1.798  -1.050  0.00  0.00     0.039 A 
ENDROOT
BRANCH   4   7
ATOM      7  O   UNL d   1       0.412   1.483   0.401  0.00  0.00    -0.526 OA
ATOM      8  H5  UNL d   1       0.200   1.806   1.292  0.00  0.00     0.418 HD
ENDBRANCH   4   7
TORSDOF 1
ENDMDL
