MODEL 1
REMARK minimizedAffinity -3.39890957
REMARK minimizedRMSD -1
REMARK  1 active torsions:
REMARK  status: ('A' for Active; 'I' for Inactive)
REMARK    1  A    between atoms: C3_4  and  O_7 
ROOT
ATOM      1  C   UNL d   1      -1.436  -2.038   1.290  0.00  0.00    -0.033 A 
ATOM      2  C1  UNL d   1      -0.922  -1.247   2.319  0.00  0.00     0.039 A 
ATOM      3  C2  UNL d   1      -0.219  -0.078   2.019  0.00  0.00    -0.080 A 
ATOM      4  C3  UNL d   1      -0.040   0.289   0.688  0.00  0.00     0.150 A 
ATOM      5  C4  UNL d   1      -0.553  -0.493  -0.342  0.00  0.00    -0.007 A 
ATOM      6  C5  UNL d   1      -1.253  -1.660  -0.040  0.00  0.00     0.039 A 
ENDROOT
BRANCH   4   7
ATOM      7  O   UNL d   1       0.643   1.418   0.346  0.00  0.00    -0.526 OA
ATOM      8  H5  UNL d   1       0.964   1.842   1.160  0.00  0.00     0.418 HD
ENDBRANCH   4   7
TORSDOF 1
ENDMDL
