MODEL 1
REMARK minimizedAffinity -3.57357478
REMARK minimizedRMSD -1
REMARK  1 active torsions:
REMARK  status: ('A' for Active; 'I' for Inactive)
REMARK    1  A    between atoms: C3_4  and  O_7 
ROOT
ATOM      1  C   UNL d   1      -0.743  -2.845  -0.655  0.00  0.00    -0.033 A 
ATOM      2  C1  UNL d   1      -1.020  -2.240   0.572  0.00  0.00     0.039 A 
ATOM      3  C2  UNL d   1      -0.843  -0.865   0.731  0.00  0.00    -0.080 A 
ATOM      4  C3  UNL d   1      -0.390  -0.106  -0.345  0.00  0.00     0.150 A 
ATOM      5  C4  UNL d   1      -0.116  -0.701  -1.572  0.00  0.00    -0.007 A 
ATOM      6  C5  UNL d   1      -0.292  -2.075  -1.728  0.00  0.00     0.039 A 
ENDROOT
BRANCH   4   7
ATOM      7  O   UNL d   1      -0.197   1.240  -0.237  0.00  0.00    -0.526 OA
ATOM      8  H5  UNL d   1      -0.399   1.507   0.675  0.00  0.00     0.418 HD
ENDBRANCH   4   7
TORSDOF 1
ENDMDL
