MODEL 1
REMARK minimizedAffinity -5.88654232
REMARK minimizedRMSD -1
REMARK  1 active torsions:
REMARK  status: ('A' for Active; 'I' for Inactive)
REMARK    1  A    between atoms: C3_4  and  O_7 
ROOT
ATOM      1  C   UNL d   1       0.096  -3.221   0.099  0.00  0.00    -0.033 A 
ATOM      2  C1  UNL d   1       0.389  -1.910   0.481  0.00  0.00     0.039 A 
ATOM      3  C2  UNL d   1       0.415  -0.892  -0.474  0.00  0.00    -0.080 A 
ATOM      4  C3  UNL d   1       0.145  -1.197  -1.806  0.00  0.00     0.150 A 
ATOM      5  C4  UNL d   1      -0.151  -2.500  -2.193  0.00  0.00    -0.007 A 
ATOM      6  C5  UNL d   1      -0.175  -3.515  -1.238  0.00  0.00     0.039 A 
ENDROOT
BRANCH   4   7
ATOM      7  O   UNL d   1       0.163  -0.238  -2.774  0.00  0.00    -0.526 OA
ATOM      8  H5  UNL d   1       0.411   0.608  -2.365  0.00  0.00     0.418 HD
ENDBRANCH   4   7
TORSDOF 1
ENDMDL
