MODEL 1
REMARK minimizedAffinity -2.8950572
REMARK minimizedRMSD -1
REMARK  1 active torsions:
REMARK  status: ('A' for Active; 'I' for Inactive)
REMARK    1  A    between atoms: C3_4  and  O_7 
ROOT
ATOM      1  C   UNL d   1      -1.067  -2.462   0.807  0.00  0.00    -0.033 A 
ATOM      2  C1  UNL d   1      -0.424  -2.118  -0.384  0.00  0.00     0.039 A 
ATOM      3  C2  UNL d   1      -0.158  -0.778  -0.674  0.00  0.00    -0.080 A 
ATOM      4  C3  UNL d   1      -0.538   0.206   0.234  0.00  0.00     0.150 A 
ATOM      5  C4  UNL d   1      -1.175  -0.129   1.424  0.00  0.00    -0.007 A 
ATOM      6  C5  UNL d   1      -1.441  -1.467   1.712  0.00  0.00     0.039 A 
ENDROOT
BRANCH   4   7
ATOM      7  O   UNL d   1      -0.304   1.527  -0.008  0.00  0.00    -0.526 OA
ATOM      8  H5  UNL d   1       0.117   1.611  -0.880  0.00  0.00     0.418 HD
ENDBRANCH   4   7
TORSDOF 1
ENDMDL
