MODEL 1
REMARK minimizedAffinity -5.0162859
REMARK minimizedRMSD -1
REMARK  1 active torsions:
REMARK  status: ('A' for Active; 'I' for Inactive)
REMARK    1  A    between atoms: C3_4  and  O_7 
ROOT
ATOM      1  C   UNL d   1       0.227  -4.136  -1.344  0.00  0.00    -0.033 A 
ATOM      2  C1  UNL d   1       0.277  -3.199  -2.377  0.00  0.00     0.039 A 
ATOM      3  C2  UNL d   1       0.183  -1.835  -2.091  0.00  0.00    -0.080 A 
ATOM      4  C3  UNL d   1       0.040  -1.423  -0.769  0.00  0.00     0.150 A 
ATOM      5  C4  UNL d   1      -0.007  -2.352   0.266  0.00  0.00    -0.007 A 
ATOM      6  C5  UNL d   1       0.087  -3.712  -0.022  0.00  0.00     0.039 A 
ENDROOT
BRANCH   4   7
ATOM      7  O   UNL d   1      -0.061  -0.104  -0.441  0.00  0.00    -0.526 OA
ATOM      8  H5  UNL d   1      -0.043   0.419  -1.259  0.00  0.00     0.418 HD
ENDBRANCH   4   7
TORSDOF 1
ENDMDL
