MODEL 1
REMARK minimizedAffinity 2.46930718
REMARK minimizedRMSD -1
REMARK  0 active torsions:
REMARK  status: ('A' for Active; 'I' for Inactive)
ROOT
ATOM      1  C1  BNZ d   1      -0.580  -1.590   3.740  0.00  0.00     0.000 A 
ATOM      2  C2  BNZ d   1      -1.834  -1.178   3.379  0.00  0.00     0.000 A 
ATOM      3  C3  BNZ d   1      -2.007  -0.094   2.564  0.00  0.00     0.000 A 
ATOM      4  C4  BNZ d   1      -0.929   0.598   2.144  0.00  0.00     0.000 A 
ATOM      5  C5  BNZ d   1       0.342   0.201   2.507  0.00  0.00     0.000 A 
ATOM      6  C6  BNZ d   1       0.514  -0.913   3.296  0.00  0.00     0.000 A 
ENDROOT
TORSDOF 0
ENDMDL
