MODEL 1
REMARK minimizedAffinity -4.27499151
REMARK minimizedRMSD -1
REMARK  0 active torsions:
REMARK  status: ('A' for Active; 'I' for Inactive)
ROOT
ATOM      1  C1  BNZ d   1       0.901   0.416   2.225  0.00  0.00     0.000 A 
ATOM      2  C2  BNZ d   1       1.247   0.550   0.906  0.00  0.00     0.000 A 
ATOM      3  C3  BNZ d   1       0.422   0.094  -0.083  0.00  0.00     0.000 A 
ATOM      4  C4  BNZ d   1      -0.727  -0.530   0.247  0.00  0.00     0.000 A 
ATOM      5  C5  BNZ d   1      -1.085  -0.681   1.571  0.00  0.00     0.000 A 
ATOM      6  C6  BNZ d   1      -0.271  -0.186   2.564  0.00  0.00     0.000 A 
ENDROOT
TORSDOF 0
ENDMDL
