MODEL 1
REMARK minimizedAffinity 1.09115291
REMARK minimizedRMSD -1
REMARK  0 active torsions:
REMARK  status: ('A' for Active; 'I' for Inactive)
ROOT
ATOM      1  C1  BNZ d   1      -2.608   0.191   0.498  0.00  0.00     0.000 A 
ATOM      2  C2  BNZ d   1      -3.890   0.577   0.786  0.00  0.00     0.000 A 
ATOM      3  C3  BNZ d   1      -4.248   0.921   2.059  0.00  0.00     0.000 A 
ATOM      4  C4  BNZ d   1      -3.336   0.840   3.049  0.00  0.00     0.000 A 
ATOM      5  C5  BNZ d   1      -2.042   0.443   2.777  0.00  0.00     0.000 A 
ATOM      6  C6  BNZ d   1      -1.675   0.136   1.487  0.00  0.00     0.000 A 
ENDROOT
TORSDOF 0
ENDMDL
