MODEL 1
REMARK minimizedAffinity 1.86248839
REMARK minimizedRMSD -1
REMARK  0 active torsions:
REMARK  status: ('A' for Active; 'I' for Inactive)
ROOT
ATOM      1  C1  BNZ d   1      -2.897  -0.310   2.605  0.00  0.00     0.000 A 
ATOM      2  C2  BNZ d   1      -4.168  -0.037   2.175  0.00  0.00     0.000 A 
ATOM      3  C3  BNZ d   1      -4.384   0.586   0.978  0.00  0.00     0.000 A 
ATOM      4  C4  BNZ d   1      -3.329   0.971   0.231  0.00  0.00     0.000 A 
ATOM      5  C5  BNZ d   1      -2.041   0.711   0.655  0.00  0.00     0.000 A 
ATOM      6  C6  BNZ d   1      -1.828   0.049   1.842  0.00  0.00     0.000 A 
ENDROOT
TORSDOF 0
ENDMDL
