MODEL 1
REMARK minimizedAffinity 3.1454525
REMARK minimizedRMSD -1
REMARK  0 active torsions:
REMARK  status: ('A' for Active; 'I' for Inactive)
ROOT
ATOM      1  C1  BNZ d   1      -2.575   0.454   3.047  0.00  0.00     0.000 A 
ATOM      2  C2  BNZ d   1      -3.775   0.494   2.387  0.00  0.00     0.000 A 
ATOM      3  C3  BNZ d   1      -3.843   0.247   1.045  0.00  0.00     0.000 A 
ATOM      4  C4  BNZ d   1      -2.710   0.000   0.357  0.00  0.00     0.000 A 
ATOM      5  C5  BNZ d   1      -1.492  -0.034   1.006  0.00  0.00     0.000 A 
ATOM      6  C6  BNZ d   1      -1.431   0.177   2.365  0.00  0.00     0.000 A 
ENDROOT
TORSDOF 0
ENDMDL
