MODEL 1
REMARK minimizedAffinity 1.27287722
REMARK minimizedRMSD -1
REMARK  0 active torsions:
REMARK  status: ('A' for Active; 'I' for Inactive)
ROOT
ATOM      1  C1  BNZ d   1      -2.546   0.020   3.030  0.00  0.00     0.000 A 
ATOM      2  C2  BNZ d   1      -3.753   0.533   2.635  0.00  0.00     0.000 A 
ATOM      3  C3  BNZ d   1      -4.095   0.577   1.312  0.00  0.00     0.000 A 
ATOM      4  C4  BNZ d   1      -3.215   0.146   0.385  0.00  0.00     0.000 A 
ATOM      5  C5  BNZ d   1      -1.991  -0.364   0.767  0.00  0.00     0.000 A 
ATOM      6  C6  BNZ d   1      -1.665  -0.443   2.102  0.00  0.00     0.000 A 
ENDROOT
TORSDOF 0
ENDMDL
