MODEL 1
REMARK minimizedAffinity 1.42140496
REMARK minimizedRMSD -1
REMARK  0 active torsions:
REMARK  status: ('A' for Active; 'I' for Inactive)
ROOT
ATOM      1  C1  BNZ d   1      -1.441   0.396   1.306  0.00  0.00     0.000 A 
ATOM      2  C2  BNZ d   1      -2.769   0.710   1.190  0.00  0.00     0.000 A 
ATOM      3  C3  BNZ d   1      -3.656   0.373   2.173  0.00  0.00     0.000 A 
ATOM      4  C4  BNZ d   1      -3.223  -0.312   3.251  0.00  0.00     0.000 A 
ATOM      5  C5  BNZ d   1      -1.889  -0.644   3.379  0.00  0.00     0.000 A 
ATOM      6  C6  BNZ d   1      -0.992  -0.269   2.405  0.00  0.00     0.000 A 
ENDROOT
TORSDOF 0
ENDMDL
