MODEL 1
REMARK minimizedAffinity 1.98419988
REMARK minimizedRMSD -1
REMARK  0 active torsions:
REMARK  status: ('A' for Active; 'I' for Inactive)
ROOT
ATOM      1  C1  BNZ d   1       1.575   2.479   3.265  0.00  0.00     0.000 A 
ATOM      2  C2  BNZ d   1       0.848   1.528   3.930  0.00  0.00     0.000 A 
ATOM      3  C3  BNZ d   1       0.206   0.533   3.247  0.00  0.00     0.000 A 
ATOM      4  C4  BNZ d   1       0.259   0.512   1.899  0.00  0.00     0.000 A 
ATOM      5  C5  BNZ d   1       0.980   1.469   1.214  0.00  0.00     0.000 A 
ATOM      6  C6  BNZ d   1       1.657   2.447   1.907  0.00  0.00     0.000 A 
ENDROOT
TORSDOF 0
ENDMDL
