MODEL 1
REMARK minimizedAffinity -2.97269797
REMARK minimizedRMSD -1
REMARK  0 active torsions:
REMARK  status: ('A' for Active; 'I' for Inactive)
ROOT
ATOM      1  C1  BNZ d   1       0.203   0.391   1.058  0.00  0.00     0.000 A 
ATOM      2  C2  BNZ d   1      -0.816   0.764   0.223  0.00  0.00     0.000 A 
ATOM      3  C3  BNZ d   1      -0.619   0.852  -1.127  0.00  0.00     0.000 A 
ATOM      4  C4  BNZ d   1       0.606   0.606  -1.635  0.00  0.00     0.000 A 
ATOM      5  C5  BNZ d   1       1.646   0.238  -0.805  0.00  0.00     0.000 A 
ATOM      6  C6  BNZ d   1       1.434   0.113   0.548  0.00  0.00     0.000 A 
ENDROOT
TORSDOF 0
ENDMDL
