MODEL 1
REMARK minimizedAffinity 4.09736681
REMARK minimizedRMSD -1
REMARK  0 active torsions:
REMARK  status: ('A' for Active; 'I' for Inactive)
ROOT
ATOM      1  C1  BNZ d   1      -1.450  -0.743   2.421  0.00  0.00     0.000 A 
ATOM      2  C2  BNZ d   1      -0.248  -1.353   2.667  0.00  0.00     0.000 A 
ATOM      3  C3  BNZ d   1       0.893  -0.616   2.816  0.00  0.00     0.000 A 
ATOM      4  C4  BNZ d   1       0.839   0.725   2.680  0.00  0.00     0.000 A 
ATOM      5  C5  BNZ d   1      -0.363   1.354   2.423  0.00  0.00     0.000 A 
ATOM      6  C6  BNZ d   1      -1.516   0.612   2.312  0.00  0.00     0.000 A 
ENDROOT
TORSDOF 0
ENDMDL
