MODEL 1
REMARK minimizedAffinity -2.55543327
REMARK minimizedRMSD -1
REMARK  0 active torsions:
REMARK  status: ('A' for Active; 'I' for Inactive)
ROOT
ATOM      1  C1  BNZ d   1       0.323   0.772   2.880  0.00  0.00     0.000 A 
ATOM      2  C2  BNZ d   1      -0.582   0.375   3.827  0.00  0.00     0.000 A 
ATOM      3  C3  BNZ d   1      -1.852   0.015   3.474  0.00  0.00     0.000 A 
ATOM      4  C4  BNZ d   1      -2.228   0.092   2.181  0.00  0.00     0.000 A 
ATOM      5  C5  BNZ d   1      -1.330   0.500   1.215  0.00  0.00     0.000 A 
ATOM      6  C6  BNZ d   1      -0.040   0.824   1.569  0.00  0.00     0.000 A 
ENDROOT
TORSDOF 0
ENDMDL
