MODEL 1
REMARK minimizedAffinity 0.577722847
REMARK minimizedRMSD -1
REMARK  0 active torsions:
REMARK  status: ('A' for Active; 'I' for Inactive)
ROOT
ATOM      1  C1  BNZ d   1      -0.154   0.674   0.240  0.00  0.00     0.000 A 
ATOM      2  C2  BNZ d   1      -0.618   0.564   1.523  0.00  0.00     0.000 A 
ATOM      3  C3  BNZ d   1       0.248   0.432   2.572  0.00  0.00     0.000 A 
ATOM      4  C4  BNZ d   1       1.574   0.371   2.333  0.00  0.00     0.000 A 
ATOM      5  C5  BNZ d   1       2.058   0.472   1.044  0.00  0.00     0.000 A 
ATOM      6  C6  BNZ d   1       1.185   0.643  -0.006  0.00  0.00     0.000 A 
ENDROOT
TORSDOF 0
ENDMDL
