MODEL 1
REMARK minimizedAffinity 0.194199175
REMARK minimizedRMSD -1
REMARK  0 active torsions:
REMARK  status: ('A' for Active; 'I' for Inactive)
ROOT
ATOM      1  C1  BNZ d   1       0.927  -0.042   2.030  0.00  0.00     0.000 A 
ATOM      2  C2  BNZ d   1       0.013   0.191   1.037  0.00  0.00     0.000 A 
ATOM      3  C3  BNZ d   1       0.362   0.884  -0.088  0.00  0.00     0.000 A 
ATOM      4  C4  BNZ d   1       1.613   1.377  -0.201  0.00  0.00     0.000 A 
ATOM      5  C5  BNZ d   1       2.543   1.158   0.795  0.00  0.00     0.000 A 
ATOM      6  C6  BNZ d   1       2.199   0.427   1.908  0.00  0.00     0.000 A 
ENDROOT
TORSDOF 0
ENDMDL
