MODEL 1
REMARK minimizedAffinity -2.42556763
REMARK minimizedRMSD -1
REMARK  0 active torsions:
REMARK  status: ('A' for Active; 'I' for Inactive)
ROOT
ATOM      1  C1  BNZ d   1      -1.061   0.837   3.327  0.00  0.00     0.000 A 
ATOM      2  C2  BNZ d   1      -1.478   0.468   2.076  0.00  0.00     0.000 A 
ATOM      3  C3  BNZ d   1      -0.573   0.168   1.097  0.00  0.00     0.000 A 
ATOM      4  C4  BNZ d   1       0.746   0.277   1.356  0.00  0.00     0.000 A 
ATOM      5  C5  BNZ d   1       1.182   0.657   2.610  0.00  0.00     0.000 A 
ATOM      6  C6  BNZ d   1       0.269   0.920   3.605  0.00  0.00     0.000 A 
ENDROOT
TORSDOF 0
ENDMDL
