MODEL 1
REMARK minimizedAffinity -2.12880707
REMARK minimizedRMSD -1
REMARK  0 active torsions:
REMARK  status: ('A' for Active; 'I' for Inactive)
ROOT
ATOM      1  C1  BNZ d   1       1.177   0.303  -0.306  0.00  0.00     0.000 A 
ATOM      2  C2  BNZ d   1       1.754   0.199   0.932  0.00  0.00     0.000 A 
ATOM      3  C3  BNZ d   1       1.001   0.312   2.067  0.00  0.00     0.000 A 
ATOM      4  C4  BNZ d   1      -0.320   0.567   1.964  0.00  0.00     0.000 A 
ATOM      5  C5  BNZ d   1      -0.915   0.683   0.724  0.00  0.00     0.000 A 
ATOM      6  C6  BNZ d   1      -0.160   0.531  -0.417  0.00  0.00     0.000 A 
ENDROOT
TORSDOF 0
ENDMDL
