MODEL 1
REMARK minimizedAffinity -4.03724623
REMARK minimizedRMSD -1
REMARK  0 active torsions:
REMARK  status: ('A' for Active; 'I' for Inactive)
ROOT
ATOM      1  C1  BNZ d   1      -1.896  -0.447   1.398  0.00  0.00     0.000 A 
ATOM      2  C2  BNZ d   1      -1.243  -0.257   0.209  0.00  0.00     0.000 A 
ATOM      3  C3  BNZ d   1       0.087   0.055   0.184  0.00  0.00     0.000 A 
ATOM      4  C4  BNZ d   1       0.753   0.216   1.346  0.00  0.00     0.000 A 
ATOM      5  C5  BNZ d   1       0.106   0.038   2.552  0.00  0.00     0.000 A 
ATOM      6  C6  BNZ d   1      -1.224  -0.314   2.574  0.00  0.00     0.000 A 
ENDROOT
TORSDOF 0
ENDMDL
