MODEL 1
REMARK minimizedAffinity -2.6593895
REMARK minimizedRMSD -1
REMARK  0 active torsions:
REMARK  status: ('A' for Active; 'I' for Inactive)
ROOT
ATOM      1  C1  BNZ d   1       0.794   0.194   2.444  0.00  0.00     0.000 A 
ATOM      2  C2  BNZ d   1       1.477   0.768   1.406  0.00  0.00     0.000 A 
ATOM      3  C3  BNZ d   1       0.961   0.762   0.140  0.00  0.00     0.000 A 
ATOM      4  C4  BNZ d   1      -0.217   0.148  -0.093  0.00  0.00     0.000 A 
ATOM      5  C5  BNZ d   1      -0.913  -0.444   0.942  0.00  0.00     0.000 A 
ATOM      6  C6  BNZ d   1      -0.409  -0.402   2.222  0.00  0.00     0.000 A 
ENDROOT
TORSDOF 0
ENDMDL
