MODEL 1
REMARK minimizedAffinity 1.80849516
REMARK minimizedRMSD -1
REMARK  1 active torsions:
REMARK  status: ('A' for Active; 'I' for Inactive)
REMARK    1  A    between atoms: N_2  and  C1_3 
ROOT
ATOM      1  C1  UNL d   1       5.119  -3.438  -5.495  0.00  0.00     0.143 A 
ATOM      2  C2  UNL d   1       5.945  -4.452  -5.994  0.00  0.00    -0.057 A 
ATOM      3  C3  UNL d   1       5.998  -5.711  -5.383  0.00  0.00     0.033 A 
ATOM      4  C4  UNL d   1       5.246  -5.970  -4.242  0.00  0.00    -0.042 A 
ATOM      5  C5  UNL d   1       4.437  -4.969  -3.715  0.00  0.00     0.033 A 
ATOM      6  C6  UNL d   1       4.383  -3.716  -4.333  0.00  0.00    -0.057 A 
ENDROOT
BRANCH   1   7
ATOM      7  N   UNL d   1       5.097  -2.135  -5.999  0.00  0.00    -0.732 N 
ATOM      8  C   UNL d   1       3.883  -1.348  -5.954  0.00  0.00     0.284 C 
ATOM      9  H3  UNL d   1       5.939  -1.614  -5.766  0.00  0.00     0.395 HD
ENDBRANCH   1   7
TORSDOF 1
ENDMDL
