MODEL 1
REMARK minimizedAffinity 2.41875815
REMARK minimizedRMSD -1
REMARK  1 active torsions:
REMARK  status: ('A' for Active; 'I' for Inactive)
REMARK    1  A    between atoms: N_2  and  C1_3 
ROOT
ATOM      1  C1  UNL d   1       4.923  -4.569  -4.898  0.00  0.00     0.143 A 
ATOM      2  C2  UNL d   1       3.842  -5.279  -5.433  0.00  0.00    -0.057 A 
ATOM      3  C3  UNL d   1       2.742  -4.616  -5.990  0.00  0.00     0.033 A 
ATOM      4  C4  UNL d   1       2.690  -3.226  -5.995  0.00  0.00    -0.042 A 
ATOM      5  C5  UNL d   1       3.741  -2.500  -5.446  0.00  0.00     0.033 A 
ATOM      6  C6  UNL d   1       4.840  -3.168  -4.897  0.00  0.00    -0.057 A 
ENDROOT
BRANCH   1   7
ATOM      7  N   UNL d   1       6.000  -5.170  -4.242  0.00  0.00    -0.732 N 
ATOM      8  C   UNL d   1       5.872  -5.618  -2.872  0.00  0.00     0.284 C 
ATOM      9  H3  UNL d   1       6.511  -5.812  -4.843  0.00  0.00     0.395 HD
ENDBRANCH   1   7
TORSDOF 1
ENDMDL
