MODEL 1
REMARK minimizedAffinity 6.2346983
REMARK minimizedRMSD -1
REMARK  1 active torsions:
REMARK  status: ('A' for Active; 'I' for Inactive)
REMARK    1  A    between atoms: N_2  and  C1_3 
ROOT
ATOM      1  C1  UNL d   1       6.000  -1.251   2.071  0.00  0.00     0.143 A 
ATOM      2  C2  UNL d   1       5.985  -2.397   1.270  0.00  0.00    -0.057 A 
ATOM      3  C3  UNL d   1       5.998  -2.308  -0.127  0.00  0.00     0.033 A 
ATOM      4  C4  UNL d   1       5.998  -1.064  -0.750  0.00  0.00    -0.042 A 
ATOM      5  C5  UNL d   1       5.987   0.090   0.026  0.00  0.00     0.033 A 
ATOM      6  C6  UNL d   1       5.980  -0.007   1.421  0.00  0.00    -0.057 A 
ENDROOT
BRANCH   1   7
ATOM      7  N   UNL d   1       5.887  -1.273   3.463  0.00  0.00    -0.732 N 
ATOM      8  C   UNL d   1       4.747  -1.895   4.101  0.00  0.00     0.284 C 
ATOM      9  H3  UNL d   1       6.776  -1.464   3.921  0.00  0.00     0.395 HD
ENDBRANCH   1   7
TORSDOF 1
ENDMDL
