MODEL 1
REMARK minimizedAffinity 6.27024031
REMARK minimizedRMSD -1
REMARK  1 active torsions:
REMARK  status: ('A' for Active; 'I' for Inactive)
REMARK    1  A    between atoms: N_2  and  C1_3 
ROOT
ATOM      1  C1  UNL d   1       1.165  -0.361  -0.392  0.00  0.00     0.143 A 
ATOM      2  C2  UNL d   1      -0.108   0.218  -0.400  0.00  0.00    -0.057 A 
ATOM      3  C3  UNL d   1      -0.415   1.284  -1.255  0.00  0.00     0.033 A 
ATOM      4  C4  UNL d   1       0.558   1.810  -2.099  0.00  0.00    -0.042 A 
ATOM      5  C5  UNL d   1       1.837   1.266  -2.089  0.00  0.00     0.033 A 
ATOM      6  C6  UNL d   1       2.136   0.197  -1.238  0.00  0.00    -0.057 A 
ENDROOT
BRANCH   1   7
ATOM      7  N   UNL d   1       1.560  -1.358   0.504  0.00  0.00    -0.732 N 
ATOM      8  C   UNL d   1       1.704  -1.066   1.914  0.00  0.00     0.284 C 
ATOM      9  H3  UNL d   1       1.119  -2.253   0.308  0.00  0.00     0.395 HD
ENDBRANCH   1   7
TORSDOF 1
ENDMDL
