MODEL 1
REMARK minimizedAffinity 5.51688051
REMARK minimizedRMSD -1
REMARK  1 active torsions:
REMARK  status: ('A' for Active; 'I' for Inactive)
REMARK    1  A    between atoms: N_2  and  C1_3 
ROOT
ATOM      1  C1  UNL d   1       5.996  -2.185   1.373  0.00  0.00     0.143 A 
ATOM      2  C2  UNL d   1       5.984  -0.850   1.794  0.00  0.00    -0.057 A 
ATOM      3  C3  UNL d   1       6.000  -0.518   3.154  0.00  0.00     0.033 A 
ATOM      4  C4  UNL d   1       5.999  -1.518   4.120  0.00  0.00    -0.042 A 
ATOM      5  C5  UNL d   1       5.986  -2.851   3.726  0.00  0.00     0.033 A 
ATOM      6  C6  UNL d   1       5.977  -3.177   2.366  0.00  0.00    -0.057 A 
ENDROOT
BRANCH   1   7
ATOM      7  N   UNL d   1       5.882  -2.580   0.038  0.00  0.00    -0.732 N 
ATOM      8  C   UNL d   1       6.000  -1.611  -1.031  0.00  0.00     0.284 C 
ATOM      9  H3  UNL d   1       6.353  -3.463  -0.147  0.00  0.00     0.395 HD
ENDBRANCH   1   7
TORSDOF 1
ENDMDL
