MODEL 1
REMARK minimizedAffinity 4.22040272
REMARK minimizedRMSD -1
REMARK  1 active torsions:
REMARK  status: ('A' for Active; 'I' for Inactive)
REMARK    1  A    between atoms: N_2  and  C1_3 
ROOT
ATOM      1  C1  UNL d   1       4.906  -3.976  -3.778  0.00  0.00     0.143 A 
ATOM      2  C2  UNL d   1       5.678  -5.142  -3.828  0.00  0.00    -0.057 A 
ATOM      3  C3  UNL d   1       5.626  -6.000  -4.934  0.00  0.00     0.033 A 
ATOM      4  C4  UNL d   1       4.778  -5.720  -6.000  0.00  0.00    -0.042 A 
ATOM      5  C5  UNL d   1       3.983  -4.580  -5.960  0.00  0.00     0.033 A 
ATOM      6  C6  UNL d   1       4.043  -3.725  -4.856  0.00  0.00    -0.057 A 
ENDROOT
BRANCH   1   7
ATOM      7  N   UNL d   1       4.839  -3.135  -2.665  0.00  0.00    -0.732 N 
ATOM      8  C   UNL d   1       5.982  -2.974  -1.793  0.00  0.00     0.284 C 
ATOM      9  H3  UNL d   1       4.340  -2.270  -2.861  0.00  0.00     0.395 HD
ENDBRANCH   1   7
TORSDOF 1
ENDMDL
