MODEL 1
REMARK minimizedAffinity 0.706822634
REMARK minimizedRMSD -1
REMARK  1 active torsions:
REMARK  status: ('A' for Active; 'I' for Inactive)
REMARK    1  A    between atoms: N_2  and  C1_3 
ROOT
ATOM      1  C1  UNL d   1       5.222  -5.247  -4.292  0.00  0.00     0.143 A 
ATOM      2  C2  UNL d   1       4.297  -5.863  -5.143  0.00  0.00    -0.057 A 
ATOM      3  C3  UNL d   1       3.484  -5.110  -5.998  0.00  0.00     0.033 A 
ATOM      4  C4  UNL d   1       3.560  -3.722  -5.997  0.00  0.00    -0.042 A 
ATOM      5  C5  UNL d   1       4.454  -3.086  -5.142  0.00  0.00     0.033 A 
ATOM      6  C6  UNL d   1       5.268  -3.844  -4.295  0.00  0.00    -0.057 A 
ENDROOT
BRANCH   1   7
ATOM      7  N   UNL d   1       5.988  -5.934  -3.348  0.00  0.00    -0.732 N 
ATOM      8  C   UNL d   1       5.974  -5.537  -1.957  0.00  0.00     0.284 C 
ATOM      9  H3  UNL d   1       5.973  -6.941  -3.494  0.00  0.00     0.395 HD
ENDBRANCH   1   7
TORSDOF 1
ENDMDL
