MODEL 1
REMARK minimizedAffinity 4.77186632
REMARK minimizedRMSD -1
REMARK  1 active torsions:
REMARK  status: ('A' for Active; 'I' for Inactive)
REMARK    1  A    between atoms: N_2  and  C1_3 
ROOT
ATOM      1  C1  UNL d   1       4.416  -3.688  -5.260  0.00  0.00     0.143 A 
ATOM      2  C2  UNL d   1       5.230  -3.667  -4.122  0.00  0.00    -0.057 A 
ATOM      3  C3  UNL d   1       5.999  -4.780  -3.759  0.00  0.00     0.033 A 
ATOM      4  C4  UNL d   1       5.946  -5.946  -4.515  0.00  0.00    -0.042 A 
ATOM      5  C5  UNL d   1       5.125  -5.998  -5.636  0.00  0.00     0.033 A 
ATOM      6  C6  UNL d   1       4.364  -4.881  -5.997  0.00  0.00    -0.057 A 
ENDROOT
BRANCH   1   7
ATOM      7  N   UNL d   1       3.553  -2.649  -5.618  0.00  0.00    -0.732 N 
ATOM      8  C   UNL d   1       4.059  -1.310  -5.829  0.00  0.00     0.284 C 
ATOM      9  H3  UNL d   1       2.854  -2.942  -6.297  0.00  0.00     0.395 HD
ENDBRANCH   1   7
TORSDOF 1
ENDMDL
