MODEL 1
REMARK minimizedAffinity 7.13643503
REMARK minimizedRMSD -1
REMARK  1 active torsions:
REMARK  status: ('A' for Active; 'I' for Inactive)
REMARK    1  A    between atoms: N_2  and  C1_3 
ROOT
ATOM      1  C1  UNL d   1       3.701  -3.915  -5.677  0.00  0.00     0.143 A 
ATOM      2  C2  UNL d   1       4.721  -3.312  -4.934  0.00  0.00    -0.057 A 
ATOM      3  C3  UNL d   1       5.866  -4.026  -4.560  0.00  0.00     0.033 A 
ATOM      4  C4  UNL d   1       5.998  -5.368  -4.899  0.00  0.00    -0.042 A 
ATOM      5  C5  UNL d   1       4.985  -5.995  -5.616  0.00  0.00     0.033 A 
ATOM      6  C6  UNL d   1       3.847  -5.275  -5.992  0.00  0.00    -0.057 A 
ENDROOT
BRANCH   1   7
ATOM      7  N   UNL d   1       2.494  -3.287  -5.995  0.00  0.00    -0.732 N 
ATOM      8  C   UNL d   1       1.230  -3.914  -5.674  0.00  0.00     0.284 C 
ATOM      9  H3  UNL d   1       2.519  -2.286  -5.816  0.00  0.00     0.395 HD
ENDBRANCH   1   7
TORSDOF 1
ENDMDL
