MODEL 1
REMARK minimizedAffinity 2.53159928
REMARK minimizedRMSD -1
REMARK  1 active torsions:
REMARK  status: ('A' for Active; 'I' for Inactive)
REMARK    1  A    between atoms: N_2  and  C1_3 
ROOT
ATOM      1  C1  UNL d   1      -2.071  -3.203  -1.613  0.00  0.00     0.143 A 
ATOM      2  C2  UNL d   1      -1.852  -4.565  -1.850  0.00  0.00    -0.057 A 
ATOM      3  C3  UNL d   1      -2.816  -5.524  -1.519  0.00  0.00     0.033 A 
ATOM      4  C4  UNL d   1      -4.010  -5.140  -0.916  0.00  0.00    -0.042 A 
ATOM      5  C5  UNL d   1      -4.239  -3.795  -0.649  0.00  0.00     0.033 A 
ATOM      6  C6  UNL d   1      -3.275  -2.841  -0.988  0.00  0.00    -0.057 A 
ENDROOT
BRANCH   1   7
ATOM      7  N   UNL d   1      -1.111  -2.212  -1.829  0.00  0.00    -0.732 N 
ATOM      8  C   UNL d   1      -0.659  -1.374  -0.740  0.00  0.00     0.284 C 
ATOM      9  H3  UNL d   1      -0.369  -2.519  -2.453  0.00  0.00     0.395 HD
ENDBRANCH   1   7
TORSDOF 1
ENDMDL
