MODEL 1
REMARK minimizedAffinity -0.589707017
REMARK minimizedRMSD -1
REMARK  1 active torsions:
REMARK  status: ('A' for Active; 'I' for Inactive)
REMARK    1  A    between atoms: N_2  and  C1_3 
ROOT
ATOM      1  C1  UNL d   1       1.459  -2.147   1.687  0.00  0.00     0.143 A 
ATOM      2  C2  UNL d   1       0.391  -2.362   2.564  0.00  0.00    -0.057 A 
ATOM      3  C3  UNL d   1      -0.455  -1.315   2.949  0.00  0.00     0.033 A 
ATOM      4  C4  UNL d   1      -0.230  -0.024   2.485  0.00  0.00    -0.042 A 
ATOM      5  C5  UNL d   1       0.841   0.219   1.632  0.00  0.00     0.033 A 
ATOM      6  C6  UNL d   1       1.679  -0.832   1.246  0.00  0.00    -0.057 A 
ENDROOT
BRANCH   1   7
ATOM      7  N   UNL d   1       2.394  -3.126   1.345  0.00  0.00    -0.732 N 
ATOM      8  C   UNL d   1       1.966  -4.461   0.985  0.00  0.00     0.284 C 
ATOM      9  H3  UNL d   1       3.146  -2.760   0.764  0.00  0.00     0.395 HD
ENDBRANCH   1   7
TORSDOF 1
ENDMDL
