MODEL 1
REMARK minimizedAffinity 6.37585592
REMARK minimizedRMSD -1
REMARK  1 active torsions:
REMARK  status: ('A' for Active; 'I' for Inactive)
REMARK    1  A    between atoms: N_2  and  C1_3 
ROOT
ATOM      1  C1  UNL d   1       5.998   0.013   0.095  0.00  0.00     0.143 A 
ATOM      2  C2  UNL d   1       5.985   1.077  -0.813  0.00  0.00    -0.057 A 
ATOM      3  C3  UNL d   1       5.998   2.406  -0.375  0.00  0.00     0.033 A 
ATOM      4  C4  UNL d   1       5.994   2.696   0.986  0.00  0.00    -0.042 A 
ATOM      5  C5  UNL d   1       5.982   1.655   1.907  0.00  0.00     0.033 A 
ATOM      6  C6  UNL d   1       5.976   0.329   1.462  0.00  0.00    -0.057 A 
ENDROOT
BRANCH   1   7
ATOM      7  N   UNL d   1       5.886  -1.329  -0.277  0.00  0.00    -0.732 N 
ATOM      8  C   UNL d   1       5.587  -2.345   0.709  0.00  0.00     0.284 C 
ATOM      9  H3  UNL d   1       5.393  -1.448  -1.159  0.00  0.00     0.395 HD
ENDBRANCH   1   7
TORSDOF 1
ENDMDL
