MODEL 1
REMARK minimizedAffinity 2.7501564
REMARK minimizedRMSD -1
REMARK  1 active torsions:
REMARK  status: ('A' for Active; 'I' for Inactive)
REMARK    1  A    between atoms: N_2  and  C1_3 
ROOT
ATOM      1  C1  UNL d   1       1.468  -2.443   2.138  0.00  0.00     0.143 A 
ATOM      2  C2  UNL d   1       2.067  -1.753   1.078  0.00  0.00    -0.057 A 
ATOM      3  C3  UNL d   1       2.656  -2.437   0.008  0.00  0.00     0.033 A 
ATOM      4  C4  UNL d   1       2.681  -3.827  -0.008  0.00  0.00    -0.042 A 
ATOM      5  C5  UNL d   1       2.114  -4.533   1.047  0.00  0.00     0.033 A 
ATOM      6  C6  UNL d   1       1.522  -3.845   2.110  0.00  0.00    -0.057 A 
ENDROOT
BRANCH   1   7
ATOM      7  N   UNL d   1       0.954  -1.821   3.279  0.00  0.00    -0.732 N 
ATOM      8  C   UNL d   1      -0.295  -1.093   3.222  0.00  0.00     0.284 C 
ATOM      9  H3  UNL d   1       1.067  -2.390   4.115  0.00  0.00     0.395 HD
ENDBRANCH   1   7
TORSDOF 1
ENDMDL
