MODEL 1
REMARK minimizedAffinity 3.74453163
REMARK minimizedRMSD -1
REMARK  1 active torsions:
REMARK  status: ('A' for Active; 'I' for Inactive)
REMARK    1  A    between atoms: N_2  and  C1_3 
ROOT
ATOM      1  C1  UNL d   1       0.887  -1.895   2.170  0.00  0.00     0.143 A 
ATOM      2  C2  UNL d   1       1.360  -1.313   0.988  0.00  0.00    -0.057 A 
ATOM      3  C3  UNL d   1       2.293  -1.970   0.178  0.00  0.00     0.033 A 
ATOM      4  C4  UNL d   1       2.794  -3.213   0.551  0.00  0.00    -0.042 A 
ATOM      5  C5  UNL d   1       2.358  -3.799   1.734  0.00  0.00     0.033 A 
ATOM      6  C6  UNL d   1       1.420  -3.141   2.535  0.00  0.00    -0.057 A 
ENDROOT
BRANCH   1   7
ATOM      7  N   UNL d   1       0.034  -1.249   3.068  0.00  0.00    -0.732 N 
ATOM      8  C   UNL d   1      -1.197  -0.643   2.609  0.00  0.00     0.284 C 
ATOM      9  H3  UNL d   1      -0.052  -1.749   3.950  0.00  0.00     0.395 HD
ENDBRANCH   1   7
TORSDOF 1
ENDMDL
