MODEL 1
REMARK minimizedAffinity 1.16043627
REMARK minimizedRMSD -1
REMARK  1 active torsions:
REMARK  status: ('A' for Active; 'I' for Inactive)
REMARK    1  A    between atoms: N_2  and  C1_3 
ROOT
ATOM      1  C1  UNL d   1      -0.241  -3.275   3.048  0.00  0.00     0.143 A 
ATOM      2  C2  UNL d   1      -0.378  -4.588   2.584  0.00  0.00    -0.057 A 
ATOM      3  C3  UNL d   1       0.647  -5.215   1.866  0.00  0.00     0.033 A 
ATOM      4  C4  UNL d   1       1.820  -4.526   1.572  0.00  0.00    -0.042 A 
ATOM      5  C5  UNL d   1       1.967  -3.212   2.001  0.00  0.00     0.033 A 
ATOM      6  C6  UNL d   1       0.943  -2.594   2.724  0.00  0.00    -0.057 A 
ENDROOT
BRANCH   1   7
ATOM      7  N   UNL d   1      -1.263  -2.564   3.682  0.00  0.00    -0.732 N 
ATOM      8  C   UNL d   1      -1.495  -1.170   3.370  0.00  0.00     0.284 C 
ATOM      9  H3  UNL d   1      -2.113  -3.114   3.786  0.00  0.00     0.395 HD
ENDBRANCH   1   7
TORSDOF 1
ENDMDL
