MODEL 1
REMARK minimizedAffinity 3.14022326
REMARK minimizedRMSD -1
REMARK  1 active torsions:
REMARK  status: ('A' for Active; 'I' for Inactive)
REMARK    1  A    between atoms: N_2  and  C1_3 
ROOT
ATOM      1  C1  UNL d   1       5.996   1.606   1.265  0.00  0.00     0.143 A 
ATOM      2  C2  UNL d   1       5.979   0.261   1.647  0.00  0.00    -0.057 A 
ATOM      3  C3  UNL d   1       5.993  -0.765   0.695  0.00  0.00     0.033 A 
ATOM      4  C4  UNL d   1       5.997  -0.462  -0.663  0.00  0.00    -0.042 A 
ATOM      5  C5  UNL d   1       5.989   0.869  -1.066  0.00  0.00     0.033 A 
ATOM      6  C6  UNL d   1       5.981   1.889  -0.110  0.00  0.00    -0.057 A 
ENDROOT
BRANCH   1   7
ATOM      7  N   UNL d   1       5.883   2.671   2.162  0.00  0.00    -0.732 N 
ATOM      8  C   UNL d   1       4.590   3.066   2.679  0.00  0.00     0.284 C 
ATOM      9  H3  UNL d   1       6.627   2.675   2.856  0.00  0.00     0.395 HD
ENDBRANCH   1   7
TORSDOF 1
ENDMDL
