MODEL 1
REMARK minimizedAffinity 5.60558271
REMARK minimizedRMSD -1
REMARK  1 active torsions:
REMARK  status: ('A' for Active; 'I' for Inactive)
REMARK    1  A    between atoms: N_2  and  C1_3 
ROOT
ATOM      1  C1  UNL d   1       2.088  -2.643   1.445  0.00  0.00     0.143 A 
ATOM      2  C2  UNL d   1       2.934  -2.754   2.553  0.00  0.00    -0.057 A 
ATOM      3  C3  UNL d   1       3.700  -3.906   2.770  0.00  0.00     0.033 A 
ATOM      4  C4  UNL d   1       3.611  -4.983   1.893  0.00  0.00    -0.042 A 
ATOM      5  C5  UNL d   1       2.758  -4.904   0.798  0.00  0.00     0.033 A 
ATOM      6  C6  UNL d   1       2.001  -3.749   0.584  0.00  0.00    -0.057 A 
ENDROOT
BRANCH   1   7
ATOM      7  N   UNL d   1       1.227  -1.564   1.228  0.00  0.00    -0.732 N 
ATOM      8  C   UNL d   1       0.423  -1.035   2.308  0.00  0.00     0.284 C 
ATOM      9  H3  UNL d   1       1.639  -0.853   0.629  0.00  0.00     0.395 HD
ENDBRANCH   1   7
TORSDOF 1
ENDMDL
