MODEL 1
REMARK minimizedAffinity -3.5852108
REMARK minimizedRMSD -1
REMARK  1 active torsions:
REMARK  status: ('A' for Active; 'I' for Inactive)
REMARK    1  A    between atoms: C1_2  and  C2_3 
ROOT
ATOM      1  C2  UNL d   1      -0.164   0.171  -0.700  0.00  0.00    -0.077 A 
ATOM      2  C3  UNL d   1      -0.057   1.338  -1.470  0.00  0.00     0.002 A 
ATOM      3  C4  UNL d   1       0.926   1.447  -2.455  0.00  0.00     0.002 A 
ATOM      4  C5  UNL d   1       1.807   0.392  -2.683  0.00  0.00    -0.004 A 
ATOM      5  C6  UNL d   1       1.710  -0.772  -1.921  0.00  0.00     0.002 A 
ATOM      6  C7  UNL d   1       0.729  -0.883  -0.935  0.00  0.00     0.002 A 
ENDROOT
BRANCH   1   7
ATOM      7  C1  UNL d   1      -1.254   0.032   0.329  0.00  0.00     0.055 C 
ATOM      8  C   UNL d   1      -0.787   0.505   1.698  0.00  0.00     0.019 C 
ENDBRANCH   1   7
TORSDOF 1
ENDMDL
