MODEL 1
REMARK minimizedAffinity -4.47904396
REMARK minimizedRMSD -1
REMARK  1 active torsions:
REMARK  status: ('A' for Active; 'I' for Inactive)
REMARK    1  A    between atoms: C1_2  and  C2_3 
ROOT
ATOM      1  C2  UNL d   1      -0.989   0.447   1.228  0.00  0.00    -0.077 A 
ATOM      2  C3  UNL d   1      -0.636   1.379   2.214  0.00  0.00     0.002 A 
ATOM      3  C4  UNL d   1      -1.465   1.587   3.318  0.00  0.00     0.002 A 
ATOM      4  C5  UNL d   1      -2.650   0.865   3.448  0.00  0.00    -0.004 A 
ATOM      5  C6  UNL d   1      -3.011  -0.063   2.472  0.00  0.00     0.002 A 
ATOM      6  C7  UNL d   1      -2.184  -0.272   1.367  0.00  0.00     0.002 A 
ENDROOT
BRANCH   1   7
ATOM      7  C1  UNL d   1      -0.072   0.185   0.062  0.00  0.00     0.055 C 
ATOM      8  C   UNL d   1       0.540  -1.206   0.141  0.00  0.00     0.019 C 
ENDBRANCH   1   7
TORSDOF 1
ENDMDL
