MODEL 1
REMARK minimizedAffinity -4.71536732
REMARK minimizedRMSD -1
REMARK  1 active torsions:
REMARK  status: ('A' for Active; 'I' for Inactive)
REMARK    1  A    between atoms: C1_2  and  C2_3 
ROOT
ATOM      1  C2  UNL d   1       0.019  -0.049  -0.287  0.00  0.00    -0.077 A 
ATOM      2  C3  UNL d   1       0.031  -1.332   0.277  0.00  0.00     0.002 A 
ATOM      3  C4  UNL d   1       1.031  -2.245  -0.064  0.00  0.00     0.002 A 
ATOM      4  C5  UNL d   1       2.029  -1.882  -0.967  0.00  0.00    -0.004 A 
ATOM      5  C6  UNL d   1       2.024  -0.609  -1.535  0.00  0.00     0.002 A 
ATOM      6  C7  UNL d   1       1.025   0.304  -1.196  0.00  0.00     0.002 A 
ENDROOT
BRANCH   1   7
ATOM      7  C1  UNL d   1      -1.030   0.953   0.117  0.00  0.00     0.055 C 
ATOM      8  C   UNL d   1      -1.558   0.669   1.516  0.00  0.00     0.019 C 
ENDBRANCH   1   7
TORSDOF 1
ENDMDL
