MODEL 1
REMARK minimizedAffinity -1.75489151
REMARK minimizedRMSD -1
REMARK  1 active torsions:
REMARK  status: ('A' for Active; 'I' for Inactive)
REMARK    1  A    between atoms: C1_2  and  C2_3 
ROOT
ATOM      1  C2  UNL d   1      -0.734   0.767   1.312  0.00  0.00    -0.077 A 
ATOM      2  C3  UNL d   1      -1.604  -0.047   2.051  0.00  0.00     0.002 A 
ATOM      3  C4  UNL d   1      -1.924   0.279   3.371  0.00  0.00     0.002 A 
ATOM      4  C5  UNL d   1      -1.382   1.419   3.960  0.00  0.00    -0.004 A 
ATOM      5  C6  UNL d   1      -0.513   2.232   3.234  0.00  0.00     0.002 A 
ATOM      6  C7  UNL d   1      -0.192   1.909   1.915  0.00  0.00     0.002 A 
ENDROOT
BRANCH   1   7
ATOM      7  C1  UNL d   1      -0.426   0.445  -0.128  0.00  0.00     0.055 C 
ATOM      8  C   UNL d   1       0.269  -0.903  -0.257  0.00  0.00     0.019 C 
ENDBRANCH   1   7
TORSDOF 1
ENDMDL
