MODEL 1
REMARK minimizedAffinity -5.39037943
REMARK minimizedRMSD -1
REMARK  1 active torsions:
REMARK  status: ('A' for Active; 'I' for Inactive)
REMARK    1  A    between atoms: C1_2  and  C2_3 
ROOT
ATOM      1  C2  UNL d   1       1.218   0.232  -0.654  0.00  0.00    -0.077 A 
ATOM      2  C3  UNL d   1       0.927   1.482  -1.218  0.00  0.00     0.002 A 
ATOM      3  C4  UNL d   1       1.679   1.966  -2.290  0.00  0.00     0.002 A 
ATOM      4  C5  UNL d   1       2.724   1.205  -2.810  0.00  0.00    -0.004 A 
ATOM      5  C6  UNL d   1       3.022  -0.039  -2.255  0.00  0.00     0.002 A 
ATOM      6  C7  UNL d   1       2.272  -0.524  -1.183  0.00  0.00     0.002 A 
ENDROOT
BRANCH   1   7
ATOM      7  C1  UNL d   1       0.376  -0.314   0.470  0.00  0.00     0.055 C 
ATOM      8  C   UNL d   1      -1.014   0.307   0.472  0.00  0.00     0.019 C 
ENDBRANCH   1   7
TORSDOF 1
ENDMDL
