MODEL 1
REMARK minimizedAffinity -1.90374982
REMARK minimizedRMSD -1
REMARK  1 active torsions:
REMARK  status: ('A' for Active; 'I' for Inactive)
REMARK    1  A    between atoms: C1_2  and  C2_3 
ROOT
ATOM      1  C2  UNL d   1       4.977  -1.427   4.924  0.00  0.00    -0.077 A 
ATOM      2  C3  UNL d   1       4.415  -1.069   3.691  0.00  0.00     0.002 A 
ATOM      3  C4  UNL d   1       4.164  -2.041   2.720  0.00  0.00     0.002 A 
ATOM      4  C5  UNL d   1       4.468  -3.377   2.975  0.00  0.00    -0.004 A 
ATOM      5  C6  UNL d   1       5.029  -3.742   4.197  0.00  0.00     0.002 A 
ATOM      6  C7  UNL d   1       5.282  -2.772   5.168  0.00  0.00     0.002 A 
ENDROOT
BRANCH   1   7
ATOM      7  C1  UNL d   1       5.203  -0.387   5.991  0.00  0.00     0.055 C 
ATOM      8  C   UNL d   1       5.830   0.872   5.412  0.00  0.00     0.019 C 
ENDBRANCH   1   7
TORSDOF 1
ENDMDL
