MODEL 1
REMARK minimizedAffinity -4.36565828
REMARK minimizedRMSD -1
REMARK  1 active torsions:
REMARK  status: ('A' for Active; 'I' for Inactive)
REMARK    1  A    between atoms: C1_2  and  C2_3 
ROOT
ATOM      1  C2  UNL d   1       4.831  -3.016   4.650  0.00  0.00    -0.077 A 
ATOM      2  C3  UNL d   1       5.191  -4.253   5.203  0.00  0.00     0.002 A 
ATOM      3  C4  UNL d   1       4.503  -5.414   4.845  0.00  0.00     0.002 A 
ATOM      4  C5  UNL d   1       3.455  -5.350   3.929  0.00  0.00    -0.004 A 
ATOM      5  C6  UNL d   1       3.088  -4.125   3.375  0.00  0.00     0.002 A 
ATOM      6  C7  UNL d   1       3.773  -2.963   3.733  0.00  0.00     0.002 A 
ENDROOT
BRANCH   1   7
ATOM      7  C1  UNL d   1       5.603  -1.770   4.998  0.00  0.00     0.055 C 
ATOM      8  C   UNL d   1       6.000  -0.998   3.748  0.00  0.00     0.019 C 
ENDBRANCH   1   7
TORSDOF 1
ENDMDL
