MODEL 1
REMARK minimizedAffinity -4.99666595
REMARK minimizedRMSD -1
REMARK  1 active torsions:
REMARK  status: ('A' for Active; 'I' for Inactive)
REMARK    1  A    between atoms: C1_2  and  C2_3 
ROOT
ATOM      1  C2  UNL d   1       1.176   0.130  -1.091  0.00  0.00    -0.077 A 
ATOM      2  C3  UNL d   1       0.570   1.374  -1.316  0.00  0.00     0.002 A 
ATOM      3  C4  UNL d   1      -0.691   1.652  -0.786  0.00  0.00     0.002 A 
ATOM      4  C5  UNL d   1      -1.355   0.692  -0.025  0.00  0.00    -0.004 A 
ATOM      5  C6  UNL d   1      -0.762  -0.549   0.203  0.00  0.00     0.002 A 
ATOM      6  C7  UNL d   1       0.498  -0.828  -0.327  0.00  0.00     0.002 A 
ENDROOT
BRANCH   1   7
ATOM      7  C1  UNL d   1       2.558  -0.153  -1.620  0.00  0.00     0.055 C 
ATOM      8  C   UNL d   1       2.558  -1.356  -2.552  0.00  0.00     0.019 C 
ENDBRANCH   1   7
TORSDOF 1
ENDMDL
