MODEL 1
REMARK minimizedAffinity -4.96164083
REMARK minimizedRMSD -1
REMARK  3 active torsions:
REMARK  status: ('A' for Active; 'I' for Inactive)
REMARK    1  A    between atoms: C3'_2  and  C2'_3 
REMARK    2  A    between atoms: C2'_3  and  C1'_4 
REMARK    3  A    between atoms: C1'_4  and  C1_5 
ROOT
ATOM      1  C1  N4B d   1       0.306  -0.135  -0.017  0.00  0.00    -0.075 A 
ATOM      2  C2  N4B d   1      -0.041  -1.464  -0.343  0.00  0.00     0.002 A 
ATOM      3  C3  N4B d   1       0.934  -2.427  -0.430  0.00  0.00     0.002 A 
ATOM      4  C4  N4B d   1       2.260  -2.082  -0.215  0.00  0.00    -0.004 A 
ATOM      5  C5  N4B d   1       2.584  -0.801   0.124  0.00  0.00     0.002 A 
ATOM      6  C6  N4B d   1       1.614   0.176   0.220  0.00  0.00     0.002 A 
ENDROOT
BRANCH   1   7
ATOM      7  C1' N4B d   1      -0.715   0.970   0.006  0.00  0.00     0.057 C 
BRANCH   7   8
ATOM      8  C2' N4B d   1      -2.111   0.360   0.082  0.00  0.00     0.009 C 
BRANCH   8   9
ATOM      9  C3' N4B d   1      -3.050   1.195   0.935  0.00  0.00     0.004 C 
ATOM     10  C4' N4B d   1      -4.167   0.389   1.529  0.00  0.00     0.003 C 
ENDBRANCH   8   9
ENDBRANCH   7   8
ENDBRANCH   1   7
TORSDOF 3
ENDMDL
