MODEL 1
REMARK minimizedAffinity -0.938393533
REMARK minimizedRMSD -1
REMARK  3 active torsions:
REMARK  status: ('A' for Active; 'I' for Inactive)
REMARK    1  A    between atoms: C3'_2  and  C2'_3 
REMARK    2  A    between atoms: C2'_3  and  C1'_4 
REMARK    3  A    between atoms: C1'_4  and  C1_5 
ROOT
ATOM      1  C1  N4B d   1      -1.152   0.522  -0.432  0.00  0.00    -0.075 A 
ATOM      2  C2  N4B d   1       0.083   1.139  -0.134  0.00  0.00     0.002 A 
ATOM      3  C3  N4B d   1       1.228   0.384  -0.063  0.00  0.00     0.002 A 
ATOM      4  C4  N4B d   1       1.160  -0.986  -0.267  0.00  0.00    -0.004 A 
ATOM      5  C5  N4B d   1      -0.032  -1.570  -0.581  0.00  0.00     0.002 A 
ATOM      6  C6  N4B d   1      -1.191  -0.823  -0.659  0.00  0.00     0.002 A 
ENDROOT
BRANCH   1   7
ATOM      7  C1' N4B d   1      -2.444   1.292  -0.436  0.00  0.00     0.057 C 
BRANCH   7   8
ATOM      8  C2' N4B d   1      -3.595   0.341  -0.125  0.00  0.00     0.009 C 
BRANCH   8   9
ATOM      9  C3' N4B d   1      -3.766   0.124   1.369  0.00  0.00     0.004 C 
ATOM     10  C4' N4B d   1      -3.592   1.385   2.162  0.00  0.00     0.003 C 
ENDBRANCH   8   9
ENDBRANCH   7   8
ENDBRANCH   1   7
TORSDOF 3
ENDMDL
