MODEL 1
REMARK minimizedAffinity -3.13875484
REMARK minimizedRMSD -1
REMARK  3 active torsions:
REMARK  status: ('A' for Active; 'I' for Inactive)
REMARK    1  A    between atoms: C3'_2  and  C2'_3 
REMARK    2  A    between atoms: C2'_3  and  C1'_4 
REMARK    3  A    between atoms: C1'_4  and  C1_5 
ROOT
ATOM      1  C1  N4B d   1      -1.394   0.530   0.210  0.00  0.00    -0.075 A 
ATOM      2  C2  N4B d   1      -2.549   0.900  -0.514  0.00  0.00     0.002 A 
ATOM      3  C3  N4B d   1      -3.725   1.147   0.149  0.00  0.00     0.002 A 
ATOM      4  C4  N4B d   1      -3.777   1.012   1.528  0.00  0.00    -0.004 A 
ATOM      5  C5  N4B d   1      -2.651   0.679   2.223  0.00  0.00     0.002 A 
ATOM      6  C6  N4B d   1      -1.460   0.432   1.570  0.00  0.00     0.002 A 
ENDROOT
BRANCH   1   7
ATOM      7  C1' N4B d   1      -0.107   0.166  -0.479  0.00  0.00     0.057 C 
BRANCH   7   8
ATOM      8  C2' N4B d   1      -0.303  -1.134  -1.253  0.00  0.00     0.009 C 
BRANCH   8   9
ATOM      9  C3' N4B d   1      -0.017  -2.355  -0.395  0.00  0.00     0.004 C 
ATOM     10  C4' N4B d   1       1.446  -2.542  -0.121  0.00  0.00     0.003 C 
ENDBRANCH   8   9
ENDBRANCH   7   8
ENDBRANCH   1   7
TORSDOF 3
ENDMDL
