MODEL 1
REMARK minimizedAffinity -0.717538059
REMARK minimizedRMSD -1
REMARK  1 active torsions:
REMARK  status: ('A' for Active; 'I' for Inactive)
REMARK    1  A    between atoms: C1_2  and  C2_3 
ROOT
ATOM      1  C2  UNL d   1      -0.144   2.048   0.414  0.00  0.00    -0.081 A 
ATOM      2  C3  UNL d   1       1.031   1.378   0.052  0.00  0.00     0.006 A 
ATOM      3  C4  UNL d   1       1.200   0.026   0.362  0.00  0.00     0.002 A 
ATOM      4  C5  UNL d   1       0.194  -0.679   1.032  0.00  0.00    -0.080 A 
ATOM      5  C6  UNL d   1       0.350  -2.137   1.345  0.00  0.00     0.076 C 
ATOM      6  C7  UNL d   1      -0.972  -0.005   1.410  0.00  0.00     0.002 A 
ATOM      7  C8  UNL d   1      -1.141   1.347   1.100  0.00  0.00     0.006 A 
ENDROOT
BRANCH   1   8
ATOM      8  C1  UNL d   1      -0.356   3.488   0.023  0.00  0.00     0.054 C 
ATOM      9  C   UNL d   1       0.958   4.161  -0.348  0.00  0.00     0.018 C 
ENDBRANCH   1   8
TORSDOF 1
ENDMDL
