MODEL 1
REMARK minimizedAffinity -2.40712643
REMARK minimizedRMSD -1
REMARK  1 active torsions:
REMARK  status: ('A' for Active; 'I' for Inactive)
REMARK    1  A    between atoms: C1_2  and  C2_3 
ROOT
ATOM      1  C2  UNL d   1       0.061   0.689   0.027  0.00  0.00    -0.081 A 
ATOM      2  C3  UNL d   1       0.194   1.958  -0.548  0.00  0.00     0.006 A 
ATOM      3  C4  UNL d   1       1.455   2.452  -0.891  0.00  0.00     0.002 A 
ATOM      4  C5  UNL d   1       2.602   1.682  -0.672  0.00  0.00    -0.080 A 
ATOM      5  C6  UNL d   1       3.959   2.187  -1.064  0.00  0.00     0.076 C 
ATOM      6  C7  UNL d   1       2.471   0.420  -0.081  0.00  0.00     0.002 A 
ATOM      7  C8  UNL d   1       1.210  -0.073   0.263  0.00  0.00     0.006 A 
ENDROOT
BRANCH   1   8
ATOM      8  C1  UNL d   1      -1.303   0.127   0.339  0.00  0.00     0.054 C 
ATOM      9  C   UNL d   1      -1.284  -1.394   0.360  0.00  0.00     0.018 C 
ENDBRANCH   1   8
TORSDOF 1
ENDMDL
