MODEL 1
REMARK minimizedAffinity 1.77581906
REMARK minimizedRMSD -1
REMARK  1 active torsions:
REMARK  status: ('A' for Active; 'I' for Inactive)
REMARK    1  A    between atoms: C1_2  and  C2_3 
ROOT
ATOM      1  C2  UNL d   1       0.411   1.436   0.783  0.00  0.00    -0.081 A 
ATOM      2  C3  UNL d   1      -0.615   1.977   1.567  0.00  0.00     0.006 A 
ATOM      3  C4  UNL d   1      -1.499   1.139   2.253  0.00  0.00     0.002 A 
ATOM      4  C5  UNL d   1      -1.366  -0.251   2.172  0.00  0.00    -0.080 A 
ATOM      5  C6  UNL d   1      -2.289  -1.161   2.927  0.00  0.00     0.076 C 
ATOM      6  C7  UNL d   1      -0.351  -0.791   1.374  0.00  0.00     0.002 A 
ATOM      7  C8  UNL d   1       0.532   0.046   0.688  0.00  0.00     0.006 A 
ENDROOT
BRANCH   1   8
ATOM      8  C1  UNL d   1       1.405   2.337   0.095  0.00  0.00     0.054 C 
ATOM      9  C   UNL d   1       2.713   2.411   0.869  0.00  0.00     0.018 C 
ENDBRANCH   1   8
TORSDOF 1
ENDMDL
