MODEL 1
REMARK minimizedAffinity 3.42141294
REMARK minimizedRMSD -1
REMARK  1 active torsions:
REMARK  status: ('A' for Active; 'I' for Inactive)
REMARK    1  A    between atoms: C1_2  and  C2_3 
ROOT
ATOM      1  C2  UNL d   1       0.552   2.989   0.206  0.00  0.00    -0.081 A 
ATOM      2  C3  UNL d   1       1.818   3.570   0.350  0.00  0.00     0.006 A 
ATOM      3  C4  UNL d   1       2.935   2.777   0.623  0.00  0.00     0.002 A 
ATOM      4  C5  UNL d   1       2.806   1.389   0.750  0.00  0.00    -0.080 A 
ATOM      5  C6  UNL d   1       4.001   0.523   1.013  0.00  0.00     0.076 C 
ATOM      6  C7  UNL d   1       1.538   0.811   0.623  0.00  0.00     0.002 A 
ATOM      7  C8  UNL d   1       0.421   1.604   0.351  0.00  0.00     0.006 A 
ENDROOT
BRANCH   1   8
ATOM      8  C1  UNL d   1      -0.643   3.835  -0.153  0.00  0.00     0.054 C 
ATOM      9  C   UNL d   1      -1.931   3.027  -0.091  0.00  0.00     0.018 C 
ENDBRANCH   1   8
TORSDOF 1
ENDMDL
