MODEL 1
REMARK minimizedAffinity 5.20004082
REMARK minimizedRMSD -1
REMARK  1 active torsions:
REMARK  status: ('A' for Active; 'I' for Inactive)
REMARK    1  A    between atoms: C1_2  and  C2_3 
ROOT
ATOM      1  C2  UNL d   1       1.960   2.284   1.449  0.00  0.00    -0.081 A 
ATOM      2  C3  UNL d   1       1.774   2.509   0.080  0.00  0.00     0.006 A 
ATOM      3  C4  UNL d   1       0.506   2.813  -0.422  0.00  0.00     0.002 A 
ATOM      4  C5  UNL d   1      -0.594   2.905   0.437  0.00  0.00    -0.080 A 
ATOM      5  C6  UNL d   1      -1.955   3.260  -0.084  0.00  0.00     0.076 C 
ATOM      6  C7  UNL d   1      -0.411   2.663   1.803  0.00  0.00     0.002 A 
ATOM      7  C8  UNL d   1       0.856   2.359   2.305  0.00  0.00     0.006 A 
ENDROOT
BRANCH   1   8
ATOM      8  C1  UNL d   1       3.338   2.021   2.002  0.00  0.00     0.054 C 
ATOM      9  C   UNL d   1       4.368   1.905   0.888  0.00  0.00     0.018 C 
ENDBRANCH   1   8
TORSDOF 1
ENDMDL
