MODEL 1
REMARK minimizedAffinity 6.0868659
REMARK minimizedRMSD -1
REMARK  1 active torsions:
REMARK  status: ('A' for Active; 'I' for Inactive)
REMARK    1  A    between atoms: C1_2  and  C2_3 
ROOT
ATOM      1  C2  UNL d   1       0.284   2.228   0.643  0.00  0.00    -0.081 A 
ATOM      2  C3  UNL d   1       0.581   0.860   0.699  0.00  0.00     0.006 A 
ATOM      3  C4  UNL d   1      -0.262  -0.020   1.383  0.00  0.00     0.002 A 
ATOM      4  C5  UNL d   1      -1.417   0.451   2.015  0.00  0.00    -0.080 A 
ATOM      5  C6  UNL d   1      -2.346  -0.488   2.727  0.00  0.00     0.076 C 
ATOM      6  C7  UNL d   1      -1.705   1.819   1.974  0.00  0.00     0.002 A 
ATOM      7  C8  UNL d   1      -0.863   2.700   1.291  0.00  0.00     0.006 A 
ENDROOT
BRANCH   1   8
ATOM      8  C1  UNL d   1       1.155   3.169  -0.148  0.00  0.00     0.054 C 
ATOM      9  C   UNL d   1       2.561   3.241   0.431  0.00  0.00     0.018 C 
ENDBRANCH   1   8
TORSDOF 1
ENDMDL
