MODEL 1
REMARK minimizedAffinity 8.98784542
REMARK minimizedRMSD -1
REMARK  1 active torsions:
REMARK  status: ('A' for Active; 'I' for Inactive)
REMARK    1  A    between atoms: C1_2  and  C2_3 
ROOT
ATOM      1  C2  UNL d   1      -1.178  -0.966   1.999  0.00  0.00    -0.081 A 
ATOM      2  C3  UNL d   1      -0.399  -0.060   1.268  0.00  0.00     0.006 A 
ATOM      3  C4  UNL d   1       0.502  -0.518   0.304  0.00  0.00     0.002 A 
ATOM      4  C5  UNL d   1       0.633  -1.887   0.048  0.00  0.00    -0.080 A 
ATOM      5  C6  UNL d   1       1.575  -2.390  -1.005  0.00  0.00     0.076 C 
ATOM      6  C7  UNL d   1      -0.132  -2.793   0.790  0.00  0.00     0.002 A 
ATOM      7  C8  UNL d   1      -1.033  -2.336   1.755  0.00  0.00     0.006 A 
ENDROOT
BRANCH   1   8
ATOM      8  C1  UNL d   1      -2.197  -0.472   2.994  0.00  0.00     0.054 C 
ATOM      9  C   UNL d   1      -3.541  -0.214   2.327  0.00  0.00     0.018 C 
ENDBRANCH   1   8
TORSDOF 1
ENDMDL
