MODEL 1
REMARK minimizedAffinity 1.49730182
REMARK minimizedRMSD -1
REMARK  1 active torsions:
REMARK  status: ('A' for Active; 'I' for Inactive)
REMARK    1  A    between atoms: C1_2  and  C2_3 
ROOT
ATOM      1  C2  UNL d   1       1.269  -5.191  -2.281  0.00  0.00    -0.081 A 
ATOM      2  C3  UNL d   1       0.574  -5.728  -3.372  0.00  0.00     0.006 A 
ATOM      3  C4  UNL d   1       1.232  -5.975  -4.579  0.00  0.00     0.002 A 
ATOM      4  C5  UNL d   1       2.596  -5.697  -4.713  0.00  0.00    -0.080 A 
ATOM      5  C6  UNL d   1       3.322  -5.985  -5.994  0.00  0.00     0.076 C 
ATOM      6  C7  UNL d   1       3.287  -5.144  -3.629  0.00  0.00     0.002 A 
ATOM      7  C8  UNL d   1       2.629  -4.897  -2.422  0.00  0.00     0.006 A 
ENDROOT
BRANCH   1   8
ATOM      8  C1  UNL d   1       0.577  -4.985  -0.958  0.00  0.00     0.054 C 
ATOM      9  C   UNL d   1      -0.718  -4.202  -1.127  0.00  0.00     0.018 C 
ENDBRANCH   1   8
TORSDOF 1
ENDMDL
