MODEL 1
REMARK minimizedAffinity 12.7009792
REMARK minimizedRMSD -1
REMARK  1 active torsions:
REMARK  status: ('A' for Active; 'I' for Inactive)
REMARK    1  A    between atoms: C1_2  and  C2_3 
ROOT
ATOM      1  C2  UNL d   1       3.574   2.035   0.239  0.00  0.00    -0.081 A 
ATOM      2  C3  UNL d   1       3.512   1.490   1.528  0.00  0.00     0.006 A 
ATOM      3  C4  UNL d   1       2.277   1.236   2.130  0.00  0.00     0.002 A 
ATOM      4  C5  UNL d   1       1.086   1.515   1.453  0.00  0.00    -0.080 A 
ATOM      5  C6  UNL d   1      -0.246   1.219   2.076  0.00  0.00     0.076 C 
ATOM      6  C7  UNL d   1       1.148   2.076   0.173  0.00  0.00     0.002 A 
ATOM      7  C8  UNL d   1       2.381   2.331  -0.430  0.00  0.00     0.006 A 
ENDROOT
BRANCH   1   8
ATOM      8  C1  UNL d   1       4.903   2.250  -0.439  0.00  0.00     0.054 C 
ATOM      9  C   UNL d   1       4.891   1.712  -1.862  0.00  0.00     0.018 C 
ENDBRANCH   1   8
TORSDOF 1
ENDMDL
