MODEL 1
REMARK minimizedAffinity 3.29799581
REMARK minimizedRMSD -1
REMARK  1 active torsions:
REMARK  status: ('A' for Active; 'I' for Inactive)
REMARK    1  A    between atoms: C1_2  and  C2_3 
ROOT
ATOM      1  C2  UNL d   1       3.223   2.924   0.520  0.00  0.00    -0.081 A 
ATOM      2  C3  UNL d   1       2.533   2.199   1.500  0.00  0.00     0.006 A 
ATOM      3  C4  UNL d   1       3.060   2.071   2.788  0.00  0.00     0.002 A 
ATOM      4  C5  UNL d   1       4.279   2.671   3.119  0.00  0.00    -0.080 A 
ATOM      5  C6  UNL d   1       4.840   2.567   4.506  0.00  0.00     0.076 C 
ATOM      6  C7  UNL d   1       4.977   3.380   2.136  0.00  0.00     0.002 A 
ATOM      7  C8  UNL d   1       4.452   3.508   0.848  0.00  0.00     0.006 A 
ENDROOT
BRANCH   1   8
ATOM      8  C1  UNL d   1       2.627   3.118  -0.850  0.00  0.00     0.054 C 
ATOM      9  C   UNL d   1       1.236   3.730  -0.767  0.00  0.00     0.018 C 
ENDBRANCH   1   8
TORSDOF 1
ENDMDL
