MODEL 1
REMARK minimizedAffinity 6.6341939
REMARK minimizedRMSD -1
REMARK  1 active torsions:
REMARK  status: ('A' for Active; 'I' for Inactive)
REMARK    1  A    between atoms: C1_2  and  C2_3 
ROOT
ATOM      1  C2  UNL d   1       2.878   1.719  -1.238  0.00  0.00    -0.081 A 
ATOM      2  C3  UNL d   1       4.048   1.525  -0.494  0.00  0.00     0.006 A 
ATOM      3  C4  UNL d   1       3.994   1.434   0.899  0.00  0.00     0.002 A 
ATOM      4  C5  UNL d   1       2.770   1.529   1.570  0.00  0.00    -0.080 A 
ATOM      5  C6  UNL d   1       2.695   1.404   3.062  0.00  0.00     0.076 C 
ATOM      6  C7  UNL d   1       1.603   1.741   0.828  0.00  0.00     0.002 A 
ATOM      7  C8  UNL d   1       1.656   1.832  -0.565  0.00  0.00     0.006 A 
ENDROOT
BRANCH   1   8
ATOM      8  C1  UNL d   1       2.924   1.752  -2.745  0.00  0.00     0.054 C 
ATOM      9  C   UNL d   1       1.564   1.431  -3.347  0.00  0.00     0.018 C 
ENDBRANCH   1   8
TORSDOF 1
ENDMDL
