MODEL 1
REMARK minimizedAffinity 6.9490509
REMARK minimizedRMSD -1
REMARK  1 active torsions:
REMARK  status: ('A' for Active; 'I' for Inactive)
REMARK    1  A    between atoms: C1_2  and  C2_3 
ROOT
ATOM      1  C2  UNL d   1       1.876   1.274  -0.007  0.00  0.00    -0.081 A 
ATOM      2  C3  UNL d   1       1.044   2.377  -0.235  0.00  0.00     0.006 A 
ATOM      3  C4  UNL d   1       0.037   2.705   0.677  0.00  0.00     0.002 A 
ATOM      4  C5  UNL d   1      -0.149   1.941   1.834  0.00  0.00    -0.080 A 
ATOM      5  C6  UNL d   1      -1.206   2.300   2.836  0.00  0.00     0.076 C 
ATOM      6  C7  UNL d   1       0.671   0.829   2.053  0.00  0.00     0.002 A 
ATOM      7  C8  UNL d   1       1.677   0.500   1.142  0.00  0.00     0.006 A 
ENDROOT
BRANCH   1   8
ATOM      8  C1  UNL d   1       3.004   0.956  -0.955  0.00  0.00     0.054 C 
ATOM      9  C   UNL d   1       4.093   2.018  -0.895  0.00  0.00     0.018 C 
ENDBRANCH   1   8
TORSDOF 1
ENDMDL
