MODEL 1
REMARK minimizedAffinity 2.2819159
REMARK minimizedRMSD -1
REMARK  1 active torsions:
REMARK  status: ('A' for Active; 'I' for Inactive)
REMARK    1  A    between atoms: C1_2  and  C2_3 
ROOT
ATOM      1  C2  UNL d   1       3.464   4.607   2.479  0.00  0.00    -0.081 A 
ATOM      2  C3  UNL d   1       4.326   3.820   1.705  0.00  0.00     0.006 A 
ATOM      3  C4  UNL d   1       3.918   2.566   1.246  0.00  0.00     0.002 A 
ATOM      4  C5  UNL d   1       2.641   2.081   1.545  0.00  0.00    -0.080 A 
ATOM      5  C6  UNL d   1       2.180   0.749   1.033  0.00  0.00     0.076 C 
ATOM      6  C7  UNL d   1       1.786   2.859   2.333  0.00  0.00     0.002 A 
ATOM      7  C8  UNL d   1       2.193   4.113   2.794  0.00  0.00     0.006 A 
ENDROOT
BRANCH   1   8
ATOM      8  C1  UNL d   1       3.877   5.988   2.922  0.00  0.00     0.054 C 
ATOM      9  C   UNL d   1       4.543   5.954   4.290  0.00  0.00     0.018 C 
ENDBRANCH   1   8
TORSDOF 1
ENDMDL
