MODEL 1
REMARK minimizedAffinity 1.96000028
REMARK minimizedRMSD -1
REMARK  1 active torsions:
REMARK  status: ('A' for Active; 'I' for Inactive)
REMARK    1  A    between atoms: C1_2  and  C2_3 
ROOT
ATOM      1  C2  UNL d   1       0.513   2.653   0.797  0.00  0.00    -0.081 A 
ATOM      2  C3  UNL d   1      -0.192   3.201  -0.282  0.00  0.00     0.006 A 
ATOM      3  C4  UNL d   1      -1.526   2.854  -0.505  0.00  0.00     0.002 A 
ATOM      4  C5  UNL d   1      -2.180   1.961   0.350  0.00  0.00    -0.080 A 
ATOM      5  C6  UNL d   1      -3.621   1.603   0.139  0.00  0.00     0.076 C 
ATOM      6  C7  UNL d   1      -1.471   1.400   1.417  0.00  0.00     0.002 A 
ATOM      7  C8  UNL d   1      -0.136   1.746   1.641  0.00  0.00     0.006 A 
ENDROOT
BRANCH   1   8
ATOM      8  C1  UNL d   1       1.933   3.075   1.078  0.00  0.00     0.054 C 
ATOM      9  C   UNL d   1       2.893   1.900   0.956  0.00  0.00     0.018 C 
ENDBRANCH   1   8
TORSDOF 1
ENDMDL
