MODEL 1
REMARK minimizedAffinity 4.06569147
REMARK minimizedRMSD -1
REMARK  1 active torsions:
REMARK  status: ('A' for Active; 'I' for Inactive)
REMARK    1  A    between atoms: C1_2  and  C2_3 
ROOT
ATOM      1  C2  UNL d   1       2.298   2.060   0.882  0.00  0.00    -0.081 A 
ATOM      2  C3  UNL d   1       1.610   3.272   1.013  0.00  0.00     0.006 A 
ATOM      3  C4  UNL d   1       0.223   3.321   0.855  0.00  0.00     0.002 A 
ATOM      4  C5  UNL d   1      -0.500   2.157   0.573  0.00  0.00    -0.080 A 
ATOM      5  C6  UNL d   1      -1.993   2.190   0.431  0.00  0.00     0.076 C 
ATOM      6  C7  UNL d   1       0.188   0.948   0.424  0.00  0.00     0.002 A 
ATOM      7  C8  UNL d   1       1.575   0.900   0.581  0.00  0.00     0.006 A 
ENDROOT
BRANCH   1   8
ATOM      8  C1  UNL d   1       3.785   1.993   1.115  0.00  0.00     0.054 C 
ATOM      9  C   UNL d   1       4.167   2.635   2.441  0.00  0.00     0.018 C 
ENDBRANCH   1   8
TORSDOF 1
ENDMDL
