MODEL 1
REMARK minimizedAffinity -5.22947598
REMARK minimizedRMSD -1
REMARK  2 active torsions:
REMARK  status: ('A' for Active; 'I' for Inactive)
REMARK    1  A    between atoms: C1_2  and  C2_3 
REMARK    2  A    between atoms: C2_3  and  C3_4 
ROOT
ATOM      1  C3  UNL d   1       1.461   2.421  -1.220  0.00  0.00    -0.075 A 
ATOM      2  C4  UNL d   1       1.883   1.312  -1.967  0.00  0.00     0.002 A 
ATOM      3  C5  UNL d   1       1.754   0.021  -1.454  0.00  0.00     0.002 A 
ATOM      4  C6  UNL d   1       1.212  -0.177  -0.186  0.00  0.00    -0.004 A 
ATOM      5  C7  UNL d   1       0.804   0.919   0.572  0.00  0.00     0.002 A 
ATOM      6  C8  UNL d   1       0.928   2.211   0.059  0.00  0.00     0.002 A 
ENDROOT
BRANCH   1   7
ATOM      7  C2  UNL d   1       1.570   3.818  -1.782  0.00  0.00     0.056 C 
BRANCH   7   8
ATOM      8  C1  UNL d   1       1.480   4.924  -0.725  0.00  0.00     0.007 C 
ATOM      9  C   UNL d   1       2.548   5.998  -0.887  0.00  0.00     0.009 C 
ENDBRANCH   7   8
ENDBRANCH   1   7
TORSDOF 2
ENDMDL
