MODEL 1
REMARK minimizedAffinity -3.12297082
REMARK minimizedRMSD -1
REMARK  2 active torsions:
REMARK  status: ('A' for Active; 'I' for Inactive)
REMARK    1  A    between atoms: C1_2  and  C2_3 
REMARK    2  A    between atoms: C2_3  and  C3_4 
ROOT
ATOM      1  C3  UNL d   1       1.547   2.399  -1.226  0.00  0.00    -0.075 A 
ATOM      2  C4  UNL d   1       1.214   1.273  -1.994  0.00  0.00     0.002 A 
ATOM      3  C5  UNL d   1       0.887   0.066  -1.376  0.00  0.00     0.002 A 
ATOM      4  C6  UNL d   1       0.899  -0.035   0.013  0.00  0.00    -0.004 A 
ATOM      5  C7  UNL d   1       1.245   1.072   0.785  0.00  0.00     0.002 A 
ATOM      6  C8  UNL d   1       1.568   2.283   0.170  0.00  0.00     0.002 A 
ENDROOT
BRANCH   1   7
ATOM      7  C2  UNL d   1       1.873   3.716  -1.888  0.00  0.00     0.056 C 
BRANCH   7   8
ATOM      8  C1  UNL d   1       2.083   4.873  -0.905  0.00  0.00     0.007 C 
ATOM      9  C   UNL d   1       2.952   5.989  -1.469  0.00  0.00     0.009 C 
ENDBRANCH   7   8
ENDBRANCH   1   7
TORSDOF 2
ENDMDL
