MODEL 1
REMARK minimizedAffinity -2.34475112
REMARK minimizedRMSD -1
REMARK  2 active torsions:
REMARK  status: ('A' for Active; 'I' for Inactive)
REMARK    1  A    between atoms: C1_2  and  C2_3 
REMARK    2  A    between atoms: C2_3  and  C3_4 
ROOT
ATOM      1  C3  UNL d   1       1.144   1.980  -0.797  0.00  0.00    -0.075 A 
ATOM      2  C4  UNL d   1       1.093   2.535   0.490  0.00  0.00     0.002 A 
ATOM      3  C5  UNL d   1       1.375   3.886   0.690  0.00  0.00     0.002 A 
ATOM      4  C6  UNL d   1       1.721   4.696  -0.389  0.00  0.00    -0.004 A 
ATOM      5  C7  UNL d   1       1.791   4.152  -1.669  0.00  0.00     0.002 A 
ATOM      6  C8  UNL d   1       1.505   2.801  -1.874  0.00  0.00     0.002 A 
ENDROOT
BRANCH   1   7
ATOM      7  C2  UNL d   1       0.812   0.525  -1.025  0.00  0.00     0.056 C 
BRANCH   7   8
ATOM      8  C1  UNL d   1       1.249  -0.401   0.115  0.00  0.00     0.007 C 
ATOM      9  C   UNL d   1       2.243   0.249   1.068  0.00  0.00     0.009 C 
ENDBRANCH   7   8
ENDBRANCH   1   7
TORSDOF 2
ENDMDL
