MODEL 1
REMARK minimizedAffinity -2.31119013
REMARK minimizedRMSD -1
REMARK  2 active torsions:
REMARK  status: ('A' for Active; 'I' for Inactive)
REMARK    1  A    between atoms: C1_2  and  C2_3 
REMARK    2  A    between atoms: C2_3  and  C3_4 
ROOT
ATOM      1  C3  UNL d   1       1.100   0.685  -0.656  0.00  0.00    -0.075 A 
ATOM      2  C4  UNL d   1       1.734   1.925  -0.827  0.00  0.00     0.002 A 
ATOM      3  C5  UNL d   1       1.917   2.456  -2.104  0.00  0.00     0.002 A 
ATOM      4  C6  UNL d   1       1.479   1.753  -3.224  0.00  0.00    -0.004 A 
ATOM      5  C7  UNL d   1       0.864   0.513  -3.067  0.00  0.00     0.002 A 
ATOM      6  C8  UNL d   1       0.675  -0.019  -1.790  0.00  0.00     0.002 A 
ENDROOT
BRANCH   1   7
ATOM      7  C2  UNL d   1       0.872   0.118   0.725  0.00  0.00     0.056 C 
BRANCH   7   8
ATOM      8  C1  UNL d   1       0.875   1.170   1.839  0.00  0.00     0.007 C 
ATOM      9  C   UNL d   1       1.646   0.730   3.077  0.00  0.00     0.009 C 
ENDBRANCH   7   8
ENDBRANCH   1   7
TORSDOF 2
ENDMDL
