MODEL 1
REMARK minimizedAffinity -1.36556304
REMARK minimizedRMSD -1
REMARK  2 active torsions:
REMARK  status: ('A' for Active; 'I' for Inactive)
REMARK    1  A    between atoms: C1_2  and  C2_3 
REMARK    2  A    between atoms: C2_3  and  C3_4 
ROOT
ATOM      1  C3  UNL d   1       0.850  -1.891  -1.486  0.00  0.00    -0.075 A 
ATOM      2  C4  UNL d   1      -0.156  -2.675  -2.071  0.00  0.00     0.002 A 
ATOM      3  C5  UNL d   1      -0.623  -3.822  -1.430  0.00  0.00     0.002 A 
ATOM      4  C6  UNL d   1      -0.085  -4.206  -0.203  0.00  0.00    -0.004 A 
ATOM      5  C7  UNL d   1       0.925  -3.445   0.379  0.00  0.00     0.002 A 
ATOM      6  C8  UNL d   1       1.392  -2.293  -0.258  0.00  0.00     0.002 A 
ENDROOT
BRANCH   1   7
ATOM      7  C2  UNL d   1       1.339  -0.632  -2.161  0.00  0.00     0.056 C 
BRANCH   7   8
ATOM      8  C1  UNL d   1       1.409   0.586  -1.234  0.00  0.00     0.007 C 
ATOM      9  C   UNL d   1       0.829   1.849  -1.857  0.00  0.00     0.009 C 
ENDBRANCH   7   8
ENDBRANCH   1   7
TORSDOF 2
ENDMDL
