MODEL 1
REMARK minimizedAffinity -2.14987016
REMARK minimizedRMSD -1
REMARK  2 active torsions:
REMARK  status: ('A' for Active; 'I' for Inactive)
REMARK    1  A    between atoms: C1_2  and  C2_3 
REMARK    2  A    between atoms: C2_3  and  C3_4 
ROOT
ATOM      1  C3  UNL d   1       1.303   2.268  -1.031  0.00  0.00    -0.075 A 
ATOM      2  C4  UNL d   1       1.909   1.968   0.198  0.00  0.00     0.002 A 
ATOM      3  C5  UNL d   1       2.116   0.642   0.581  0.00  0.00     0.002 A 
ATOM      4  C6  UNL d   1       1.712  -0.398  -0.253  0.00  0.00    -0.004 A 
ATOM      5  C7  UNL d   1       1.095  -0.112  -1.469  0.00  0.00     0.002 A 
ATOM      6  C8  UNL d   1       0.890   1.213  -1.857  0.00  0.00     0.002 A 
ENDROOT
BRANCH   1   7
ATOM      7  C2  UNL d   1       1.103   3.700  -1.464  0.00  0.00     0.056 C 
BRANCH   7   8
ATOM      8  C1  UNL d   1       1.554   4.734  -0.428  0.00  0.00     0.007 C 
ATOM      9  C   UNL d   1       2.344   5.887  -1.034  0.00  0.00     0.009 C 
ENDBRANCH   7   8
ENDBRANCH   1   7
TORSDOF 2
ENDMDL
