MODEL 1
REMARK minimizedAffinity 1.95537043
REMARK minimizedRMSD -1
REMARK  2 active torsions:
REMARK  status: ('A' for Active; 'I' for Inactive)
REMARK    1  A    between atoms: C1_2  and  C2_3 
REMARK    2  A    between atoms: C2_3  and  C3_4 
ROOT
ATOM      1  C3  UNL d   1       1.425   2.442  -1.062  0.00  0.00    -0.075 A 
ATOM      2  C4  UNL d   1       1.382   2.405   0.340  0.00  0.00     0.002 A 
ATOM      3  C5  UNL d   1       1.336   1.185   1.015  0.00  0.00     0.002 A 
ATOM      4  C6  UNL d   1       1.323  -0.010   0.300  0.00  0.00    -0.004 A 
ATOM      5  C7  UNL d   1       1.349   0.015  -1.092  0.00  0.00     0.002 A 
ATOM      6  C8  UNL d   1       1.399   1.234  -1.771  0.00  0.00     0.002 A 
ENDROOT
BRANCH   1   7
ATOM      7  C2  UNL d   1       1.505   3.758  -1.798  0.00  0.00     0.056 C 
BRANCH   7   8
ATOM      8  C1  UNL d   1       1.663   4.976  -0.882  0.00  0.00     0.007 C 
ATOM      9  C   UNL d   1       2.659   6.000  -1.411  0.00  0.00     0.009 C 
ENDBRANCH   7   8
ENDBRANCH   1   7
TORSDOF 2
ENDMDL
