MODEL 1
REMARK minimizedAffinity -3.90321374
REMARK minimizedRMSD -1
REMARK  2 active torsions:
REMARK  status: ('A' for Active; 'I' for Inactive)
REMARK    1  A    between atoms: C1_2  and  C2_3 
REMARK    2  A    between atoms: C2_3  and  C3_4 
ROOT
ATOM      1  C3  UNL d   1       1.136   2.215  -0.840  0.00  0.00    -0.075 A 
ATOM      2  C4  UNL d   1       0.947   2.236   0.549  0.00  0.00     0.002 A 
ATOM      3  C5  UNL d   1       0.784   1.046   1.260  0.00  0.00     0.002 A 
ATOM      4  C6  UNL d   1       0.798  -0.176   0.591  0.00  0.00    -0.004 A 
ATOM      5  C7  UNL d   1       0.968  -0.207  -0.791  0.00  0.00     0.002 A 
ATOM      6  C8  UNL d   1       1.135   0.981  -1.504  0.00  0.00     0.002 A 
ENDROOT
BRANCH   1   7
ATOM      7  C2  UNL d   1       1.342   3.497  -1.611  0.00  0.00     0.056 C 
BRANCH   7   8
ATOM      8  C1  UNL d   1       1.460   4.744  -0.728  0.00  0.00     0.007 C 
ATOM      9  C   UNL d   1       1.825   6.000  -1.508  0.00  0.00     0.009 C 
ENDBRANCH   7   8
ENDBRANCH   1   7
TORSDOF 2
ENDMDL
