MODEL 1
REMARK minimizedAffinity -3.02342367
REMARK minimizedRMSD -1
REMARK  2 active torsions:
REMARK  status: ('A' for Active; 'I' for Inactive)
REMARK    1  A    between atoms: C1_2  and  C2_3 
REMARK    2  A    between atoms: C2_3  and  C3_4 
ROOT
ATOM      1  C3  UNL d   1       1.184   2.336  -0.978  0.00  0.00    -0.075 A 
ATOM      2  C4  UNL d   1       0.842   2.106   0.362  0.00  0.00     0.002 A 
ATOM      3  C5  UNL d   1       0.852   0.812   0.884  0.00  0.00     0.002 A 
ATOM      4  C6  UNL d   1       1.194  -0.267   0.072  0.00  0.00    -0.004 A 
ATOM      5  C7  UNL d   1       1.519  -0.052  -1.266  0.00  0.00     0.002 A 
ATOM      6  C8  UNL d   1       1.514   1.242  -1.789  0.00  0.00     0.002 A 
ENDROOT
BRANCH   1   7
ATOM      7  C2  UNL d   1       1.203   3.737  -1.541  0.00  0.00     0.056 C 
BRANCH   7   8
ATOM      8  C1  UNL d   1       1.715   4.797  -0.559  0.00  0.00     0.007 C 
ATOM      9  C   UNL d   1       2.345   6.000  -1.249  0.00  0.00     0.009 C 
ENDBRANCH   7   8
ENDBRANCH   1   7
TORSDOF 2
ENDMDL
