MODEL 1
REMARK minimizedAffinity -1.81044996
REMARK minimizedRMSD -1
REMARK  2 active torsions:
REMARK  status: ('A' for Active; 'I' for Inactive)
REMARK    1  A    between atoms: C1_2  and  C2_3 
REMARK    2  A    between atoms: C2_3  and  C3_4 
ROOT
ATOM      1  C3  UNL d   1       1.373   2.260  -1.013  0.00  0.00    -0.075 A 
ATOM      2  C4  UNL d   1       1.135   1.994   0.343  0.00  0.00     0.002 A 
ATOM      3  C5  UNL d   1       1.038   0.680   0.801  0.00  0.00     0.002 A 
ATOM      4  C6  UNL d   1       1.168  -0.383  -0.090  0.00  0.00    -0.004 A 
ATOM      5  C7  UNL d   1       1.388  -0.131  -1.442  0.00  0.00     0.002 A 
ATOM      6  C8  UNL d   1       1.489   1.183  -1.903  0.00  0.00     0.002 A 
ENDROOT
BRANCH   1   7
ATOM      7  C2  UNL d   1       1.507   3.679  -1.511  0.00  0.00     0.056 C 
BRANCH   7   8
ATOM      8  C1  UNL d   1       1.537   4.730  -0.396  0.00  0.00     0.007 C 
ATOM      9  C   UNL d   1       2.281   6.000  -0.788  0.00  0.00     0.009 C 
ENDBRANCH   7   8
ENDBRANCH   1   7
TORSDOF 2
ENDMDL
