MODEL 1
REMARK minimizedAffinity 0.390425801
REMARK minimizedRMSD -1
REMARK  2 active torsions:
REMARK  status: ('A' for Active; 'I' for Inactive)
REMARK    1  A    between atoms: C1_2  and  C2_3 
REMARK    2  A    between atoms: C2_3  and  C3_4 
ROOT
ATOM      1  C3  UNL d   1       1.425   2.101   0.038  0.00  0.00    -0.075 A 
ATOM      2  C4  UNL d   1       1.606   3.429  -0.375  0.00  0.00     0.002 A 
ATOM      3  C5  UNL d   1       1.106   3.863  -1.603  0.00  0.00     0.002 A 
ATOM      4  C6  UNL d   1       0.430   2.974  -2.436  0.00  0.00    -0.004 A 
ATOM      5  C7  UNL d   1       0.259   1.649  -2.043  0.00  0.00     0.002 A 
ATOM      6  C8  UNL d   1       0.754   1.213  -0.813  0.00  0.00     0.002 A 
ENDROOT
BRANCH   1   7
ATOM      7  C2  UNL d   1       1.938   1.632   1.379  0.00  0.00     0.056 C 
BRANCH   7   8
ATOM      8  C1  UNL d   1       2.439   0.184   1.384  0.00  0.00     0.007 C 
ATOM      9  C   UNL d   1       3.958   0.075   1.375  0.00  0.00     0.009 C 
ENDBRANCH   7   8
ENDBRANCH   1   7
TORSDOF 2
ENDMDL
