MODEL 1
REMARK minimizedAffinity -4.38545704
REMARK minimizedRMSD -1
REMARK  2 active torsions:
REMARK  status: ('A' for Active; 'I' for Inactive)
REMARK    1  A    between atoms: C1_2  and  C2_3 
REMARK    2  A    between atoms: C2_3  and  C3_4 
ROOT
ATOM      1  C3  UNL d   1       0.968   1.516   0.346  0.00  0.00    -0.075 A 
ATOM      2  C4  UNL d   1       1.230   0.236  -0.161  0.00  0.00     0.002 A 
ATOM      3  C5  UNL d   1       1.565   0.061  -1.504  0.00  0.00     0.002 A 
ATOM      4  C6  UNL d   1       1.632   1.160  -2.357  0.00  0.00    -0.004 A 
ATOM      5  C7  UNL d   1       1.357   2.435  -1.867  0.00  0.00     0.002 A 
ATOM      6  C8  UNL d   1       1.026   2.614  -0.523  0.00  0.00     0.002 A 
ENDROOT
BRANCH   1   7
ATOM      7  C2  UNL d   1       0.633   1.715   1.805  0.00  0.00     0.056 C 
BRANCH   7   8
ATOM      8  C1  UNL d   1       1.827   2.142   2.666  0.00  0.00     0.007 C 
ATOM      9  C   UNL d   1       1.728   3.580   3.158  0.00  0.00     0.009 C 
ENDBRANCH   7   8
ENDBRANCH   1   7
TORSDOF 2
ENDMDL
