MODEL 1
REMARK minimizedAffinity 0.109084845
REMARK minimizedRMSD -1
REMARK  0 active torsions:
REMARK  status: ('A' for Active; 'I' for Inactive)
ROOT
ATOM      1  C1  BNZ d   1      -0.080   1.588   1.506  0.00  0.00     0.000 A 
ATOM      2  C2  BNZ d   1       0.016   0.258   1.195  0.00  0.00     0.000 A 
ATOM      3  C3  BNZ d   1      -0.936  -0.629   1.613  0.00  0.00     0.000 A 
ATOM      4  C4  BNZ d   1      -1.960  -0.192   2.376  0.00  0.00     0.000 A 
ATOM      5  C5  BNZ d   1      -2.065   1.144   2.706  0.00  0.00     0.000 A 
ATOM      6  C6  BNZ d   1      -1.126   2.040   2.250  0.00  0.00     0.000 A 
ENDROOT
TORSDOF 0
ENDMDL
