MODEL 1
REMARK minimizedAffinity -0.107484132
REMARK minimizedRMSD -1
REMARK  0 active torsions:
REMARK  status: ('A' for Active; 'I' for Inactive)
ROOT
ATOM      1  C1  BNZ d   1      -1.772   1.712   2.391  0.00  0.00     0.000 A 
ATOM      2  C2  BNZ d   1      -0.708   2.295   1.755  0.00  0.00     0.000 A 
ATOM      3  C3  BNZ d   1       0.409   1.568   1.451  0.00  0.00     0.000 A 
ATOM      4  C4  BNZ d   1       0.478   0.273   1.819  0.00  0.00     0.000 A 
ATOM      5  C5  BNZ d   1      -0.583  -0.327   2.469  0.00  0.00     0.000 A 
ATOM      6  C6  BNZ d   1      -1.722   0.397   2.738  0.00  0.00     0.000 A 
ENDROOT
TORSDOF 0
ENDMDL
