MODEL 1
REMARK minimizedAffinity 1.97889578
REMARK minimizedRMSD -1
REMARK  0 active torsions:
REMARK  status: ('A' for Active; 'I' for Inactive)
ROOT
ATOM      1  C1  BNZ d   1       0.555   0.213   0.378  0.00  0.00     0.000 A 
ATOM      2  C2  BNZ d   1       0.480   1.580   0.331  0.00  0.00     0.000 A 
ATOM      3  C3  BNZ d   1       0.201   2.304   1.456  0.00  0.00     0.000 A 
ATOM      4  C4  BNZ d   1      -0.041   1.661   2.617  0.00  0.00     0.000 A 
ATOM      5  C5  BNZ d   1       0.022   0.283   2.678  0.00  0.00     0.000 A 
ATOM      6  C6  BNZ d   1       0.341  -0.441   1.552  0.00  0.00     0.000 A 
ENDROOT
TORSDOF 0
ENDMDL
