MODEL 1
REMARK minimizedAffinity 2.52333069
REMARK minimizedRMSD -1
REMARK  0 active torsions:
REMARK  status: ('A' for Active; 'I' for Inactive)
ROOT
ATOM      1  C1  BNZ d   1      -4.329  -1.813  -0.727  0.00  0.00     0.000 A 
ATOM      2  C2  BNZ d   1      -4.317  -3.097  -0.250  0.00  0.00     0.000 A 
ATOM      3  C3  BNZ d   1      -4.062  -4.150  -1.084  0.00  0.00     0.000 A 
ATOM      4  C4  BNZ d   1      -3.859  -3.922  -2.397  0.00  0.00     0.000 A 
ATOM      5  C5  BNZ d   1      -3.878  -2.634  -2.894  0.00  0.00     0.000 A 
ATOM      6  C6  BNZ d   1      -4.096  -1.573  -2.046  0.00  0.00     0.000 A 
ENDROOT
TORSDOF 0
ENDMDL
