MODEL 1
REMARK minimizedAffinity -1.03253531
REMARK minimizedRMSD -1
REMARK  0 active torsions:
REMARK  status: ('A' for Active; 'I' for Inactive)
ROOT
ATOM      1  C1  BNZ d   1      -3.596   1.353   3.607  0.00  0.00     0.000 A 
ATOM      2  C2  BNZ d   1      -2.882   2.521   3.606  0.00  0.00     0.000 A 
ATOM      3  C3  BNZ d   1      -1.729   2.637   2.881  0.00  0.00     0.000 A 
ATOM      4  C4  BNZ d   1      -1.271   1.573   2.191  0.00  0.00     0.000 A 
ATOM      5  C5  BNZ d   1      -1.974   0.385   2.189  0.00  0.00     0.000 A 
ATOM      6  C6  BNZ d   1      -3.155   0.284   2.889  0.00  0.00     0.000 A 
ENDROOT
TORSDOF 0
ENDMDL
