MODEL 1
REMARK minimizedAffinity -1.89950609
REMARK minimizedRMSD -1
REMARK  0 active torsions:
REMARK  status: ('A' for Active; 'I' for Inactive)
ROOT
ATOM      1  C1  BNZ d   1      -1.846   2.464   2.618  0.00  0.00     0.000 A 
ATOM      2  C2  BNZ d   1      -0.599   2.393   2.058  0.00  0.00     0.000 A 
ATOM      3  C3  BNZ d   1      -0.119   1.212   1.565  0.00  0.00     0.000 A 
ATOM      4  C4  BNZ d   1      -0.871   0.097   1.668  0.00  0.00     0.000 A 
ATOM      5  C5  BNZ d   1      -2.127   0.150   2.238  0.00  0.00     0.000 A 
ATOM      6  C6  BNZ d   1      -2.622   1.349   2.698  0.00  0.00     0.000 A 
ENDROOT
TORSDOF 0
ENDMDL
