MODEL 1
REMARK minimizedAffinity 1.3262136
REMARK minimizedRMSD -1
REMARK  0 active torsions:
REMARK  status: ('A' for Active; 'I' for Inactive)
ROOT
ATOM      1  C1  BNZ d   1      -0.522   1.072   1.458  0.00  0.00     0.000 A 
ATOM      2  C2  BNZ d   1       0.308   1.723   0.584  0.00  0.00     0.000 A 
ATOM      3  C3  BNZ d   1       1.460   1.134   0.143  0.00  0.00     0.000 A 
ATOM      4  C4  BNZ d   1       1.801  -0.086   0.606  0.00  0.00     0.000 A 
ATOM      5  C5  BNZ d   1       0.980  -0.751   1.494  0.00  0.00     0.000 A 
ATOM      6  C6  BNZ d   1      -0.199  -0.172   1.906  0.00  0.00     0.000 A 
ENDROOT
TORSDOF 0
ENDMDL
