MODEL 1
REMARK minimizedAffinity -3.42878318
REMARK minimizedRMSD -1
REMARK  0 active torsions:
REMARK  status: ('A' for Active; 'I' for Inactive)
ROOT
ATOM      1  C1  BNZ d   1       0.440   1.386   1.082  0.00  0.00     0.000 A 
ATOM      2  C2  BNZ d   1      -0.527   2.258   1.507  0.00  0.00     0.000 A 
ATOM      3  C3  BNZ d   1      -1.577   1.823   2.266  0.00  0.00     0.000 A 
ATOM      4  C4  BNZ d   1      -1.681   0.512   2.565  0.00  0.00     0.000 A 
ATOM      5  C5  BNZ d   1      -0.719  -0.381   2.136  0.00  0.00     0.000 A 
ATOM      6  C6  BNZ d   1       0.357   0.067   1.405  0.00  0.00     0.000 A 
ENDROOT
TORSDOF 0
ENDMDL
