MODEL 1
REMARK minimizedAffinity -4.22757816
REMARK minimizedRMSD -1
REMARK  0 active torsions:
REMARK  status: ('A' for Active; 'I' for Inactive)
ROOT
ATOM      1  C1  BNZ d   1      -1.173   0.511   2.367  0.00  0.00     0.000 A 
ATOM      2  C2  BNZ d   1      -0.113  -0.238   1.931  0.00  0.00     0.000 A 
ATOM      3  C3  BNZ d   1       0.951   0.351   1.306  0.00  0.00     0.000 A 
ATOM      4  C4  BNZ d   1       0.935   1.681   1.082  0.00  0.00     0.000 A 
ATOM      5  C5  BNZ d   1      -0.131   2.449   1.508  0.00  0.00     0.000 A 
ATOM      6  C6  BNZ d   1      -1.182   1.858   2.171  0.00  0.00     0.000 A 
ENDROOT
TORSDOF 0
ENDMDL
