MODEL 1
REMARK minimizedAffinity 1.45434415
REMARK minimizedRMSD -1
REMARK  0 active torsions:
REMARK  status: ('A' for Active; 'I' for Inactive)
ROOT
ATOM      1  C1  BNZ d   1      -5.263   0.663   4.998  0.00  0.00     0.000 A 
ATOM      2  C2  BNZ d   1      -5.660   1.509   5.999  0.00  0.00     0.000 A 
ATOM      3  C3  BNZ d   1      -5.275   2.821   6.000  0.00  0.00     0.000 A 
ATOM      4  C4  BNZ d   1      -4.463   3.274   5.023  0.00  0.00     0.000 A 
ATOM      5  C5  BNZ d   1      -4.046   2.431   4.013  0.00  0.00     0.000 A 
ATOM      6  C6  BNZ d   1      -4.467   1.121   3.994  0.00  0.00     0.000 A 
ENDROOT
TORSDOF 0
ENDMDL
