MODEL 1
REMARK minimizedAffinity -3.47096968
REMARK minimizedRMSD -1
REMARK  0 active torsions:
REMARK  status: ('A' for Active; 'I' for Inactive)
ROOT
ATOM      1  C1  BNZ d   1      -0.201   0.339   0.897  0.00  0.00     0.000 A 
ATOM      2  C2  BNZ d   1      -0.103   1.681   1.148  0.00  0.00     0.000 A 
ATOM      3  C3  BNZ d   1      -1.000   2.307   1.968  0.00  0.00     0.000 A 
ATOM      4  C4  BNZ d   1      -2.016   1.600   2.503  0.00  0.00     0.000 A 
ATOM      5  C5  BNZ d   1      -2.134   0.247   2.251  0.00  0.00     0.000 A 
ATOM      6  C6  BNZ d   1      -1.207  -0.387   1.457  0.00  0.00     0.000 A 
ENDROOT
TORSDOF 0
ENDMDL
