MODEL 1
REMARK minimizedAffinity -2.94686556
REMARK minimizedRMSD -1
REMARK  0 active torsions:
REMARK  status: ('A' for Active; 'I' for Inactive)
ROOT
ATOM      1  C1  BNZ d   1      -2.411  -4.969  -0.237  0.00  0.00     0.000 A 
ATOM      2  C2  BNZ d   1      -1.428  -5.416   0.604  0.00  0.00     0.000 A 
ATOM      3  C3  BNZ d   1      -1.040  -4.674   1.685  0.00  0.00     0.000 A 
ATOM      4  C4  BNZ d   1      -1.608  -3.470   1.900  0.00  0.00     0.000 A 
ATOM      5  C5  BNZ d   1      -2.594  -3.001   1.055  0.00  0.00     0.000 A 
ATOM      6  C6  BNZ d   1      -3.009  -3.768  -0.009  0.00  0.00     0.000 A 
ENDROOT
TORSDOF 0
ENDMDL
