MODEL 1
REMARK minimizedAffinity -2.13931322
REMARK minimizedRMSD -1
REMARK  0 active torsions:
REMARK  status: ('A' for Active; 'I' for Inactive)
ROOT
ATOM      1  C1  BNZ d   1       0.434  -1.010   1.613  0.00  0.00     0.000 A 
ATOM      2  C2  BNZ d   1       0.791   0.235   1.168  0.00  0.00     0.000 A 
ATOM      3  C3  BNZ d   1      -0.160   1.164   0.850  0.00  0.00     0.000 A 
ATOM      4  C4  BNZ d   1      -1.465   0.834   0.939  0.00  0.00     0.000 A 
ATOM      5  C5  BNZ d   1      -1.840  -0.421   1.377  0.00  0.00     0.000 A 
ATOM      6  C6  BNZ d   1      -0.881  -1.340   1.733  0.00  0.00     0.000 A 
ENDROOT
TORSDOF 0
ENDMDL
