MODEL 1
REMARK minimizedAffinity -1.72095442
REMARK minimizedRMSD -1
REMARK  0 active torsions:
REMARK  status: ('A' for Active; 'I' for Inactive)
ROOT
ATOM      1  C1  BNZ d   1       0.067   0.253   1.235  0.00  0.00     0.000 A 
ATOM      2  C2  BNZ d   1      -0.094   1.588   1.493  0.00  0.00     0.000 A 
ATOM      3  C3  BNZ d   1      -1.195   2.042   2.164  0.00  0.00     0.000 A 
ATOM      4  C4  BNZ d   1      -2.151   1.168   2.540  0.00  0.00     0.000 A 
ATOM      5  C5  BNZ d   1      -2.007  -0.180   2.278  0.00  0.00     0.000 A 
ATOM      6  C6  BNZ d   1      -0.879  -0.639   1.637  0.00  0.00     0.000 A 
ENDROOT
TORSDOF 0
ENDMDL
