MODEL 1
REMARK minimizedAffinity 4.22567034
REMARK minimizedRMSD -1
REMARK  0 active torsions:
REMARK  status: ('A' for Active; 'I' for Inactive)
ROOT
ATOM      1  C1  BNZ d   1      -0.827   0.447   2.282  0.00  0.00     0.000 A 
ATOM      2  C2  BNZ d   1      -0.463   1.480   1.459  0.00  0.00     0.000 A 
ATOM      3  C3  BNZ d   1       0.631   1.376   0.647  0.00  0.00     0.000 A 
ATOM      4  C4  BNZ d   1       1.383   0.258   0.687  0.00  0.00     0.000 A 
ATOM      5  C5  BNZ d   1       1.035  -0.789   1.518  0.00  0.00     0.000 A 
ATOM      6  C6  BNZ d   1      -0.089  -0.697   2.305  0.00  0.00     0.000 A 
ENDROOT
TORSDOF 0
ENDMDL
