MODEL 1
REMARK minimizedAffinity -2.51941276
REMARK minimizedRMSD -1
REMARK  0 active torsions:
REMARK  status: ('A' for Active; 'I' for Inactive)
ROOT
ATOM      1  C1  BNZ d   1      -1.818   0.160   2.173  0.00  0.00     0.000 A 
ATOM      2  C2  BNZ d   1      -0.687  -0.402   1.644  0.00  0.00     0.000 A 
ATOM      3  C3  BNZ d   1       0.363   0.378   1.248  0.00  0.00     0.000 A 
ATOM      4  C4  BNZ d   1       0.265   1.720   1.344  0.00  0.00     0.000 A 
ATOM      5  C5  BNZ d   1      -0.873   2.302   1.866  0.00  0.00     0.000 A 
ATOM      6  C6  BNZ d   1      -1.912   1.512   2.299  0.00  0.00     0.000 A 
ENDROOT
TORSDOF 0
ENDMDL
