MODEL 1
REMARK minimizedAffinity -2.47988653
REMARK minimizedRMSD -1
REMARK  0 active torsions:
REMARK  status: ('A' for Active; 'I' for Inactive)
ROOT
ATOM      1  C1  BNZ d   1      -1.432   1.063   1.133  0.00  0.00     0.000 A 
ATOM      2  C2  BNZ d   1      -0.314   1.816   0.891  0.00  0.00     0.000 A 
ATOM      3  C3  BNZ d   1       0.919   1.232   0.807  0.00  0.00     0.000 A 
ATOM      4  C4  BNZ d   1       1.038  -0.097   1.005  0.00  0.00     0.000 A 
ATOM      5  C5  BNZ d   1      -0.078  -0.868   1.259  0.00  0.00     0.000 A 
ATOM      6  C6  BNZ d   1      -1.323  -0.283   1.304  0.00  0.00     0.000 A 
ENDROOT
TORSDOF 0
ENDMDL
