MODEL 1
REMARK minimizedAffinity -4.52104759
REMARK minimizedRMSD -1
REMARK  0 active torsions:
REMARK  status: ('A' for Active; 'I' for Inactive)
ROOT
ATOM      1  C1  BNZ d   1      -2.775   0.889   2.962  0.00  0.00     0.000 A 
ATOM      2  C2  BNZ d   1      -2.167  -0.142   2.297  0.00  0.00     0.000 A 
ATOM      3  C3  BNZ d   1      -1.080   0.083   1.500  0.00  0.00     0.000 A 
ATOM      4  C4  BNZ d   1      -0.628   1.343   1.336  0.00  0.00     0.000 A 
ATOM      5  C5  BNZ d   1      -1.236   2.395   1.992  0.00  0.00     0.000 A 
ATOM      6  C6  BNZ d   1      -2.305   2.159   2.824  0.00  0.00     0.000 A 
ENDROOT
TORSDOF 0
ENDMDL
