MODEL 1
REMARK minimizedAffinity 11.2511053
REMARK minimizedRMSD -1
REMARK  1 active torsions:
REMARK  status: ('A' for Active; 'I' for Inactive)
REMARK    1  A    between atoms: N_2  and  C1_3 
ROOT
ATOM      1  C1  UNL d   1       0.333   2.153   2.090  0.00  0.00     0.143 A 
ATOM      2  C2  UNL d   1      -1.026   2.480   2.153  0.00  0.00    -0.057 A 
ATOM      3  C3  UNL d   1      -1.701   2.993   1.039  0.00  0.00     0.033 A 
ATOM      4  C4  UNL d   1      -1.020   3.216  -0.154  0.00  0.00    -0.042 A 
ATOM      5  C5  UNL d   1       0.337   2.921  -0.231  0.00  0.00     0.033 A 
ATOM      6  C6  UNL d   1       1.004   2.402   0.883  0.00  0.00    -0.057 A 
ENDROOT
BRANCH   1   7
ATOM      7  N   UNL d   1       1.083   1.732   3.191  0.00  0.00    -0.732 N 
ATOM      8  C   UNL d   1       2.420   2.241   3.410  0.00  0.00     0.284 C 
ATOM      9  H3  UNL d   1       0.523   1.657   4.037  0.00  0.00     0.395 HD
ENDBRANCH   1   7
TORSDOF 1
ENDMDL
