MODEL 1
REMARK minimizedAffinity 13.0063009
REMARK minimizedRMSD -1
REMARK  1 active torsions:
REMARK  status: ('A' for Active; 'I' for Inactive)
REMARK    1  A    between atoms: N_2  and  C1_3 
ROOT
ATOM      1  C1  UNL d   1      -1.904   4.105   0.239  0.00  0.00     0.143 A 
ATOM      2  C2  UNL d   1      -1.555   3.058   1.099  0.00  0.00    -0.057 A 
ATOM      3  C3  UNL d   1      -0.528   2.163   0.774  0.00  0.00     0.033 A 
ATOM      4  C4  UNL d   1       0.150   2.283  -0.434  0.00  0.00    -0.042 A 
ATOM      5  C5  UNL d   1      -0.197   3.301  -1.316  0.00  0.00     0.033 A 
ATOM      6  C6  UNL d   1      -1.218   4.195  -0.983  0.00  0.00    -0.057 A 
ENDROOT
BRANCH   1   7
ATOM      7  N   UNL d   1      -2.981   4.967   0.460  0.00  0.00    -0.732 N 
ATOM      8  C   UNL d   1      -3.159   5.609   1.744  0.00  0.00     0.284 C 
ATOM      9  H3  UNL d   1      -3.164   5.572  -0.337  0.00  0.00     0.395 HD
ENDBRANCH   1   7
TORSDOF 1
ENDMDL
