MODEL 1
REMARK minimizedAffinity 12.6419525
REMARK minimizedRMSD -1
REMARK  1 active torsions:
REMARK  status: ('A' for Active; 'I' for Inactive)
REMARK    1  A    between atoms: N_2  and  C1_3 
ROOT
ATOM      1  C1  UNL d   1      -2.562   5.249  -0.927  0.00  0.00     0.143 A 
ATOM      2  C2  UNL d   1      -3.873   5.079  -1.385  0.00  0.00    -0.057 A 
ATOM      3  C3  UNL d   1      -4.971   5.321  -0.551  0.00  0.00     0.033 A 
ATOM      4  C4  UNL d   1      -4.775   5.712   0.770  0.00  0.00    -0.042 A 
ATOM      5  C5  UNL d   1      -3.481   5.863   1.254  0.00  0.00     0.033 A 
ATOM      6  C6  UNL d   1      -2.389   5.626   0.414  0.00  0.00    -0.057 A 
ENDROOT
BRANCH   1   7
ATOM      7  N   UNL d   1      -1.428   4.929  -1.678  0.00  0.00    -0.732 N 
ATOM      8  C   UNL d   1      -0.857   3.601  -1.621  0.00  0.00     0.284 C 
ATOM      9  H3  UNL d   1      -1.455   5.330  -2.613  0.00  0.00     0.395 HD
ENDBRANCH   1   7
TORSDOF 1
ENDMDL
