MODEL 1
REMARK minimizedAffinity 5.63118219
REMARK minimizedRMSD -1
REMARK  1 active torsions:
REMARK  status: ('A' for Active; 'I' for Inactive)
REMARK    1  A    between atoms: N_2  and  C1_3 
ROOT
ATOM      1  C1  UNL d   1      -1.382   4.453   0.567  0.00  0.00     0.143 A 
ATOM      2  C2  UNL d   1      -0.937   4.285  -0.749  0.00  0.00    -0.057 A 
ATOM      3  C3  UNL d   1      -0.303   3.105  -1.156  0.00  0.00     0.033 A 
ATOM      4  C4  UNL d   1      -0.077   2.079  -0.244  0.00  0.00    -0.042 A 
ATOM      5  C5  UNL d   1      -0.489   2.234   1.075  0.00  0.00     0.033 A 
ATOM      6  C6  UNL d   1      -1.127   3.412   1.474  0.00  0.00    -0.057 A 
ENDROOT
BRANCH   1   7
ATOM      7  N   UNL d   1      -1.930   5.641   1.057  0.00  0.00    -0.732 N 
ATOM      8  C   UNL d   1      -2.904   5.617   2.127  0.00  0.00     0.284 C 
ATOM      9  H3  UNL d   1      -1.238   6.382   1.141  0.00  0.00     0.395 HD
ENDBRANCH   1   7
TORSDOF 1
ENDMDL
