MODEL 1
REMARK minimizedAffinity 10.8634272
REMARK minimizedRMSD -1
REMARK  1 active torsions:
REMARK  status: ('A' for Active; 'I' for Inactive)
REMARK    1  A    between atoms: N_2  and  C1_3 
ROOT
ATOM      1  C1  UNL d   1       3.095  -5.229  -2.879  0.00  0.00     0.143 A 
ATOM      2  C2  UNL d   1       2.296  -4.586  -3.830  0.00  0.00    -0.057 A 
ATOM      3  C3  UNL d   1       1.019  -4.113  -3.506  0.00  0.00     0.033 A 
ATOM      4  C4  UNL d   1       0.504  -4.303  -2.228  0.00  0.00    -0.042 A 
ATOM      5  C5  UNL d   1       1.270  -4.962  -1.273  0.00  0.00     0.033 A 
ATOM      6  C6  UNL d   1       2.548  -5.425  -1.601  0.00  0.00    -0.057 A 
ENDROOT
BRANCH   1   7
ATOM      7  N   UNL d   1       4.333  -5.808  -3.166  0.00  0.00    -0.732 N 
ATOM      8  C   UNL d   1       5.563  -5.143  -2.791  0.00  0.00     0.284 C 
ATOM      9  H3  UNL d   1       4.339  -6.813  -3.006  0.00  0.00     0.395 HD
ENDBRANCH   1   7
TORSDOF 1
ENDMDL
