MODEL 1
REMARK minimizedAffinity 9.10694885
REMARK minimizedRMSD -1
REMARK  1 active torsions:
REMARK  status: ('A' for Active; 'I' for Inactive)
REMARK    1  A    between atoms: N_2  and  C1_3 
ROOT
ATOM      1  C1  UNL d   1       1.073  -4.784  -2.333  0.00  0.00     0.143 A 
ATOM      2  C2  UNL d   1       0.073  -4.201  -3.119  0.00  0.00    -0.057 A 
ATOM      3  C3  UNL d   1       0.241  -4.033  -4.499  0.00  0.00     0.033 A 
ATOM      4  C4  UNL d   1       1.427  -4.419  -5.114  0.00  0.00    -0.042 A 
ATOM      5  C5  UNL d   1       2.445  -4.977  -4.348  0.00  0.00     0.033 A 
ATOM      6  C6  UNL d   1       2.269  -5.149  -2.972  0.00  0.00    -0.057 A 
ENDROOT
BRANCH   1   7
ATOM      7  N   UNL d   1       1.006  -4.888  -0.941  0.00  0.00    -0.732 N 
ATOM      8  C   UNL d   1       1.516  -3.830  -0.097  0.00  0.00     0.284 C 
ATOM      9  H3  UNL d   1       0.125  -5.285  -0.624  0.00  0.00     0.395 HD
ENDBRANCH   1   7
TORSDOF 1
ENDMDL
