MODEL 1
REMARK minimizedAffinity 1.66868675
REMARK minimizedRMSD -1
REMARK  0 active torsions:
REMARK  status: ('A' for Active; 'I' for Inactive)
ROOT
ATOM      1  C   UNL d   1      -1.367  -0.540   0.055  0.00  0.00    -0.002 A 
ATOM      2  C1  UNL d   1      -0.328  -0.051   0.834  0.00  0.00     0.010 A 
ATOM      3  C2  UNL d   1       0.346   1.116   0.468  0.00  0.00     0.041 A 
ATOM      4  C3  UNL d   1      -0.046   1.790  -0.705  0.00  0.00    -0.075 A 
ATOM      5  S   UNL d   1       0.634   3.237  -1.349  0.00  0.00     0.015 SA
ATOM      6  C4  UNL d   1      -0.439   3.242  -2.673  0.00  0.00     0.022 A 
ATOM      7  C5  UNL d   1      -1.302   2.172  -2.640  0.00  0.00     0.026 A 
ATOM      8  C6  UNL d   1      -1.091   1.318  -1.505  0.00  0.00    -0.082 A 
ATOM      9  C7  UNL d   1      -1.754   0.133  -1.107  0.00  0.00     0.045 A 
ENDROOT
TORSDOF 0
ENDMDL
