MODEL 1
REMARK minimizedAffinity -3.17607832
REMARK minimizedRMSD -1
REMARK  0 active torsions:
REMARK  status: ('A' for Active; 'I' for Inactive)
ROOT
ATOM      1  C   UNL d   1       2.001  -2.643   1.402  0.00  0.00    -0.002 A 
ATOM      2  C1  UNL d   1       2.275  -2.377   0.067  0.00  0.00     0.010 A 
ATOM      3  C2  UNL d   1       1.498  -1.465  -0.649  0.00  0.00     0.041 A 
ATOM      4  C3  UNL d   1       0.433  -0.816   0.004  0.00  0.00    -0.075 A 
ATOM      5  S   UNL d   1      -0.652   0.341  -0.672  0.00  0.00     0.015 SA
ATOM      6  C4  UNL d   1      -1.504   0.511   0.794  0.00  0.00     0.022 A 
ATOM      7  C5  UNL d   1      -0.987  -0.288   1.786  0.00  0.00     0.026 A 
ATOM      8  C6  UNL d   1       0.138  -1.065   1.348  0.00  0.00    -0.082 A 
ATOM      9  C7  UNL d   1       0.943  -1.997   2.047  0.00  0.00     0.045 A 
ENDROOT
TORSDOF 0
ENDMDL
