MODEL 1
REMARK minimizedAffinity -3.58039546
REMARK minimizedRMSD -1
REMARK  0 active torsions:
REMARK  status: ('A' for Active; 'I' for Inactive)
ROOT
ATOM      1  C   UNL d   1      -1.374   1.460   1.443  0.00  0.00    -0.002 A 
ATOM      2  C1  UNL d   1      -0.989   0.128   1.386  0.00  0.00     0.010 A 
ATOM      3  C2  UNL d   1      -0.551  -0.434   0.186  0.00  0.00     0.041 A 
ATOM      4  C3  UNL d   1      -0.504   0.373  -0.968  0.00  0.00    -0.075 A 
ATOM      5  S   UNL d   1      -0.001  -0.100  -2.548  0.00  0.00     0.015 SA
ATOM      6  C4  UNL d   1      -0.286   1.455  -3.185  0.00  0.00     0.022 A 
ATOM      7  C5  UNL d   1      -0.753   2.326  -2.230  0.00  0.00     0.026 A 
ATOM      8  C6  UNL d   1      -0.887   1.717  -0.936  0.00  0.00    -0.082 A 
ATOM      9  C7  UNL d   1      -1.327   2.258   0.296  0.00  0.00     0.045 A 
ENDROOT
TORSDOF 0
ENDMDL
