MODEL 1
REMARK minimizedAffinity -2.64097929
REMARK minimizedRMSD -1
REMARK  0 active torsions:
REMARK  status: ('A' for Active; 'I' for Inactive)
ROOT
ATOM      1  C   UNL d   1      -0.517   3.739  -2.025  0.00  0.00    -0.002 A 
ATOM      2  C1  UNL d   1       0.124   3.195  -3.129  0.00  0.00     0.010 A 
ATOM      3  C2  UNL d   1       0.384   1.824  -3.195  0.00  0.00     0.041 A 
ATOM      4  C3  UNL d   1      -0.018   1.002  -2.124  0.00  0.00    -0.075 A 
ATOM      5  S   UNL d   1       0.194  -0.703  -1.987  0.00  0.00     0.015 SA
ATOM      6  C4  UNL d   1      -0.563  -0.750  -0.461  0.00  0.00     0.022 A 
ATOM      7  C5  UNL d   1      -0.973   0.497  -0.051  0.00  0.00     0.026 A 
ATOM      8  C6  UNL d   1      -0.666   1.527  -1.003  0.00  0.00    -0.082 A 
ATOM      9  C7  UNL d   1      -0.914   2.920  -0.965  0.00  0.00     0.045 A 
ENDROOT
TORSDOF 0
ENDMDL
