MODEL 1
REMARK minimizedAffinity -1.26137149
REMARK minimizedRMSD -1
REMARK  0 active torsions:
REMARK  status: ('A' for Active; 'I' for Inactive)
ROOT
ATOM      1  C   UNL d   1       2.381  -2.790   1.316  0.00  0.00    -0.002 A 
ATOM      2  C1  UNL d   1       2.466  -2.468  -0.031  0.00  0.00     0.010 A 
ATOM      3  C2  UNL d   1       1.568  -1.566  -0.605  0.00  0.00     0.041 A 
ATOM      4  C3  UNL d   1       0.573  -0.985   0.207  0.00  0.00    -0.075 A 
ATOM      5  S   UNL d   1      -0.634   0.146  -0.277  0.00  0.00     0.015 SA
ATOM      6  C4  UNL d   1      -1.292   0.229   1.293  0.00  0.00     0.022 A 
ATOM      7  C5  UNL d   1      -0.619  -0.580   2.178  0.00  0.00     0.026 A 
ATOM      8  C6  UNL d   1       0.468  -1.293   1.566  0.00  0.00    -0.082 A 
ATOM      9  C7  UNL d   1       1.393  -2.212   2.118  0.00  0.00     0.045 A 
ENDROOT
TORSDOF 0
ENDMDL
