MODEL 1
REMARK minimizedAffinity -2.12558722
REMARK minimizedRMSD -1
REMARK  0 active torsions:
REMARK  status: ('A' for Active; 'I' for Inactive)
ROOT
ATOM      1  C   UNL d   1       2.628  -2.846   0.888  0.00  0.00    -0.002 A 
ATOM      2  C1  UNL d   1       2.473  -2.564  -0.462  0.00  0.00     0.010 A 
ATOM      3  C2  UNL d   1       1.461  -1.706  -0.897  0.00  0.00     0.041 A 
ATOM      4  C3  UNL d   1       0.600  -1.128   0.057  0.00  0.00    -0.075 A 
ATOM      5  S   UNL d   1      -0.709  -0.047  -0.244  0.00  0.00     0.015 SA
ATOM      6  C4  UNL d   1      -1.093   0.067   1.412  0.00  0.00     0.022 A 
ATOM      7  C5  UNL d   1      -0.253  -0.694   2.190  0.00  0.00     0.026 A 
ATOM      8  C6  UNL d   1       0.737  -1.396   1.422  0.00  0.00    -0.082 A 
ATOM      9  C7  UNL d   1       1.772  -2.271   1.831  0.00  0.00     0.045 A 
ENDROOT
TORSDOF 0
ENDMDL
