MODEL 1
REMARK minimizedAffinity 1.04010689
REMARK minimizedRMSD -1
REMARK  0 active torsions:
REMARK  status: ('A' for Active; 'I' for Inactive)
ROOT
ATOM      1  C   UNL d   1      -1.480   3.498  -2.571  0.00  0.00    -0.002 A 
ATOM      2  C1  UNL d   1      -0.116   3.701  -2.731  0.00  0.00     0.010 A 
ATOM      3  C2  UNL d   1       0.802   2.761  -2.259  0.00  0.00     0.041 A 
ATOM      4  C3  UNL d   1       0.322   1.601  -1.619  0.00  0.00    -0.075 A 
ATOM      5  S   UNL d   1       1.260   0.313  -0.962  0.00  0.00     0.015 SA
ATOM      6  C4  UNL d   1      -0.127  -0.538  -0.455  0.00  0.00     0.022 A 
ATOM      7  C5  UNL d   1      -1.286   0.130  -0.770  0.00  0.00     0.026 A 
ATOM      8  C6  UNL d   1      -1.047   1.374  -1.447  0.00  0.00    -0.082 A 
ATOM      9  C7  UNL d   1      -1.952   2.347  -1.935  0.00  0.00     0.045 A 
ENDROOT
TORSDOF 0
ENDMDL
