MODEL 1
REMARK minimizedAffinity 14.6470604
REMARK minimizedRMSD -1
REMARK  0 active torsions:
REMARK  status: ('A' for Active; 'I' for Inactive)
ROOT
ATOM      1  N1  IND d   1       2.421   2.175   2.014  0.00  0.00    -0.196 N 
ATOM      2  C2  IND d   1       2.307   1.718   3.297  0.00  0.00     0.054 A 
ATOM      3  C3  IND d   1       1.007   1.670   3.665  0.00  0.00    -0.031 A 
ATOM      4  C4  IND d   1      -1.104   2.198   2.289  0.00  0.00     0.051 A 
ATOM      5  C5  IND d   1      -1.505   2.687   1.077  0.00  0.00    -0.031 A 
ATOM      6  C6  IND d   1      -0.600   3.035   0.095  0.00  0.00     0.015 A 
ATOM      7  C7  IND d   1       0.746   2.895   0.285  0.00  0.00    -0.016 A 
ATOM      8  C8  IND d   1       1.157   2.406   1.516  0.00  0.00    -0.047 A 
ATOM      9  C9  IND d   1       0.245   2.091   2.532  0.00  0.00    -0.096 A 
ATOM     10  HN1 IND d   1       3.158   2.298   1.589  0.00  0.00     0.298 HD
ENDROOT
TORSDOF 0
ENDMDL
