MODEL 1
REMARK minimizedAffinity 13.7717352
REMARK minimizedRMSD -1
REMARK  0 active torsions:
REMARK  status: ('A' for Active; 'I' for Inactive)
ROOT
ATOM      1  N1  IND d   1       0.970   4.452  -1.872  0.00  0.00    -0.196 N 
ATOM      2  C2  IND d   1       0.293   5.621  -1.668  0.00  0.00     0.054 A 
ATOM      3  C3  IND d   1      -0.647   5.460  -0.709  0.00  0.00    -0.031 A 
ATOM      4  C4  IND d   1      -1.178   3.392   0.729  0.00  0.00     0.051 A 
ATOM      5  C5  IND d   1      -0.849   2.074   0.883  0.00  0.00    -0.031 A 
ATOM      6  C6  IND d   1       0.124   1.470   0.113  0.00  0.00     0.015 A 
ATOM      7  C7  IND d   1       0.816   2.167  -0.836  0.00  0.00    -0.016 A 
ATOM      8  C8  IND d   1       0.480   3.504  -1.000  0.00  0.00    -0.047 A 
ATOM      9  C9  IND d   1      -0.536   4.111  -0.251  0.00  0.00    -0.096 A 
ATOM     10  HN1 IND d   1       1.597   4.329  -2.448  0.00  0.00     0.298 HD
ENDROOT
TORSDOF 0
ENDMDL
