MODEL 1
REMARK minimizedAffinity 9.99230289
REMARK minimizedRMSD -1
REMARK  0 active torsions:
REMARK  status: ('A' for Active; 'I' for Inactive)
ROOT
ATOM      1  N1  IND d   1      -2.367   4.150   2.429  0.00  0.00    -0.196 N 
ATOM      2  C2  IND d   1      -2.716   5.394   1.981  0.00  0.00     0.054 A 
ATOM      3  C3  IND d   1      -2.110   5.656   0.801  0.00  0.00    -0.031 A 
ATOM      4  C4  IND d   1      -0.587   4.149  -0.626  0.00  0.00     0.051 A 
ATOM      5  C5  IND d   1       0.046   2.938  -0.614  0.00  0.00    -0.031 A 
ATOM      6  C6  IND d   1      -0.098   2.050   0.432  0.00  0.00     0.015 A 
ATOM      7  C7  IND d   1      -0.893   2.337   1.506  0.00  0.00    -0.016 A 
ATOM      8  C8  IND d   1      -1.532   3.569   1.501  0.00  0.00    -0.047 A 
ATOM      9  C9  IND d   1      -1.356   4.492   0.462  0.00  0.00    -0.096 A 
ATOM     10  HN1 IND d   1      -2.626   3.791   3.166  0.00  0.00     0.298 HD
ENDROOT
TORSDOF 0
ENDMDL
