MODEL 1
REMARK minimizedAffinity 9.51376057
REMARK minimizedRMSD -1
REMARK  0 active torsions:
REMARK  status: ('A' for Active; 'I' for Inactive)
ROOT
ATOM      1  N1  IND d   1      -2.558  -5.763  -3.477  0.00  0.00    -0.196 N 
ATOM      2  C2  IND d   1      -1.551  -5.071  -4.090  0.00  0.00     0.054 A 
ATOM      3  C3  IND d   1      -2.032  -4.381  -5.149  0.00  0.00    -0.031 A 
ATOM      4  C4  IND d   1      -4.453  -4.162  -5.996  0.00  0.00     0.051 A 
ATOM      5  C5  IND d   1      -5.716  -4.640  -5.783  0.00  0.00    -0.031 A 
ATOM      6  C6  IND d   1      -5.997  -5.532  -4.768  0.00  0.00     0.015 A 
ATOM      7  C7  IND d   1      -5.023  -5.973  -3.918  0.00  0.00    -0.016 A 
ATOM      8  C8  IND d   1      -3.738  -5.496  -4.136  0.00  0.00    -0.047 A 
ATOM      9  C9  IND d   1      -3.439  -4.624  -5.190  0.00  0.00    -0.096 A 
ATOM     10  HN1 IND d   1      -2.469  -6.279  -2.795  0.00  0.00     0.298 HD
ENDROOT
TORSDOF 0
ENDMDL
