MODEL 1
REMARK minimizedAffinity 12.7057476
REMARK minimizedRMSD -1
REMARK  0 active torsions:
REMARK  status: ('A' for Active; 'I' for Inactive)
ROOT
ATOM      1  N1  IND d   1       3.488   2.779   1.878  0.00  0.00    -0.196 N 
ATOM      2  C2  IND d   1       2.879   2.048   2.859  0.00  0.00     0.054 A 
ATOM      3  C3  IND d   1       1.628   1.702   2.481  0.00  0.00    -0.031 A 
ATOM      4  C4  IND d   1       0.412   2.144   0.255  0.00  0.00     0.051 A 
ATOM      5  C5  IND d   1       0.549   2.803  -0.935  0.00  0.00    -0.031 A 
ATOM      6  C6  IND d   1       1.696   3.499  -1.255  0.00  0.00     0.015 A 
ATOM      7  C7  IND d   1       2.759   3.554  -0.399  0.00  0.00    -0.016 A 
ATOM      8  C8  IND d   1       2.621   2.892   0.813  0.00  0.00    -0.047 A 
ATOM      9  C9  IND d   1       1.443   2.219   1.162  0.00  0.00    -0.096 A 
ATOM     10  HN1 IND d   1       4.279   3.113   1.919  0.00  0.00     0.298 HD
ENDROOT
TORSDOF 0
ENDMDL
