MODEL 1
REMARK minimizedAffinity 14.1830473
REMARK minimizedRMSD -1
REMARK  0 active torsions:
REMARK  status: ('A' for Active; 'I' for Inactive)
ROOT
ATOM      1  N1  IND d   1       5.021  -2.721  -2.091  0.00  0.00    -0.196 N 
ATOM      2  C2  IND d   1       6.000  -3.373  -1.394  0.00  0.00     0.054 A 
ATOM      3  C3  IND d   1       5.612  -3.572  -0.114  0.00  0.00    -0.031 A 
ATOM      4  C4  IND d   1       3.374  -3.004   1.024  0.00  0.00     0.051 A 
ATOM      5  C5  IND d   1       2.183  -2.371   0.803  0.00  0.00    -0.031 A 
ATOM      6  C6  IND d   1       1.870  -1.814  -0.420  0.00  0.00     0.015 A 
ATOM      7  C7  IND d   1       2.735  -1.879  -1.475  0.00  0.00    -0.016 A 
ATOM      8  C8  IND d   1       3.948  -2.515  -1.252  0.00  0.00    -0.047 A 
ATOM      9  C9  IND d   1       4.289  -3.045  -0.001  0.00  0.00    -0.096 A 
ATOM     10  HN1 IND d   1       5.067  -2.481  -2.916  0.00  0.00     0.298 HD
ENDROOT
TORSDOF 0
ENDMDL
