MODEL 1
REMARK minimizedAffinity 8.60698318
REMARK minimizedRMSD -1
REMARK  0 active torsions:
REMARK  status: ('A' for Active; 'I' for Inactive)
ROOT
ATOM      1  N1  IND d   1       1.936  -4.497  -0.493  0.00  0.00    -0.196 N 
ATOM      2  C2  IND d   1       0.754  -4.234  -1.129  0.00  0.00     0.054 A 
ATOM      3  C3  IND d   1       0.608  -2.904  -1.318  0.00  0.00    -0.031 A 
ATOM      4  C4  IND d   1       2.227  -0.983  -0.755  0.00  0.00     0.051 A 
ATOM      5  C5  IND d   1       3.417  -0.725  -0.133  0.00  0.00    -0.031 A 
ATOM      6  C6  IND d   1       4.190  -1.731   0.408  0.00  0.00     0.015 A 
ATOM      7  C7  IND d   1       3.807  -3.040   0.338  0.00  0.00    -0.016 A 
ATOM      8  C8  IND d   1       2.596  -3.306  -0.285  0.00  0.00    -0.047 A 
ATOM      9  C9  IND d   1       1.786  -2.285  -0.799  0.00  0.00    -0.096 A 
ATOM     10  HN1 IND d   1       2.219  -5.275  -0.262  0.00  0.00     0.298 HD
ENDROOT
TORSDOF 0
ENDMDL
