MODEL 1
REMARK minimizedAffinity 8.68118954
REMARK minimizedRMSD -1
REMARK  0 active torsions:
REMARK  status: ('A' for Active; 'I' for Inactive)
ROOT
ATOM      1  N1  IND d   1      -4.900  -1.134   2.088  0.00  0.00    -0.196 N 
ATOM      2  C2  IND d   1      -5.738  -0.498   2.961  0.00  0.00     0.054 A 
ATOM      3  C3  IND d   1      -6.000   0.757   2.533  0.00  0.00    -0.031 A 
ATOM      4  C4  IND d   1      -5.242   1.940   0.376  0.00  0.00     0.051 A 
ATOM      5  C5  IND d   1      -4.437   1.777  -0.717  0.00  0.00    -0.031 A 
ATOM      6  C6  IND d   1      -3.733   0.611  -0.936  0.00  0.00     0.015 A 
ATOM      7  C7  IND d   1      -3.817  -0.445  -0.073  0.00  0.00    -0.016 A 
ATOM      8  C8  IND d   1      -4.628  -0.280   1.041  0.00  0.00    -0.047 A 
ATOM      9  C9  IND d   1      -5.311   0.917   1.291  0.00  0.00    -0.096 A 
ATOM     10  HN1 IND d   1      -4.594  -1.932   2.177  0.00  0.00     0.298 HD
ENDROOT
TORSDOF 0
ENDMDL
