MODEL 1
REMARK minimizedAffinity -4.81137943
REMARK minimizedRMSD -1
REMARK  0 active torsions:
REMARK  status: ('A' for Active; 'I' for Inactive)
ROOT
ATOM      1  C   UNL d   1      -1.297  -0.525   1.377  0.00  0.00     0.124 A 
ATOM      2  C1  UNL d   1      -1.364  -1.862   1.013  0.00  0.00     0.062 A 
ATOM      3  C2  UNL d   1      -0.897  -2.273  -0.232  0.00  0.00     0.162 A 
ATOM      4  C3  UNL d   1      -0.356  -1.345  -1.122  0.00  0.00    -0.034 A 
ATOM      5  C4  UNL d   1      -0.293  -0.002  -0.749  0.00  0.00     0.162 A 
ATOM      6  C5  UNL d   1      -0.761   0.404   0.496  0.00  0.00     0.062 A 
ATOM      7  F   UNL d   1      -0.695   1.697   0.846  0.00  0.00    -0.097 F 
ATOM      8  F1  UNL d   1       0.221   0.917  -1.581  0.00  0.00    -0.096 F 
ATOM      9  I   UNL d   1       0.343  -1.956  -2.985  0.00  0.00    -0.060 I 
ATOM     10  F2  UNL d   1      -0.975  -3.572  -0.557  0.00  0.00    -0.096 F 
ATOM     11  F3  UNL d   1      -1.882  -2.762   1.862  0.00  0.00    -0.097 F 
ATOM     12  F4  UNL d   1      -1.748  -0.132   2.575  0.00  0.00    -0.092 F 
ENDROOT
TORSDOF 0
ENDMDL
