MODEL 1
REMARK minimizedAffinity -4.10629654
REMARK minimizedRMSD -1
REMARK  0 active torsions:
REMARK  status: ('A' for Active; 'I' for Inactive)
ROOT
ATOM      1  C   UNL d   1      -1.039  -2.185   0.463  0.00  0.00     0.124 A 
ATOM      2  C1  UNL d   1      -1.907  -1.191   0.892  0.00  0.00     0.062 A 
ATOM      3  C2  UNL d   1      -1.492   0.137   0.917  0.00  0.00     0.162 A 
ATOM      4  C3  UNL d   1      -0.202   0.480   0.510  0.00  0.00    -0.034 A 
ATOM      5  C4  UNL d   1       0.665  -0.526   0.080  0.00  0.00     0.162 A 
ATOM      6  C5  UNL d   1       0.246  -1.852   0.057  0.00  0.00     0.062 A 
ATOM      7  F   UNL d   1       1.085  -2.812  -0.358  0.00  0.00    -0.097 F 
ATOM      8  F1  UNL d   1       1.912  -0.232  -0.318  0.00  0.00    -0.096 F 
ATOM      9  I   UNL d   1       0.422   2.465   0.546  0.00  0.00    -0.060 I 
ATOM     10  F2  UNL d   1      -2.351   1.078   1.337  0.00  0.00    -0.096 F 
ATOM     11  F3  UNL d   1      -3.148  -1.510   1.285  0.00  0.00    -0.097 F 
ATOM     12  F4  UNL d   1      -1.441  -3.463   0.441  0.00  0.00    -0.092 F 
ENDROOT
TORSDOF 0
ENDMDL
