MODEL 1
REMARK minimizedAffinity -5.46861124
REMARK minimizedRMSD -1
REMARK  0 active torsions:
REMARK  status: ('A' for Active; 'I' for Inactive)
ROOT
ATOM      1  C   UNL d   1      -0.293  -3.097  -0.813  0.00  0.00     0.124 A 
ATOM      2  C1  UNL d   1      -0.505  -2.524   0.433  0.00  0.00     0.062 A 
ATOM      3  C2  UNL d   1      -0.452  -1.142   0.586  0.00  0.00     0.162 A 
ATOM      4  C3  UNL d   1      -0.186  -0.322  -0.511  0.00  0.00    -0.034 A 
ATOM      5  C4  UNL d   1       0.028  -0.906  -1.761  0.00  0.00     0.162 A 
ATOM      6  C5  UNL d   1      -0.027  -2.288  -1.908  0.00  0.00     0.062 A 
ATOM      7  F   UNL d   1       0.179  -2.840  -3.113  0.00  0.00    -0.097 F 
ATOM      8  F1  UNL d   1       0.286  -0.147  -2.836  0.00  0.00    -0.096 F 
ATOM      9  I   UNL d   1      -0.105   1.746  -0.286  0.00  0.00    -0.060 I 
ATOM     10  F2  UNL d   1      -0.661  -0.615   1.802  0.00  0.00    -0.096 F 
ATOM     11  F3  UNL d   1      -0.762  -3.304   1.493  0.00  0.00    -0.097 F 
ATOM     12  F4  UNL d   1      -0.344  -4.427  -0.957  0.00  0.00    -0.092 F 
ENDROOT
TORSDOF 0
ENDMDL
