MODEL 1
REMARK minimizedAffinity -0.98174262
REMARK minimizedRMSD -1
REMARK  0 active torsions:
REMARK  status: ('A' for Active; 'I' for Inactive)
ROOT
ATOM      1  C   UNL d   1       0.305  -1.729  -0.687  0.00  0.00     0.124 A 
ATOM      2  C1  UNL d   1       0.067  -0.363  -0.627  0.00  0.00     0.062 A 
ATOM      3  C2  UNL d   1      -0.917   0.140   0.219  0.00  0.00     0.162 A 
ATOM      4  C3  UNL d   1      -1.671  -0.725   1.013  0.00  0.00    -0.034 A 
ATOM      5  C4  UNL d   1      -1.427  -2.098   0.946  0.00  0.00     0.162 A 
ATOM      6  C5  UNL d   1      -0.442  -2.595   0.099  0.00  0.00     0.062 A 
ATOM      7  F   UNL d   1      -0.214  -3.915   0.042  0.00  0.00    -0.097 F 
ATOM      8  F1  UNL d   1      -2.133  -2.957   1.696  0.00  0.00    -0.096 F 
ATOM      9  I   UNL d   1      -3.144   0.023   2.279  0.00  0.00    -0.060 I 
ATOM     10  F2  UNL d   1      -1.125   1.464   0.257  0.00  0.00    -0.096 F 
ATOM     11  F3  UNL d   1       0.787   0.476  -1.386  0.00  0.00    -0.097 F 
ATOM     12  F4  UNL d   1       1.252  -2.210  -1.503  0.00  0.00    -0.092 F 
ENDROOT
TORSDOF 0
ENDMDL
