MODEL 1
REMARK minimizedAffinity -3.59239864
REMARK minimizedRMSD -1
REMARK  0 active torsions:
REMARK  status: ('A' for Active; 'I' for Inactive)
ROOT
ATOM      1  C   UNL d   1       0.911   2.997   0.609  0.00  0.00     0.124 A 
ATOM      2  C1  UNL d   1      -0.443   2.842   0.871  0.00  0.00     0.062 A 
ATOM      3  C2  UNL d   1      -1.018   1.574   0.854  0.00  0.00     0.162 A 
ATOM      4  C3  UNL d   1      -0.239   0.452   0.575  0.00  0.00    -0.034 A 
ATOM      5  C4  UNL d   1       1.122   0.616   0.311  0.00  0.00     0.162 A 
ATOM      6  C5  UNL d   1       1.692   1.885   0.329  0.00  0.00     0.062 A 
ATOM      7  F   UNL d   1       3.000   2.033   0.076  0.00  0.00    -0.097 F 
ATOM      8  F1  UNL d   1       1.900  -0.442   0.038  0.00  0.00    -0.096 F 
ATOM      9  I   UNL d   1      -1.096  -1.445   0.548  0.00  0.00    -0.060 I 
ATOM     10  F2  UNL d   1      -2.329   1.454   1.111  0.00  0.00    -0.096 F 
ATOM     11  F3  UNL d   1      -1.200   3.915   1.141  0.00  0.00    -0.097 F 
ATOM     12  F4  UNL d   1       1.462   4.218   0.626  0.00  0.00    -0.092 F 
ENDROOT
TORSDOF 0
ENDMDL
