MODEL 1
REMARK minimizedAffinity -2.23302865
REMARK minimizedRMSD -1
REMARK  0 active torsions:
REMARK  status: ('A' for Active; 'I' for Inactive)
ROOT
ATOM      1  C   UNL d   1      -0.919   1.106  -0.002  0.00  0.00     0.124 A 
ATOM      2  C1  UNL d   1      -0.141   0.549  -1.007  0.00  0.00     0.062 A 
ATOM      3  C2  UNL d   1       0.246  -0.786  -0.934  0.00  0.00     0.162 A 
ATOM      4  C3  UNL d   1      -0.145  -1.574   0.149  0.00  0.00    -0.034 A 
ATOM      5  C4  UNL d   1      -0.926  -1.006   1.156  0.00  0.00     0.162 A 
ATOM      6  C5  UNL d   1      -1.311   0.328   1.078  0.00  0.00     0.062 A 
ATOM      7  F   UNL d   1      -2.063   0.865   2.050  0.00  0.00    -0.097 F 
ATOM      8  F1  UNL d   1      -1.320  -1.735   2.211  0.00  0.00    -0.096 F 
ATOM      9  I   UNL d   1       0.433  -3.570   0.262  0.00  0.00    -0.060 I 
ATOM     10  F2  UNL d   1       0.998  -1.298  -1.920  0.00  0.00    -0.096 F 
ATOM     11  F3  UNL d   1       0.239   1.298  -2.052  0.00  0.00    -0.097 F 
ATOM     12  F4  UNL d   1      -1.290   2.391  -0.075  0.00  0.00    -0.092 F 
ENDROOT
TORSDOF 0
ENDMDL
