MODEL 1
REMARK minimizedAffinity -3.55624771
REMARK minimizedRMSD -1
REMARK  0 active torsions:
REMARK  status: ('A' for Active; 'I' for Inactive)
ROOT
ATOM      1  C   UNL d   1      -0.285  -2.450  -0.002  0.00  0.00     0.124 A 
ATOM      2  C1  UNL d   1      -0.971  -1.857   1.049  0.00  0.00     0.062 A 
ATOM      3  C2  UNL d   1      -0.780  -0.509   1.337  0.00  0.00     0.162 A 
ATOM      4  C3  UNL d   1       0.101   0.256   0.573  0.00  0.00    -0.034 A 
ATOM      5  C4  UNL d   1       0.788  -0.348  -0.482  0.00  0.00     0.162 A 
ATOM      6  C5  UNL d   1       0.593  -1.695  -0.766  0.00  0.00     0.062 A 
ATOM      7  F   UNL d   1       1.257  -2.267  -1.781  0.00  0.00    -0.097 F 
ATOM      8  F1  UNL d   1       1.643   0.359  -1.237  0.00  0.00    -0.096 F 
ATOM      9  I   UNL d   1       0.390   2.272   1.001  0.00  0.00    -0.060 I 
ATOM     10  F2  UNL d   1      -1.456   0.038   2.358  0.00  0.00    -0.096 F 
ATOM     11  F3  UNL d   1      -1.820  -2.584   1.789  0.00  0.00    -0.097 F 
ATOM     12  F4  UNL d   1      -0.471  -3.748  -0.276  0.00  0.00    -0.092 F 
ENDROOT
TORSDOF 0
ENDMDL
