MODEL 1
REMARK minimizedAffinity 2.26308751
REMARK minimizedRMSD -1
REMARK  0 active torsions:
REMARK  status: ('A' for Active; 'I' for Inactive)
ROOT
ATOM      1  C   UNL d   1      -0.380  -0.511  -1.410  0.00  0.00     0.124 A 
ATOM      2  C1  UNL d   1      -0.504  -0.788  -0.056  0.00  0.00     0.062 A 
ATOM      3  C2  UNL d   1      -0.293   0.216   0.886  0.00  0.00     0.162 A 
ATOM      4  C3  UNL d   1       0.043   1.506   0.475  0.00  0.00    -0.034 A 
ATOM      5  C4  UNL d   1       0.166   1.776  -0.889  0.00  0.00     0.162 A 
ATOM      6  C5  UNL d   1      -0.046   0.770  -1.825  0.00  0.00     0.062 A 
ATOM      7  F   UNL d   1       0.074   1.039  -3.134  0.00  0.00    -0.097 F 
ATOM      8  F1  UNL d   1       0.488   3.006  -1.318  0.00  0.00    -0.096 F 
ATOM      9  I   UNL d   1       0.359   3.009   1.880  0.00  0.00    -0.060 I 
ATOM     10  F2  UNL d   1      -0.419  -0.080   2.188  0.00  0.00    -0.096 F 
ATOM     11  F3  UNL d   1      -0.826  -2.025   0.348  0.00  0.00    -0.097 F 
ATOM     12  F4  UNL d   1      -0.583  -1.479  -2.314  0.00  0.00    -0.092 F 
ENDROOT
TORSDOF 0
ENDMDL
