MODEL 1
REMARK minimizedAffinity -3.28507805
REMARK minimizedRMSD -1
REMARK  0 active torsions:
REMARK  status: ('A' for Active; 'I' for Inactive)
ROOT
ATOM      1  C   UNL d   1       0.712   4.172   1.545  0.00  0.00     0.124 A 
ATOM      2  C1  UNL d   1      -0.365   3.314   1.717  0.00  0.00     0.062 A 
ATOM      3  C2  UNL d   1      -0.388   2.081   1.072  0.00  0.00     0.162 A 
ATOM      4  C3  UNL d   1       0.670   1.698   0.248  0.00  0.00    -0.034 A 
ATOM      5  C4  UNL d   1       1.750   2.566   0.080  0.00  0.00     0.162 A 
ATOM      6  C5  UNL d   1       1.769   3.797   0.727  0.00  0.00     0.062 A 
ATOM      7  F   UNL d   1       2.810   4.625   0.560  0.00  0.00    -0.097 F 
ATOM      8  F1  UNL d   1       2.785   2.229  -0.705  0.00  0.00    -0.096 F 
ATOM      9  I   UNL d   1       0.640  -0.145  -0.719  0.00  0.00    -0.060 I 
ATOM     10  F2  UNL d   1      -1.442   1.272   1.256  0.00  0.00    -0.096 F 
ATOM     11  F3  UNL d   1      -1.388   3.673   2.507  0.00  0.00    -0.097 F 
ATOM     12  F4  UNL d   1       0.731   5.358   2.167  0.00  0.00    -0.092 F 
ENDROOT
TORSDOF 0
ENDMDL
