MODEL 1
REMARK minimizedAffinity -5.23155308
REMARK minimizedRMSD -1
REMARK  0 active torsions:
REMARK  status: ('A' for Active; 'I' for Inactive)
ROOT
ATOM      1  C   UNL d   1      -0.167  -3.123  -0.688  0.00  0.00     0.124 A 
ATOM      2  C1  UNL d   1       0.004  -2.253  -1.756  0.00  0.00     0.062 A 
ATOM      3  C2  UNL d   1       0.016  -0.878  -1.544  0.00  0.00     0.162 A 
ATOM      4  C3  UNL d   1      -0.143  -0.363  -0.257  0.00  0.00    -0.034 A 
ATOM      5  C4  UNL d   1      -0.316  -1.244   0.812  0.00  0.00     0.162 A 
ATOM      6  C5  UNL d   1      -0.328  -2.617   0.595  0.00  0.00     0.062 A 
ATOM      7  F   UNL d   1      -0.494  -3.456   1.628  0.00  0.00    -0.097 F 
ATOM      8  F1  UNL d   1      -0.472  -0.782   2.061  0.00  0.00    -0.096 F 
ATOM      9  I   UNL d   1      -0.126   1.693   0.064  0.00  0.00    -0.060 I 
ATOM     10  F2  UNL d   1       0.184  -0.061  -2.595  0.00  0.00    -0.096 F 
ATOM     11  F3  UNL d   1       0.158  -2.739  -2.996  0.00  0.00    -0.097 F 
ATOM     12  F4  UNL d   1      -0.179  -4.446  -0.895  0.00  0.00    -0.092 F 
ENDROOT
TORSDOF 0
ENDMDL
