MODEL 1
REMARK minimizedAffinity 0.474538028
REMARK minimizedRMSD -1
REMARK  0 active torsions:
REMARK  status: ('A' for Active; 'I' for Inactive)
ROOT
ATOM      1  C   UNL d   1      -0.270  -2.548   0.521  0.00  0.00     0.124 A 
ATOM      2  C1  UNL d   1       0.809  -1.957  -0.122  0.00  0.00     0.062 A 
ATOM      3  C2  UNL d   1       1.016  -0.584  -0.023  0.00  0.00     0.162 A 
ATOM      4  C3  UNL d   1       0.143   0.207   0.723  0.00  0.00    -0.034 A 
ATOM      5  C4  UNL d   1      -0.940  -0.395   1.366  0.00  0.00     0.162 A 
ATOM      6  C5  UNL d   1      -1.143  -1.767   1.264  0.00  0.00     0.062 A 
ATOM      7  F   UNL d   1      -2.186  -2.337   1.885  0.00  0.00    -0.097 F 
ATOM      8  F1  UNL d   1      -1.799   0.337   2.092  0.00  0.00    -0.096 F 
ATOM      9  I   UNL d   1       0.449   2.260   0.874  0.00  0.00    -0.060 I 
ATOM     10  F2  UNL d   1       2.067  -0.040  -0.654  0.00  0.00    -0.096 F 
ATOM     11  F3  UNL d   1       1.654  -2.710  -0.841  0.00  0.00    -0.097 F 
ATOM     12  F4  UNL d   1      -0.467  -3.869   0.423  0.00  0.00    -0.092 F 
ENDROOT
TORSDOF 0
ENDMDL
