MODEL 1
REMARK minimizedAffinity -3.64638615
REMARK minimizedRMSD -1
REMARK  0 active torsions:
REMARK  status: ('A' for Active; 'I' for Inactive)
ROOT
ATOM      1  C   UNL d   1       0.273  -3.161  -1.213  0.00  0.00     0.124 A 
ATOM      2  C1  UNL d   1       0.003  -2.619   0.036  0.00  0.00     0.062 A 
ATOM      3  C2  UNL d   1      -0.071  -1.239   0.199  0.00  0.00     0.162 A 
ATOM      4  C3  UNL d   1       0.124  -0.390  -0.891  0.00  0.00    -0.034 A 
ATOM      5  C4  UNL d   1       0.396  -0.942  -2.144  0.00  0.00     0.162 A 
ATOM      6  C5  UNL d   1       0.469  -2.322  -2.302  0.00  0.00     0.062 A 
ATOM      7  F   UNL d   1       0.730  -2.844  -3.509  0.00  0.00    -0.097 F 
ATOM      8  F1  UNL d   1       0.588  -0.155  -3.213  0.00  0.00    -0.096 F 
ATOM      9  I   UNL d   1       0.014   1.674  -0.651  0.00  0.00    -0.060 I 
ATOM     10  F2  UNL d   1      -0.333  -0.743   1.417  0.00  0.00    -0.096 F 
ATOM     11  F3  UNL d   1      -0.185  -3.427   1.089  0.00  0.00    -0.097 F 
ATOM     12  F4  UNL d   1       0.345  -4.489  -1.367  0.00  0.00    -0.092 F 
ENDROOT
TORSDOF 0
ENDMDL
