MODEL 1
REMARK minimizedAffinity -4.30484533
REMARK minimizedRMSD -1
REMARK  0 active torsions:
REMARK  status: ('A' for Active; 'I' for Inactive)
ROOT
ATOM      1  C   UNL d   1      -0.765  -3.254  -0.690  0.00  0.00     0.124 A 
ATOM      2  C1  UNL d   1      -0.039  -2.596  -1.674  0.00  0.00     0.062 A 
ATOM      3  C2  UNL d   1       0.134  -1.216  -1.611  0.00  0.00     0.162 A 
ATOM      4  C3  UNL d   1      -0.419  -0.485  -0.559  0.00  0.00    -0.034 A 
ATOM      5  C4  UNL d   1      -1.148  -1.154   0.426  0.00  0.00     0.162 A 
ATOM      6  C5  UNL d   1      -1.318  -2.533   0.358  0.00  0.00     0.062 A 
ATOM      7  F   UNL d   1      -2.019  -3.167   1.309  0.00  0.00    -0.097 F 
ATOM      8  F1  UNL d   1      -1.693  -0.482   1.451  0.00  0.00    -0.096 F 
ATOM      9  I   UNL d   1      -0.163   1.578  -0.461  0.00  0.00    -0.060 I 
ATOM     10  F2  UNL d   1       0.839  -0.606  -2.575  0.00  0.00    -0.096 F 
ATOM     11  F3  UNL d   1       0.496  -3.290  -2.688  0.00  0.00    -0.097 F 
ATOM     12  F4  UNL d   1      -0.930  -4.582  -0.754  0.00  0.00    -0.092 F 
ENDROOT
TORSDOF 0
ENDMDL
