MODEL 1
REMARK minimizedAffinity -0.0566258952
REMARK minimizedRMSD -1
REMARK  0 active torsions:
REMARK  status: ('A' for Active; 'I' for Inactive)
ROOT
ATOM      1  C   UNL d   1      -0.542   1.466  -1.415  0.00  0.00     0.124 A 
ATOM      2  C1  UNL d   1      -0.125   0.453  -2.268  0.00  0.00     0.062 A 
ATOM      3  C2  UNL d   1       0.119  -0.824  -1.772  0.00  0.00     0.162 A 
ATOM      4  C3  UNL d   1      -0.054  -1.097  -0.414  0.00  0.00    -0.034 A 
ATOM      5  C4  UNL d   1      -0.472  -0.073   0.437  0.00  0.00     0.162 A 
ATOM      6  C5  UNL d   1      -0.715   1.202  -0.064  0.00  0.00     0.062 A 
ATOM      7  F   UNL d   1      -1.117   2.179   0.762  0.00  0.00    -0.097 F 
ATOM      8  F1  UNL d   1      -0.648  -0.300   1.748  0.00  0.00    -0.096 F 
ATOM      9  I   UNL d   1       0.310  -3.005   0.332  0.00  0.00    -0.060 I 
ATOM     10  F2  UNL d   1       0.520  -1.784  -2.619  0.00  0.00    -0.096 F 
ATOM     11  F3  UNL d   1       0.043   0.705  -3.574  0.00  0.00    -0.097 F 
ATOM     12  F4  UNL d   1      -0.775   2.694  -1.896  0.00  0.00    -0.092 F 
ENDROOT
TORSDOF 0
ENDMDL
