MODEL 1
REMARK minimizedAffinity -2.4634769
REMARK minimizedRMSD -1
REMARK  0 active torsions:
REMARK  status: ('A' for Active; 'I' for Inactive)
ROOT
ATOM      1  C   UNL d   1       5.998   6.000   4.261  0.00  0.00     0.172 C 
ATOM      2  N   UNL d   1       5.038   4.954   4.524  0.00  0.00    -0.070 N 
ATOM      3  C1  UNL d   1       5.282   3.805   5.229  0.00  0.00    -0.004 A 
ATOM      4  C2  UNL d   1       4.116   3.071   5.256  0.00  0.00    -0.047 A 
ATOM      5  C3  UNL d   1       3.137   3.803   4.543  0.00  0.00    -0.047 A 
ATOM      6  C4  UNL d   1       3.735   4.965   4.101  0.00  0.00    -0.004 A 
ENDROOT
TORSDOF 0
ENDMDL
