MODEL 1
REMARK minimizedAffinity -1.45127213
REMARK minimizedRMSD -1
REMARK  0 active torsions:
REMARK  status: ('A' for Active; 'I' for Inactive)
ROOT
ATOM      1  C   UNL d   1      -5.753   3.440   3.403  0.00  0.00     0.172 C 
ATOM      2  N   UNL d   1      -5.285   4.462   4.309  0.00  0.00    -0.070 N 
ATOM      3  C1  UNL d   1      -4.073   5.097   4.239  0.00  0.00    -0.004 A 
ATOM      4  C2  UNL d   1      -4.009   6.000   5.278  0.00  0.00    -0.047 A 
ATOM      5  C3  UNL d   1      -5.223   5.903   5.999  0.00  0.00    -0.047 A 
ATOM      6  C4  UNL d   1      -5.994   4.944   5.377  0.00  0.00    -0.004 A 
ENDROOT
TORSDOF 0
ENDMDL
