MODEL 1
REMARK minimizedAffinity 0.649515986
REMARK minimizedRMSD -1
REMARK  0 active torsions:
REMARK  status: ('A' for Active; 'I' for Inactive)
ROOT
ATOM      1  C   UNL d   1      -1.542   1.132  -0.615  0.00  0.00     0.172 C 
ATOM      2  N   UNL d   1      -0.373   1.709   0.006  0.00  0.00    -0.070 N 
ATOM      3  C1  UNL d   1       0.474   1.064   0.867  0.00  0.00    -0.004 A 
ATOM      4  C2  UNL d   1       1.461   1.954   1.234  0.00  0.00    -0.047 A 
ATOM      5  C3  UNL d   1       1.197   3.176   0.571  0.00  0.00    -0.047 A 
ATOM      6  C4  UNL d   1       0.056   2.997  -0.182  0.00  0.00    -0.004 A 
ENDROOT
TORSDOF 0
ENDMDL
