MODEL 1
REMARK minimizedAffinity -1.94118667
REMARK minimizedRMSD -1
REMARK  0 active torsions:
REMARK  status: ('A' for Active; 'I' for Inactive)
ROOT
ATOM      1  C   UNL d   1      -5.849   5.878   6.000  0.00  0.00     0.172 C 
ATOM      2  N   UNL d   1      -5.739   4.580   5.376  0.00  0.00    -0.070 N 
ATOM      3  C1  UNL d   1      -5.931   3.376   5.998  0.00  0.00    -0.004 A 
ATOM      4  C2  UNL d   1      -5.735   2.382   5.064  0.00  0.00    -0.047 A 
ATOM      5  C3  UNL d   1      -5.413   3.010   3.838  0.00  0.00    -0.047 A 
ATOM      6  C4  UNL d   1      -5.422   4.371   4.059  0.00  0.00    -0.004 A 
ENDROOT
TORSDOF 0
ENDMDL
