MODEL 1
REMARK minimizedAffinity -1.36762524
REMARK minimizedRMSD -1
REMARK  0 active torsions:
REMARK  status: ('A' for Active; 'I' for Inactive)
ROOT
ATOM      1  C   UNL d   1      -0.226  -3.977  -0.115  0.00  0.00     0.172 C 
ATOM      2  N   UNL d   1       0.873  -3.053  -0.260  0.00  0.00    -0.070 N 
ATOM      3  C1  UNL d   1       0.761  -1.711  -0.508  0.00  0.00    -0.004 A 
ATOM      4  C2  UNL d   1       2.033  -1.186  -0.577  0.00  0.00    -0.047 A 
ATOM      5  C3  UNL d   1       2.942  -2.249  -0.363  0.00  0.00    -0.047 A 
ATOM      6  C4  UNL d   1       2.197  -3.393  -0.170  0.00  0.00    -0.004 A 
ENDROOT
TORSDOF 0
ENDMDL
