MODEL 1
REMARK minimizedAffinity -2.3380022
REMARK minimizedRMSD -1
REMARK  0 active torsions:
REMARK  status: ('A' for Active; 'I' for Inactive)
ROOT
ATOM      1  C   UNL d   1      -5.971   5.942   6.000  0.00  0.00     0.172 C 
ATOM      2  N   UNL d   1      -5.296   5.904   4.724  0.00  0.00    -0.070 N 
ATOM      3  C1  UNL d   1      -3.946   5.770   4.538  0.00  0.00    -0.004 A 
ATOM      4  C2  UNL d   1      -3.704   5.778   3.181  0.00  0.00    -0.047 A 
ATOM      5  C3  UNL d   1      -4.951   5.924   2.529  0.00  0.00    -0.047 A 
ATOM      6  C4  UNL d   1      -5.920   6.000   3.508  0.00  0.00    -0.004 A 
ENDROOT
TORSDOF 0
ENDMDL
