MODEL 1
REMARK minimizedAffinity 1.5076369
REMARK minimizedRMSD -1
REMARK  0 active torsions:
REMARK  status: ('A' for Active; 'I' for Inactive)
ROOT
ATOM      1  C   UNL d   1      -6.000  -0.361   1.495  0.00  0.00     0.172 C 
ATOM      2  N   UNL d   1      -5.213   0.138   0.391  0.00  0.00    -0.070 N 
ATOM      3  C1  UNL d   1      -5.582   1.144  -0.461  0.00  0.00    -0.004 A 
ATOM      4  C2  UNL d   1      -4.562   1.321  -1.371  0.00  0.00    -0.047 A 
ATOM      5  C3  UNL d   1      -3.546   0.389  -1.055  0.00  0.00    -0.047 A 
ATOM      6  C4  UNL d   1      -3.975  -0.331   0.040  0.00  0.00    -0.004 A 
ENDROOT
TORSDOF 0
ENDMDL
