MODEL 1
REMARK minimizedAffinity -2.13635063
REMARK minimizedRMSD -1
REMARK  0 active torsions:
REMARK  status: ('A' for Active; 'I' for Inactive)
ROOT
ATOM      1  C   UNL d   1       1.876  -0.907  -1.095  0.00  0.00     0.172 C 
ATOM      2  N   UNL d   1       1.381  -2.264  -1.094  0.00  0.00    -0.070 N 
ATOM      3  C1  UNL d   1       0.126  -2.656  -1.475  0.00  0.00    -0.004 A 
ATOM      4  C2  UNL d   1       0.049  -4.024  -1.330  0.00  0.00    -0.047 A 
ATOM      5  C3  UNL d   1       1.301  -4.470  -0.844  0.00  0.00    -0.047 A 
ATOM      6  C4  UNL d   1       2.107  -3.359  -0.707  0.00  0.00    -0.004 A 
ENDROOT
TORSDOF 0
ENDMDL
