MODEL 1
REMARK minimizedAffinity -2.84645319
REMARK minimizedRMSD -1
REMARK  0 active torsions:
REMARK  status: ('A' for Active; 'I' for Inactive)
ROOT
ATOM      1  C   UNL d   1      -5.832   2.387   1.875  0.00  0.00     0.172 C 
ATOM      2  N   UNL d   1      -5.354   1.206   1.196  0.00  0.00    -0.070 N 
ATOM      3  C1  UNL d   1      -6.000  -0.000   1.141  0.00  0.00    -0.004 A 
ATOM      4  C2  UNL d   1      -5.221  -0.863   0.402  0.00  0.00    -0.047 A 
ATOM      5  C3  UNL d   1      -4.066  -0.152  -0.001  0.00  0.00    -0.047 A 
ATOM      6  C4  UNL d   1      -4.174   1.127   0.504  0.00  0.00    -0.004 A 
ENDROOT
TORSDOF 0
ENDMDL
