MODEL 1
REMARK minimizedAffinity -2.21739483
REMARK minimizedRMSD -1
REMARK  0 active torsions:
REMARK  status: ('A' for Active; 'I' for Inactive)
ROOT
ATOM      1  C   UNL d   1       1.668  -3.894  -1.104  0.00  0.00     0.172 C 
ATOM      2  N   UNL d   1       1.465  -2.468  -1.196  0.00  0.00    -0.070 N 
ATOM      3  C1  UNL d   1       0.277  -1.816  -0.999  0.00  0.00    -0.004 A 
ATOM      4  C2  UNL d   1       0.500  -0.468  -1.175  0.00  0.00    -0.047 A 
ATOM      5  C3  UNL d   1       1.870  -0.303  -1.489  0.00  0.00    -0.047 A 
ATOM      6  C4  UNL d   1       2.444  -1.557  -1.495  0.00  0.00    -0.004 A 
ENDROOT
TORSDOF 0
ENDMDL
