MODEL 1
REMARK minimizedAffinity -5.20259333
REMARK minimizedRMSD -1
REMARK  0 active torsions:
REMARK  status: ('A' for Active; 'I' for Inactive)
ROOT
ATOM      1  C   UNL d   1       2.952  -1.017   0.371  0.00  0.00     0.124 A 
ATOM      2  C1  UNL d   1       1.951  -1.781  -0.212  0.00  0.00     0.062 A 
ATOM      3  C2  UNL d   1       0.653  -1.285  -0.300  0.00  0.00     0.162 A 
ATOM      4  C3  UNL d   1       0.349  -0.017   0.197  0.00  0.00    -0.034 A 
ATOM      5  C4  UNL d   1       1.361   0.744   0.784  0.00  0.00     0.162 A 
ATOM      6  C5  UNL d   1       2.657   0.244   0.869  0.00  0.00     0.062 A 
ATOM      7  F   UNL d   1       3.623   0.984   1.433  0.00  0.00    -0.097 F 
ATOM      8  F1  UNL d   1       1.104   1.967   1.271  0.00  0.00    -0.096 F 
ATOM      9  I   UNL d   1      -1.590   0.728   0.068  0.00  0.00    -0.060 I 
ATOM     10  F2  UNL d   1      -0.294  -2.045  -0.869  0.00  0.00    -0.096 F 
ATOM     11  F3  UNL d   1       2.234  -3.000  -0.693  0.00  0.00    -0.097 F 
ATOM     12  F4  UNL d   1       4.200  -1.497   0.455  0.00  0.00    -0.092 F 
ENDROOT
TORSDOF 0
ENDMDL
