MODEL 1
REMARK minimizedAffinity -3.75621128
REMARK minimizedRMSD -1
REMARK  0 active torsions:
REMARK  status: ('A' for Active; 'I' for Inactive)
ROOT
ATOM      1  C   UNL d   1       1.558   0.407   0.504  0.00  0.00     0.124 A 
ATOM      2  C1  UNL d   1       0.236   0.616   0.136  0.00  0.00     0.062 A 
ATOM      3  C2  UNL d   1      -0.510  -0.423  -0.413  0.00  0.00     0.162 A 
ATOM      4  C3  UNL d   1       0.064  -1.681  -0.597  0.00  0.00    -0.034 A 
ATOM      5  C4  UNL d   1       1.394  -1.883  -0.225  0.00  0.00     0.162 A 
ATOM      6  C5  UNL d   1       2.136  -0.842   0.324  0.00  0.00     0.062 A 
ATOM      7  F   UNL d   1       3.413  -1.046   0.679  0.00  0.00    -0.097 F 
ATOM      8  F1  UNL d   1       1.977  -3.080  -0.388  0.00  0.00    -0.096 F 
ATOM      9  I   UNL d   1      -1.048  -3.236  -1.418  0.00  0.00    -0.060 I 
ATOM     10  F2  UNL d   1      -1.785  -0.192  -0.760  0.00  0.00    -0.096 F 
ATOM     11  F3  UNL d   1      -0.324   1.822   0.309  0.00  0.00    -0.097 F 
ATOM     12  F4  UNL d   1       2.274   1.408   1.032  0.00  0.00    -0.092 F 
ENDROOT
TORSDOF 0
ENDMDL
