MODEL 1
REMARK minimizedAffinity -2.85843253
REMARK minimizedRMSD -1
REMARK  0 active torsions:
REMARK  status: ('A' for Active; 'I' for Inactive)
ROOT
ATOM      1  C   UNL d   1       1.688  -0.303   0.779  0.00  0.00     0.124 A 
ATOM      2  C1  UNL d   1       0.367  -0.060   0.431  0.00  0.00     0.062 A 
ATOM      3  C2  UNL d   1      -0.264  -0.855  -0.522  0.00  0.00     0.162 A 
ATOM      4  C3  UNL d   1       0.426  -1.902  -1.133  0.00  0.00    -0.034 A 
ATOM      5  C4  UNL d   1       1.755  -2.140  -0.778  0.00  0.00     0.162 A 
ATOM      6  C5  UNL d   1       2.381  -1.342   0.174  0.00  0.00     0.062 A 
ATOM      7  F   UNL d   1       3.658  -1.579   0.509  0.00  0.00    -0.097 F 
ATOM      8  F1  UNL d   1       2.448  -3.138  -1.346  0.00  0.00    -0.096 F 
ATOM      9  I   UNL d   1      -0.513  -3.093  -2.558  0.00  0.00    -0.060 I 
ATOM     10  F2  UNL d   1      -1.541  -0.597  -0.839  0.00  0.00    -0.096 F 
ATOM     11  F3  UNL d   1      -0.304   0.944   1.013  0.00  0.00    -0.097 F 
ATOM     12  F4  UNL d   1       2.293   0.464   1.695  0.00  0.00    -0.092 F 
ENDROOT
TORSDOF 0
ENDMDL
