MODEL 1
REMARK minimizedAffinity -5.13493967
REMARK minimizedRMSD -1
REMARK  0 active torsions:
REMARK  status: ('A' for Active; 'I' for Inactive)
ROOT
ATOM      1  C   UNL d   1       2.496   0.147   0.714  0.00  0.00     0.124 A 
ATOM      2  C1  UNL d   1       1.660  -0.936   0.950  0.00  0.00     0.062 A 
ATOM      3  C2  UNL d   1       0.302  -0.847   0.659  0.00  0.00     0.162 A 
ATOM      4  C3  UNL d   1      -0.229   0.328   0.127  0.00  0.00    -0.034 A 
ATOM      5  C4  UNL d   1       0.618   1.413  -0.106  0.00  0.00     0.162 A 
ATOM      6  C5  UNL d   1       1.975   1.320   0.186  0.00  0.00     0.062 A 
ATOM      7  F   UNL d   1       2.781   2.366  -0.042  0.00  0.00    -0.097 F 
ATOM      8  F1  UNL d   1       0.141   2.558  -0.617  0.00  0.00    -0.096 F 
ATOM      9  I   UNL d   1      -2.259   0.464  -0.310  0.00  0.00    -0.060 I 
ATOM     10  F2  UNL d   1      -0.483  -1.909   0.897  0.00  0.00    -0.096 F 
ATOM     11  F3  UNL d   1       2.161  -2.069   1.461  0.00  0.00    -0.097 F 
ATOM     12  F4  UNL d   1       3.802   0.059   0.996  0.00  0.00    -0.092 F 
ENDROOT
TORSDOF 0
ENDMDL
