MODEL 1
REMARK minimizedAffinity 1.16108274
REMARK minimizedRMSD -1
REMARK  0 active torsions:
REMARK  status: ('A' for Active; 'I' for Inactive)
ROOT
ATOM      1  C   UNL d   1      -1.614   1.290  -0.081  0.00  0.00     0.124 A 
ATOM      2  C1  UNL d   1      -0.336   1.806  -0.250  0.00  0.00     0.062 A 
ATOM      3  C2  UNL d   1       0.775   0.978  -0.125  0.00  0.00     0.162 A 
ATOM      4  C3  UNL d   1       0.615  -0.376   0.169  0.00  0.00    -0.034 A 
ATOM      5  C4  UNL d   1      -0.673  -0.887   0.339  0.00  0.00     0.162 A 
ATOM      6  C5  UNL d   1      -1.781  -0.056   0.213  0.00  0.00     0.062 A 
ATOM      7  F   UNL d   1      -3.014  -0.556   0.376  0.00  0.00    -0.097 F 
ATOM      8  F1  UNL d   1      -0.863  -2.184   0.623  0.00  0.00    -0.096 F 
ATOM      9  I   UNL d   1       2.275  -1.617   0.357  0.00  0.00    -0.060 I 
ATOM     10  F2  UNL d   1       1.998   1.504  -0.294  0.00  0.00    -0.096 F 
ATOM     11  F3  UNL d   1      -0.172   3.107  -0.534  0.00  0.00    -0.097 F 
ATOM     12  F4  UNL d   1      -2.682   2.089  -0.201  0.00  0.00    -0.092 F 
ENDROOT
TORSDOF 0
ENDMDL
