MODEL 1
REMARK minimizedAffinity -0.708603024
REMARK minimizedRMSD -1
REMARK  0 active torsions:
REMARK  status: ('A' for Active; 'I' for Inactive)
ROOT
ATOM      1  C   UNL d   1       1.465  -1.586  -0.412  0.00  0.00     0.124 A 
ATOM      2  C1  UNL d   1       1.797  -0.243  -0.300  0.00  0.00     0.062 A 
ATOM      3  C2  UNL d   1       0.798   0.724  -0.247  0.00  0.00     0.162 A 
ATOM      4  C3  UNL d   1      -0.545   0.351  -0.304  0.00  0.00    -0.034 A 
ATOM      5  C4  UNL d   1      -0.872  -1.001  -0.417  0.00  0.00     0.162 A 
ATOM      6  C5  UNL d   1       0.131  -1.964  -0.470  0.00  0.00     0.062 A 
ATOM      7  F   UNL d   1      -0.193  -3.261  -0.578  0.00  0.00    -0.097 F 
ATOM      8  F1  UNL d   1      -2.154  -1.394  -0.475  0.00  0.00    -0.096 F 
ATOM      9  I   UNL d   1      -2.043   1.794  -0.224  0.00  0.00    -0.060 I 
ATOM     10  F2  UNL d   1       1.148   2.014  -0.138  0.00  0.00    -0.096 F 
ATOM     11  F3  UNL d   1       3.086   0.124  -0.244  0.00  0.00    -0.097 F 
ATOM     12  F4  UNL d   1       2.429  -2.514  -0.464  0.00  0.00    -0.092 F 
ENDROOT
TORSDOF 0
ENDMDL
