MODEL 1
REMARK minimizedAffinity 1.42157483
REMARK minimizedRMSD -1
REMARK  0 active torsions:
REMARK  status: ('A' for Active; 'I' for Inactive)
ROOT
ATOM      1  C   UNL d   1      -3.315   0.755   0.257  0.00  0.00     0.124 A 
ATOM      2  C1  UNL d   1      -2.338   0.848   1.239  0.00  0.00     0.062 A 
ATOM      3  C2  UNL d   1      -1.036   0.437   0.972  0.00  0.00     0.162 A 
ATOM      4  C3  UNL d   1      -0.701  -0.071  -0.283  0.00  0.00    -0.034 A 
ATOM      5  C4  UNL d   1      -1.689  -0.163  -1.265  0.00  0.00     0.162 A 
ATOM      6  C5  UNL d   1      -2.989   0.249  -0.994  0.00  0.00     0.062 A 
ATOM      7  F   UNL d   1      -3.931   0.158  -1.944  0.00  0.00    -0.097 F 
ATOM      8  F1  UNL d   1      -1.401  -0.647  -2.483  0.00  0.00    -0.096 F 
ATOM      9  I   UNL d   1       1.246  -0.687  -0.686  0.00  0.00    -0.060 I 
ATOM     10  F2  UNL d   1      -0.112   0.539   1.940  0.00  0.00    -0.096 F 
ATOM     11  F3  UNL d   1      -2.650   1.335   2.449  0.00  0.00    -0.097 F 
ATOM     12  F4  UNL d   1      -4.568   1.150   0.517  0.00  0.00    -0.092 F 
ENDROOT
TORSDOF 0
ENDMDL
