MODEL 1
REMARK minimizedAffinity 7.09530544
REMARK minimizedRMSD -1
REMARK  0 active torsions:
REMARK  status: ('A' for Active; 'I' for Inactive)
ROOT
ATOM      1  C   UNL d   1       4.918  -1.314   2.437  0.00  0.00     0.124 A 
ATOM      2  C1  UNL d   1       5.335  -1.070   3.738  0.00  0.00     0.062 A 
ATOM      3  C2  UNL d   1       5.064  -1.992   4.745  0.00  0.00     0.162 A 
ATOM      4  C3  UNL d   1       4.373  -3.169   4.453  0.00  0.00    -0.034 A 
ATOM      5  C4  UNL d   1       3.956  -3.407   3.142  0.00  0.00     0.162 A 
ATOM      6  C5  UNL d   1       4.230  -2.482   2.140  0.00  0.00     0.062 A 
ATOM      7  F   UNL d   1       3.826  -2.719   0.884  0.00  0.00    -0.097 F 
ATOM      8  F1  UNL d   1       3.290  -4.527   2.828  0.00  0.00    -0.096 F 
ATOM      9  I   UNL d   1       3.965  -4.551   5.955  0.00  0.00    -0.060 I 
ATOM     10  F2  UNL d   1       5.478  -1.731   5.993  0.00  0.00    -0.096 F 
ATOM     11  F3  UNL d   1       5.999   0.058   4.028  0.00  0.00    -0.097 F 
ATOM     12  F4  UNL d   1       5.180  -0.424   1.471  0.00  0.00    -0.092 F 
ENDROOT
TORSDOF 0
ENDMDL
