MODEL 1
REMARK minimizedAffinity 13.5751553
REMARK minimizedRMSD -1
REMARK  0 active torsions:
REMARK  status: ('A' for Active; 'I' for Inactive)
ROOT
ATOM      1  C   UNL d   1      -4.287   4.649   3.778  0.00  0.00     0.124 A 
ATOM      2  C1  UNL d   1      -4.085   3.862   4.903  0.00  0.00     0.062 A 
ATOM      3  C2  UNL d   1      -4.465   2.523   4.898  0.00  0.00     0.162 A 
ATOM      4  C3  UNL d   1      -5.051   1.962   3.763  0.00  0.00    -0.034 A 
ATOM      5  C4  UNL d   1      -5.252   2.760   2.636  0.00  0.00     0.162 A 
ATOM      6  C5  UNL d   1      -4.870   4.098   2.646  0.00  0.00     0.062 A 
ATOM      7  F   UNL d   1      -5.066   4.857   1.558  0.00  0.00    -0.097 F 
ATOM      8  F1  UNL d   1      -5.812   2.253   1.528  0.00  0.00    -0.096 F 
ATOM      9  I   UNL d   1      -5.620  -0.040   3.752  0.00  0.00    -0.060 I 
ATOM     10  F2  UNL d   1      -4.258   1.786   5.999  0.00  0.00    -0.096 F 
ATOM     11  F3  UNL d   1      -3.523   4.392   5.999  0.00  0.00    -0.097 F 
ATOM     12  F4  UNL d   1      -3.921   5.937   3.786  0.00  0.00    -0.092 F 
ENDROOT
TORSDOF 0
ENDMDL
