MODEL 1
REMARK minimizedAffinity 11.682745
REMARK minimizedRMSD -1
REMARK  0 active torsions:
REMARK  status: ('A' for Active; 'I' for Inactive)
ROOT
ATOM      1  C   UNL d   1       0.703   0.867  -2.650  0.00  0.00     0.124 A 
ATOM      2  C1  UNL d   1       1.739   0.284  -1.934  0.00  0.00     0.062 A 
ATOM      3  C2  UNL d   1       2.499   1.048  -1.054  0.00  0.00     0.162 A 
ATOM      4  C3  UNL d   1       2.225   2.405  -0.883  0.00  0.00    -0.034 A 
ATOM      5  C4  UNL d   1       1.182   2.985  -1.607  0.00  0.00     0.162 A 
ATOM      6  C5  UNL d   1       0.425   2.217  -2.486  0.00  0.00     0.062 A 
ATOM      7  F   UNL d   1      -0.575   2.782  -3.176  0.00  0.00    -0.097 F 
ATOM      8  F1  UNL d   1       0.891   4.287  -1.467  0.00  0.00    -0.096 F 
ATOM      9  I   UNL d   1       3.359   3.552   0.433  0.00  0.00    -0.060 I 
ATOM     10  F2  UNL d   1       3.494   0.458  -0.375  0.00  0.00    -0.096 F 
ATOM     11  F3  UNL d   1       2.010  -1.020  -2.092  0.00  0.00    -0.097 F 
ATOM     12  F4  UNL d   1      -0.026   0.129  -3.497  0.00  0.00    -0.092 F 
ENDROOT
TORSDOF 0
ENDMDL
