MODEL 1
REMARK minimizedAffinity 14.851306
REMARK minimizedRMSD -1
REMARK  0 active torsions:
REMARK  status: ('A' for Active; 'I' for Inactive)
ROOT
ATOM      1  C   UNL d   1       1.311   1.499  -3.063  0.00  0.00     0.124 A 
ATOM      2  C1  UNL d   1       2.098   0.640  -2.307  0.00  0.00     0.062 A 
ATOM      3  C2  UNL d   1       3.437   0.446  -2.635  0.00  0.00     0.162 A 
ATOM      4  C3  UNL d   1       3.998   1.114  -3.723  0.00  0.00    -0.034 A 
ATOM      5  C4  UNL d   1       3.201   1.975  -4.479  0.00  0.00     0.162 A 
ATOM      6  C5  UNL d   1       1.864   2.165  -4.147  0.00  0.00     0.062 A 
ATOM      7  F   UNL d   1       1.105   2.995  -4.878  0.00  0.00    -0.097 F 
ATOM      8  F1  UNL d   1       3.709   2.633  -5.532  0.00  0.00    -0.096 F 
ATOM      9  I   UNL d   1       6.000   0.827  -4.217  0.00  0.00    -0.060 I 
ATOM     10  F2  UNL d   1       4.173  -0.390  -1.888  0.00  0.00    -0.096 F 
ATOM     11  F3  UNL d   1       1.566  -0.007  -1.260  0.00  0.00    -0.097 F 
ATOM     12  F4  UNL d   1       0.023   1.682  -2.746  0.00  0.00    -0.092 F 
ENDROOT
TORSDOF 0
ENDMDL
