MODEL 1
REMARK minimizedAffinity 13.9865685
REMARK minimizedRMSD -1
REMARK  0 active torsions:
REMARK  status: ('A' for Active; 'I' for Inactive)
ROOT
ATOM      1  C   UNL d   1       1.444   1.870  -2.233  0.00  0.00     0.124 A 
ATOM      2  C1  UNL d   1       1.916   0.807  -1.476  0.00  0.00     0.062 A 
ATOM      3  C2  UNL d   1       1.632  -0.502  -1.854  0.00  0.00     0.162 A 
ATOM      4  C3  UNL d   1       0.873  -0.756  -2.996  0.00  0.00    -0.034 A 
ATOM      5  C4  UNL d   1       0.400   0.318  -3.752  0.00  0.00     0.162 A 
ATOM      6  C5  UNL d   1       0.686   1.625  -3.370  0.00  0.00     0.062 A 
ATOM      7  F   UNL d   1       0.229   2.651  -4.102  0.00  0.00    -0.097 F 
ATOM      8  F1  UNL d   1      -0.334   0.110  -4.855  0.00  0.00    -0.096 F 
ATOM      9  I   UNL d   1       0.446  -2.712  -3.565  0.00  0.00    -0.060 I 
ATOM     10  F2  UNL d   1       2.102  -1.510  -1.104  0.00  0.00    -0.096 F 
ATOM     11  F3  UNL d   1       2.647   1.041  -0.377  0.00  0.00    -0.097 F 
ATOM     12  F4  UNL d   1       1.717   3.129  -1.867  0.00  0.00    -0.092 F 
ENDROOT
TORSDOF 0
ENDMDL
