MODEL 1
REMARK minimizedAffinity 19.3981895
REMARK minimizedRMSD -1
REMARK  0 active torsions:
REMARK  status: ('A' for Active; 'I' for Inactive)
ROOT
ATOM      1  C   UNL d   1      -2.747   5.898   1.481  0.00  0.00     0.124 A 
ATOM      2  C1  UNL d   1      -4.122   5.879   1.673  0.00  0.00     0.062 A 
ATOM      3  C2  UNL d   1      -4.649   5.890   2.961  0.00  0.00     0.162 A 
ATOM      4  C3  UNL d   1      -3.802   5.920   4.068  0.00  0.00    -0.034 A 
ATOM      5  C4  UNL d   1      -2.420   5.937   3.867  0.00  0.00     0.162 A 
ATOM      6  C5  UNL d   1      -1.898   5.927   2.578  0.00  0.00     0.062 A 
ATOM      7  F   UNL d   1      -0.570   5.944   2.395  0.00  0.00    -0.097 F 
ATOM      8  F1  UNL d   1      -1.576   5.966   4.910  0.00  0.00    -0.096 F 
ATOM      9  I   UNL d   1      -4.586   5.936   5.996  0.00  0.00    -0.060 I 
ATOM     10  F2  UNL d   1      -5.981   5.872   3.116  0.00  0.00    -0.096 F 
ATOM     11  F3  UNL d   1      -4.945   5.850   0.615  0.00  0.00    -0.097 F 
ATOM     12  F4  UNL d   1      -2.243   5.886   0.241  0.00  0.00    -0.092 F 
ENDROOT
TORSDOF 0
ENDMDL
