MODEL 1
REMARK minimizedAffinity 18.7837391
REMARK minimizedRMSD -1
REMARK  0 active torsions:
REMARK  status: ('A' for Active; 'I' for Inactive)
ROOT
ATOM      1  C   UNL d   1      -4.175   2.460   2.789  0.00  0.00     0.124 A 
ATOM      2  C1  UNL d   1      -4.635   3.750   2.564  0.00  0.00     0.062 A 
ATOM      3  C2  UNL d   1      -4.354   4.762   3.477  0.00  0.00     0.162 A 
ATOM      4  C3  UNL d   1      -3.609   4.488   4.624  0.00  0.00    -0.034 A 
ATOM      5  C4  UNL d   1      -3.150   3.188   4.844  0.00  0.00     0.162 A 
ATOM      6  C5  UNL d   1      -3.433   2.180   3.928  0.00  0.00     0.062 A 
ATOM      7  F   UNL d   1      -2.988   0.934   4.146  0.00  0.00    -0.097 F 
ATOM      8  F1  UNL d   1      -2.430   2.890   5.936  0.00  0.00    -0.096 F 
ATOM      9  I   UNL d   1      -3.187   5.999   5.992  0.00  0.00    -0.060 I 
ATOM     10  F2  UNL d   1      -4.812   5.999   3.235  0.00  0.00    -0.096 F 
ATOM     11  F3  UNL d   1      -5.353   4.022   1.465  0.00  0.00    -0.097 F 
ATOM     12  F4  UNL d   1      -4.448   1.487   1.909  0.00  0.00    -0.092 F 
ENDROOT
TORSDOF 0
ENDMDL
