MODEL 1
REMARK minimizedAffinity 4.35993052
REMARK minimizedRMSD -1
REMARK  0 active torsions:
REMARK  status: ('A' for Active; 'I' for Inactive)
ROOT
ATOM      1  C   UNL d   1      -3.409   5.606   1.153  0.00  0.00     0.124 A 
ATOM      2  C1  UNL d   1      -4.653   5.577   1.767  0.00  0.00     0.062 A 
ATOM      3  C2  UNL d   1      -4.753   5.689   3.151  0.00  0.00     0.162 A 
ATOM      4  C3  UNL d   1      -3.605   5.832   3.930  0.00  0.00    -0.034 A 
ATOM      5  C4  UNL d   1      -2.357   5.859   3.305  0.00  0.00     0.162 A 
ATOM      6  C5  UNL d   1      -2.263   5.747   1.922  0.00  0.00     0.062 A 
ATOM      7  F   UNL d   1      -1.060   5.775   1.330  0.00  0.00    -0.097 F 
ATOM      8  F1  UNL d   1      -1.233   5.995   4.024  0.00  0.00    -0.096 F 
ATOM      9  I   UNL d   1      -3.751   6.000   5.999  0.00  0.00    -0.060 I 
ATOM     10  F2  UNL d   1      -5.968   5.658   3.718  0.00  0.00    -0.096 F 
ATOM     11  F3  UNL d   1      -5.762   5.440   1.026  0.00  0.00    -0.097 F 
ATOM     12  F4  UNL d   1      -3.315   5.497  -0.179  0.00  0.00    -0.092 F 
ENDROOT
TORSDOF 0
ENDMDL
