MODEL 1
REMARK minimizedAffinity 26.3943977
REMARK minimizedRMSD -1
REMARK  0 active torsions:
REMARK  status: ('A' for Active; 'I' for Inactive)
ROOT
ATOM      1  C   UNL d   1       1.004   1.579  -3.558  0.00  0.00     0.124 A 
ATOM      2  C1  UNL d   1       1.460   0.984  -2.390  0.00  0.00     0.062 A 
ATOM      3  C2  UNL d   1       2.100   1.749  -1.418  0.00  0.00     0.162 A 
ATOM      4  C3  UNL d   1       2.287   3.118  -1.610  0.00  0.00    -0.034 A 
ATOM      5  C4  UNL d   1       1.826   3.709  -2.788  0.00  0.00     0.162 A 
ATOM      6  C5  UNL d   1       1.188   2.941  -3.756  0.00  0.00     0.062 A 
ATOM      7  F   UNL d   1       0.748   3.517  -4.884  0.00  0.00    -0.097 F 
ATOM      8  F1  UNL d   1       1.989   5.022  -3.005  0.00  0.00    -0.096 F 
ATOM      9  I   UNL d   1       3.243   4.264  -0.160  0.00  0.00    -0.060 I 
ATOM     10  F2  UNL d   1       2.531   1.147  -0.299  0.00  0.00    -0.096 F 
ATOM     11  F3  UNL d   1       1.285  -0.331  -2.197  0.00  0.00    -0.097 F 
ATOM     12  F4  UNL d   1       0.390   0.841  -4.491  0.00  0.00    -0.092 F 
ENDROOT
TORSDOF 0
ENDMDL
