MODEL 1
REMARK minimizedAffinity 14.3247747
REMARK minimizedRMSD -1
REMARK  0 active torsions:
REMARK  status: ('A' for Active; 'I' for Inactive)
ROOT
ATOM      1  C   UNL d   1      -2.561   5.665   1.676  0.00  0.00     0.124 A 
ATOM      2  C1  UNL d   1      -1.900   5.823   2.886  0.00  0.00     0.062 A 
ATOM      3  C2  UNL d   1      -2.618   5.844   4.078  0.00  0.00     0.162 A 
ATOM      4  C3  UNL d   1      -4.006   5.705   4.067  0.00  0.00    -0.034 A 
ATOM      5  C4  UNL d   1      -4.664   5.548   2.845  0.00  0.00     0.162 A 
ATOM      6  C5  UNL d   1      -3.942   5.527   1.657  0.00  0.00     0.062 A 
ATOM      7  F   UNL d   1      -4.582   5.375   0.488  0.00  0.00    -0.097 F 
ATOM      8  F1  UNL d   1      -5.997   5.412   2.798  0.00  0.00    -0.096 F 
ATOM      9  I   UNL d   1      -5.083   5.735   5.847  0.00  0.00    -0.060 I 
ATOM     10  F2  UNL d   1      -1.953   5.998   5.233  0.00  0.00    -0.096 F 
ATOM     11  F3  UNL d   1      -0.566   5.957   2.907  0.00  0.00    -0.097 F 
ATOM     12  F4  UNL d   1      -1.868   5.646   0.530  0.00  0.00    -0.092 F 
ENDROOT
TORSDOF 0
ENDMDL
