MODEL 1
REMARK minimizedAffinity 16.0249519
REMARK minimizedRMSD -1
REMARK  0 active torsions:
REMARK  status: ('A' for Active; 'I' for Inactive)
ROOT
ATOM      1  C   UNL d   1       0.794  -0.086  -2.606  0.00  0.00     0.124 A 
ATOM      2  C1  UNL d   1       0.468  -0.076  -3.955  0.00  0.00     0.062 A 
ATOM      3  C2  UNL d   1       0.600   1.094  -4.698  0.00  0.00     0.162 A 
ATOM      4  C3  UNL d   1       1.062   2.263  -4.093  0.00  0.00    -0.034 A 
ATOM      5  C4  UNL d   1       1.387   2.245  -2.736  0.00  0.00     0.162 A 
ATOM      6  C5  UNL d   1       1.253   1.073  -1.998  0.00  0.00     0.062 A 
ATOM      7  F   UNL d   1       1.568   1.065  -0.695  0.00  0.00    -0.097 F 
ATOM      8  F1  UNL d   1       1.833   3.351  -2.123  0.00  0.00    -0.096 F 
ATOM      9  I   UNL d   1       1.261   4.014  -5.201  0.00  0.00    -0.060 I 
ATOM     10  F2  UNL d   1       0.278   1.076  -6.000  0.00  0.00    -0.096 F 
ATOM     11  F3  UNL d   1       0.023  -1.195  -4.545  0.00  0.00    -0.097 F 
ATOM     12  F4  UNL d   1       0.665  -1.213  -1.894  0.00  0.00    -0.092 F 
ENDROOT
TORSDOF 0
ENDMDL
