MODEL 1
REMARK minimizedAffinity 3.32347107
REMARK minimizedRMSD -1
REMARK  0 active torsions:
REMARK  status: ('A' for Active; 'I' for Inactive)
ROOT
ATOM      1  C   UNL d   1       1.799  -1.395  -2.338  0.00  0.00     0.124 A 
ATOM      2  C1  UNL d   1       1.011  -1.382  -3.480  0.00  0.00     0.062 A 
ATOM      3  C2  UNL d   1       0.761  -0.185  -4.145  0.00  0.00     0.162 A 
ATOM      4  C3  UNL d   1       1.301   1.010  -3.669  0.00  0.00    -0.034 A 
ATOM      5  C4  UNL d   1       2.092   0.989  -2.519  0.00  0.00     0.162 A 
ATOM      6  C5  UNL d   1       2.339  -0.210  -1.858  0.00  0.00     0.062 A 
ATOM      7  F   UNL d   1       3.100  -0.220  -0.755  0.00  0.00    -0.097 F 
ATOM      8  F1  UNL d   1       2.627   2.120  -2.034  0.00  0.00    -0.096 F 
ATOM      9  I   UNL d   1       0.929   2.803  -4.660  0.00  0.00    -0.060 I 
ATOM     10  F2  UNL d   1      -0.005  -0.202  -5.246  0.00  0.00    -0.096 F 
ATOM     11  F3  UNL d   1       0.487  -2.525  -3.945  0.00  0.00    -0.097 F 
ATOM     12  F4  UNL d   1       2.037  -2.548  -1.700  0.00  0.00    -0.092 F 
ENDROOT
TORSDOF 0
ENDMDL
