MODEL 1
REMARK minimizedAffinity 22.0047684
REMARK minimizedRMSD -1
REMARK  0 active torsions:
REMARK  status: ('A' for Active; 'I' for Inactive)
ROOT
ATOM      1  C   UNL d   1      -4.675   5.978   3.797  0.00  0.00     0.124 A 
ATOM      2  C1  UNL d   1      -4.446   5.970   2.428  0.00  0.00     0.062 A 
ATOM      3  C2  UNL d   1      -3.144   5.970   1.936  0.00  0.00     0.162 A 
ATOM      4  C3  UNL d   1      -2.060   5.977   2.814  0.00  0.00    -0.034 A 
ATOM      5  C4  UNL d   1      -2.298   5.987   4.189  0.00  0.00     0.162 A 
ATOM      6  C5  UNL d   1      -3.601   5.987   4.676  0.00  0.00     0.062 A 
ATOM      7  F   UNL d   1      -3.820   5.995   5.999  0.00  0.00    -0.097 F 
ATOM      8  F1  UNL d   1      -1.278   5.994   5.061  0.00  0.00    -0.096 F 
ATOM      9  I   UNL d   1      -0.111   5.978   2.082  0.00  0.00    -0.060 I 
ATOM     10  F2  UNL d   1      -2.953   5.962   0.609  0.00  0.00    -0.096 F 
ATOM     11  F3  UNL d   1      -5.482   5.962   1.577  0.00  0.00    -0.097 F 
ATOM     12  F4  UNL d   1      -5.928   5.979   4.268  0.00  0.00    -0.092 F 
ENDROOT
TORSDOF 0
ENDMDL
