MODEL 1
REMARK minimizedAffinity 12.9236135
REMARK minimizedRMSD -1
REMARK  0 active torsions:
REMARK  status: ('A' for Active; 'I' for Inactive)
ROOT
ATOM      1  C   UNL d   1      -3.448   5.760   1.127  0.00  0.00     0.124 A 
ATOM      2  C1  UNL d   1      -2.287   5.819   1.886  0.00  0.00     0.062 A 
ATOM      3  C2  UNL d   1      -2.362   5.887   3.275  0.00  0.00     0.162 A 
ATOM      4  C3  UNL d   1      -3.602   5.894   3.914  0.00  0.00    -0.034 A 
ATOM      5  C4  UNL d   1      -4.764   5.834   3.143  0.00  0.00     0.162 A 
ATOM      6  C5  UNL d   1      -4.685   5.767   1.756  0.00  0.00     0.062 A 
ATOM      7  F   UNL d   1      -5.807   5.710   1.025  0.00  0.00    -0.097 F 
ATOM      8  F1  UNL d   1      -5.973   5.839   3.725  0.00  0.00    -0.096 F 
ATOM      9  I   UNL d   1      -3.717   5.994   5.989  0.00  0.00    -0.060 I 
ATOM     10  F2  UNL d   1      -1.224   5.943   3.983  0.00  0.00    -0.096 F 
ATOM     11  F3  UNL d   1      -1.091   5.813   1.281  0.00  0.00    -0.097 F 
ATOM     12  F4  UNL d   1      -3.374   5.696  -0.208  0.00  0.00    -0.092 F 
ENDROOT
TORSDOF 0
ENDMDL
