MODEL 1
REMARK minimizedAffinity 20.436451
REMARK minimizedRMSD -1
REMARK  0 active torsions:
REMARK  status: ('A' for Active; 'I' for Inactive)
ROOT
ATOM      1  C   UNL d   1       1.765   2.922  -4.076  0.00  0.00     0.124 A 
ATOM      2  C1  UNL d   1       0.668   2.346  -3.450  0.00  0.00     0.062 A 
ATOM      3  C2  UNL d   1       0.828   1.210  -2.662  0.00  0.00     0.162 A 
ATOM      4  C3  UNL d   1       2.091   0.643  -2.493  0.00  0.00    -0.034 A 
ATOM      5  C4  UNL d   1       3.190   1.227  -3.125  0.00  0.00     0.162 A 
ATOM      6  C5  UNL d   1       3.025   2.362  -3.913  0.00  0.00     0.062 A 
ATOM      7  F   UNL d   1       4.086   2.917  -4.516  0.00  0.00    -0.097 F 
ATOM      8  F1  UNL d   1       4.418   0.708  -2.984  0.00  0.00    -0.096 F 
ATOM      9  I   UNL d   1       2.335  -1.055  -1.314  0.00  0.00    -0.060 I 
ATOM     10  F2  UNL d   1      -0.250   0.675  -2.069  0.00  0.00    -0.096 F 
ATOM     11  F3  UNL d   1      -0.550   2.884  -3.607  0.00  0.00    -0.097 F 
ATOM     12  F4  UNL d   1       1.608   4.014  -4.835  0.00  0.00    -0.092 F 
ENDROOT
TORSDOF 0
ENDMDL
