MODEL 1
REMARK minimizedAffinity 14.4314346
REMARK minimizedRMSD -1
REMARK  0 active torsions:
REMARK  status: ('A' for Active; 'I' for Inactive)
ROOT
ATOM      1  C   UNL d   1       2.226   3.066  -3.782  0.00  0.00     0.124 A 
ATOM      2  C1  UNL d   1       1.041   2.481  -3.358  0.00  0.00     0.062 A 
ATOM      3  C2  UNL d   1       1.059   1.237  -2.735  0.00  0.00     0.162 A 
ATOM      4  C3  UNL d   1       2.267   0.569  -2.531  0.00  0.00    -0.034 A 
ATOM      5  C4  UNL d   1       3.454   1.163  -2.961  0.00  0.00     0.162 A 
ATOM      6  C5  UNL d   1       3.431   2.407  -3.583  0.00  0.00     0.062 A 
ATOM      7  F   UNL d   1       4.577   2.971  -3.992  0.00  0.00    -0.097 F 
ATOM      8  F1  UNL d   1       4.633   0.549  -2.780  0.00  0.00    -0.096 F 
ATOM      9  I   UNL d   1       2.297  -1.292  -1.599  0.00  0.00    -0.060 I 
ATOM     10  F2  UNL d   1      -0.101   0.695  -2.336  0.00  0.00    -0.096 F 
ATOM     11  F3  UNL d   1      -0.124   3.115  -3.550  0.00  0.00    -0.097 F 
ATOM     12  F4  UNL d   1       2.206   4.263  -4.383  0.00  0.00    -0.092 F 
ENDROOT
TORSDOF 0
ENDMDL
