MODEL 1
REMARK minimizedAffinity 15.5574341
REMARK minimizedRMSD -1
REMARK  0 active torsions:
REMARK  status: ('A' for Active; 'I' for Inactive)
ROOT
ATOM      1  C   UNL d   1      -1.147   5.849   3.637  0.00  0.00     0.124 A 
ATOM      2  C1  UNL d   1      -1.766   5.851   2.394  0.00  0.00     0.062 A 
ATOM      3  C2  UNL d   1      -3.148   5.718   2.301  0.00  0.00     0.162 A 
ATOM      4  C3  UNL d   1      -3.922   5.583   3.453  0.00  0.00    -0.034 A 
ATOM      5  C4  UNL d   1      -3.292   5.581   4.699  0.00  0.00     0.162 A 
ATOM      6  C5  UNL d   1      -1.910   5.714   4.788  0.00  0.00     0.062 A 
ATOM      7  F   UNL d   1      -1.314   5.712   5.989  0.00  0.00    -0.097 F 
ATOM      8  F1  UNL d   1      -4.006   5.452   5.828  0.00  0.00    -0.096 F 
ATOM      9  I   UNL d   1      -5.989   5.383   3.317  0.00  0.00    -0.060 I 
ATOM     10  F2  UNL d   1      -3.720   5.724   1.087  0.00  0.00    -0.096 F 
ATOM     11  F3  UNL d   1      -1.031   5.981   1.281  0.00  0.00    -0.097 F 
ATOM     12  F4  UNL d   1       0.183   5.977   3.724  0.00  0.00    -0.092 F 
ENDROOT
TORSDOF 0
ENDMDL
