MODEL 1
REMARK minimizedAffinity 21.9295406
REMARK minimizedRMSD -1
REMARK  0 active torsions:
REMARK  status: ('A' for Active; 'I' for Inactive)
ROOT
ATOM      1  C   UNL d   1      -2.403   5.817   4.363  0.00  0.00     0.124 A 
ATOM      2  C1  UNL d   1      -1.983   5.626   3.054  0.00  0.00     0.062 A 
ATOM      3  C2  UNL d   1      -2.918   5.434   2.040  0.00  0.00     0.162 A 
ATOM      4  C3  UNL d   1      -4.282   5.433   2.332  0.00  0.00    -0.034 A 
ATOM      5  C4  UNL d   1      -4.696   5.624   3.651  0.00  0.00     0.162 A 
ATOM      6  C5  UNL d   1      -3.758   5.816   4.660  0.00  0.00     0.062 A 
ATOM      7  F   UNL d   1      -4.165   6.000   5.925  0.00  0.00    -0.097 F 
ATOM      8  F1  UNL d   1      -6.000   5.629   3.966  0.00  0.00    -0.096 F 
ATOM      9  I   UNL d   1      -5.682   5.146   0.819  0.00  0.00    -0.060 I 
ATOM     10  F2  UNL d   1      -2.484   5.252   0.784  0.00  0.00    -0.096 F 
ATOM     11  F3  UNL d   1      -0.674   5.625   2.764  0.00  0.00    -0.097 F 
ATOM     12  F4  UNL d   1      -1.501   6.000   5.336  0.00  0.00    -0.092 F 
ENDROOT
TORSDOF 0
ENDMDL
