MODEL 1
REMARK minimizedAffinity -2.32372379
REMARK minimizedRMSD -1
REMARK  0 active torsions:
REMARK  status: ('A' for Active; 'I' for Inactive)
ROOT
ATOM      1  C2' OXE d   1       3.233  -4.403  -0.191  0.00  0.00     0.078 C 
ATOM      2  C1' OXE d   1       4.292  -1.806  -0.072  0.00  0.00     0.078 C 
ATOM      3  C1  OXE d   1       2.806  -1.969   0.128  0.00  0.00    -0.078 A 
ATOM      4  C2  OXE d   1       2.290  -3.238   0.022  0.00  0.00    -0.078 A 
ATOM      5  C3  OXE d   1       0.934  -3.453   0.251  0.00  0.00     0.003 A 
ATOM      6  C4  OXE d   1       0.067  -2.369   0.438  0.00  0.00    -0.002 A 
ATOM      7  C5  OXE d   1       0.566  -1.064   0.510  0.00  0.00    -0.002 A 
ATOM      8  C6  OXE d   1       1.936  -0.852   0.400  0.00  0.00     0.003 A 
ENDROOT
TORSDOF 0
ENDMDL
