MODEL 1
REMARK minimizedAffinity 6.28498507
REMARK minimizedRMSD -1
REMARK  0 active torsions:
REMARK  status: ('A' for Active; 'I' for Inactive)
ROOT
ATOM      1  C2' OXE d   1       4.273   5.969   3.356  0.00  0.00     0.078 C 
ATOM      2  C1' OXE d   1       2.115   4.877   1.931  0.00  0.00     0.078 C 
ATOM      3  C1  OXE d   1       3.381   5.176   1.169  0.00  0.00    -0.078 A 
ATOM      4  C2  OXE d   1       4.416   5.754   1.865  0.00  0.00    -0.078 A 
ATOM      5  C3  OXE d   1       5.626   6.000   1.222  0.00  0.00     0.003 A 
ATOM      6  C4  OXE d   1       5.747   5.807  -0.160  0.00  0.00    -0.002 A 
ATOM      7  C5  OXE d   1       4.692   5.257  -0.895  0.00  0.00    -0.002 A 
ATOM      8  C6  OXE d   1       3.520   4.897  -0.239  0.00  0.00     0.003 A 
ENDROOT
TORSDOF 0
ENDMDL
