MODEL 1
REMARK minimizedAffinity 3.04032087
REMARK minimizedRMSD -1
REMARK  0 active torsions:
REMARK  status: ('A' for Active; 'I' for Inactive)
ROOT
ATOM      1  C2' OXE d   1      -1.522  -0.651   0.855  0.00  0.00     0.078 C 
ATOM      2  C1' OXE d   1       0.392  -1.278  -1.100  0.00  0.00     0.078 C 
ATOM      3  C1  OXE d   1       0.881  -1.003   0.300  0.00  0.00    -0.078 A 
ATOM      4  C2  OXE d   1      -0.058  -0.652   1.240  0.00  0.00    -0.078 A 
ATOM      5  C3  OXE d   1       0.332  -0.442   2.559  0.00  0.00     0.003 A 
ATOM      6  C4  OXE d   1       1.689  -0.434   2.905  0.00  0.00    -0.002 A 
ATOM      7  C5  OXE d   1       2.665  -0.751   1.954  0.00  0.00    -0.002 A 
ATOM      8  C6  OXE d   1       2.275  -1.079   0.660  0.00  0.00     0.003 A 
ENDROOT
TORSDOF 0
ENDMDL
