MODEL 1
REMARK minimizedAffinity -0.375002086
REMARK minimizedRMSD -1
REMARK  0 active torsions:
REMARK  status: ('A' for Active; 'I' for Inactive)
ROOT
ATOM      1  C2' OXE d   1       5.448   5.422  -1.527  0.00  0.00     0.078 C 
ATOM      2  C1' OXE d   1       2.702   6.000  -1.494  0.00  0.00     0.078 C 
ATOM      3  C1  OXE d   1       3.386   5.759  -0.171  0.00  0.00    -0.078 A 
ATOM      4  C2  OXE d   1       4.720   5.431  -0.200  0.00  0.00    -0.078 A 
ATOM      5  C3  OXE d   1       5.412   5.253   0.994  0.00  0.00     0.003 A 
ATOM      6  C4  OXE d   1       4.729   5.253   2.216  0.00  0.00    -0.002 A 
ATOM      7  C5  OXE d   1       3.362   5.546   2.265  0.00  0.00    -0.002 A 
ATOM      8  C6  OXE d   1       2.686   5.843   1.087  0.00  0.00     0.003 A 
ENDROOT
TORSDOF 0
ENDMDL
