MODEL 1
REMARK minimizedAffinity 0.35214895
REMARK minimizedRMSD -1
REMARK  0 active torsions:
REMARK  status: ('A' for Active; 'I' for Inactive)
ROOT
ATOM      1  C2' OXE d   1       1.503  -3.618  -0.798  0.00  0.00     0.078 C 
ATOM      2  C1' OXE d   1       3.289  -1.590  -0.035  0.00  0.00     0.078 C 
ATOM      3  C1  OXE d   1       1.832  -1.412   0.313  0.00  0.00    -0.078 A 
ATOM      4  C2  OXE d   1       0.959  -2.387  -0.106  0.00  0.00    -0.078 A 
ATOM      5  C3  OXE d   1      -0.388  -2.299   0.236  0.00  0.00     0.003 A 
ATOM      6  C4  OXE d   1      -0.885  -1.152   0.868  0.00  0.00    -0.002 A 
ATOM      7  C5  OXE d   1      -0.018  -0.129   1.268  0.00  0.00    -0.002 A 
ATOM      8  C6  OXE d   1       1.346  -0.263   1.036  0.00  0.00     0.003 A 
ENDROOT
TORSDOF 0
ENDMDL
