MODEL 1
REMARK minimizedAffinity 0.092928037
REMARK minimizedRMSD -1
REMARK  0 active torsions:
REMARK  status: ('A' for Active; 'I' for Inactive)
ROOT
ATOM      1  C2' OXE d   1       3.821  -1.359   0.129  0.00  0.00     0.078 C 
ATOM      2  C1' OXE d   1       3.099   0.474   2.128  0.00  0.00     0.078 C 
ATOM      3  C1  OXE d   1       2.006  -0.365   1.515  0.00  0.00    -0.078 A 
ATOM      4  C2  OXE d   1       2.361  -1.226   0.505  0.00  0.00    -0.078 A 
ATOM      5  C3  OXE d   1       1.402  -2.063  -0.057  0.00  0.00     0.003 A 
ATOM      6  C4  OXE d   1       0.052  -1.927   0.289  0.00  0.00    -0.002 A 
ATOM      7  C5  OXE d   1      -0.337  -1.028   1.288  0.00  0.00    -0.002 A 
ATOM      8  C6  OXE d   1       0.631  -0.272   1.939  0.00  0.00     0.003 A 
ENDROOT
TORSDOF 0
ENDMDL
