MODEL 1
REMARK minimizedAffinity -0.277536809
REMARK minimizedRMSD -1
REMARK  0 active torsions:
REMARK  status: ('A' for Active; 'I' for Inactive)
ROOT
ATOM      1  C2' OXE d   1       2.217   0.321   1.127  0.00  0.00     0.078 C 
ATOM      2  C1' OXE d   1       3.484  -1.988   0.156  0.00  0.00     0.078 C 
ATOM      3  C1  OXE d   1       1.978  -1.995   0.240  0.00  0.00    -0.078 A 
ATOM      4  C2  OXE d   1       1.369  -0.878   0.760  0.00  0.00    -0.078 A 
ATOM      5  C3  OXE d   1      -0.020  -0.811   0.809  0.00  0.00     0.003 A 
ATOM      6  C4  OXE d   1      -0.796  -1.928   0.477  0.00  0.00    -0.002 A 
ATOM      7  C5  OXE d   1      -0.194  -3.089  -0.018  0.00  0.00    -0.002 A 
ATOM      8  C6  OXE d   1       1.187  -3.124  -0.182  0.00  0.00     0.003 A 
ENDROOT
TORSDOF 0
ENDMDL
