MODEL 1
REMARK minimizedAffinity 3.74587083
REMARK minimizedRMSD -1
REMARK  0 active torsions:
REMARK  status: ('A' for Active; 'I' for Inactive)
ROOT
ATOM      1  C2' OXE d   1       4.124   3.153  -1.112  0.00  0.00     0.078 C 
ATOM      2  C1' OXE d   1       2.666   3.096   1.286  0.00  0.00     0.078 C 
ATOM      3  C1  OXE d   1       3.745   4.139   1.144  0.00  0.00    -0.078 A 
ATOM      4  C2  OXE d   1       4.485   4.130  -0.014  0.00  0.00    -0.078 A 
ATOM      5  C3  OXE d   1       5.456   5.106  -0.219  0.00  0.00     0.003 A 
ATOM      6  C4  OXE d   1       5.791   5.999   0.805  0.00  0.00    -0.002 A 
ATOM      7  C5  OXE d   1       5.077   6.000   2.008  0.00  0.00    -0.002 A 
ATOM      8  C6  OXE d   1       4.025   5.106   2.176  0.00  0.00     0.003 A 
ENDROOT
TORSDOF 0
ENDMDL
