MODEL 1
REMARK minimizedAffinity -4.65619898
REMARK minimizedRMSD -1
REMARK  0 active torsions:
REMARK  status: ('A' for Active; 'I' for Inactive)
ROOT
ATOM      1  C2' OXE d   1      -0.741  -3.258  -0.255  0.00  0.00     0.078 C 
ATOM      2  C1' OXE d   1       1.319  -1.577   0.647  0.00  0.00     0.078 C 
ATOM      3  C1  OXE d   1      -0.103  -1.116   0.847  0.00  0.00    -0.078 A 
ATOM      4  C2  OXE d   1      -1.103  -1.923   0.360  0.00  0.00    -0.078 A 
ATOM      5  C3  OXE d   1      -2.434  -1.572   0.566  0.00  0.00     0.003 A 
ATOM      6  C4  OXE d   1      -2.761  -0.331   1.127  0.00  0.00    -0.002 A 
ATOM      7  C5  OXE d   1      -1.757   0.524   1.593  0.00  0.00    -0.002 A 
ATOM      8  C6  OXE d   1      -0.427   0.128   1.499  0.00  0.00     0.003 A 
ENDROOT
TORSDOF 0
ENDMDL
