MODEL 1
REMARK minimizedAffinity 0.671150148
REMARK minimizedRMSD -1
REMARK  0 active torsions:
REMARK  status: ('A' for Active; 'I' for Inactive)
ROOT
ATOM      1  C2' OXE d   1       2.949  -3.778   0.246  0.00  0.00     0.078 C 
ATOM      2  C1' OXE d   1       0.408  -4.127  -0.896  0.00  0.00     0.078 C 
ATOM      3  C1  OXE d   1       0.664  -2.856  -0.125  0.00  0.00    -0.078 A 
ATOM      4  C2  OXE d   1       1.895  -2.715   0.469  0.00  0.00    -0.078 A 
ATOM      5  C3  OXE d   1       2.203  -1.538   1.146  0.00  0.00     0.003 A 
ATOM      6  C4  OXE d   1       1.219  -0.564   1.357  0.00  0.00    -0.002 A 
ATOM      7  C5  OXE d   1      -0.053  -0.706   0.794  0.00  0.00    -0.002 A 
ATOM      8  C6  OXE d   1      -0.333  -1.824   0.016  0.00  0.00     0.003 A 
ENDROOT
TORSDOF 0
ENDMDL
