MODEL 1
REMARK minimizedAffinity -3.26316094
REMARK minimizedRMSD -1
REMARK  0 active torsions:
REMARK  status: ('A' for Active; 'I' for Inactive)
ROOT
ATOM      1  C2' OXE d   1      -0.417  -3.453   0.464  0.00  0.00     0.078 C 
ATOM      2  C1' OXE d   1       0.016  -0.903   1.556  0.00  0.00     0.078 C 
ATOM      3  C1  OXE d   1       1.151  -1.547   0.799  0.00  0.00    -0.078 A 
ATOM      4  C2  OXE d   1       0.946  -2.814   0.309  0.00  0.00    -0.078 A 
ATOM      5  C3  OXE d   1       1.941  -3.431  -0.444  0.00  0.00     0.003 A 
ATOM      6  C4  OXE d   1       3.202  -2.838  -0.574  0.00  0.00    -0.002 A 
ATOM      7  C5  OXE d   1       3.445  -1.565  -0.048  0.00  0.00    -0.002 A 
ATOM      8  C6  OXE d   1       2.420  -0.889   0.603  0.00  0.00     0.003 A 
ENDROOT
TORSDOF 0
ENDMDL
