MODEL 1
REMARK minimizedAffinity -2.07012939
REMARK minimizedRMSD -1
REMARK  0 active torsions:
REMARK  status: ('A' for Active; 'I' for Inactive)
ROOT
ATOM      1  C2' OXE d   1       2.702  -3.400  -0.438  0.00  0.00     0.078 C 
ATOM      2  C1' OXE d   1       0.025  -4.113   0.018  0.00  0.00     0.078 C 
ATOM      3  C1  OXE d   1       0.450  -2.710   0.371  0.00  0.00    -0.078 A 
ATOM      4  C2  OXE d   1       1.772  -2.384   0.188  0.00  0.00    -0.078 A 
ATOM      5  C3  OXE d   1       2.204  -1.086   0.447  0.00  0.00     0.003 A 
ATOM      6  C4  OXE d   1       1.340  -0.155   1.036  0.00  0.00    -0.002 A 
ATOM      7  C5  OXE d   1      -0.001  -0.479   1.267  0.00  0.00    -0.002 A 
ATOM      8  C6  OXE d   1      -0.472  -1.735   0.902  0.00  0.00     0.003 A 
ENDROOT
TORSDOF 0
ENDMDL
