MODEL 1
REMARK minimizedAffinity 1.44855118
REMARK minimizedRMSD -1
REMARK  0 active torsions:
REMARK  status: ('A' for Active; 'I' for Inactive)
ROOT
ATOM      1  C2' OXE d   1       4.438   5.987  -1.845  0.00  0.00     0.078 C 
ATOM      2  C1' OXE d   1       1.968   5.968  -0.511  0.00  0.00     0.078 C 
ATOM      3  C1  OXE d   1       3.221   5.976   0.329  0.00  0.00    -0.078 A 
ATOM      4  C2  OXE d   1       4.425   5.938  -0.332  0.00  0.00    -0.078 A 
ATOM      5  C3  OXE d   1       5.612   5.999   0.393  0.00  0.00     0.003 A 
ATOM      6  C4  OXE d   1       5.591   5.942   1.792  0.00  0.00    -0.002 A 
ATOM      7  C5  OXE d   1       4.376   5.940   2.484  0.00  0.00    -0.002 A 
ATOM      8  C6  OXE d   1       3.184   6.000   1.770  0.00  0.00     0.003 A 
ENDROOT
TORSDOF 0
ENDMDL
