MODEL 1
REMARK minimizedAffinity 5.84895182
REMARK minimizedRMSD -1
REMARK  0 active torsions:
REMARK  status: ('A' for Active; 'I' for Inactive)
ROOT
ATOM      1  C2' OXE d   1       2.625   0.567  -4.029  0.00  0.00     0.078 C 
ATOM      2  C1' OXE d   1       1.751   3.167  -4.628  0.00  0.00     0.078 C 
ATOM      3  C1  OXE d   1       2.705   2.994  -3.472  0.00  0.00    -0.078 A 
ATOM      4  C2  OXE d   1       3.090   1.713  -3.157  0.00  0.00    -0.078 A 
ATOM      5  C3  OXE d   1       4.012   1.502  -2.135  0.00  0.00     0.003 A 
ATOM      6  C4  OXE d   1       4.430   2.566  -1.327  0.00  0.00    -0.002 A 
ATOM      7  C5  OXE d   1       4.018   3.874  -1.606  0.00  0.00    -0.002 A 
ATOM      8  C6  OXE d   1       3.191   4.110  -2.699  0.00  0.00     0.003 A 
ENDROOT
TORSDOF 0
ENDMDL
