MODEL 1
REMARK minimizedAffinity 5.58921337
REMARK minimizedRMSD -1
REMARK  0 active torsions:
REMARK  status: ('A' for Active; 'I' for Inactive)
ROOT
ATOM      1  C2' OXE d   1       1.715  -3.800   0.356  0.00  0.00     0.078 C 
ATOM      2  C1' OXE d   1       2.929  -1.272   0.234  0.00  0.00     0.078 C 
ATOM      3  C1  OXE d   1       1.501  -1.344   0.714  0.00  0.00    -0.078 A 
ATOM      4  C2  OXE d   1       0.900  -2.580   0.725  0.00  0.00    -0.078 A 
ATOM      5  C3  OXE d   1      -0.399  -2.710   1.210  0.00  0.00     0.003 A 
ATOM      6  C4  OXE d   1      -1.149  -1.576   1.540  0.00  0.00    -0.002 A 
ATOM      7  C5  OXE d   1      -0.569  -0.303   1.497  0.00  0.00    -0.002 A 
ATOM      8  C6  OXE d   1       0.765  -0.175   1.128  0.00  0.00     0.003 A 
ENDROOT
TORSDOF 0
ENDMDL
