MODEL 1
REMARK minimizedAffinity 1.7422756
REMARK minimizedRMSD -1
REMARK  0 active torsions:
REMARK  status: ('A' for Active; 'I' for Inactive)
ROOT
ATOM      1  C2' OXE d   1       1.533  -3.530  -0.618  0.00  0.00     0.078 C 
ATOM      2  C1' OXE d   1       2.856  -1.148   0.059  0.00  0.00     0.078 C 
ATOM      3  C1  OXE d   1       1.392  -1.264   0.406  0.00  0.00    -0.078 A 
ATOM      4  C2  OXE d   1       0.742  -2.414   0.029  0.00  0.00    -0.078 A 
ATOM      5  C3  OXE d   1      -0.595  -2.595   0.374  0.00  0.00     0.003 A 
ATOM      6  C4  OXE d   1      -1.322  -1.553   0.963  0.00  0.00    -0.002 A 
ATOM      7  C5  OXE d   1      -0.688  -0.358   1.319  0.00  0.00    -0.002 A 
ATOM      8  C6  OXE d   1       0.675  -0.214   1.087  0.00  0.00     0.003 A 
ENDROOT
TORSDOF 0
ENDMDL
