MODEL 1
REMARK minimizedAffinity 2.97109103
REMARK minimizedRMSD -1
REMARK  0 active torsions:
REMARK  status: ('A' for Active; 'I' for Inactive)
ROOT
ATOM      1  C2' OXE d   1      -0.910  -0.032   1.336  0.00  0.00     0.078 C 
ATOM      2  C1' OXE d   1       1.781   0.702   1.653  0.00  0.00     0.078 C 
ATOM      3  C1  OXE d   1       1.486  -0.634   1.019  0.00  0.00    -0.078 A 
ATOM      4  C2  OXE d   1       0.168  -1.006   0.910  0.00  0.00    -0.078 A 
ATOM      5  C3  OXE d   1      -0.161  -2.204   0.284  0.00  0.00     0.003 A 
ATOM      6  C4  OXE d   1       0.842  -3.103  -0.098  0.00  0.00    -0.002 A 
ATOM      7  C5  OXE d   1       2.191  -2.762   0.040  0.00  0.00    -0.002 A 
ATOM      8  C6  OXE d   1       2.530  -1.516   0.556  0.00  0.00     0.003 A 
ENDROOT
TORSDOF 0
ENDMDL
