MODEL 1
REMARK minimizedAffinity 0.422857434
REMARK minimizedRMSD -1
REMARK  1 active torsions:
REMARK  status: ('A' for Active; 'I' for Inactive)
REMARK    1  A    between atoms: C3_4  and  O_7 
ROOT
ATOM      1  C   UNL d   1       4.598  -5.617  -4.080  0.00  0.00    -0.033 A 
ATOM      2  C1  UNL d   1       3.517  -5.888  -3.239  0.00  0.00     0.039 A 
ATOM      3  C2  UNL d   1       2.229  -5.999  -3.769  0.00  0.00    -0.080 A 
ATOM      4  C3  UNL d   1       2.038  -5.839  -5.138  0.00  0.00     0.150 A 
ATOM      5  C4  UNL d   1       3.111  -5.572  -5.982  0.00  0.00    -0.007 A 
ATOM      6  C5  UNL d   1       4.395  -5.460  -5.451  0.00  0.00     0.039 A 
ENDROOT
BRANCH   4   7
ATOM      7  O   UNL d   1       0.799  -5.934  -5.700  0.00  0.00    -0.526 OA
ATOM      8  H5  UNL d   1       0.152  -6.092  -4.993  0.00  0.00     0.418 HD
ENDBRANCH   4   7
TORSDOF 1
ENDMDL
