MODEL 1
REMARK minimizedAffinity -1.82595909
REMARK minimizedRMSD -1
REMARK  1 active torsions:
REMARK  status: ('A' for Active; 'I' for Inactive)
REMARK    1  A    between atoms: C3_4  and  O_7 
ROOT
ATOM      1  C   UNL d   1       3.418  -5.998  -5.999  0.00  0.00    -0.033 A 
ATOM      2  C1  UNL d   1       2.452  -5.999  -4.991  0.00  0.00     0.039 A 
ATOM      3  C2  UNL d   1       2.840  -5.996  -3.650  0.00  0.00    -0.080 A 
ATOM      4  C3  UNL d   1       4.195  -5.991  -3.331  0.00  0.00     0.150 A 
ATOM      5  C4  UNL d   1       5.163  -5.986  -4.330  0.00  0.00    -0.007 A 
ATOM      6  C5  UNL d   1       4.773  -5.990  -5.669  0.00  0.00     0.039 A 
ENDROOT
BRANCH   4   7
ATOM      7  O   UNL d   1       4.622  -5.993  -2.036  0.00  0.00    -0.526 OA
ATOM      8  H5  UNL d   1       3.844  -6.026  -1.455  0.00  0.00     0.418 HD
ENDBRANCH   4   7
TORSDOF 1
ENDMDL
