MODEL 1
REMARK minimizedAffinity 1.57865763
REMARK minimizedRMSD -1
REMARK  1 active torsions:
REMARK  status: ('A' for Active; 'I' for Inactive)
REMARK    1  A    between atoms: C3_4  and  O_7 
ROOT
ATOM      1  C   UNL d   1       1.921  -5.971   1.020  0.00  0.00    -0.033 A 
ATOM      2  C1  UNL d   1       1.169  -5.989  -0.156  0.00  0.00     0.039 A 
ATOM      3  C2  UNL d   1       1.809  -5.997  -1.397  0.00  0.00    -0.080 A 
ATOM      4  C3  UNL d   1       3.201  -5.988  -1.447  0.00  0.00     0.150 A 
ATOM      5  C4  UNL d   1       3.957  -5.973  -0.280  0.00  0.00    -0.007 A 
ATOM      6  C5  UNL d   1       3.315  -5.964   0.958  0.00  0.00     0.039 A 
ENDROOT
BRANCH   4   7
ATOM      7  O   UNL d   1       3.870  -5.990  -2.635  0.00  0.00    -0.526 OA
ATOM      8  H5  UNL d   1       3.219  -5.971  -3.356  0.00  0.00     0.418 HD
ENDBRANCH   4   7
TORSDOF 1
ENDMDL
