MODEL 1
REMARK minimizedAffinity -0.466731817
REMARK minimizedRMSD -1
REMARK  1 active torsions:
REMARK  status: ('A' for Active; 'I' for Inactive)
REMARK    1  A    between atoms: C3_4  and  O_7 
ROOT
ATOM      1  C   UNL d   1       1.853  -5.952  -4.788  0.00  0.00    -0.033 A 
ATOM      2  C1  UNL d   1       2.546  -5.845  -3.581  0.00  0.00     0.039 A 
ATOM      3  C2  UNL d   1       3.940  -5.763  -3.578  0.00  0.00    -0.080 A 
ATOM      4  C3  UNL d   1       4.628  -5.788  -4.788  0.00  0.00     0.150 A 
ATOM      5  C4  UNL d   1       3.944  -5.891  -5.995  0.00  0.00    -0.007 A 
ATOM      6  C5  UNL d   1       2.552  -5.973  -5.995  0.00  0.00     0.039 A 
ENDROOT
BRANCH   4   7
ATOM      7  O   UNL d   1       5.988  -5.716  -4.835  0.00  0.00    -0.526 OA
ATOM      8  H5  UNL d   1       6.326  -5.677  -3.925  0.00  0.00     0.418 HD
ENDBRANCH   4   7
TORSDOF 1
ENDMDL
