MODEL 1
REMARK minimizedAffinity 5.77493238
REMARK minimizedRMSD -1
REMARK  1 active torsions:
REMARK  status: ('A' for Active; 'I' for Inactive)
REMARK    1  A    between atoms: C3_4  and  O_7 
ROOT
ATOM      1  C   UNL d   1      -6.000   3.736   0.363  0.00  0.00    -0.033 A 
ATOM      2  C1  UNL d   1      -5.196   3.336  -0.707  0.00  0.00     0.039 A 
ATOM      3  C2  UNL d   1      -3.882   2.923  -0.479  0.00  0.00    -0.080 A 
ATOM      4  C3  UNL d   1      -3.385   2.914   0.821  0.00  0.00     0.150 A 
ATOM      5  C4  UNL d   1      -4.181   3.307   1.892  0.00  0.00    -0.007 A 
ATOM      6  C5  UNL d   1      -5.493   3.720   1.662  0.00  0.00     0.039 A 
ENDROOT
BRANCH   4   7
ATOM      7  O   UNL d   1      -2.107   2.523   1.093  0.00  0.00    -0.526 OA
ATOM      8  H5  UNL d   1      -1.667   2.307   0.254  0.00  0.00     0.418 HD
ENDBRANCH   4   7
TORSDOF 1
ENDMDL
