MODEL 1
REMARK minimizedAffinity -0.160143718
REMARK minimizedRMSD -1
REMARK  1 active torsions:
REMARK  status: ('A' for Active; 'I' for Inactive)
REMARK    1  A    between atoms: C3_4  and  O_7 
ROOT
ATOM      1  C   UNL d   1       4.588  -5.996  -2.360  0.00  0.00    -0.033 A 
ATOM      2  C1  UNL d   1       5.006  -5.995  -3.692  0.00  0.00     0.039 A 
ATOM      3  C2  UNL d   1       4.062  -5.995  -4.721  0.00  0.00    -0.080 A 
ATOM      4  C3  UNL d   1       2.706  -5.995  -4.405  0.00  0.00     0.150 A 
ATOM      5  C4  UNL d   1       2.284  -5.992  -3.080  0.00  0.00    -0.007 A 
ATOM      6  C5  UNL d   1       3.227  -5.993  -2.054  0.00  0.00     0.039 A 
ENDROOT
BRANCH   4   7
ATOM      7  O   UNL d   1       1.748  -5.999  -5.375  0.00  0.00    -0.526 OA
ATOM      8  H5  UNL d   1       2.188  -6.030  -6.241  0.00  0.00     0.418 HD
ENDBRANCH   4   7
TORSDOF 1
ENDMDL
