MODEL 1
REMARK minimizedAffinity 3.46740294
REMARK minimizedRMSD -1
REMARK  1 active torsions:
REMARK  status: ('A' for Active; 'I' for Inactive)
REMARK    1  A    between atoms: C3_4  and  O_7 
ROOT
ATOM      1  C   UNL d   1       1.278  -3.319   3.236  0.00  0.00    -0.033 A 
ATOM      2  C1  UNL d   1       1.884  -2.081   3.015  0.00  0.00     0.039 A 
ATOM      3  C2  UNL d   1       3.194  -1.857   3.442  0.00  0.00    -0.080 A 
ATOM      4  C3  UNL d   1       3.886  -2.878   4.088  0.00  0.00     0.150 A 
ATOM      5  C4  UNL d   1       3.290  -4.115   4.307  0.00  0.00    -0.007 A 
ATOM      6  C5  UNL d   1       1.981  -4.336   3.881  0.00  0.00     0.039 A 
ENDROOT
BRANCH   4   7
ATOM      7  O   UNL d   1       5.165  -2.705   4.527  0.00  0.00    -0.526 OA
ATOM      8  H5  UNL d   1       5.437  -1.792   4.332  0.00  0.00     0.418 HD
ENDBRANCH   4   7
TORSDOF 1
ENDMDL
