MODEL 1
REMARK minimizedAffinity -4.49705744
REMARK minimizedRMSD -1
REMARK  1 active torsions:
REMARK  status: ('A' for Active; 'I' for Inactive)
REMARK    1  A    between atoms: C3_4  and  O_7 
ROOT
ATOM      1  C   UNL d   1       0.615   0.193  -0.375  0.00  0.00    -0.033 A 
ATOM      2  C1  UNL d   1      -0.700  -0.243  -0.203  0.00  0.00     0.039 A 
ATOM      3  C2  UNL d   1      -1.114  -0.748   1.032  0.00  0.00    -0.080 A 
ATOM      4  C3  UNL d   1      -0.205  -0.810   2.084  0.00  0.00     0.150 A 
ATOM      5  C4  UNL d   1       1.106  -0.373   1.920  0.00  0.00    -0.007 A 
ATOM      6  C5  UNL d   1       1.517   0.130   0.687  0.00  0.00     0.039 A 
ENDROOT
BRANCH   4   7
ATOM      7  O   UNL d   1      -0.561  -1.299   3.306  0.00  0.00    -0.526 OA
ATOM      8  H5  UNL d   1      -1.487  -1.589   3.262  0.00  0.00     0.418 HD
ENDBRANCH   4   7
TORSDOF 1
ENDMDL
