MODEL 1
REMARK minimizedAffinity -2.12501812
REMARK minimizedRMSD -1
REMARK  1 active torsions:
REMARK  status: ('A' for Active; 'I' for Inactive)
REMARK    1  A    between atoms: C3_4  and  O_7 
ROOT
ATOM      1  C   UNL d   1      -0.368   0.802  -0.719  0.00  0.00    -0.033 A 
ATOM      2  C1  UNL d   1       0.941   0.686  -0.248  0.00  0.00     0.039 A 
ATOM      3  C2  UNL d   1       1.179   0.433   1.104  0.00  0.00    -0.080 A 
ATOM      4  C3  UNL d   1       0.100   0.296   1.974  0.00  0.00     0.150 A 
ATOM      5  C4  UNL d   1      -1.207   0.407   1.511  0.00  0.00    -0.007 A 
ATOM      6  C5  UNL d   1      -1.442   0.661   0.160  0.00  0.00     0.039 A 
ENDROOT
BRANCH   4   7
ATOM      7  O   UNL d   1       0.282   0.053   3.303  0.00  0.00    -0.526 OA
ATOM      8  H5  UNL d   1       1.237   0.030   3.483  0.00  0.00     0.418 HD
ENDBRANCH   4   7
TORSDOF 1
ENDMDL
