MODEL 1
REMARK minimizedAffinity -4.98604536
REMARK minimizedRMSD -1
REMARK  1 active torsions:
REMARK  status: ('A' for Active; 'I' for Inactive)
REMARK    1  A    between atoms: C3_4  and  O_7 
ROOT
ATOM      1  C   UNL d   1       0.898  -0.068   0.210  0.00  0.00    -0.033 A 
ATOM      2  C1  UNL d   1       0.783   0.889   1.220  0.00  0.00     0.039 A 
ATOM      3  C2  UNL d   1       0.242   0.537   2.458  0.00  0.00    -0.080 A 
ATOM      4  C3  UNL d   1      -0.179  -0.773   2.673  0.00  0.00     0.150 A 
ATOM      5  C4  UNL d   1      -0.064  -1.732   1.672  0.00  0.00    -0.007 A 
ATOM      6  C5  UNL d   1       0.476  -1.378   0.436  0.00  0.00     0.039 A 
ENDROOT
BRANCH   4   7
ATOM      7  O   UNL d   1      -0.718  -1.162   3.863  0.00  0.00    -0.526 OA
ATOM      8  H5  UNL d   1      -0.762  -0.388   4.449  0.00  0.00     0.418 HD
ENDBRANCH   4   7
TORSDOF 1
ENDMDL
