MODEL 1
REMARK minimizedAffinity -3.79209542
REMARK minimizedRMSD -1
REMARK  1 active torsions:
REMARK  status: ('A' for Active; 'I' for Inactive)
REMARK    1  A    between atoms: C3_4  and  O_7 
ROOT
ATOM      1  C   UNL d   1       0.749   0.119  -0.041  0.00  0.00    -0.033 A 
ATOM      2  C1  UNL d   1      -0.552  -0.312   0.227  0.00  0.00     0.039 A 
ATOM      3  C2  UNL d   1      -0.909  -0.696   1.521  0.00  0.00    -0.080 A 
ATOM      4  C3  UNL d   1       0.042  -0.644   2.536  0.00  0.00     0.150 A 
ATOM      5  C4  UNL d   1       1.339  -0.211   2.277  0.00  0.00    -0.007 A 
ATOM      6  C5  UNL d   1       1.694   0.171   0.984  0.00  0.00     0.039 A 
ENDROOT
BRANCH   4   7
ATOM      7  O   UNL d   1      -0.258  -1.013   3.814  0.00  0.00    -0.526 OA
ATOM      8  H5  UNL d   1      -1.181  -1.317   3.837  0.00  0.00     0.418 HD
ENDBRANCH   4   7
TORSDOF 1
ENDMDL
