MODEL 1
REMARK minimizedAffinity -4.77321672
REMARK minimizedRMSD -1
REMARK  1 active torsions:
REMARK  status: ('A' for Active; 'I' for Inactive)
REMARK    1  A    between atoms: C3_4  and  O_7 
ROOT
ATOM      1  C   UNL d   1      -0.044  -0.342   2.657  0.00  0.00    -0.033 A 
ATOM      2  C1  UNL d   1      -1.234  -0.049   1.989  0.00  0.00     0.039 A 
ATOM      3  C2  UNL d   1      -1.227   0.172   0.611  0.00  0.00    -0.080 A 
ATOM      4  C3  UNL d   1      -0.024   0.097  -0.087  0.00  0.00     0.150 A 
ATOM      5  C4  UNL d   1       1.165  -0.199   0.572  0.00  0.00    -0.007 A 
ATOM      6  C5  UNL d   1       1.156  -0.418   1.948  0.00  0.00     0.039 A 
ENDROOT
BRANCH   4   7
ATOM      7  O   UNL d   1       0.033   0.309  -1.432  0.00  0.00    -0.526 OA
ATOM      8  H5  UNL d   1      -0.859   0.531  -1.747  0.00  0.00     0.418 HD
ENDBRANCH   4   7
TORSDOF 1
ENDMDL
