MODEL 1
REMARK minimizedAffinity -4.41631222
REMARK minimizedRMSD -1
REMARK  1 active torsions:
REMARK  status: ('A' for Active; 'I' for Inactive)
REMARK    1  A    between atoms: C3_4  and  O_7 
ROOT
ATOM      1  C   UNL d   1       0.238  -0.070   3.205  0.00  0.00    -0.033 A 
ATOM      2  C1  UNL d   1       0.358  -0.013   1.815  0.00  0.00     0.039 A 
ATOM      3  C2  UNL d   1      -0.786   0.051   1.016  0.00  0.00    -0.080 A 
ATOM      4  C3  UNL d   1      -2.041   0.058   1.618  0.00  0.00     0.150 A 
ATOM      5  C4  UNL d   1      -2.167   0.004   3.003  0.00  0.00    -0.007 A 
ATOM      6  C5  UNL d   1      -1.024  -0.060   3.799  0.00  0.00     0.039 A 
ENDROOT
BRANCH   4   7
ATOM      7  O   UNL d   1      -3.185   0.114   0.880  0.00  0.00    -0.526 OA
ATOM      8  H5  UNL d   1      -2.945   0.118  -0.061  0.00  0.00     0.418 HD
ENDBRANCH   4   7
TORSDOF 1
ENDMDL
