MODEL 1
REMARK minimizedAffinity -2.22379446
REMARK minimizedRMSD -1
REMARK  1 active torsions:
REMARK  status: ('A' for Active; 'I' for Inactive)
REMARK    1  A    between atoms: C3_4  and  O_7 
ROOT
ATOM      1  C   UNL d   1       0.038  -0.130   2.164  0.00  0.00    -0.033 A 
ATOM      2  C1  UNL d   1      -0.998  -0.636   1.376  0.00  0.00     0.039 A 
ATOM      3  C2  UNL d   1      -1.032  -0.366   0.007  0.00  0.00    -0.080 A 
ATOM      4  C3  UNL d   1      -0.026   0.410  -0.562  0.00  0.00     0.150 A 
ATOM      5  C4  UNL d   1       1.011   0.914   0.216  0.00  0.00    -0.007 A 
ATOM      6  C5  UNL d   1       1.044   0.644   1.583  0.00  0.00     0.039 A 
ENDROOT
BRANCH   4   7
ATOM      7  O   UNL d   1      -0.020   0.704  -1.893  0.00  0.00    -0.526 OA
ATOM      8  H5  UNL d   1      -0.812   0.313  -2.298  0.00  0.00     0.418 HD
ENDBRANCH   4   7
TORSDOF 1
ENDMDL
