MODEL 1
REMARK minimizedAffinity -0.675287843
REMARK minimizedRMSD -1
REMARK  1 active torsions:
REMARK  status: ('A' for Active; 'I' for Inactive)
REMARK    1  A    between atoms: C3_4  and  O_7 
ROOT
ATOM      1  C   UNL d   1      -0.672   0.377  -1.336  0.00  0.00    -0.033 A 
ATOM      2  C1  UNL d   1       0.410  -0.083  -0.583  0.00  0.00     0.039 A 
ATOM      3  C2  UNL d   1       0.192  -0.716   0.642  0.00  0.00    -0.080 A 
ATOM      4  C3  UNL d   1      -1.111  -0.883   1.102  0.00  0.00     0.150 A 
ATOM      5  C4  UNL d   1      -2.194  -0.431   0.355  0.00  0.00    -0.007 A 
ATOM      6  C5  UNL d   1      -1.974   0.201  -0.867  0.00  0.00     0.039 A 
ENDROOT
BRANCH   4   7
ATOM      7  O   UNL d   1      -1.374  -1.491   2.294  0.00  0.00    -0.526 OA
ATOM      8  H5  UNL d   1      -0.529  -1.725   2.713  0.00  0.00     0.418 HD
ENDBRANCH   4   7
TORSDOF 1
ENDMDL
