MODEL 1
REMARK minimizedAffinity -5.01430655
REMARK minimizedRMSD -1
REMARK  1 active torsions:
REMARK  status: ('A' for Active; 'I' for Inactive)
REMARK    1  A    between atoms: C3_4  and  O_7 
ROOT
ATOM      1  C   UNL d   1       0.595   0.753  -0.192  0.00  0.00    -0.033 A 
ATOM      2  C1  UNL d   1       1.169   0.854   1.077  0.00  0.00     0.039 A 
ATOM      3  C2  UNL d   1       0.495   0.353   2.192  0.00  0.00    -0.080 A 
ATOM      4  C3  UNL d   1      -0.751  -0.246   2.025  0.00  0.00     0.150 A 
ATOM      5  C4  UNL d   1      -1.327  -0.353   0.764  0.00  0.00    -0.007 A 
ATOM      6  C5  UNL d   1      -0.653   0.149  -0.349  0.00  0.00     0.039 A 
ENDROOT
BRANCH   4   7
ATOM      7  O   UNL d   1      -1.449  -0.746   3.084  0.00  0.00    -0.526 OA
ATOM      8  H5  UNL d   1      -0.941  -0.576   3.895  0.00  0.00     0.418 HD
ENDBRANCH   4   7
TORSDOF 1
ENDMDL
