MODEL 1
REMARK minimizedAffinity -3.92794943
REMARK minimizedRMSD -1
REMARK  1 active torsions:
REMARK  status: ('A' for Active; 'I' for Inactive)
REMARK    1  A    between atoms: C3_4  and  O_7 
ROOT
ATOM      1  C   UNL d   1       0.130   0.101  -0.450  0.00  0.00    -0.033 A 
ATOM      2  C1  UNL d   1      -1.111  -0.042   0.174  0.00  0.00     0.039 A 
ATOM      3  C2  UNL d   1      -1.179  -0.373   1.529  0.00  0.00    -0.080 A 
ATOM      4  C3  UNL d   1      -0.001  -0.558   2.247  0.00  0.00     0.150 A 
ATOM      5  C4  UNL d   1       1.239  -0.413   1.633  0.00  0.00    -0.007 A 
ATOM      6  C5  UNL d   1       1.305  -0.084   0.280  0.00  0.00     0.039 A 
ENDROOT
BRANCH   4   7
ATOM      7  O   UNL d   1      -0.017  -0.886   3.570  0.00  0.00    -0.526 OA
ATOM      8  H5  UNL d   1      -0.943  -0.980   3.853  0.00  0.00     0.418 HD
ENDBRANCH   4   7
TORSDOF 1
ENDMDL
