MODEL 1
REMARK minimizedAffinity -2.82652187
REMARK minimizedRMSD -1
REMARK  1 active torsions:
REMARK  status: ('A' for Active; 'I' for Inactive)
REMARK    1  A    between atoms: C3_4  and  O_7 
ROOT
ATOM      1  C   UNL d   1       1.210   0.817  -0.658  0.00  0.00    -0.033 A 
ATOM      2  C1  UNL d   1       1.257   0.403   0.674  0.00  0.00     0.039 A 
ATOM      3  C2  UNL d   1       0.116  -0.122   1.285  0.00  0.00    -0.080 A 
ATOM      4  C3  UNL d   1      -1.063  -0.228   0.552  0.00  0.00     0.150 A 
ATOM      5  C4  UNL d   1      -1.116   0.179  -0.777  0.00  0.00    -0.007 A 
ATOM      6  C5  UNL d   1       0.024   0.703  -1.384  0.00  0.00     0.039 A 
ENDROOT
BRANCH   4   7
ATOM      7  O   UNL d   1      -2.204  -0.729   1.106  0.00  0.00    -0.526 OA
ATOM      8  H5  UNL d   1      -2.026  -0.941   2.037  0.00  0.00     0.418 HD
ENDBRANCH   4   7
TORSDOF 1
ENDMDL
