MODEL 1
REMARK minimizedAffinity -3.9035387
REMARK minimizedRMSD -1
REMARK  1 active torsions:
REMARK  status: ('A' for Active; 'I' for Inactive)
REMARK    1  A    between atoms: C3_4  and  O_7 
ROOT
ATOM      1  C   UNL d   1      -0.941  -0.872   2.741  0.00  0.00    -0.033 A 
ATOM      2  C1  UNL d   1       0.355  -0.384   2.562  0.00  0.00     0.039 A 
ATOM      3  C2  UNL d   1       0.757   0.093   1.313  0.00  0.00    -0.080 A 
ATOM      4  C3  UNL d   1      -0.145   0.078   0.253  0.00  0.00     0.150 A 
ATOM      5  C4  UNL d   1      -1.439  -0.403   0.425  0.00  0.00    -0.007 A 
ATOM      6  C5  UNL d   1      -1.839  -0.880   1.672  0.00  0.00     0.039 A 
ENDROOT
BRANCH   4   7
ATOM      7  O   UNL d   1       0.203   0.529  -0.985  0.00  0.00    -0.526 OA
ATOM      8  H5  UNL d   1       1.135   0.803  -0.962  0.00  0.00     0.418 HD
ENDBRANCH   4   7
TORSDOF 1
ENDMDL
