MODEL 1
REMARK minimizedAffinity -3.46045732
REMARK minimizedRMSD -1
REMARK  1 active torsions:
REMARK  status: ('A' for Active; 'I' for Inactive)
REMARK    1  A    between atoms: C3_4  and  O_7 
ROOT
ATOM      1  C   UNL d   1       0.002   0.271  -0.485  0.00  0.00    -0.033 A 
ATOM      2  C1  UNL d   1      -1.260  -0.202  -0.120  0.00  0.00     0.039 A 
ATOM      3  C2  UNL d   1      -1.520  -0.547   1.208  0.00  0.00    -0.080 A 
ATOM      4  C3  UNL d   1      -0.513  -0.414   2.159  0.00  0.00     0.150 A 
ATOM      5  C4  UNL d   1       0.746   0.060   1.803  0.00  0.00    -0.007 A 
ATOM      6  C5  UNL d   1       1.005   0.403   0.477  0.00  0.00     0.039 A 
ENDROOT
BRANCH   4   7
ATOM      7  O   UNL d   1      -0.719  -0.742   3.466  0.00  0.00    -0.526 OA
ATOM      8  H5  UNL d   1      -1.624  -1.082   3.559  0.00  0.00     0.418 HD
ENDBRANCH   4   7
TORSDOF 1
ENDMDL
