MODEL 1
REMARK minimizedAffinity 3.54277182
REMARK minimizedRMSD -1
REMARK  0 active torsions:
REMARK  status: ('A' for Active; 'I' for Inactive)
ROOT
ATOM      1  C   UNL d   1       3.515   5.648   3.696  0.00  0.00     0.077 C 
ATOM      2  C1  UNL d   1       4.038   4.574   2.788  0.00  0.00    -0.074 A 
ATOM      3  C2  UNL d   1       4.214   3.266   3.250  0.00  0.00    -0.005 A 
ATOM      4  C3  UNL d   1       4.693   2.276   2.391  0.00  0.00     0.006 A 
ATOM      5  C4  UNL d   1       4.999   2.584   1.065  0.00  0.00    -0.005 A 
ATOM      6  C5  UNL d   1       4.828   3.886   0.585  0.00  0.00    -0.074 A 
ATOM      7  C6  UNL d   1       5.142   4.232  -0.840  0.00  0.00     0.077 C 
ATOM      8  C7  UNL d   1       4.340   4.874   1.452  0.00  0.00    -0.001 A 
ENDROOT
TORSDOF 0
ENDMDL
