MODEL 1
REMARK minimizedAffinity -1.00924039
REMARK minimizedRMSD -1
REMARK  0 active torsions:
REMARK  status: ('A' for Active; 'I' for Inactive)
ROOT
ATOM      1  C   UNL d   1      -1.050  -4.173  -1.532  0.00  0.00     0.077 C 
ATOM      2  C1  UNL d   1      -1.834  -2.942  -1.186  0.00  0.00    -0.074 A 
ATOM      3  C2  UNL d   1      -2.577  -2.267  -2.159  0.00  0.00    -0.005 A 
ATOM      4  C3  UNL d   1      -3.309  -1.129  -1.821  0.00  0.00     0.006 A 
ATOM      5  C4  UNL d   1      -3.306  -0.656  -0.508  0.00  0.00    -0.005 A 
ATOM      6  C5  UNL d   1      -2.569  -1.319   0.479  0.00  0.00    -0.074 A 
ATOM      7  C6  UNL d   1      -2.563  -0.829   1.896  0.00  0.00     0.077 C 
ATOM      8  C7  UNL d   1      -1.842  -2.466   0.132  0.00  0.00    -0.001 A 
ENDROOT
TORSDOF 0
ENDMDL
