MODEL 1
REMARK minimizedAffinity -4.22540188
REMARK minimizedRMSD -1
REMARK  0 active torsions:
REMARK  status: ('A' for Active; 'I' for Inactive)
ROOT
ATOM      1  C   UNL d   1      -3.604  -5.497  -0.435  0.00  0.00     0.077 C 
ATOM      2  C1  UNL d   1      -2.538  -4.466  -0.207  0.00  0.00    -0.074 A 
ATOM      3  C2  UNL d   1      -1.248  -4.642  -0.718  0.00  0.00    -0.005 A 
ATOM      4  C3  UNL d   1      -0.270  -3.670  -0.506  0.00  0.00     0.006 A 
ATOM      5  C4  UNL d   1      -0.572  -2.515   0.217  0.00  0.00    -0.005 A 
ATOM      6  C5  UNL d   1      -1.857  -2.322   0.734  0.00  0.00    -0.074 A 
ATOM      7  C6  UNL d   1      -2.200  -1.082   1.505  0.00  0.00     0.077 C 
ATOM      8  C7  UNL d   1      -2.836  -3.300   0.511  0.00  0.00    -0.001 A 
ENDROOT
TORSDOF 0
ENDMDL
