MODEL 1
REMARK minimizedAffinity -1.22907913
REMARK minimizedRMSD -1
REMARK  0 active torsions:
REMARK  status: ('A' for Active; 'I' for Inactive)
ROOT
ATOM      1  C   UNL d   1      -3.883  -5.320  -1.379  0.00  0.00     0.077 C 
ATOM      2  C1  UNL d   1      -2.414  -5.044  -1.254  0.00  0.00    -0.074 A 
ATOM      3  C2  UNL d   1      -1.467  -5.999  -1.638  0.00  0.00    -0.005 A 
ATOM      4  C3  UNL d   1      -0.105  -5.723  -1.525  0.00  0.00     0.006 A 
ATOM      5  C4  UNL d   1       0.325  -4.493  -1.026  0.00  0.00    -0.005 A 
ATOM      6  C5  UNL d   1      -0.608  -3.525  -0.638  0.00  0.00    -0.074 A 
ATOM      7  C6  UNL d   1      -0.163  -2.194  -0.109  0.00  0.00     0.077 C 
ATOM      8  C7  UNL d   1      -1.975  -3.807  -0.762  0.00  0.00    -0.001 A 
ENDROOT
TORSDOF 0
ENDMDL
