MODEL 1
REMARK minimizedAffinity 1.84803712
REMARK minimizedRMSD -1
REMARK  0 active torsions:
REMARK  status: ('A' for Active; 'I' for Inactive)
ROOT
ATOM      1  C   UNL d   1       1.505   0.726   0.372  0.00  0.00     0.077 C 
ATOM      2  C1  UNL d   1       2.398   1.469   1.320  0.00  0.00    -0.074 A 
ATOM      3  C2  UNL d   1       3.763   1.175   1.402  0.00  0.00    -0.005 A 
ATOM      4  C3  UNL d   1       4.583   1.880   2.282  0.00  0.00     0.006 A 
ATOM      5  C4  UNL d   1       4.048   2.885   3.088  0.00  0.00    -0.005 A 
ATOM      6  C5  UNL d   1       2.686   3.194   3.020  0.00  0.00    -0.074 A 
ATOM      7  C6  UNL d   1       2.096   4.278   3.873  0.00  0.00     0.077 C 
ATOM      8  C7  UNL d   1       1.869   2.486   2.128  0.00  0.00    -0.001 A 
ENDROOT
TORSDOF 0
ENDMDL
