MODEL 1
REMARK minimizedAffinity 5.21666193
REMARK minimizedRMSD -1
REMARK  0 active torsions:
REMARK  status: ('A' for Active; 'I' for Inactive)
ROOT
ATOM      1  C   UNL d   1       2.293   0.567   0.634  0.00  0.00     0.077 C 
ATOM      2  C1  UNL d   1       2.605   1.837   1.369  0.00  0.00    -0.074 A 
ATOM      3  C2  UNL d   1       3.915   2.318   1.449  0.00  0.00    -0.005 A 
ATOM      4  C3  UNL d   1       4.188   3.506   2.128  0.00  0.00     0.006 A 
ATOM      5  C4  UNL d   1       3.155   4.222   2.733  0.00  0.00    -0.005 A 
ATOM      6  C5  UNL d   1       1.838   3.757   2.663  0.00  0.00    -0.074 A 
ATOM      7  C6  UNL d   1       0.715   4.520   3.300  0.00  0.00     0.077 C 
ATOM      8  C7  UNL d   1       1.571   2.566   1.973  0.00  0.00    -0.001 A 
ENDROOT
TORSDOF 0
ENDMDL
