MODEL 1
REMARK minimizedAffinity 9.09026051
REMARK minimizedRMSD -1
REMARK  0 active torsions:
REMARK  status: ('A' for Active; 'I' for Inactive)
ROOT
ATOM      1  C   UNL d   1       5.795   1.972   3.351  0.00  0.00     0.077 C 
ATOM      2  C1  UNL d   1       4.513   2.507   2.786  0.00  0.00    -0.074 A 
ATOM      3  C2  UNL d   1       4.104   3.818   3.046  0.00  0.00    -0.005 A 
ATOM      4  C3  UNL d   1       2.913   4.304   2.506  0.00  0.00     0.006 A 
ATOM      5  C4  UNL d   1       2.121   3.485   1.701  0.00  0.00    -0.005 A 
ATOM      6  C5  UNL d   1       2.514   2.171   1.429  0.00  0.00    -0.074 A 
ATOM      7  C6  UNL d   1       1.679   1.280   0.558  0.00  0.00     0.077 C 
ATOM      8  C7  UNL d   1       3.715   1.692   1.970  0.00  0.00    -0.001 A 
ENDROOT
TORSDOF 0
ENDMDL
