MODEL 1
REMARK minimizedAffinity 6.34699726
REMARK minimizedRMSD -1
REMARK  0 active torsions:
REMARK  status: ('A' for Active; 'I' for Inactive)
ROOT
ATOM      1  C   UNL d   1       1.329   0.721   1.137  0.00  0.00     0.077 C 
ATOM      2  C1  UNL d   1       1.714  -0.654   0.677  0.00  0.00    -0.074 A 
ATOM      3  C2  UNL d   1       3.054  -0.991   0.461  0.00  0.00    -0.005 A 
ATOM      4  C3  UNL d   1       3.398  -2.276   0.042  0.00  0.00     0.006 A 
ATOM      5  C4  UNL d   1       2.406  -3.236  -0.165  0.00  0.00    -0.005 A 
ATOM      6  C5  UNL d   1       1.061  -2.918   0.045  0.00  0.00    -0.074 A 
ATOM      7  C6  UNL d   1      -0.016  -3.940  -0.164  0.00  0.00     0.077 C 
ATOM      8  C7  UNL d   1       0.724  -1.626   0.473  0.00  0.00    -0.001 A 
ENDROOT
TORSDOF 0
ENDMDL
