MODEL 1
REMARK minimizedAffinity 7.27101564
REMARK minimizedRMSD -1
REMARK  0 active torsions:
REMARK  status: ('A' for Active; 'I' for Inactive)
ROOT
ATOM      1  C   UNL d   1       0.950   4.054   4.002  0.00  0.00     0.077 C 
ATOM      2  C1  UNL d   1       1.914   3.307   3.129  0.00  0.00    -0.074 A 
ATOM      3  C2  UNL d   1       3.284   3.585   3.168  0.00  0.00    -0.005 A 
ATOM      4  C3  UNL d   1       4.169   2.875   2.357  0.00  0.00     0.006 A 
ATOM      5  C4  UNL d   1       3.695   1.881   1.501  0.00  0.00    -0.005 A 
ATOM      6  C5  UNL d   1       2.328   1.589   1.449  0.00  0.00    -0.074 A 
ATOM      7  C6  UNL d   1       1.802   0.517   0.541  0.00  0.00     0.077 C 
ATOM      8  C7  UNL d   1       1.446   2.302   2.271  0.00  0.00    -0.001 A 
ENDROOT
TORSDOF 0
ENDMDL
