MODEL 1
REMARK minimizedAffinity 9.56013012
REMARK minimizedRMSD -1
REMARK  0 active torsions:
REMARK  status: ('A' for Active; 'I' for Inactive)
ROOT
ATOM      1  C   UNL d   1       2.819   4.941   0.082  0.00  0.00     0.077 C 
ATOM      2  C1  UNL d   1       2.593   4.197   1.364  0.00  0.00    -0.074 A 
ATOM      3  C2  UNL d   1       2.758   2.809   1.428  0.00  0.00    -0.005 A 
ATOM      4  C3  UNL d   1       2.554   2.131   2.630  0.00  0.00     0.006 A 
ATOM      5  C4  UNL d   1       2.182   2.833   3.777  0.00  0.00    -0.005 A 
ATOM      6  C5  UNL d   1       2.013   4.220   3.733  0.00  0.00    -0.074 A 
ATOM      7  C6  UNL d   1       1.624   4.991   4.959  0.00  0.00     0.077 C 
ATOM      8  C7  UNL d   1       2.227   4.895   2.523  0.00  0.00    -0.001 A 
ENDROOT
TORSDOF 0
ENDMDL
