MODEL 1
REMARK minimizedAffinity 11.3853302
REMARK minimizedRMSD -1
REMARK  0 active torsions:
REMARK  status: ('A' for Active; 'I' for Inactive)
ROOT
ATOM      1  C   UNL d   1       3.682   5.584   0.313  0.00  0.00     0.077 C 
ATOM      2  C1  UNL d   1       3.559   4.585   1.425  0.00  0.00    -0.074 A 
ATOM      3  C2  UNL d   1       2.480   3.696   1.476  0.00  0.00    -0.005 A 
ATOM      4  C3  UNL d   1       2.384   2.766   2.511  0.00  0.00     0.006 A 
ATOM      5  C4  UNL d   1       3.364   2.715   3.503  0.00  0.00    -0.005 A 
ATOM      6  C5  UNL d   1       4.449   3.596   3.469  0.00  0.00    -0.074 A 
ATOM      7  C6  UNL d   1       5.516   3.549   4.522  0.00  0.00     0.077 C 
ATOM      8  C7  UNL d   1       4.543   4.523   2.422  0.00  0.00    -0.001 A 
ENDROOT
TORSDOF 0
ENDMDL
