MODEL 1
REMARK minimizedAffinity 9.33830643
REMARK minimizedRMSD -1
REMARK  0 active torsions:
REMARK  status: ('A' for Active; 'I' for Inactive)
ROOT
ATOM      1  C   UNL d   1      -4.224  -1.919   3.290  0.00  0.00     0.077 C 
ATOM      2  C1  UNL d   1      -3.626  -1.089   2.193  0.00  0.00    -0.074 A 
ATOM      3  C2  UNL d   1      -2.312  -1.303   1.765  0.00  0.00    -0.005 A 
ATOM      4  C3  UNL d   1      -1.772  -0.529   0.737  0.00  0.00     0.006 A 
ATOM      5  C4  UNL d   1      -2.540   0.464   0.128  0.00  0.00    -0.005 A 
ATOM      6  C5  UNL d   1      -3.857   0.691   0.542  0.00  0.00    -0.074 A 
ATOM      7  C6  UNL d   1      -4.699   1.747  -0.110  0.00  0.00     0.077 C 
ATOM      8  C7  UNL d   1      -4.394  -0.095   1.570  0.00  0.00    -0.001 A 
ENDROOT
TORSDOF 0
ENDMDL
