MODEL 1
REMARK minimizedAffinity 2.41646719
REMARK minimizedRMSD -1
REMARK  0 active torsions:
REMARK  status: ('A' for Active; 'I' for Inactive)
ROOT
ATOM      1  C   UNL d   1       3.851   5.320   4.601  0.00  0.00     0.077 C 
ATOM      2  C1  UNL d   1       3.576   4.789   3.226  0.00  0.00    -0.074 A 
ATOM      3  C2  UNL d   1       4.017   5.474   2.089  0.00  0.00    -0.005 A 
ATOM      4  C3  UNL d   1       3.762   4.964   0.816  0.00  0.00     0.006 A 
ATOM      5  C4  UNL d   1       3.063   3.765   0.668  0.00  0.00    -0.005 A 
ATOM      6  C5  UNL d   1       2.614   3.066   1.792  0.00  0.00    -0.074 A 
ATOM      7  C6  UNL d   1       1.870   1.771   1.650  0.00  0.00     0.077 C 
ATOM      8  C7  UNL d   1       2.881   3.582   3.068  0.00  0.00    -0.001 A 
ENDROOT
TORSDOF 0
ENDMDL
