MODEL 1
REMARK minimizedAffinity -4.77887964
REMARK minimizedRMSD -1
REMARK  0 active torsions:
REMARK  status: ('A' for Active; 'I' for Inactive)
ROOT
ATOM      1  C   UNL d   1      -0.875   0.658   1.180  0.00  0.00     0.077 C 
ATOM      2  C1  UNL d   1      -0.145  -0.262   0.247  0.00  0.00    -0.074 A 
ATOM      3  C2  UNL d   1       0.043  -1.610   0.569  0.00  0.00    -0.005 A 
ATOM      4  C3  UNL d   1       0.716  -2.457  -0.312  0.00  0.00     0.006 A 
ATOM      5  C4  UNL d   1       1.206  -1.964  -1.522  0.00  0.00    -0.005 A 
ATOM      6  C5  UNL d   1       1.027  -0.620  -1.862  0.00  0.00    -0.074 A 
ATOM      7  C6  UNL d   1       1.539  -0.077  -3.162  0.00  0.00     0.077 C 
ATOM      8  C7  UNL d   1       0.344   0.223  -0.974  0.00  0.00    -0.001 A 
ENDROOT
TORSDOF 0
ENDMDL
