MODEL 1
REMARK minimizedAffinity -1.16843259
REMARK minimizedRMSD -1
REMARK  0 active torsions:
REMARK  status: ('A' for Active; 'I' for Inactive)
ROOT
ATOM      1  C   UNL d   1      -4.814   5.051  -5.975  0.00  0.00     0.077 C 
ATOM      2  C1  UNL d   1      -4.401   3.621  -5.792  0.00  0.00    -0.074 A 
ATOM      3  C2  UNL d   1      -3.092   3.292  -5.426  0.00  0.00    -0.005 A 
ATOM      4  C3  UNL d   1      -2.725   1.958  -5.250  0.00  0.00     0.006 A 
ATOM      5  C4  UNL d   1      -3.662   0.941  -5.437  0.00  0.00    -0.005 A 
ATOM      6  C5  UNL d   1      -4.976   1.251  -5.802  0.00  0.00    -0.074 A 
ATOM      7  C6  UNL d   1      -5.998   0.170  -5.999  0.00  0.00     0.077 C 
ATOM      8  C7  UNL d   1      -5.339   2.594  -5.971  0.00  0.00    -0.001 A 
ENDROOT
TORSDOF 0
ENDMDL
