MODEL 1
REMARK minimizedAffinity 0.306116283
REMARK minimizedRMSD -1
REMARK  0 active torsions:
REMARK  status: ('A' for Active; 'I' for Inactive)
ROOT
ATOM      1  C   UNL d   1       1.048  -0.440  -2.830  0.00  0.00     0.077 C 
ATOM      2  C1  UNL d   1       0.615  -0.794  -1.438  0.00  0.00    -0.074 A 
ATOM      3  C2  UNL d   1       0.331  -2.118  -1.089  0.00  0.00    -0.005 A 
ATOM      4  C3  UNL d   1      -0.062  -2.434   0.211  0.00  0.00     0.006 A 
ATOM      5  C4  UNL d   1      -0.174  -1.431   1.175  0.00  0.00    -0.005 A 
ATOM      6  C5  UNL d   1       0.107  -0.101   0.844  0.00  0.00    -0.074 A 
ATOM      7  C6  UNL d   1       0.000   0.988   1.870  0.00  0.00     0.077 C 
ATOM      8  C7  UNL d   1       0.507   0.207  -0.463  0.00  0.00    -0.001 A 
ENDROOT
TORSDOF 0
ENDMDL
