MODEL 1
REMARK minimizedAffinity -2.34061408
REMARK minimizedRMSD -1
REMARK  0 active torsions:
REMARK  status: ('A' for Active; 'I' for Inactive)
ROOT
ATOM      1  C   UNL d   1       1.111   1.459   1.019  0.00  0.00     0.077 C 
ATOM      2  C1  UNL d   1       0.650   0.366   0.101  0.00  0.00    -0.074 A 
ATOM      3  C2  UNL d   1       0.375   0.627  -1.245  0.00  0.00    -0.005 A 
ATOM      4  C3  UNL d   1      -0.043  -0.402  -2.090  0.00  0.00     0.006 A 
ATOM      5  C4  UNL d   1      -0.190  -1.699  -1.597  0.00  0.00    -0.005 A 
ATOM      6  C5  UNL d   1       0.081  -1.979  -0.254  0.00  0.00    -0.074 A 
ATOM      7  C6  UNL d   1      -0.062  -3.370   0.289  0.00  0.00     0.077 C 
ATOM      8  C7  UNL d   1       0.508  -0.941   0.586  0.00  0.00    -0.001 A 
ENDROOT
TORSDOF 0
ENDMDL
