MODEL 1
REMARK minimizedAffinity -4.02920723
REMARK minimizedRMSD -1
REMARK  0 active torsions:
REMARK  status: ('A' for Active; 'I' for Inactive)
ROOT
ATOM      1  C   UNL d   1       4.129   1.318  -1.133  0.00  0.00     0.077 C 
ATOM      2  C1  UNL d   1       2.740   0.757  -1.196  0.00  0.00    -0.074 A 
ATOM      3  C2  UNL d   1       2.224   0.249  -2.392  0.00  0.00    -0.005 A 
ATOM      4  C3  UNL d   1       0.933  -0.279  -2.433  0.00  0.00     0.006 A 
ATOM      5  C4  UNL d   1       0.147  -0.303  -1.280  0.00  0.00    -0.005 A 
ATOM      6  C5  UNL d   1       0.647   0.200  -0.075  0.00  0.00    -0.074 A 
ATOM      7  C6  UNL d   1      -0.181   0.173   1.176  0.00  0.00     0.077 C 
ATOM      8  C7  UNL d   1       1.947   0.722  -0.040  0.00  0.00    -0.001 A 
ENDROOT
TORSDOF 0
ENDMDL
