MODEL 1
REMARK minimizedAffinity -2.04447174
REMARK minimizedRMSD -1
REMARK  0 active torsions:
REMARK  status: ('A' for Active; 'I' for Inactive)
ROOT
ATOM      1  C   UNL d   1       0.228  -0.215  -0.945  0.00  0.00     0.077 C 
ATOM      2  C1  UNL d   1      -0.768  -0.022   0.159  0.00  0.00    -0.074 A 
ATOM      3  C2  UNL d   1      -0.355   0.068   1.492  0.00  0.00    -0.005 A 
ATOM      4  C3  UNL d   1      -1.292   0.258   2.508  0.00  0.00     0.006 A 
ATOM      5  C4  UNL d   1      -2.649   0.360   2.201  0.00  0.00    -0.005 A 
ATOM      6  C5  UNL d   1      -3.081   0.274   0.873  0.00  0.00    -0.074 A 
ATOM      7  C6  UNL d   1      -4.535   0.391   0.525  0.00  0.00     0.077 C 
ATOM      8  C7  UNL d   1      -2.133   0.090  -0.142  0.00  0.00    -0.001 A 
ENDROOT
TORSDOF 0
ENDMDL
