MODEL 1
REMARK minimizedAffinity -2.54244661
REMARK minimizedRMSD -1
REMARK  0 active torsions:
REMARK  status: ('A' for Active; 'I' for Inactive)
ROOT
ATOM      1  C   UNL d   1      -0.384  -0.638   1.872  0.00  0.00     0.077 C 
ATOM      2  C1  UNL d   1      -1.739  -0.029   2.079  0.00  0.00    -0.074 A 
ATOM      3  C2  UNL d   1      -2.903  -0.749   1.791  0.00  0.00    -0.005 A 
ATOM      4  C3  UNL d   1      -4.156  -0.173   1.997  0.00  0.00     0.006 A 
ATOM      5  C4  UNL d   1      -4.258   1.128   2.492  0.00  0.00    -0.005 A 
ATOM      6  C5  UNL d   1      -3.105   1.864   2.785  0.00  0.00    -0.074 A 
ATOM      7  C6  UNL d   1      -3.197   3.260   3.327  0.00  0.00     0.077 C 
ATOM      8  C7  UNL d   1      -1.850   1.275   2.582  0.00  0.00    -0.001 A 
ENDROOT
TORSDOF 0
ENDMDL
