MODEL 1
REMARK minimizedAffinity -4.87629128
REMARK minimizedRMSD -1
REMARK  0 active torsions:
REMARK  status: ('A' for Active; 'I' for Inactive)
ROOT
ATOM      1  C   UNL d   1      -0.351  -0.886   1.584  0.00  0.00     0.077 C 
ATOM      2  C1  UNL d   1      -1.616  -0.088   1.691  0.00  0.00    -0.074 A 
ATOM      3  C2  UNL d   1      -2.853  -0.654   1.364  0.00  0.00    -0.005 A 
ATOM      4  C3  UNL d   1      -4.022   0.098   1.478  0.00  0.00     0.006 A 
ATOM      5  C4  UNL d   1      -3.967   1.421   1.918  0.00  0.00    -0.005 A 
ATOM      6  C5  UNL d   1      -2.740   2.003   2.250  0.00  0.00    -0.074 A 
ATOM      7  C6  UNL d   1      -2.664   3.421   2.734  0.00  0.00     0.077 C 
ATOM      8  C7  UNL d   1      -1.570   1.239   2.140  0.00  0.00    -0.001 A 
ENDROOT
TORSDOF 0
ENDMDL
