MODEL 1
REMARK minimizedAffinity -4.67191172
REMARK minimizedRMSD -1
REMARK  0 active torsions:
REMARK  status: ('A' for Active; 'I' for Inactive)
ROOT
ATOM      1  C   UNL d   1       2.425  -0.479  -3.205  0.00  0.00     0.077 C 
ATOM      2  C1  UNL d   1       1.600  -0.987  -2.060  0.00  0.00    -0.074 A 
ATOM      3  C2  UNL d   1       1.486  -2.358  -1.810  0.00  0.00    -0.005 A 
ATOM      4  C3  UNL d   1       0.723  -2.816  -0.736  0.00  0.00     0.006 A 
ATOM      5  C4  UNL d   1       0.067  -1.908   0.097  0.00  0.00    -0.005 A 
ATOM      6  C5  UNL d   1       0.170  -0.534  -0.137  0.00  0.00    -0.074 A 
ATOM      7  C6  UNL d   1      -0.520   0.456   0.754  0.00  0.00     0.077 C 
ATOM      8  C7  UNL d   1       0.945  -0.081  -1.214  0.00  0.00    -0.001 A 
ENDROOT
TORSDOF 0
ENDMDL
