MODEL 1
REMARK minimizedAffinity -3.91390491
REMARK minimizedRMSD -1
REMARK  0 active torsions:
REMARK  status: ('A' for Active; 'I' for Inactive)
ROOT
ATOM      1  C   UNL d   1       0.736  -0.373  -3.266  0.00  0.00     0.077 C 
ATOM      2  C1  UNL d   1       0.337  -0.875  -1.910  0.00  0.00    -0.074 A 
ATOM      3  C2  UNL d   1       0.123  -2.238  -1.682  0.00  0.00    -0.005 A 
ATOM      4  C3  UNL d   1      -0.239  -2.690  -0.413  0.00  0.00     0.006 A 
ATOM      5  C4  UNL d   1      -0.390  -1.786   0.639  0.00  0.00    -0.005 A 
ATOM      6  C5  UNL d   1      -0.178  -0.419   0.430  0.00  0.00    -0.074 A 
ATOM      7  C6  UNL d   1      -0.326   0.565   1.552  0.00  0.00     0.077 C 
ATOM      8  C7  UNL d   1       0.192   0.027  -0.846  0.00  0.00    -0.001 A 
ENDROOT
TORSDOF 0
ENDMDL
