MODEL 1
REMARK minimizedAffinity -4.30206823
REMARK minimizedRMSD -1
REMARK  0 active torsions:
REMARK  status: ('A' for Active; 'I' for Inactive)
ROOT
ATOM      1  C   UNL d   1       1.711   0.004  -2.905  0.00  0.00     0.077 C 
ATOM      2  C1  UNL d   1       0.958  -0.520  -1.719  0.00  0.00    -0.074 A 
ATOM      3  C2  UNL d   1       0.863  -1.895  -1.478  0.00  0.00    -0.005 A 
ATOM      4  C3  UNL d   1       0.169  -2.368  -0.365  0.00  0.00     0.006 A 
ATOM      5  C4  UNL d   1      -0.437  -1.473   0.517  0.00  0.00    -0.005 A 
ATOM      6  C5  UNL d   1      -0.352  -0.095   0.294  0.00  0.00    -0.074 A 
ATOM      7  C6  UNL d   1      -0.989   0.881   1.238  0.00  0.00     0.077 C 
ATOM      8  C7  UNL d   1       0.354   0.373  -0.823  0.00  0.00    -0.001 A 
ENDROOT
TORSDOF 0
ENDMDL
