MODEL 1
REMARK minimizedAffinity -2.14134169
REMARK minimizedRMSD -1
REMARK  0 active torsions:
REMARK  status: ('A' for Active; 'I' for Inactive)
ROOT
ATOM      1  C   UNL d   1      -0.754  -0.791   0.673  0.00  0.00     0.077 C 
ATOM      2  C1  UNL d   1       0.338  -0.043  -0.034  0.00  0.00    -0.074 A 
ATOM      3  C2  UNL d   1       0.828   1.164   0.475  0.00  0.00    -0.005 A 
ATOM      4  C3  UNL d   1       1.850   1.844  -0.188  0.00  0.00     0.006 A 
ATOM      5  C4  UNL d   1       2.391   1.323  -1.364  0.00  0.00    -0.005 A 
ATOM      6  C5  UNL d   1       1.915   0.117  -1.887  0.00  0.00    -0.074 A 
ATOM      7  C6  UNL d   1       2.493  -0.461  -3.145  0.00  0.00     0.077 C 
ATOM      8  C7  UNL d   1       0.893  -0.563  -1.211  0.00  0.00    -0.001 A 
ENDROOT
TORSDOF 0
ENDMDL
