MODEL 1
REMARK minimizedAffinity -1.00681984
REMARK minimizedRMSD -1
REMARK  0 active torsions:
REMARK  status: ('A' for Active; 'I' for Inactive)
ROOT
ATOM      1  C   UNL d   1      -1.895   0.845   1.849  0.00  0.00     0.077 C 
ATOM      2  C1  UNL d   1      -1.048  -0.054   0.999  0.00  0.00    -0.074 A 
ATOM      3  C2  UNL d   1      -1.076  -1.442   1.172  0.00  0.00    -0.005 A 
ATOM      4  C3  UNL d   1      -0.289  -2.266   0.367  0.00  0.00     0.006 A 
ATOM      5  C4  UNL d   1       0.531  -1.713  -0.617  0.00  0.00    -0.005 A 
ATOM      6  C5  UNL d   1       0.571  -0.327  -0.804  0.00  0.00    -0.074 A 
ATOM      7  C6  UNL d   1       1.440   0.283  -1.864  0.00  0.00     0.077 C 
ATOM      8  C7  UNL d   1      -0.227   0.494   0.004  0.00  0.00    -0.001 A 
ENDROOT
TORSDOF 0
ENDMDL
