MODEL 1
REMARK minimizedAffinity -2.41675138
REMARK minimizedRMSD -1
REMARK  0 active torsions:
REMARK  status: ('A' for Active; 'I' for Inactive)
ROOT
ATOM      1  C   UNL d   1      -0.629   0.012   0.848  0.00  0.00     0.077 C 
ATOM      2  C1  UNL d   1       0.559   0.112  -0.061  0.00  0.00    -0.074 A 
ATOM      3  C2  UNL d   1       1.046   1.356  -0.474  0.00  0.00    -0.005 A 
ATOM      4  C3  UNL d   1       2.158   1.434  -1.313  0.00  0.00     0.006 A 
ATOM      5  C4  UNL d   1       2.794   0.270  -1.746  0.00  0.00    -0.005 A 
ATOM      6  C5  UNL d   1       2.322  -0.984  -1.342  0.00  0.00    -0.074 A 
ATOM      7  C6  UNL d   1       2.999  -2.244  -1.790  0.00  0.00     0.077 C 
ATOM      8  C7  UNL d   1       1.208  -1.053  -0.494  0.00  0.00    -0.001 A 
ENDROOT
TORSDOF 0
ENDMDL
