MODEL 1
REMARK minimizedAffinity -5.33113813
REMARK minimizedRMSD -1
REMARK  0 active torsions:
REMARK  status: ('A' for Active; 'I' for Inactive)
ROOT
ATOM      1  C   UNL d   1       1.891  -2.937  -1.906  0.00  0.00     0.077 C 
ATOM      2  C1  UNL d   1       1.417  -1.539  -1.637  0.00  0.00    -0.074 A 
ATOM      3  C2  UNL d   1       1.817  -0.475  -2.451  0.00  0.00    -0.005 A 
ATOM      4  C3  UNL d   1       1.361   0.818  -2.194  0.00  0.00     0.006 A 
ATOM      5  C4  UNL d   1       0.501   1.059  -1.122  0.00  0.00    -0.005 A 
ATOM      6  C5  UNL d   1       0.090   0.007  -0.297  0.00  0.00    -0.074 A 
ATOM      7  C6  UNL d   1      -0.842   0.248   0.854  0.00  0.00     0.077 C 
ATOM      8  C7  UNL d   1       0.547  -1.290  -0.566  0.00  0.00    -0.001 A 
ENDROOT
TORSDOF 0
ENDMDL
