MODEL 1
REMARK minimizedAffinity -2.07176208
REMARK minimizedRMSD -1
REMARK  0 active torsions:
REMARK  status: ('A' for Active; 'I' for Inactive)
ROOT
ATOM      1  C   UNL d   1       1.351  -3.437  -1.504  0.00  0.00     0.077 C 
ATOM      2  C1  UNL d   1       1.151  -1.958  -1.353  0.00  0.00    -0.074 A 
ATOM      3  C2  UNL d   1       1.966  -1.049  -2.036  0.00  0.00    -0.005 A 
ATOM      4  C3  UNL d   1       1.762   0.323  -1.893  0.00  0.00     0.006 A 
ATOM      5  C4  UNL d   1       0.743   0.800  -1.067  0.00  0.00    -0.005 A 
ATOM      6  C5  UNL d   1      -0.082  -0.094  -0.378  0.00  0.00    -0.074 A 
ATOM      7  C6  UNL d   1      -1.189   0.402   0.506  0.00  0.00     0.077 C 
ATOM      8  C7  UNL d   1       0.124  -1.471  -0.532  0.00  0.00    -0.001 A 
ENDROOT
TORSDOF 0
ENDMDL
