MODEL 1
REMARK minimizedAffinity -3.71453166
REMARK minimizedRMSD -1
REMARK  0 active torsions:
REMARK  status: ('A' for Active; 'I' for Inactive)
ROOT
ATOM      1  C4' PXY d   1      -1.059  -0.473   4.159  0.00  0.00     0.077 C 
ATOM      2  C1' PXY d   1       0.245   0.315  -1.417  0.00  0.00     0.077 C 
ATOM      3  C1  PXY d   1      -0.084   0.110   0.049  0.00  0.00    -0.082 A 
ATOM      4  C2  PXY d   1      -1.159  -0.584   0.387  0.00  0.00     0.003 A 
ATOM      5  C3  PXY d   1      -1.489  -0.752   1.707  0.00  0.00     0.003 A 
ATOM      6  C4  PXY d   1      -0.682  -0.249   2.692  0.00  0.00    -0.082 A 
ATOM      7  C5  PXY d   1       0.421   0.451   2.356  0.00  0.00     0.003 A 
ATOM      8  C6  PXY d   1       0.717   0.645   1.009  0.00  0.00     0.003 A 
ENDROOT
TORSDOF 0
ENDMDL
