MODEL 1
REMARK minimizedAffinity 2.02829814
REMARK minimizedRMSD -1
REMARK  0 active torsions:
REMARK  status: ('A' for Active; 'I' for Inactive)
ROOT
ATOM      1  C4' PXY d   1       0.072   1.798   3.350  0.00  0.00     0.077 C 
ATOM      2  C1' PXY d   1      -1.433  -2.685   0.025  0.00  0.00     0.077 C 
ATOM      3  C1  PXY d   1      -1.048  -1.513   0.906  0.00  0.00    -0.082 A 
ATOM      4  C2  PXY d   1      -0.395  -0.488   0.381  0.00  0.00     0.003 A 
ATOM      5  C3  PXY d   1      -0.011   0.566   1.170  0.00  0.00     0.003 A 
ATOM      6  C4  PXY d   1      -0.345   0.596   2.497  0.00  0.00    -0.082 A 
ATOM      7  C5  PXY d   1      -1.021  -0.440   3.037  0.00  0.00     0.003 A 
ATOM      8  C6  PXY d   1      -1.366  -1.520   2.229  0.00  0.00     0.003 A 
ENDROOT
TORSDOF 0
ENDMDL
