MODEL 1
REMARK minimizedAffinity -4.956285
REMARK minimizedRMSD -1
REMARK  0 active torsions:
REMARK  status: ('A' for Active; 'I' for Inactive)
ROOT
ATOM      1  C4' PXY d   1       0.505   0.156  -2.282  0.00  0.00     0.077 C 
ATOM      2  C1' PXY d   1      -0.873  -0.700   3.266  0.00  0.00     0.077 C 
ATOM      3  C1  PXY d   1      -0.501  -0.468   1.815  0.00  0.00    -0.082 A 
ATOM      4  C2  PXY d   1      -1.427  -0.584   0.877  0.00  0.00     0.003 A 
ATOM      5  C3  PXY d   1      -1.101  -0.409  -0.444  0.00  0.00     0.003 A 
ATOM      6  C4  PXY d   1       0.173  -0.060  -0.803  0.00  0.00    -0.082 A 
ATOM      7  C5  PXY d   1       1.121   0.071   0.150  0.00  0.00     0.003 A 
ATOM      8  C6  PXY d   1       0.779  -0.151   1.481  0.00  0.00     0.003 A 
ENDROOT
TORSDOF 0
ENDMDL
