MODEL 1
REMARK minimizedAffinity -0.45051232
REMARK minimizedRMSD -1
REMARK  0 active torsions:
REMARK  status: ('A' for Active; 'I' for Inactive)
ROOT
ATOM      1  C4' PXY d   1      -2.237   0.425   0.210  0.00  0.00     0.077 C 
ATOM      2  C1' PXY d   1       1.818  -1.646  -3.352  0.00  0.00     0.077 C 
ATOM      3  C1  PXY d   1       0.764  -1.095  -2.412  0.00  0.00    -0.082 A 
ATOM      4  C2  PXY d   1      -0.354  -1.775  -2.212  0.00  0.00     0.003 A 
ATOM      5  C3  PXY d   1      -1.332  -1.277  -1.390  0.00  0.00     0.003 A 
ATOM      6  C4  PXY d   1      -1.141  -0.096  -0.724  0.00  0.00    -0.082 A 
ATOM      7  C5  PXY d   1       0.001   0.598  -0.913  0.00  0.00     0.003 A 
ATOM      8  C6  PXY d   1       0.964   0.095  -1.784  0.00  0.00     0.003 A 
ENDROOT
TORSDOF 0
ENDMDL
