MODEL 1
REMARK minimizedAffinity -3.35853815
REMARK minimizedRMSD -1
REMARK  0 active torsions:
REMARK  status: ('A' for Active; 'I' for Inactive)
ROOT
ATOM      1  C4' PXY d   1       2.692   1.493   0.895  0.00  0.00     0.077 C 
ATOM      2  C1' PXY d   1      -2.897   0.541   2.023  0.00  0.00     0.077 C 
ATOM      3  C1  PXY d   1      -1.432   0.786   1.715  0.00  0.00    -0.082 A 
ATOM      4  C2  PXY d   1      -0.560   0.862   2.707  0.00  0.00     0.003 A 
ATOM      5  C3  PXY d   1       0.763   1.114   2.448  0.00  0.00     0.003 A 
ATOM      6  C4  PXY d   1       1.206   1.238   1.159  0.00  0.00    -0.082 A 
ATOM      7  C5  PXY d   1       0.323   1.152   0.141  0.00  0.00     0.003 A 
ATOM      8  C6  PXY d   1      -1.022   0.936   0.427  0.00  0.00     0.003 A 
ENDROOT
TORSDOF 0
ENDMDL
