MODEL 1
REMARK minimizedAffinity -3.63494277
REMARK minimizedRMSD -1
REMARK  0 active torsions:
REMARK  status: ('A' for Active; 'I' for Inactive)
ROOT
ATOM      1  C4' PXY d   1      -1.134  -0.704   2.945  0.00  0.00     0.077 C 
ATOM      2  C1' PXY d   1       0.288  -0.152  -2.631  0.00  0.00     0.077 C 
ATOM      3  C1  PXY d   1      -0.094  -0.288  -1.171  0.00  0.00    -0.082 A 
ATOM      4  C2  PXY d   1       0.810  -0.688  -0.292  0.00  0.00     0.003 A 
ATOM      5  C3  PXY d   1       0.473  -0.847   1.028  0.00  0.00     0.003 A 
ATOM      6  C4  PXY d   1      -0.790  -0.543   1.461  0.00  0.00    -0.082 A 
ATOM      7  C5  PXY d   1      -1.716  -0.125   0.573  0.00  0.00     0.003 A 
ATOM      8  C6  PXY d   1      -1.364  -0.009  -0.769  0.00  0.00     0.003 A 
ENDROOT
TORSDOF 0
ENDMDL
