MODEL 1
REMARK minimizedAffinity -4.47855377
REMARK minimizedRMSD -1
REMARK  0 active torsions:
REMARK  status: ('A' for Active; 'I' for Inactive)
ROOT
ATOM      1  C4' PXY d   1      -0.972  -0.936   3.440  0.00  0.00     0.077 C 
ATOM      2  C1' PXY d   1       0.356   0.992  -1.845  0.00  0.00     0.077 C 
ATOM      3  C1  PXY d   1       0.020   0.486  -0.456  0.00  0.00    -0.082 A 
ATOM      4  C2  PXY d   1      -1.121  -0.150  -0.250  0.00  0.00     0.003 A 
ATOM      5  C3  PXY d   1      -1.455  -0.586   1.007  0.00  0.00     0.003 A 
ATOM      6  C4  PXY d   1      -0.588  -0.416   2.052  0.00  0.00    -0.082 A 
ATOM      7  C5  PXY d   1       0.584   0.223   1.848  0.00  0.00     0.003 A 
ATOM      8  C6  PXY d   1       0.886   0.694   0.573  0.00  0.00     0.003 A 
ENDROOT
TORSDOF 0
ENDMDL
