MODEL 1
REMARK minimizedAffinity -4.81916332
REMARK minimizedRMSD -1
REMARK  0 active torsions:
REMARK  status: ('A' for Active; 'I' for Inactive)
ROOT
ATOM      1  C4' PXY d   1       0.704   0.101  -2.241  0.00  0.00     0.077 C 
ATOM      2  C1' PXY d   1      -0.710  -0.584   3.322  0.00  0.00     0.077 C 
ATOM      3  C1  PXY d   1      -0.329  -0.396   1.866  0.00  0.00    -0.082 A 
ATOM      4  C2  PXY d   1      -1.234  -0.600   0.922  0.00  0.00     0.003 A 
ATOM      5  C3  PXY d   1      -0.898  -0.466  -0.400  0.00  0.00     0.003 A 
ATOM      6  C4  PXY d   1       0.362  -0.067  -0.758  0.00  0.00    -0.082 A 
ATOM      7  C5  PXY d   1       1.287   0.153   0.200  0.00  0.00     0.003 A 
ATOM      8  C6  PXY d   1       0.938  -0.028   1.535  0.00  0.00     0.003 A 
ENDROOT
TORSDOF 0
ENDMDL
