MODEL 1
REMARK minimizedAffinity -4.72213888
REMARK minimizedRMSD -1
REMARK  0 active torsions:
REMARK  status: ('A' for Active; 'I' for Inactive)
ROOT
ATOM      1  C4' PXY d   1       0.444   0.695  -1.813  0.00  0.00     0.077 C 
ATOM      2  C1' PXY d   1      -0.940  -0.781   3.602  0.00  0.00     0.077 C 
ATOM      3  C1  PXY d   1      -0.566  -0.388   2.186  0.00  0.00    -0.082 A 
ATOM      4  C2  PXY d   1      -1.516  -0.223   1.281  0.00  0.00     0.003 A 
ATOM      5  C3  PXY d   1      -1.194   0.101  -0.012  0.00  0.00     0.003 A 
ATOM      6  C4  PXY d   1       0.112   0.309  -0.369  0.00  0.00    -0.082 A 
ATOM      7  C5  PXY d   1       1.087   0.152   0.551  0.00  0.00     0.003 A 
ATOM      8  C6  PXY d   1       0.741  -0.217   1.848  0.00  0.00     0.003 A 
ENDROOT
TORSDOF 0
ENDMDL
