MODEL 1
REMARK minimizedAffinity -4.20732546
REMARK minimizedRMSD -1
REMARK  0 active torsions:
REMARK  status: ('A' for Active; 'I' for Inactive)
ROOT
ATOM      1  C4' PXY d   1       3.008   0.390   1.511  0.00  0.00     0.077 C 
ATOM      2  C1' PXY d   1      -2.716   0.604   0.733  0.00  0.00     0.077 C 
ATOM      3  C1  PXY d   1      -1.216   0.552   0.950  0.00  0.00    -0.082 A 
ATOM      4  C2  PXY d   1      -0.402   0.649  -0.089  0.00  0.00     0.003 A 
ATOM      5  C3  PXY d   1       0.956   0.572   0.085  0.00  0.00     0.003 A 
ATOM      6  C4  PXY d   1       1.488   0.447   1.341  0.00  0.00    -0.082 A 
ATOM      7  C5  PXY d   1       0.664   0.358   2.406  0.00  0.00     0.003 A 
ATOM      8  C6  PXY d   1      -0.713   0.397   2.204  0.00  0.00     0.003 A 
ENDROOT
TORSDOF 0
ENDMDL
