MODEL 1
REMARK minimizedAffinity -4.93693018
REMARK minimizedRMSD -1
REMARK  0 active torsions:
REMARK  status: ('A' for Active; 'I' for Inactive)
ROOT
ATOM      1  C4' PXY d   1       0.117  -1.555  -3.181  0.00  0.00     0.077 C 
ATOM      2  C1' PXY d   1       0.205   0.484   2.227  0.00  0.00     0.077 C 
ATOM      3  C1  PXY d   1       0.178  -0.039   0.804  0.00  0.00    -0.082 A 
ATOM      4  C2  PXY d   1       0.011  -1.333   0.586  0.00  0.00     0.003 A 
ATOM      5  C3  PXY d   1       0.016  -1.827  -0.693  0.00  0.00     0.003 A 
ATOM      6  C4  PXY d   1       0.141  -0.981  -1.762  0.00  0.00    -0.082 A 
ATOM      7  C5  PXY d   1       0.302   0.342  -1.548  0.00  0.00     0.003 A 
ATOM      8  C6  PXY d   1       0.335   0.818  -0.241  0.00  0.00     0.003 A 
ENDROOT
TORSDOF 0
ENDMDL
