MODEL 1
REMARK minimizedAffinity 0.081742391
REMARK minimizedRMSD -1
REMARK  0 active torsions:
REMARK  status: ('A' for Active; 'I' for Inactive)
ROOT
ATOM      1  C4' PXY d   1       1.127  -0.750  -3.610  0.00  0.00     0.077 C 
ATOM      2  C1' PXY d   1      -1.306   0.881   1.374  0.00  0.00     0.077 C 
ATOM      3  C1  PXY d   1      -0.679   0.456   0.060  0.00  0.00    -0.082 A 
ATOM      4  C2  PXY d   1       0.320  -0.411   0.063  0.00  0.00     0.003 A 
ATOM      5  C3  PXY d   1       0.920  -0.781  -1.114  0.00  0.00     0.003 A 
ATOM      6  C4  PXY d   1       0.457  -0.300  -2.309  0.00  0.00    -0.082 A 
ATOM      7  C5  PXY d   1      -0.569   0.577  -2.320  0.00  0.00     0.003 A 
ATOM      8  C6  PXY d   1      -1.137   0.972  -1.113  0.00  0.00     0.003 A 
ENDROOT
TORSDOF 0
ENDMDL
