MODEL 1
REMARK minimizedAffinity -3.74362421
REMARK minimizedRMSD -1
REMARK  0 active torsions:
REMARK  status: ('A' for Active; 'I' for Inactive)
ROOT
ATOM      1  C4' PXY d   1      -0.086   0.629   2.566  0.00  0.00     0.077 C 
ATOM      2  C1' PXY d   1       1.530  -1.801  -2.424  0.00  0.00     0.077 C 
ATOM      3  C1  PXY d   1       1.114  -1.172  -1.109  0.00  0.00    -0.082 A 
ATOM      4  C2  PXY d   1      -0.050  -0.550  -1.021  0.00  0.00     0.003 A 
ATOM      5  C3  PXY d   1      -0.428   0.053   0.152  0.00  0.00     0.003 A 
ATOM      6  C4  PXY d   1       0.371  -0.029   1.261  0.00  0.00    -0.082 A 
ATOM      7  C5  PXY d   1       1.556  -0.671   1.182  0.00  0.00     0.003 A 
ATOM      8  C6  PXY d   1       1.939  -1.240  -0.029  0.00  0.00     0.003 A 
ENDROOT
TORSDOF 0
ENDMDL
