MODEL 1
REMARK minimizedAffinity -0.692432463
REMARK minimizedRMSD -1
REMARK  0 active torsions:
REMARK  status: ('A' for Active; 'I' for Inactive)
ROOT
ATOM      1  C4' PXY d   1       0.566   2.971   4.594  0.00  0.00     0.077 C 
ATOM      2  C1' PXY d   1      -1.508  -0.936   0.873  0.00  0.00     0.077 C 
ATOM      3  C1  PXY d   1      -0.976   0.091   1.853  0.00  0.00    -0.082 A 
ATOM      4  C2  PXY d   1       0.209   0.641   1.645  0.00  0.00     0.003 A 
ATOM      5  C3  PXY d   1       0.719   1.549   2.537  0.00  0.00     0.003 A 
ATOM      6  C4  PXY d   1      -0.015   1.936   3.626  0.00  0.00    -0.082 A 
ATOM      7  C5  PXY d   1      -1.230   1.388   3.840  0.00  0.00     0.003 A 
ATOM      8  C6  PXY d   1      -1.711   0.438   2.944  0.00  0.00     0.003 A 
ENDROOT
TORSDOF 0
ENDMDL
