MODEL 1
REMARK minimizedAffinity -3.83428836
REMARK minimizedRMSD -1
REMARK  0 active torsions:
REMARK  status: ('A' for Active; 'I' for Inactive)
ROOT
ATOM      1  C4' PXY d   1       0.417   0.751  -1.089  0.00  0.00     0.077 C 
ATOM      2  C1' PXY d   1      -2.037  -1.041   3.829  0.00  0.00     0.077 C 
ATOM      3  C1  PXY d   1      -1.386  -0.563   2.546  0.00  0.00    -0.082 A 
ATOM      4  C2  PXY d   1      -2.030  -0.694   1.397  0.00  0.00     0.003 A 
ATOM      5  C3  PXY d   1      -1.442  -0.296   0.224  0.00  0.00     0.003 A 
ATOM      6  C4  PXY d   1      -0.206   0.291   0.232  0.00  0.00    -0.082 A 
ATOM      7  C5  PXY d   1       0.453   0.438   1.401  0.00  0.00     0.003 A 
ATOM      8  C6  PXY d   1      -0.143  -0.010   2.577  0.00  0.00     0.003 A 
ENDROOT
TORSDOF 0
ENDMDL
