MODEL 1
REMARK minimizedAffinity -2.94157052
REMARK minimizedRMSD -1
REMARK  0 active torsions:
REMARK  status: ('A' for Active; 'I' for Inactive)
ROOT
ATOM      1  C4' PXY d   1       2.417   1.211   1.227  0.00  0.00     0.077 C 
ATOM      2  C1' PXY d   1      -3.060   0.228  -0.340  0.00  0.00     0.077 C 
ATOM      3  C1  PXY d   1      -1.627   0.488   0.083  0.00  0.00    -0.082 A 
ATOM      4  C2  PXY d   1      -0.735   0.860  -0.821  0.00  0.00     0.003 A 
ATOM      5  C3  PXY d   1       0.571   1.068  -0.461  0.00  0.00     0.003 A 
ATOM      6  C4  PXY d   1       0.957   0.947   0.847  0.00  0.00    -0.082 A 
ATOM      7  C5  PXY d   1       0.051   0.578   1.777  0.00  0.00     0.003 A 
ATOM      8  C6  PXY d   1      -1.261   0.331   1.384  0.00  0.00     0.003 A 
ENDROOT
TORSDOF 0
ENDMDL
