MODEL 1
REMARK minimizedAffinity -4.18279839
REMARK minimizedRMSD -1
REMARK  0 active torsions:
REMARK  status: ('A' for Active; 'I' for Inactive)
ROOT
ATOM      1  C4' PXY d   1      -1.913  -0.274   3.521  0.00  0.00     0.077 C 
ATOM      2  C1' PXY d   1       0.155  -0.189  -1.877  0.00  0.00     0.077 C 
ATOM      3  C1  PXY d   1      -0.398  -0.205  -0.466  0.00  0.00    -0.082 A 
ATOM      4  C2  PXY d   1       0.431  -0.310   0.560  0.00  0.00     0.003 A 
ATOM      5  C3  PXY d   1      -0.055  -0.359   1.842  0.00  0.00     0.003 A 
ATOM      6  C4  PXY d   1      -1.398  -0.244   2.079  0.00  0.00    -0.082 A 
ATOM      7  C5  PXY d   1      -2.250  -0.125   1.038  0.00  0.00     0.003 A 
ATOM      8  C6  PXY d   1      -1.740  -0.120  -0.257  0.00  0.00     0.003 A 
ENDROOT
TORSDOF 0
ENDMDL
