MODEL 1
REMARK minimizedAffinity -3.77130938
REMARK minimizedRMSD -1
REMARK  0 active torsions:
REMARK  status: ('A' for Active; 'I' for Inactive)
ROOT
ATOM      1  C4' PXY d   1      -0.055  -4.983  -0.949  0.00  0.00     0.077 C 
ATOM      2  C1' PXY d   1       1.860  -0.112  -3.401  0.00  0.00     0.077 C 
ATOM      3  C1  PXY d   1       1.346  -1.384  -2.758  0.00  0.00    -0.082 A 
ATOM      4  C2  PXY d   1       2.187  -2.178  -2.116  0.00  0.00     0.003 A 
ATOM      5  C3  PXY d   1       1.745  -3.349  -1.555  0.00  0.00     0.003 A 
ATOM      6  C4  PXY d   1       0.418  -3.684  -1.606  0.00  0.00    -0.082 A 
ATOM      7  C5  PXY d   1      -0.448  -2.873  -2.250  0.00  0.00     0.003 A 
ATOM      8  C6  PXY d   1       0.028  -1.710  -2.848  0.00  0.00     0.003 A 
ENDROOT
TORSDOF 0
ENDMDL
