MODEL 1
REMARK minimizedAffinity -5.14755154
REMARK minimizedRMSD -1
REMARK  0 active torsions:
REMARK  status: ('A' for Active; 'I' for Inactive)
ROOT
ATOM      1  C4' PXY d   1      -2.995   0.236   0.573  0.00  0.00     0.077 C 
ATOM      2  C1' PXY d   1       2.613   0.700   1.895  0.00  0.00     0.077 C 
ATOM      3  C1  PXY d   1       1.140   0.573   1.560  0.00  0.00    -0.082 A 
ATOM      4  C2  PXY d   1       0.753   0.597   0.295  0.00  0.00     0.003 A 
ATOM      5  C3  PXY d   1      -0.578   0.515  -0.025  0.00  0.00     0.003 A 
ATOM      6  C4  PXY d   1      -1.518   0.352   0.958  0.00  0.00    -0.082 A 
ATOM      7  C5  PXY d   1      -1.130   0.315   2.250  0.00  0.00     0.003 A 
ATOM      8  C6  PXY d   1       0.222   0.442   2.556  0.00  0.00     0.003 A 
ENDROOT
TORSDOF 0
ENDMDL
