MODEL 1
REMARK minimizedAffinity -4.68797016
REMARK minimizedRMSD -1
REMARK  0 active torsions:
REMARK  status: ('A' for Active; 'I' for Inactive)
ROOT
ATOM      1  C4' PXY d   1       0.203  -0.869   2.645  0.00  0.00     0.077 C 
ATOM      2  C1' PXY d   1      -1.260   1.698  -2.324  0.00  0.00     0.077 C 
ATOM      3  C1  PXY d   1      -0.883   1.034  -1.014  0.00  0.00    -0.082 A 
ATOM      4  C2  PXY d   1       0.170   0.234  -0.966  0.00  0.00     0.003 A 
ATOM      5  C3  PXY d   1       0.507  -0.399   0.203  0.00  0.00     0.003 A 
ATOM      6  C4  PXY d   1      -0.210  -0.170   1.347  0.00  0.00    -0.082 A 
ATOM      7  C5  PXY d   1      -1.279   0.653   1.308  0.00  0.00     0.003 A 
ATOM      8  C6  PXY d   1      -1.629   1.254   0.102  0.00  0.00     0.003 A 
ENDROOT
TORSDOF 0
ENDMDL
