MODEL 1
REMARK minimizedAffinity -4.35994864
REMARK minimizedRMSD -1
REMARK  0 active torsions:
REMARK  status: ('A' for Active; 'I' for Inactive)
ROOT
ATOM      1  C4' PXY d   1       2.266  -1.966  -0.892  0.00  0.00     0.077 C 
ATOM      2  C1' PXY d   1      -1.853   0.544   2.293  0.00  0.00     0.077 C 
ATOM      3  C1  PXY d   1      -0.767  -0.117   1.469  0.00  0.00    -0.082 A 
ATOM      4  C2  PXY d   1      -0.561   0.275   0.222  0.00  0.00     0.003 A 
ATOM      5  C3  PXY d   1       0.396  -0.334  -0.548  0.00  0.00     0.003 A 
ATOM      6  C4  PXY d   1       1.187  -1.319  -0.019  0.00  0.00    -0.082 A 
ATOM      7  C5  PXY d   1       0.990  -1.718   1.255  0.00  0.00     0.003 A 
ATOM      8  C6  PXY d   1      -0.014  -1.115   2.007  0.00  0.00     0.003 A 
ENDROOT
TORSDOF 0
ENDMDL
