MODEL 1
REMARK minimizedAffinity -3.65942121
REMARK minimizedRMSD -1
REMARK  0 active torsions:
REMARK  status: ('A' for Active; 'I' for Inactive)
ROOT
ATOM      1  C4' PXY d   1      -2.102   0.181   2.262  0.00  0.00     0.077 C 
ATOM      2  C1' PXY d   1       1.956  -1.851  -1.319  0.00  0.00     0.077 C 
ATOM      3  C1  PXY d   1       0.894  -1.328  -0.371  0.00  0.00    -0.082 A 
ATOM      4  C2  PXY d   1      -0.082  -0.567  -0.839  0.00  0.00     0.003 A 
ATOM      5  C3  PXY d   1      -1.032  -0.059   0.009  0.00  0.00     0.003 A 
ATOM      6  C4  PXY d   1      -1.014  -0.377   1.341  0.00  0.00    -0.082 A 
ATOM      7  C5  PXY d   1      -0.027  -1.162   1.824  0.00  0.00     0.003 A 
ATOM      8  C6  PXY d   1       0.952  -1.633   0.953  0.00  0.00     0.003 A 
ENDROOT
TORSDOF 0
ENDMDL
