MODEL 1
REMARK minimizedAffinity -0.864408731
REMARK minimizedRMSD -1
REMARK  0 active torsions:
REMARK  status: ('A' for Active; 'I' for Inactive)
ROOT
ATOM      1  C4' PXY d   1       0.564  -0.765  -1.143  0.00  0.00     0.077 C 
ATOM      2  C1' PXY d   1      -1.239   4.342  -3.165  0.00  0.00     0.077 C 
ATOM      3  C1  PXY d   1      -0.778   3.001  -2.630  0.00  0.00    -0.082 A 
ATOM      4  C2  PXY d   1       0.509   2.793  -2.406  0.00  0.00     0.003 A 
ATOM      5  C3  PXY d   1       0.947   1.575  -1.953  0.00  0.00     0.003 A 
ATOM      6  C4  PXY d   1       0.052   0.577  -1.674  0.00  0.00    -0.082 A 
ATOM      7  C5  PXY d   1      -1.264   0.785  -1.889  0.00  0.00     0.003 A 
ATOM      8  C6  PXY d   1      -1.684   2.015  -2.389  0.00  0.00     0.003 A 
ENDROOT
TORSDOF 0
ENDMDL
