MODEL 1
REMARK minimizedAffinity -4.53529167
REMARK minimizedRMSD -1
REMARK  0 active torsions:
REMARK  status: ('A' for Active; 'I' for Inactive)
ROOT
ATOM      1  C4' PXY d   1       0.461  -0.767   1.594  0.00  0.00     0.077 C 
ATOM      2  C1' PXY d   1      -0.863   2.597  -2.916  0.00  0.00     0.077 C 
ATOM      3  C1  PXY d   1      -0.525   1.707  -1.737  0.00  0.00    -0.082 A 
ATOM      4  C2  PXY d   1       0.110   2.216  -0.693  0.00  0.00     0.003 A 
ATOM      5  C3  PXY d   1       0.451   1.418   0.368  0.00  0.00     0.003 A 
ATOM      6  C4  PXY d   1       0.092   0.097   0.385  0.00  0.00    -0.082 A 
ATOM      7  C5  PXY d   1      -0.566  -0.428  -0.671  0.00  0.00     0.003 A 
ATOM      8  C6  PXY d   1      -0.867   0.390  -1.756  0.00  0.00     0.003 A 
ENDROOT
TORSDOF 0
ENDMDL
