MODEL 1
REMARK minimizedAffinity -3.46571755
REMARK minimizedRMSD -1
REMARK  0 active torsions:
REMARK  status: ('A' for Active; 'I' for Inactive)
ROOT
ATOM      1  C4' PXY d   1      -1.014   1.773  -2.160  0.00  0.00     0.077 C 
ATOM      2  C1' PXY d   1       0.143  -1.477   2.478  0.00  0.00     0.077 C 
ATOM      3  C1  PXY d   1      -0.149  -0.629   1.256  0.00  0.00    -0.082 A 
ATOM      4  C2  PXY d   1      -0.953   0.417   1.363  0.00  0.00     0.003 A 
ATOM      5  C3  PXY d   1      -1.253   1.176   0.262  0.00  0.00     0.003 A 
ATOM      6  C4  PXY d   1      -0.683   0.894  -0.951  0.00  0.00    -0.082 A 
ATOM      7  C5  PXY d   1       0.146  -0.165  -1.066  0.00  0.00     0.003 A 
ATOM      8  C6  PXY d   1       0.406  -0.948   0.056  0.00  0.00     0.003 A 
ENDROOT
TORSDOF 0
ENDMDL
