MODEL 1
REMARK minimizedAffinity -2.31144238
REMARK minimizedRMSD -1
REMARK  0 active torsions:
REMARK  status: ('A' for Active; 'I' for Inactive)
ROOT
ATOM      1  C4' PXY d   1       0.544  -1.670   2.672  0.00  0.00     0.077 C 
ATOM      2  C1' PXY d   1      -0.408   1.075  -2.326  0.00  0.00     0.077 C 
ATOM      3  C1  PXY d   1      -0.151   0.346  -1.022  0.00  0.00    -0.082 A 
ATOM      4  C2  PXY d   1      -1.000   0.485  -0.017  0.00  0.00     0.003 A 
ATOM      5  C3  PXY d   1      -0.766  -0.141   1.181  0.00  0.00     0.003 A 
ATOM      6  C4  PXY d   1       0.320  -0.960   1.333  0.00  0.00    -0.082 A 
ATOM      7  C5  PXY d   1       1.186  -1.116   0.309  0.00  0.00     0.003 A 
ATOM      8  C6  PXY d   1       0.952  -0.438  -0.884  0.00  0.00     0.003 A 
ENDROOT
TORSDOF 0
ENDMDL
