MODEL 1
REMARK minimizedAffinity -3.61238289
REMARK minimizedRMSD -1
REMARK  0 active torsions:
REMARK  status: ('A' for Active; 'I' for Inactive)
ROOT
ATOM      1  C4' PXY d   1      -0.882   1.195  -2.329  0.00  0.00     0.077 C 
ATOM      2  C1' PXY d   1       0.857  -1.929   2.213  0.00  0.00     0.077 C 
ATOM      3  C1  PXY d   1       0.413  -1.110   1.017  0.00  0.00    -0.082 A 
ATOM      4  C2  PXY d   1      -0.661  -0.343   1.112  0.00  0.00     0.003 A 
ATOM      5  C3  PXY d   1      -1.095   0.380   0.031  0.00  0.00     0.003 A 
ATOM      6  C4  PXY d   1      -0.392   0.358  -1.144  0.00  0.00    -0.082 A 
ATOM      7  C5  PXY d   1       0.711  -0.414  -1.246  0.00  0.00     0.003 A 
ATOM      8  C6  PXY d   1       1.111  -1.172  -0.149  0.00  0.00     0.003 A 
ENDROOT
TORSDOF 0
ENDMDL
