MODEL 1
REMARK minimizedAffinity -2.2792592
REMARK minimizedRMSD -1
REMARK  0 active torsions:
REMARK  status: ('A' for Active; 'I' for Inactive)
ROOT
ATOM      1  C4' PXY d   1       0.352  -1.544   2.321  0.00  0.00     0.077 C 
ATOM      2  C1' PXY d   1      -0.793   2.205  -1.927  0.00  0.00     0.077 C 
ATOM      3  C1  PXY d   1      -0.490   1.212  -0.822  0.00  0.00    -0.082 A 
ATOM      4  C2  PXY d   1      -1.026   1.383   0.376  0.00  0.00     0.003 A 
ATOM      5  C3  PXY d   1      -0.738   0.513   1.396  0.00  0.00     0.003 A 
ATOM      6  C4  PXY d   1       0.066  -0.573   1.173  0.00  0.00    -0.082 A 
ATOM      7  C5  PXY d   1       0.609  -0.760  -0.049  0.00  0.00     0.003 A 
ATOM      8  C6  PXY d   1       0.337   0.158  -1.059  0.00  0.00     0.003 A 
ENDROOT
TORSDOF 0
ENDMDL
