MODEL 1
REMARK minimizedAffinity 4.18237543
REMARK minimizedRMSD -1
REMARK  1 active torsions:
REMARK  status: ('A' for Active; 'I' for Inactive)
REMARK    1  A    between atoms: C3_4  and  O_7 
ROOT
ATOM      1  C   UNL d   1       6.000   3.484   1.009  0.00  0.00    -0.033 A 
ATOM      2  C1  UNL d   1       5.295   4.058  -0.051  0.00  0.00     0.039 A 
ATOM      3  C2  UNL d   1       4.570   3.250  -0.928  0.00  0.00    -0.080 A 
ATOM      4  C3  UNL d   1       4.555   1.872  -0.734  0.00  0.00     0.150 A 
ATOM      5  C4  UNL d   1       5.252   1.293   0.323  0.00  0.00    -0.007 A 
ATOM      6  C5  UNL d   1       5.977   2.102   1.197  0.00  0.00     0.039 A 
ENDROOT
BRANCH   4   7
ATOM      7  O   UNL d   1       3.865   1.042  -1.566  0.00  0.00    -0.526 OA
ATOM      8  H5  UNL d   1       3.457   1.578  -2.266  0.00  0.00     0.418 HD
ENDBRANCH   4   7
TORSDOF 1
ENDMDL
