MODEL 1
REMARK minimizedAffinity 9.95644855
REMARK minimizedRMSD -1
REMARK  1 active torsions:
REMARK  status: ('A' for Active; 'I' for Inactive)
REMARK    1  A    between atoms: C3_4  and  O_7 
ROOT
ATOM      1  C   UNL d   1       1.523   0.123  -0.053  0.00  0.00    -0.033 A 
ATOM      2  C1  UNL d   1       1.218   0.219   1.306  0.00  0.00     0.039 A 
ATOM      3  C2  UNL d   1       0.035   0.836   1.716  0.00  0.00    -0.080 A 
ATOM      4  C3  UNL d   1      -0.835   1.351   0.759  0.00  0.00     0.150 A 
ATOM      5  C4  UNL d   1      -0.539   1.255  -0.597  0.00  0.00    -0.007 A 
ATOM      6  C5  UNL d   1       0.644   0.640  -1.005  0.00  0.00     0.039 A 
ENDROOT
BRANCH   4   7
ATOM      7  O   UNL d   1      -1.999   1.966   1.111  0.00  0.00    -0.526 OA
ATOM      8  H5  UNL d   1      -2.057   1.984   2.081  0.00  0.00     0.418 HD
ENDBRANCH   4   7
TORSDOF 1
ENDMDL
