MODEL 1
REMARK minimizedAffinity 9.22794533
REMARK minimizedRMSD -1
REMARK  1 active torsions:
REMARK  status: ('A' for Active; 'I' for Inactive)
REMARK    1  A    between atoms: C3_4  and  O_7 
ROOT
ATOM      1  C   UNL d   1      -0.102   1.162  -0.316  0.00  0.00    -0.033 A 
ATOM      2  C1  UNL d   1      -1.113   1.286   0.639  0.00  0.00     0.039 A 
ATOM      3  C2  UNL d   1      -0.971   0.683   1.891  0.00  0.00    -0.080 A 
ATOM      4  C3  UNL d   1       0.185  -0.039   2.174  0.00  0.00     0.150 A 
ATOM      5  C4  UNL d   1       1.198  -0.163   1.229  0.00  0.00    -0.007 A 
ATOM      6  C5  UNL d   1       1.054   0.439  -0.021  0.00  0.00     0.039 A 
ENDROOT
BRANCH   4   7
ATOM      7  O   UNL d   1       0.367  -0.649   3.380  0.00  0.00    -0.526 OA
ATOM      8  H5  UNL d   1      -0.426  -0.503   3.921  0.00  0.00     0.418 HD
ENDBRANCH   4   7
TORSDOF 1
ENDMDL
