MODEL 1
REMARK minimizedAffinity 8.398736
REMARK minimizedRMSD -1
REMARK  1 active torsions:
REMARK  status: ('A' for Active; 'I' for Inactive)
REMARK    1  A    between atoms: C3_4  and  O_7 
ROOT
ATOM      1  C   UNL d   1      -1.643   0.170  -3.158  0.00  0.00    -0.033 A 
ATOM      2  C1  UNL d   1      -2.328  -1.041  -3.272  0.00  0.00     0.039 A 
ATOM      3  C2  UNL d   1      -3.503  -1.113  -4.023  0.00  0.00    -0.080 A 
ATOM      4  C3  UNL d   1      -3.982   0.032  -4.654  0.00  0.00     0.150 A 
ATOM      5  C4  UNL d   1      -3.302   1.241  -4.548  0.00  0.00    -0.007 A 
ATOM      6  C5  UNL d   1      -2.130   1.311  -3.797  0.00  0.00     0.039 A 
ENDROOT
BRANCH   4   7
ATOM      7  O   UNL d   1      -5.127   0.012  -5.393  0.00  0.00    -0.526 OA
ATOM      8  H5  UNL d   1      -5.503  -0.883  -5.354  0.00  0.00     0.418 HD
ENDBRANCH   4   7
TORSDOF 1
ENDMDL
