MODEL 1
REMARK minimizedAffinity 12.0889406
REMARK minimizedRMSD -1
REMARK  1 active torsions:
REMARK  status: ('A' for Active; 'I' for Inactive)
REMARK    1  A    between atoms: C3_4  and  O_7 
ROOT
ATOM      1  C   UNL d   1       2.593  -0.462  -0.113  0.00  0.00    -0.033 A 
ATOM      2  C1  UNL d   1       3.209  -1.335  -1.012  0.00  0.00     0.039 A 
ATOM      3  C2  UNL d   1       4.155  -0.853  -1.919  0.00  0.00    -0.080 A 
ATOM      4  C3  UNL d   1       4.476   0.502  -1.916  0.00  0.00     0.150 A 
ATOM      5  C4  UNL d   1       3.869   1.376  -1.020  0.00  0.00    -0.007 A 
ATOM      6  C5  UNL d   1       2.924   0.893  -0.116  0.00  0.00     0.039 A 
ENDROOT
BRANCH   4   7
ATOM      7  O   UNL d   1       5.390   1.019  -2.785  0.00  0.00    -0.526 OA
ATOM      8  H5  UNL d   1       5.705   0.304  -3.363  0.00  0.00     0.418 HD
ENDBRANCH   4   7
TORSDOF 1
ENDMDL
