MODEL 1
REMARK minimizedAffinity 6.91668892
REMARK minimizedRMSD -1
REMARK  1 active torsions:
REMARK  status: ('A' for Active; 'I' for Inactive)
REMARK    1  A    between atoms: C3_4  and  O_7 
ROOT
ATOM      1  C   UNL d   1       5.993   2.029   0.301  0.00  0.00    -0.033 A 
ATOM      2  C1  UNL d   1       5.999   3.067   1.234  0.00  0.00     0.039 A 
ATOM      3  C2  UNL d   1       6.000   4.396   0.803  0.00  0.00    -0.080 A 
ATOM      4  C3  UNL d   1       5.993   4.671  -0.561  0.00  0.00     0.150 A 
ATOM      5  C4  UNL d   1       5.984   3.642  -1.497  0.00  0.00    -0.007 A 
ATOM      6  C5  UNL d   1       5.984   2.316  -1.065  0.00  0.00     0.039 A 
ENDROOT
BRANCH   4   7
ATOM      7  O   UNL d   1       5.999   5.951  -1.030  0.00  0.00    -0.526 OA
ATOM      8  H5  UNL d   1       6.034   6.557  -0.270  0.00  0.00     0.418 HD
ENDBRANCH   4   7
TORSDOF 1
ENDMDL
