MODEL 1
REMARK minimizedAffinity 4.22286558
REMARK minimizedRMSD -1
REMARK  1 active torsions:
REMARK  status: ('A' for Active; 'I' for Inactive)
REMARK    1  A    between atoms: C3_4  and  O_7 
ROOT
ATOM      1  C   UNL d   1       3.311  -0.361  -0.960  0.00  0.00    -0.033 A 
ATOM      2  C1  UNL d   1       3.838   0.676  -0.187  0.00  0.00     0.039 A 
ATOM      3  C2  UNL d   1       3.046   1.301   0.778  0.00  0.00    -0.080 A 
ATOM      4  C3  UNL d   1       1.732   0.881   0.961  0.00  0.00     0.150 A 
ATOM      5  C4  UNL d   1       1.201  -0.154   0.197  0.00  0.00    -0.007 A 
ATOM      6  C5  UNL d   1       1.993  -0.776  -0.768  0.00  0.00     0.039 A 
ENDROOT
BRANCH   4   7
ATOM      7  O   UNL d   1       0.919   1.464   1.887  0.00  0.00    -0.526 OA
ATOM      8  H5  UNL d   1       1.411   2.182   2.319  0.00  0.00     0.418 HD
ENDBRANCH   4   7
TORSDOF 1
ENDMDL
