MODEL 1
REMARK minimizedAffinity 8.79871464
REMARK minimizedRMSD -1
REMARK  1 active torsions:
REMARK  status: ('A' for Active; 'I' for Inactive)
REMARK    1  A    between atoms: C3_4  and  O_7 
ROOT
ATOM      1  C   UNL d   1       4.503   0.683  -2.226  0.00  0.00    -0.033 A 
ATOM      2  C1  UNL d   1       3.714   0.425  -1.103  0.00  0.00     0.039 A 
ATOM      3  C2  UNL d   1       4.065   0.961   0.137  0.00  0.00    -0.080 A 
ATOM      4  C3  UNL d   1       5.206   1.753   0.241  0.00  0.00     0.150 A 
ATOM      5  C4  UNL d   1       5.994   2.017  -0.874  0.00  0.00    -0.007 A 
ATOM      6  C5  UNL d   1       5.643   1.480  -2.111  0.00  0.00     0.039 A 
ENDROOT
BRANCH   4   7
ATOM      7  O   UNL d   1       5.591   2.294   1.432  0.00  0.00    -0.526 OA
ATOM      8  H5  UNL d   1       4.968   2.004   2.118  0.00  0.00     0.418 HD
ENDBRANCH   4   7
TORSDOF 1
ENDMDL
