MODEL 1
REMARK minimizedAffinity 1.42608762
REMARK minimizedRMSD -1
REMARK  1 active torsions:
REMARK  status: ('A' for Active; 'I' for Inactive)
REMARK    1  A    between atoms: C3_4  and  O_7 
ROOT
ATOM      1  C   UNL d   1      -2.623   0.849  -4.858  0.00  0.00    -0.033 A 
ATOM      2  C1  UNL d   1      -2.418   0.740  -3.481  0.00  0.00     0.039 A 
ATOM      3  C2  UNL d   1      -3.416   1.142  -2.591  0.00  0.00    -0.080 A 
ATOM      4  C3  UNL d   1      -4.613   1.649  -3.090  0.00  0.00     0.150 A 
ATOM      5  C4  UNL d   1      -4.825   1.756  -4.460  0.00  0.00    -0.007 A 
ATOM      6  C5  UNL d   1      -3.827   1.356  -5.347  0.00  0.00     0.039 A 
ENDROOT
BRANCH   4   7
ATOM      7  O   UNL d   1      -5.614   2.059  -2.260  0.00  0.00    -0.526 OA
ATOM      8  H5  UNL d   1      -5.315   1.953  -1.341  0.00  0.00     0.418 HD
ENDBRANCH   4   7
TORSDOF 1
ENDMDL
