MODEL 1
REMARK minimizedAffinity 5.02195406
REMARK minimizedRMSD -1
REMARK  1 active torsions:
REMARK  status: ('A' for Active; 'I' for Inactive)
REMARK    1  A    between atoms: C3_4  and  O_7 
ROOT
ATOM      1  C   UNL d   1      -1.737   0.105  -3.475  0.00  0.00    -0.033 A 
ATOM      2  C1  UNL d   1      -1.722   1.014  -4.535  0.00  0.00     0.039 A 
ATOM      3  C2  UNL d   1      -2.914   1.371  -5.167  0.00  0.00    -0.080 A 
ATOM      4  C3  UNL d   1      -4.113   0.815  -4.730  0.00  0.00     0.150 A 
ATOM      5  C4  UNL d   1      -4.136  -0.088  -3.672  0.00  0.00    -0.007 A 
ATOM      6  C5  UNL d   1      -2.944  -0.445  -3.042  0.00  0.00     0.039 A 
ENDROOT
BRANCH   4   7
ATOM      7  O   UNL d   1      -5.302   1.130  -5.319  0.00  0.00    -0.526 OA
ATOM      8  H5  UNL d   1      -5.128   1.742  -6.053  0.00  0.00     0.418 HD
ENDBRANCH   4   7
TORSDOF 1
ENDMDL
