MODEL 1
REMARK minimizedAffinity -2.40839553
REMARK minimizedRMSD -1
REMARK  3 active torsions:
REMARK  status: ('A' for Active; 'I' for Inactive)
REMARK    1  A    between atoms: C3'_2  and  C2'_3 
REMARK    2  A    between atoms: C2'_3  and  C1'_4 
REMARK    3  A    between atoms: C1'_4  and  C1_5 
ROOT
ATOM      1  C1  N4B d   1      -3.102   1.934  -4.956  0.00  0.00    -0.075 A 
ATOM      2  C2  N4B d   1      -4.148   2.651  -5.576  0.00  0.00     0.002 A 
ATOM      3  C3  N4B d   1      -3.940   3.941  -5.998  0.00  0.00     0.002 A 
ATOM      4  C4  N4B d   1      -2.705   4.538  -5.796  0.00  0.00    -0.004 A 
ATOM      5  C5  N4B d   1      -1.692   3.830  -5.220  0.00  0.00     0.002 A 
ATOM      6  C6  N4B d   1      -1.885   2.531  -4.794  0.00  0.00     0.002 A 
ENDROOT
BRANCH   1   7
ATOM      7  C1' N4B d   1      -3.307   0.551  -4.400  0.00  0.00     0.057 C 
BRANCH   7   8
ATOM      8  C2' N4B d   1      -4.295  -0.203  -5.284  0.00  0.00     0.009 C 
BRANCH   8   9
ATOM      9  C3' N4B d   1      -4.490  -1.637  -4.824  0.00  0.00     0.004 C 
ATOM     10  C4' N4B d   1      -4.942  -2.545  -5.928  0.00  0.00     0.003 C 
ENDBRANCH   8   9
ENDBRANCH   7   8
ENDBRANCH   1   7
TORSDOF 3
ENDMDL
