MODEL 1
REMARK minimizedAffinity -2.7806654
REMARK minimizedRMSD -1
REMARK  3 active torsions:
REMARK  status: ('A' for Active; 'I' for Inactive)
REMARK    1  A    between atoms: C3'_2  and  C2'_3 
REMARK    2  A    between atoms: C2'_3  and  C1'_4 
REMARK    3  A    between atoms: C1'_4  and  C1_5 
ROOT
ATOM      1  C1  N4B d   1      -3.860   2.120  -5.637  0.00  0.00    -0.075 A 
ATOM      2  C2  N4B d   1      -2.805   3.042  -5.468  0.00  0.00     0.002 A 
ATOM      3  C3  N4B d   1      -3.049   4.390  -5.565  0.00  0.00     0.002 A 
ATOM      4  C4  N4B d   1      -4.332   4.836  -5.847  0.00  0.00    -0.004 A 
ATOM      5  C5  N4B d   1      -5.351   3.939  -5.984  0.00  0.00     0.002 A 
ATOM      6  C6  N4B d   1      -5.120   2.582  -5.885  0.00  0.00     0.002 A 
ENDROOT
BRANCH   1   7
ATOM      7  C1' N4B d   1      -3.626   0.634  -5.626  0.00  0.00     0.057 C 
BRANCH   7   8
ATOM      8  C2' N4B d   1      -4.927  -0.082  -5.975  0.00  0.00     0.009 C 
BRANCH   8   9
ATOM      9  C3' N4B d   1      -5.134  -1.329  -5.133  0.00  0.00     0.004 C 
ATOM     10  C4' N4B d   1      -4.588  -2.565  -5.783  0.00  0.00     0.003 C 
ENDBRANCH   8   9
ENDBRANCH   7   8
ENDBRANCH   1   7
TORSDOF 3
ENDMDL
