MODEL 1
REMARK minimizedAffinity -3.60044241
REMARK minimizedRMSD -1
REMARK  3 active torsions:
REMARK  status: ('A' for Active; 'I' for Inactive)
REMARK    1  A    between atoms: C3'_2  and  C2'_3 
REMARK    2  A    between atoms: C2'_3  and  C1'_4 
REMARK    3  A    between atoms: C1'_4  and  C1_5 
ROOT
ATOM      1  C1  N4B d   1       3.190  -0.814  -1.482  0.00  0.00    -0.075 A 
ATOM      2  C2  N4B d   1       2.622  -2.106  -1.522  0.00  0.00     0.002 A 
ATOM      3  C3  N4B d   1       3.345  -3.159  -2.026  0.00  0.00     0.002 A 
ATOM      4  C4  N4B d   1       4.626  -2.941  -2.512  0.00  0.00    -0.004 A 
ATOM      5  C5  N4B d   1       5.177  -1.695  -2.447  0.00  0.00     0.002 A 
ATOM      6  C6  N4B d   1       4.463  -0.628  -1.938  0.00  0.00     0.002 A 
ENDROOT
BRANCH   1   7
ATOM      7  C1' N4B d   1       2.407   0.384  -1.019  0.00  0.00     0.057 C 
BRANCH   7   8
ATOM      8  C2' N4B d   1       0.917   0.063  -1.082  0.00  0.00     0.009 C 
BRANCH   8   9
ATOM      9  C3' N4B d   1       0.194   0.467   0.191  0.00  0.00     0.004 C 
ATOM     10  C4' N4B d   1      -0.556   1.758   0.049  0.00  0.00     0.003 C 
ENDBRANCH   8   9
ENDBRANCH   7   8
ENDBRANCH   1   7
TORSDOF 3
ENDMDL
