MODEL 1
REMARK minimizedAffinity 3.88661098
REMARK minimizedRMSD -1
REMARK  3 active torsions:
REMARK  status: ('A' for Active; 'I' for Inactive)
REMARK    1  A    between atoms: C3'_2  and  C2'_3 
REMARK    2  A    between atoms: C2'_3  and  C1'_4 
REMARK    3  A    between atoms: C1'_4  and  C1_5 
ROOT
ATOM      1  C1  N4B d   1      -3.697  -2.103  -2.267  0.00  0.00    -0.075 A 
ATOM      2  C2  N4B d   1      -3.762  -1.979  -3.673  0.00  0.00     0.002 A 
ATOM      3  C3  N4B d   1      -2.621  -2.111  -4.426  0.00  0.00     0.002 A 
ATOM      4  C4  N4B d   1      -1.407  -2.347  -3.798  0.00  0.00    -0.004 A 
ATOM      5  C5  N4B d   1      -1.358  -2.491  -2.442  0.00  0.00     0.002 A 
ATOM      6  C6  N4B d   1      -2.497  -2.365  -1.673  0.00  0.00     0.002 A 
ENDROOT
BRANCH   1   7
ATOM      7  C1' N4B d   1      -4.903  -1.882  -1.395  0.00  0.00     0.057 C 
BRANCH   7   8
ATOM      8  C2' N4B d   1      -4.739  -0.566  -0.639  0.00  0.00     0.009 C 
BRANCH   8   9
ATOM      9  C3' N4B d   1      -4.480  -0.790   0.841  0.00  0.00     0.004 C 
ATOM     10  C4' N4B d   1      -4.140   0.476   1.569  0.00  0.00     0.003 C 
ENDBRANCH   8   9
ENDBRANCH   7   8
ENDBRANCH   1   7
TORSDOF 3
ENDMDL
