MODEL 1
REMARK minimizedAffinity -2.76270914
REMARK minimizedRMSD -1
REMARK  3 active torsions:
REMARK  status: ('A' for Active; 'I' for Inactive)
REMARK    1  A    between atoms: C3'_2  and  C2'_3 
REMARK    2  A    between atoms: C2'_3  and  C1'_4 
REMARK    3  A    between atoms: C1'_4  and  C1_5 
ROOT
ATOM      1  C1  N4B d   1      -3.642   2.285  -5.537  0.00  0.00    -0.075 A 
ATOM      2  C2  N4B d   1      -2.371   2.681  -5.064  0.00  0.00     0.002 A 
ATOM      3  C3  N4B d   1      -2.028   4.011  -5.050  0.00  0.00     0.002 A 
ATOM      4  C4  N4B d   1      -2.927   4.957  -5.519  0.00  0.00    -0.004 A 
ATOM      5  C5  N4B d   1      -4.162   4.568  -5.950  0.00  0.00     0.002 A 
ATOM      6  C6  N4B d   1      -4.522   3.236  -5.967  0.00  0.00     0.002 A 
ENDROOT
BRANCH   1   7
ATOM      7  C1' N4B d   1      -4.030   0.837  -5.653  0.00  0.00     0.057 C 
BRANCH   7   8
ATOM      8  C2' N4B d   1      -5.532   0.739  -5.903  0.00  0.00     0.009 C 
BRANCH   8   9
ATOM      9  C3' N4B d   1      -6.000  -0.703  -6.000  0.00  0.00     0.004 C 
ATOM     10  C4' N4B d   1      -4.866  -1.684  -5.974  0.00  0.00     0.003 C 
ENDBRANCH   8   9
ENDBRANCH   7   8
ENDBRANCH   1   7
TORSDOF 3
ENDMDL
