MODEL 1
REMARK minimizedAffinity 0.325076938
REMARK minimizedRMSD -1
REMARK  3 active torsions:
REMARK  status: ('A' for Active; 'I' for Inactive)
REMARK    1  A    between atoms: C3'_2  and  C2'_3 
REMARK    2  A    between atoms: C2'_3  and  C1'_4 
REMARK    3  A    between atoms: C1'_4  and  C1_5 
ROOT
ATOM      1  C1  N4B d   1       0.899   0.356  -1.709  0.00  0.00    -0.075 A 
ATOM      2  C2  N4B d   1       0.125   0.878  -2.768  0.00  0.00     0.002 A 
ATOM      3  C3  N4B d   1      -0.835   0.099  -3.366  0.00  0.00     0.002 A 
ATOM      4  C4  N4B d   1      -1.025  -1.205  -2.936  0.00  0.00    -0.004 A 
ATOM      5  C5  N4B d   1      -0.290  -1.694  -1.896  0.00  0.00     0.002 A 
ATOM      6  C6  N4B d   1       0.675  -0.921  -1.283  0.00  0.00     0.002 A 
ENDROOT
BRANCH   1   7
ATOM      7  C1' N4B d   1       2.019   1.141  -1.081  0.00  0.00     0.057 C 
BRANCH   7   8
ATOM      8  C2' N4B d   1       3.219   1.142  -2.024  0.00  0.00     0.009 C 
BRANCH   8   9
ATOM      9  C3' N4B d   1       4.509   0.794  -1.301  0.00  0.00     0.004 C 
ATOM     10  C4' N4B d   1       5.338   2.001  -0.980  0.00  0.00     0.003 C 
ENDBRANCH   8   9
ENDBRANCH   7   8
ENDBRANCH   1   7
TORSDOF 3
ENDMDL
