MODEL 1
REMARK minimizedAffinity 5.06542063
REMARK minimizedRMSD -1
REMARK  3 active torsions:
REMARK  status: ('A' for Active; 'I' for Inactive)
REMARK    1  A    between atoms: C3'_2  and  C2'_3 
REMARK    2  A    between atoms: C2'_3  and  C1'_4 
REMARK    3  A    between atoms: C1'_4  and  C1_5 
ROOT
ATOM      1  C1  N4B d   1      -3.904   3.556  -5.790  0.00  0.00    -0.075 A 
ATOM      2  C2  N4B d   1      -2.503   3.391  -5.737  0.00  0.00     0.002 A 
ATOM      3  C3  N4B d   1      -1.679   4.487  -5.811  0.00  0.00     0.002 A 
ATOM      4  C4  N4B d   1      -2.231   5.751  -5.958  0.00  0.00    -0.004 A 
ATOM      5  C5  N4B d   1      -3.586   5.905  -5.982  0.00  0.00     0.002 A 
ATOM      6  C6  N4B d   1      -4.426   4.812  -5.904  0.00  0.00     0.002 A 
ENDROOT
BRANCH   1   7
ATOM      7  C1' N4B d   1      -4.843   2.381  -5.798  0.00  0.00     0.057 C 
BRANCH   7   8
ATOM      8  C2' N4B d   1      -4.488   1.448  -4.644  0.00  0.00     0.009 C 
BRANCH   8   9
ATOM      9  C3' N4B d   1      -5.347   0.196  -4.640  0.00  0.00     0.004 C 
ATOM     10  C4' N4B d   1      -4.638  -0.994  -4.065  0.00  0.00     0.003 C 
ENDBRANCH   8   9
ENDBRANCH   7   8
ENDBRANCH   1   7
TORSDOF 3
ENDMDL
