MODEL 1
REMARK minimizedAffinity 1.91485453
REMARK minimizedRMSD -1
REMARK  3 active torsions:
REMARK  status: ('A' for Active; 'I' for Inactive)
REMARK    1  A    between atoms: C3'_2  and  C2'_3 
REMARK    2  A    between atoms: C2'_3  and  C1'_4 
REMARK    3  A    between atoms: C1'_4  and  C1_5 
ROOT
ATOM      1  C1  N4B d   1      -4.990   2.258  -5.362  0.00  0.00    -0.075 A 
ATOM      2  C2  N4B d   1      -3.592   2.452  -5.307  0.00  0.00     0.002 A 
ATOM      3  C3  N4B d   1      -3.057   3.681  -5.604  0.00  0.00     0.002 A 
ATOM      4  C4  N4B d   1      -3.895   4.723  -5.974  0.00  0.00    -0.004 A 
ATOM      5  C5  N4B d   1      -5.246   4.535  -6.000  0.00  0.00     0.002 A 
ATOM      6  C6  N4B d   1      -5.798   3.305  -5.701  0.00  0.00     0.002 A 
ENDROOT
BRANCH   1   7
ATOM      7  C1' N4B d   1      -5.615   0.910  -5.130  0.00  0.00     0.057 C 
BRANCH   7   8
ATOM      8  C2' N4B d   1      -4.523  -0.156  -5.138  0.00  0.00     0.009 C 
BRANCH   8   9
ATOM      9  C3' N4B d   1      -5.055  -1.518  -4.726  0.00  0.00     0.004 C 
ATOM     10  C4' N4B d   1      -4.975  -2.530  -5.830  0.00  0.00     0.003 C 
ENDBRANCH   8   9
ENDBRANCH   7   8
ENDBRANCH   1   7
TORSDOF 3
ENDMDL
