MODEL 1
REMARK minimizedAffinity -0.698720574
REMARK minimizedRMSD -1
REMARK  3 active torsions:
REMARK  status: ('A' for Active; 'I' for Inactive)
REMARK    1  A    between atoms: C3'_2  and  C2'_3 
REMARK    2  A    between atoms: C2'_3  and  C1'_4 
REMARK    3  A    between atoms: C1'_4  and  C1_5 
ROOT
ATOM      1  C1  N4B d   1      -4.425   1.384  -5.794  0.00  0.00    -0.075 A 
ATOM      2  C2  N4B d   1      -3.085   1.711  -5.495  0.00  0.00     0.002 A 
ATOM      3  C3  N4B d   1      -2.699   3.028  -5.422  0.00  0.00     0.002 A 
ATOM      4  C4  N4B d   1      -3.628   4.029  -5.662  0.00  0.00    -0.004 A 
ATOM      5  C5  N4B d   1      -4.927   3.704  -5.925  0.00  0.00     0.002 A 
ATOM      6  C6  N4B d   1      -5.330   2.386  -5.998  0.00  0.00     0.002 A 
ENDROOT
BRANCH   1   7
ATOM      7  C1' N4B d   1      -4.875  -0.041  -5.969  0.00  0.00     0.057 C 
BRANCH   7   8
ATOM      8  C2' N4B d   1      -3.657  -0.959  -5.922  0.00  0.00     0.009 C 
BRANCH   8   9
ATOM      9  C3' N4B d   1      -4.048  -2.425  -5.996  0.00  0.00     0.004 C 
ATOM     10  C4' N4B d   1      -5.528  -2.639  -5.874  0.00  0.00     0.003 C 
ENDBRANCH   8   9
ENDBRANCH   7   8
ENDBRANCH   1   7
TORSDOF 3
ENDMDL
