MODEL 1
REMARK minimizedAffinity -3.56276274
REMARK minimizedRMSD -1
REMARK  3 active torsions:
REMARK  status: ('A' for Active; 'I' for Inactive)
REMARK    1  A    between atoms: C3'_2  and  C2'_3 
REMARK    2  A    between atoms: C2'_3  and  C1'_4 
REMARK    3  A    between atoms: C1'_4  and  C1_5 
ROOT
ATOM      1  C1  N4B d   1      -1.578  -3.732  -4.661  0.00  0.00    -0.075 A 
ATOM      2  C2  N4B d   1      -2.654  -3.350  -5.493  0.00  0.00     0.002 A 
ATOM      3  C3  N4B d   1      -3.502  -4.304  -5.999  0.00  0.00     0.002 A 
ATOM      4  C4  N4B d   1      -3.283  -5.642  -5.705  0.00  0.00    -0.004 A 
ATOM      5  C5  N4B d   1      -2.257  -6.000  -4.881  0.00  0.00     0.002 A 
ATOM      6  C6  N4B d   1      -1.399  -5.052  -4.361  0.00  0.00     0.002 A 
ENDROOT
BRANCH   1   7
ATOM      7  C1' N4B d   1      -0.573  -2.734  -4.153  0.00  0.00     0.057 C 
BRANCH   7   8
ATOM      8  C2' N4B d   1      -1.300  -1.457  -3.742  0.00  0.00     0.009 C 
BRANCH   8   9
ATOM      9  C3' N4B d   1      -0.334  -0.361  -3.328  0.00  0.00     0.004 C 
ATOM     10  C4' N4B d   1      -0.019  -0.387  -1.862  0.00  0.00     0.003 C 
ENDBRANCH   8   9
ENDBRANCH   7   8
ENDBRANCH   1   7
TORSDOF 3
ENDMDL
