MODEL 1
REMARK minimizedAffinity -5.09620285
REMARK minimizedRMSD -1
REMARK  3 active torsions:
REMARK  status: ('A' for Active; 'I' for Inactive)
REMARK    1  A    between atoms: C3'_2  and  C2'_3 
REMARK    2  A    between atoms: C2'_3  and  C1'_4 
REMARK    3  A    between atoms: C1'_4  and  C1_5 
ROOT
ATOM      1  C1  N4B d   1       4.128  -2.126  -3.703  0.00  0.00    -0.075 A 
ATOM      2  C2  N4B d   1       3.759  -1.389  -4.849  0.00  0.00     0.002 A 
ATOM      3  C3  N4B d   1       4.522  -1.463  -5.989  0.00  0.00     0.002 A 
ATOM      4  C4  N4B d   1       5.664  -2.249  -6.000  0.00  0.00    -0.004 A 
ATOM      5  C5  N4B d   1       6.000  -2.978  -4.897  0.00  0.00     0.002 A 
ATOM      6  C6  N4B d   1       5.240  -2.917  -3.746  0.00  0.00     0.002 A 
ENDROOT
BRANCH   1   7
ATOM      7  C1' N4B d   1       3.374  -2.010  -2.407  0.00  0.00     0.057 C 
BRANCH   7   8
ATOM      8  C2' N4B d   1       2.705  -0.641  -2.337  0.00  0.00     0.009 C 
BRANCH   8   9
ATOM      9  C3' N4B d   1       1.223  -0.747  -2.022  0.00  0.00     0.004 C 
ATOM     10  C4' N4B d   1       0.904  -0.390  -0.601  0.00  0.00     0.003 C 
ENDBRANCH   8   9
ENDBRANCH   7   8
ENDBRANCH   1   7
TORSDOF 3
ENDMDL
