MODEL 1
REMARK minimizedAffinity 4.24077034
REMARK minimizedRMSD -1
REMARK  3 active torsions:
REMARK  status: ('A' for Active; 'I' for Inactive)
REMARK    1  A    between atoms: C3'_2  and  C2'_3 
REMARK    2  A    between atoms: C2'_3  and  C1'_4 
REMARK    3  A    between atoms: C1'_4  and  C1_5 
ROOT
ATOM      1  C1  N4B d   1       3.595   0.722  -1.234  0.00  0.00    -0.075 A 
ATOM      2  C2  N4B d   1       3.588   2.115  -1.000  0.00  0.00     0.002 A 
ATOM      3  C3  N4B d   1       4.774   2.797  -0.884  0.00  0.00     0.002 A 
ATOM      4  C4  N4B d   1       5.974   2.108  -0.980  0.00  0.00    -0.004 A 
ATOM      5  C5  N4B d   1       5.972   0.768  -1.231  0.00  0.00     0.002 A 
ATOM      6  C6  N4B d   1       4.787   0.069  -1.354  0.00  0.00     0.002 A 
ENDROOT
BRANCH   1   7
ATOM      7  C1' N4B d   1       2.324  -0.081  -1.282  0.00  0.00     0.057 C 
BRANCH   7   8
ATOM      8  C2' N4B d   1       1.282   0.575  -0.381  0.00  0.00     0.009 C 
BRANCH   8   9
ATOM      9  C3' N4B d   1      -0.059   0.727  -1.079  0.00  0.00     0.004 C 
ATOM     10  C4' N4B d   1      -0.022   0.280  -2.510  0.00  0.00     0.003 C 
ENDBRANCH   8   9
ENDBRANCH   7   8
ENDBRANCH   1   7
TORSDOF 3
ENDMDL
