MODEL 1
REMARK minimizedAffinity -3.87111378
REMARK minimizedRMSD -1
REMARK  3 active torsions:
REMARK  status: ('A' for Active; 'I' for Inactive)
REMARK    1  A    between atoms: C3'_2  and  C2'_3 
REMARK    2  A    between atoms: C2'_3  and  C1'_4 
REMARK    3  A    between atoms: C1'_4  and  C1_5 
ROOT
ATOM      1  C1  N4B d   1       4.131  -2.148  -3.606  0.00  0.00    -0.075 A 
ATOM      2  C2  N4B d   1       3.612  -1.524  -4.761  0.00  0.00     0.002 A 
ATOM      3  C3  N4B d   1       4.298  -1.597  -5.949  0.00  0.00     0.002 A 
ATOM      4  C4  N4B d   1       5.510  -2.270  -6.000  0.00  0.00    -0.004 A 
ATOM      5  C5  N4B d   1       5.993  -2.891  -4.885  0.00  0.00     0.002 A 
ATOM      6  C6  N4B d   1       5.311  -2.830  -3.686  0.00  0.00     0.002 A 
ENDROOT
BRANCH   1   7
ATOM      7  C1' N4B d   1       3.459  -2.023  -2.266  0.00  0.00     0.057 C 
BRANCH   7   8
ATOM      8  C2' N4B d   1       2.779  -0.661  -2.172  0.00  0.00     0.009 C 
BRANCH   8   9
ATOM      9  C3' N4B d   1       1.302  -0.785  -1.839  0.00  0.00     0.004 C 
ATOM     10  C4' N4B d   1       0.871   0.150  -0.749  0.00  0.00     0.003 C 
ENDBRANCH   8   9
ENDBRANCH   7   8
ENDBRANCH   1   7
TORSDOF 3
ENDMDL
