MODEL 1
REMARK minimizedAffinity -4.24946117
REMARK minimizedRMSD -1
REMARK  3 active torsions:
REMARK  status: ('A' for Active; 'I' for Inactive)
REMARK    1  A    between atoms: C3'_2  and  C2'_3 
REMARK    2  A    between atoms: C2'_3  and  C1'_4 
REMARK    3  A    between atoms: C1'_4  and  C1_5 
ROOT
ATOM      1  C1  N4B d   1      -4.240  -0.975  -5.947  0.00  0.00    -0.075 A 
ATOM      2  C2  N4B d   1      -2.951  -1.552  -5.984  0.00  0.00     0.002 A 
ATOM      3  C3  N4B d   1      -2.810  -2.918  -6.000  0.00  0.00     0.002 A 
ATOM      4  C4  N4B d   1      -3.938  -3.724  -5.960  0.00  0.00    -0.004 A 
ATOM      5  C5  N4B d   1      -5.180  -3.159  -5.950  0.00  0.00     0.002 A 
ATOM      6  C6  N4B d   1      -5.336  -1.787  -5.938  0.00  0.00     0.002 A 
ENDROOT
BRANCH   1   7
ATOM      7  C1' N4B d   1      -4.441   0.512  -5.842  0.00  0.00     0.057 C 
BRANCH   7   8
ATOM      8  C2' N4B d   1      -3.094   1.212  -5.992  0.00  0.00     0.009 C 
BRANCH   8   9
ATOM      9  C3' N4B d   1      -3.161   2.670  -5.571  0.00  0.00     0.004 C 
ATOM     10  C4' N4B d   1      -4.432   3.340  -6.000  0.00  0.00     0.003 C 
ENDBRANCH   8   9
ENDBRANCH   7   8
ENDBRANCH   1   7
TORSDOF 3
ENDMDL
