MODEL 1
REMARK minimizedAffinity -3.3199234
REMARK minimizedRMSD -1
REMARK  2 active torsions:
REMARK  status: ('A' for Active; 'I' for Inactive)
REMARK    1  A    between atoms: C1_2  and  C2_3 
REMARK    2  A    between atoms: C2_3  and  C3_4 
ROOT
ATOM      1  C3  UNL d   1       1.945  -0.096   0.071  0.00  0.00    -0.075 A 
ATOM      2  C4  UNL d   1       2.622  -1.160   0.685  0.00  0.00     0.002 A 
ATOM      3  C5  UNL d   1       1.917  -2.264   1.166  0.00  0.00     0.002 A 
ATOM      4  C6  UNL d   1       0.530  -2.314   1.049  0.00  0.00    -0.004 A 
ATOM      5  C7  UNL d   1      -0.154  -1.254   0.456  0.00  0.00     0.002 A 
ATOM      6  C8  UNL d   1       0.549  -0.150  -0.030  0.00  0.00     0.002 A 
ENDROOT
BRANCH   1   7
ATOM      7  C2  UNL d   1       2.705   1.088  -0.478  0.00  0.00     0.056 C 
BRANCH   7   8
ATOM      8  C1  UNL d   1       2.285   2.433   0.126  0.00  0.00     0.007 C 
ATOM      9  C   UNL d   1       3.331   3.525  -0.056  0.00  0.00     0.009 C 
ENDBRANCH   7   8
ENDBRANCH   1   7
TORSDOF 2
ENDMDL
