MODEL 1
REMARK minimizedAffinity -5.10967445
REMARK minimizedRMSD -1
REMARK  2 active torsions:
REMARK  status: ('A' for Active; 'I' for Inactive)
REMARK    1  A    between atoms: C1_2  and  C2_3 
REMARK    2  A    between atoms: C2_3  and  C3_4 
ROOT
ATOM      1  C3  UNL d   1      -0.588   2.136  -1.310  0.00  0.00    -0.075 A 
ATOM      2  C4  UNL d   1      -0.237   2.945  -2.400  0.00  0.00     0.002 A 
ATOM      3  C5  UNL d   1      -1.063   3.020  -3.522  0.00  0.00     0.002 A 
ATOM      4  C6  UNL d   1      -2.242   2.280  -3.574  0.00  0.00    -0.004 A 
ATOM      5  C7  UNL d   1      -2.592   1.459  -2.504  0.00  0.00     0.002 A 
ATOM      6  C8  UNL d   1      -1.770   1.386  -1.378  0.00  0.00     0.002 A 
ENDROOT
BRANCH   1   7
ATOM      7  C2  UNL d   1       0.286   2.073  -0.081  0.00  0.00     0.056 C 
BRANCH   7   8
ATOM      8  C1  UNL d   1       0.824   3.435   0.372  0.00  0.00     0.007 C 
ATOM      9  C   UNL d   1       2.335   3.451   0.559  0.00  0.00     0.009 C 
ENDBRANCH   7   8
ENDBRANCH   1   7
TORSDOF 2
ENDMDL
