MODEL 1
REMARK minimizedAffinity -4.97805643
REMARK minimizedRMSD -1
REMARK  2 active torsions:
REMARK  status: ('A' for Active; 'I' for Inactive)
REMARK    1  A    between atoms: C1_2  and  C2_3 
REMARK    2  A    between atoms: C2_3  and  C3_4 
ROOT
ATOM      1  C3  UNL d   1       0.534   0.590   0.057  0.00  0.00    -0.075 A 
ATOM      2  C4  UNL d   1      -0.612   0.108   0.705  0.00  0.00     0.002 A 
ATOM      3  C5  UNL d   1      -0.633  -1.180   1.242  0.00  0.00     0.002 A 
ATOM      4  C6  UNL d   1       0.485  -2.003   1.129  0.00  0.00    -0.004 A 
ATOM      5  C7  UNL d   1       1.623  -1.540   0.472  0.00  0.00     0.002 A 
ATOM      6  C8  UNL d   1       1.648  -0.251  -0.062  0.00  0.00     0.002 A 
ENDROOT
BRANCH   1   7
ATOM      7  C2  UNL d   1       0.573   1.993  -0.500  0.00  0.00     0.056 C 
BRANCH   7   8
ATOM      8  C1  UNL d   1       1.100   3.041   0.485  0.00  0.00     0.007 C 
ATOM      9  C   UNL d   1       2.617   3.177   0.464  0.00  0.00     0.009 C 
ENDBRANCH   7   8
ENDBRANCH   1   7
TORSDOF 2
ENDMDL
