MODEL 1
REMARK minimizedAffinity -2.68124938
REMARK minimizedRMSD -1
REMARK  2 active torsions:
REMARK  status: ('A' for Active; 'I' for Inactive)
REMARK    1  A    between atoms: C1_2  and  C2_3 
REMARK    2  A    between atoms: C2_3  and  C3_4 
ROOT
ATOM      1  C3  UNL d   1       1.578   0.716   0.041  0.00  0.00    -0.075 A 
ATOM      2  C4  UNL d   1       1.821   2.097   0.004  0.00  0.00     0.002 A 
ATOM      3  C5  UNL d   1       0.761   3.004   0.018  0.00  0.00     0.002 A 
ATOM      4  C6  UNL d   1      -0.553   2.543   0.060  0.00  0.00    -0.004 A 
ATOM      5  C7  UNL d   1      -0.807   1.174   0.080  0.00  0.00     0.002 A 
ATOM      6  C8  UNL d   1       0.252   0.264   0.070  0.00  0.00     0.002 A 
ENDROOT
BRANCH   1   7
ATOM      7  C2  UNL d   1       2.721  -0.270   0.055  0.00  0.00     0.056 C 
BRANCH   7   8
ATOM      8  C1  UNL d   1       2.768  -1.152   1.307  0.00  0.00     0.007 C 
ATOM      9  C   UNL d   1       3.855  -0.741   2.291  0.00  0.00     0.009 C 
ENDBRANCH   7   8
ENDBRANCH   1   7
TORSDOF 2
ENDMDL
