MODEL 1
REMARK minimizedAffinity -3.34875703
REMARK minimizedRMSD -1
REMARK  2 active torsions:
REMARK  status: ('A' for Active; 'I' for Inactive)
REMARK    1  A    between atoms: C1_2  and  C2_3 
REMARK    2  A    between atoms: C2_3  and  C3_4 
ROOT
ATOM      1  C3  UNL d   1      -0.299   2.921  -1.721  0.00  0.00    -0.075 A 
ATOM      2  C4  UNL d   1      -1.372   2.125  -2.149  0.00  0.00     0.002 A 
ATOM      3  C5  UNL d   1      -1.780   2.145  -3.483  0.00  0.00     0.002 A 
ATOM      4  C6  UNL d   1      -1.129   2.965  -4.402  0.00  0.00    -0.004 A 
ATOM      5  C7  UNL d   1      -0.073   3.772  -3.984  0.00  0.00     0.002 A 
ATOM      6  C8  UNL d   1       0.340   3.751  -2.651  0.00  0.00     0.002 A 
ENDROOT
BRANCH   1   7
ATOM      7  C2  UNL d   1       0.166   2.883  -0.285  0.00  0.00     0.056 C 
BRANCH   7   8
ATOM      8  C1  UNL d   1       0.764   4.203   0.213  0.00  0.00     0.007 C 
ATOM      9  C   UNL d   1       2.265   4.126   0.461  0.00  0.00     0.009 C 
ENDBRANCH   7   8
ENDBRANCH   1   7
TORSDOF 2
ENDMDL
