MODEL 1
REMARK minimizedAffinity -2.19187021
REMARK minimizedRMSD -1
REMARK  2 active torsions:
REMARK  status: ('A' for Active; 'I' for Inactive)
REMARK    1  A    between atoms: C1_2  and  C2_3 
REMARK    2  A    between atoms: C2_3  and  C3_4 
ROOT
ATOM      1  C3  UNL d   1       0.709   2.384  -0.274  0.00  0.00    -0.075 A 
ATOM      2  C4  UNL d   1       2.105   2.283  -0.366  0.00  0.00     0.002 A 
ATOM      3  C5  UNL d   1       2.924   3.284   0.158  0.00  0.00     0.002 A 
ATOM      4  C6  UNL d   1       2.359   4.401   0.770  0.00  0.00    -0.004 A 
ATOM      5  C7  UNL d   1       0.973   4.519   0.852  0.00  0.00     0.002 A 
ATOM      6  C8  UNL d   1       0.152   3.517   0.333  0.00  0.00     0.002 A 
ENDROOT
BRANCH   1   7
ATOM      7  C2  UNL d   1      -0.182   1.290  -0.813  0.00  0.00     0.056 C 
BRANCH   7   8
ATOM      8  C1  UNL d   1      -0.293   0.068   0.104  0.00  0.00     0.007 C 
ATOM      9  C   UNL d   1      -1.477   0.139   1.059  0.00  0.00     0.009 C 
ENDBRANCH   7   8
ENDBRANCH   1   7
TORSDOF 2
ENDMDL
