MODEL 1
REMARK minimizedAffinity 0.61745739
REMARK minimizedRMSD -1
REMARK  2 active torsions:
REMARK  status: ('A' for Active; 'I' for Inactive)
REMARK    1  A    between atoms: C1_2  and  C2_3 
REMARK    2  A    between atoms: C2_3  and  C3_4 
ROOT
ATOM      1  C3  UNL d   1      -0.541   0.432   0.409  0.00  0.00    -0.075 A 
ATOM      2  C4  UNL d   1      -1.542   0.797   1.320  0.00  0.00     0.002 A 
ATOM      3  C5  UNL d   1      -2.131  -0.161   2.147  0.00  0.00     0.002 A 
ATOM      4  C6  UNL d   1      -1.734  -1.494   2.065  0.00  0.00    -0.004 A 
ATOM      5  C7  UNL d   1      -0.752  -1.871   1.151  0.00  0.00     0.002 A 
ATOM      6  C8  UNL d   1      -0.158  -0.914   0.326  0.00  0.00     0.002 A 
ENDROOT
BRANCH   1   7
ATOM      7  C2  UNL d   1       0.121   1.468  -0.468  0.00  0.00     0.056 C 
BRANCH   7   8
ATOM      8  C1  UNL d   1       1.472   1.962   0.062  0.00  0.00     0.007 C 
ATOM      9  C   UNL d   1       1.611   3.478   0.032  0.00  0.00     0.009 C 
ENDBRANCH   7   8
ENDBRANCH   1   7
TORSDOF 2
ENDMDL
