MODEL 1
REMARK minimizedAffinity -6.06282425
REMARK minimizedRMSD -1
REMARK  2 active torsions:
REMARK  status: ('A' for Active; 'I' for Inactive)
REMARK    1  A    between atoms: C1_2  and  C2_3 
REMARK    2  A    between atoms: C2_3  and  C3_4 
ROOT
ATOM      1  C3  UNL d   1       0.415   0.266   0.359  0.00  0.00    -0.075 A 
ATOM      2  C4  UNL d   1      -0.265  -0.956   0.254  0.00  0.00     0.002 A 
ATOM      3  C5  UNL d   1       0.439  -2.160   0.244  0.00  0.00     0.002 A 
ATOM      4  C6  UNL d   1       1.829  -2.159   0.328  0.00  0.00    -0.004 A 
ATOM      5  C7  UNL d   1       2.517  -0.950   0.416  0.00  0.00     0.002 A 
ATOM      6  C8  UNL d   1       1.814   0.256   0.431  0.00  0.00     0.002 A 
ENDROOT
BRANCH   1   7
ATOM      7  C2  UNL d   1      -0.343   1.571   0.400  0.00  0.00     0.056 C 
BRANCH   7   8
ATOM      8  C1  UNL d   1       0.554   2.813   0.401  0.00  0.00     0.007 C 
ATOM      9  C   UNL d   1      -0.079   4.010   1.099  0.00  0.00     0.009 C 
ENDBRANCH   7   8
ENDBRANCH   1   7
TORSDOF 2
ENDMDL
