MODEL 1
REMARK minimizedAffinity -3.1642406
REMARK minimizedRMSD -1
REMARK  2 active torsions:
REMARK  status: ('A' for Active; 'I' for Inactive)
REMARK    1  A    between atoms: C1_2  and  C2_3 
REMARK    2  A    between atoms: C2_3  and  C3_4 
ROOT
ATOM      1  C3  UNL d   1      -0.468   2.986  -1.262  0.00  0.00    -0.075 A 
ATOM      2  C4  UNL d   1      -1.354   3.026  -2.348  0.00  0.00     0.002 A 
ATOM      3  C5  UNL d   1      -2.233   1.969  -2.586  0.00  0.00     0.002 A 
ATOM      4  C6  UNL d   1      -2.231   0.856  -1.748  0.00  0.00    -0.004 A 
ATOM      5  C7  UNL d   1      -1.344   0.797  -0.675  0.00  0.00     0.002 A 
ATOM      6  C8  UNL d   1      -0.466   1.856  -0.433  0.00  0.00     0.002 A 
ENDROOT
BRANCH   1   7
ATOM      7  C2  UNL d   1       0.465   4.139  -0.982  0.00  0.00     0.056 C 
BRANCH   7   8
ATOM      8  C1  UNL d   1       1.129   4.084   0.398  0.00  0.00     0.007 C 
ATOM      9  C   UNL d   1       2.601   3.700   0.340  0.00  0.00     0.009 C 
ENDBRANCH   7   8
ENDBRANCH   1   7
TORSDOF 2
ENDMDL
