MODEL 1
REMARK minimizedAffinity 1.39288878
REMARK minimizedRMSD -1
REMARK  2 active torsions:
REMARK  status: ('A' for Active; 'I' for Inactive)
REMARK    1  A    between atoms: C1_2  and  C2_3 
REMARK    2  A    between atoms: C2_3  and  C3_4 
ROOT
ATOM      1  C3  UNL d   1      -1.386   0.815  -1.646  0.00  0.00    -0.075 A 
ATOM      2  C4  UNL d   1      -2.316  -0.079  -2.195  0.00  0.00     0.002 A 
ATOM      3  C5  UNL d   1      -3.034   0.262  -3.341  0.00  0.00     0.002 A 
ATOM      4  C6  UNL d   1      -2.840   1.502  -3.946  0.00  0.00    -0.004 A 
ATOM      5  C7  UNL d   1      -1.930   2.405  -3.399  0.00  0.00     0.002 A 
ATOM      6  C8  UNL d   1      -1.207   2.064  -2.255  0.00  0.00     0.002 A 
ENDROOT
BRANCH   1   7
ATOM      7  C2  UNL d   1      -0.584   0.440  -0.422  0.00  0.00     0.056 C 
BRANCH   7   8
ATOM      8  C1  UNL d   1      -1.369   0.531   0.890  0.00  0.00     0.007 C 
ATOM      9  C   UNL d   1      -1.351  -0.764   1.692  0.00  0.00     0.009 C 
ENDBRANCH   7   8
ENDBRANCH   1   7
TORSDOF 2
ENDMDL
