MODEL 1
REMARK minimizedAffinity -3.05949044
REMARK minimizedRMSD -1
REMARK  2 active torsions:
REMARK  status: ('A' for Active; 'I' for Inactive)
REMARK    1  A    between atoms: C1_2  and  C2_3 
REMARK    2  A    between atoms: C2_3  and  C3_4 
ROOT
ATOM      1  C3  UNL d   1      -1.256   0.440  -1.331  0.00  0.00    -0.075 A 
ATOM      2  C4  UNL d   1      -0.889   0.619  -2.673  0.00  0.00     0.002 A 
ATOM      3  C5  UNL d   1      -1.744   1.275  -3.559  0.00  0.00     0.002 A 
ATOM      4  C6  UNL d   1      -2.977   1.751  -3.118  0.00  0.00    -0.004 A 
ATOM      5  C7  UNL d   1      -3.359   1.564  -1.791  0.00  0.00     0.002 A 
ATOM      6  C8  UNL d   1      -2.503   0.911  -0.901  0.00  0.00     0.002 A 
ENDROOT
BRANCH   1   7
ATOM      7  C2  UNL d   1      -0.322  -0.244  -0.360  0.00  0.00     0.056 C 
BRANCH   7   8
ATOM      8  C1  UNL d   1      -0.987  -0.660   0.956  0.00  0.00     0.007 C 
ATOM      9  C   UNL d   1      -0.900  -2.156   1.226  0.00  0.00     0.009 C 
ENDBRANCH   7   8
ENDBRANCH   1   7
TORSDOF 2
ENDMDL
