MODEL 1
REMARK minimizedAffinity -3.65533924
REMARK minimizedRMSD -1
REMARK  2 active torsions:
REMARK  status: ('A' for Active; 'I' for Inactive)
REMARK    1  A    between atoms: C1_2  and  C2_3 
REMARK    2  A    between atoms: C2_3  and  C3_4 
ROOT
ATOM      1  C3  UNL d   1       1.692  -1.328   0.614  0.00  0.00    -0.075 A 
ATOM      2  C4  UNL d   1       2.548  -1.409   1.723  0.00  0.00     0.002 A 
ATOM      3  C5  UNL d   1       3.545  -0.454   1.919  0.00  0.00     0.002 A 
ATOM      4  C6  UNL d   1       3.707   0.586   1.006  0.00  0.00    -0.004 A 
ATOM      5  C7  UNL d   1       2.874   0.667  -0.107  0.00  0.00     0.002 A 
ATOM      6  C8  UNL d   1       1.872  -0.285  -0.304  0.00  0.00     0.002 A 
ENDROOT
BRANCH   1   7
ATOM      7  C2  UNL d   1       0.592  -2.342   0.412  0.00  0.00     0.056 C 
BRANCH   7   8
ATOM      8  C1  UNL d   1      -0.644  -2.105   1.287  0.00  0.00     0.007 C 
ATOM      9  C   UNL d   1      -1.223  -0.704   1.140  0.00  0.00     0.009 C 
ENDBRANCH   7   8
ENDBRANCH   1   7
TORSDOF 2
ENDMDL
