MODEL 1
REMARK minimizedAffinity -4.53275299
REMARK minimizedRMSD -1
REMARK  2 active torsions:
REMARK  status: ('A' for Active; 'I' for Inactive)
REMARK    1  A    between atoms: C1_2  and  C2_3 
REMARK    2  A    between atoms: C2_3  and  C3_4 
ROOT
ATOM      1  C3  UNL d   1      -1.298   2.805  -1.003  0.00  0.00    -0.075 A 
ATOM      2  C4  UNL d   1      -2.229   1.757  -0.971  0.00  0.00     0.002 A 
ATOM      3  C5  UNL d   1      -2.755   1.240  -2.155  0.00  0.00     0.002 A 
ATOM      4  C6  UNL d   1      -2.366   1.770  -3.383  0.00  0.00    -0.004 A 
ATOM      5  C7  UNL d   1      -1.454   2.823  -3.426  0.00  0.00     0.002 A 
ATOM      6  C8  UNL d   1      -0.923   3.339  -2.243  0.00  0.00     0.002 A 
ENDROOT
BRANCH   1   7
ATOM      7  C2  UNL d   1      -0.702   3.349   0.274  0.00  0.00     0.056 C 
BRANCH   7   8
ATOM      8  C1  UNL d   1       0.613   4.109   0.074  0.00  0.00     0.007 C 
ATOM      9  C   UNL d   1       1.845   3.231   0.243  0.00  0.00     0.009 C 
ENDBRANCH   7   8
ENDBRANCH   1   7
TORSDOF 2
ENDMDL
