MODEL 1
REMARK minimizedAffinity -2.0229907
REMARK minimizedRMSD -1
REMARK  2 active torsions:
REMARK  status: ('A' for Active; 'I' for Inactive)
REMARK    1  A    between atoms: C1_2  and  C2_3 
REMARK    2  A    between atoms: C2_3  and  C3_4 
ROOT
ATOM      1  C3  UNL d   1       1.809   0.028   0.198  0.00  0.00    -0.075 A 
ATOM      2  C4  UNL d   1       2.547  -0.890   0.958  0.00  0.00     0.002 A 
ATOM      3  C5  UNL d   1       1.937  -2.034   1.474  0.00  0.00     0.002 A 
ATOM      4  C6  UNL d   1       0.583  -2.268   1.246  0.00  0.00    -0.004 A 
ATOM      5  C7  UNL d   1      -0.164  -1.354   0.507  0.00  0.00     0.002 A 
ATOM      6  C8  UNL d   1       0.444  -0.211  -0.015  0.00  0.00     0.002 A 
ENDROOT
BRANCH   1   7
ATOM      7  C2  UNL d   1       2.469   1.253  -0.388  0.00  0.00     0.056 C 
BRANCH   7   8
ATOM      8  C1  UNL d   1       1.698   2.555  -0.146  0.00  0.00     0.007 C 
ATOM      9  C   UNL d   1       2.582   3.695   0.342  0.00  0.00     0.009 C 
ENDBRANCH   7   8
ENDBRANCH   1   7
TORSDOF 2
ENDMDL
