MODEL 1
REMARK minimizedAffinity -5.04820633
REMARK minimizedRMSD -1
REMARK  1 active torsions:
REMARK  status: ('A' for Active; 'I' for Inactive)
REMARK    1  A    between atoms: N_2  and  C1_3 
ROOT
ATOM      1  C1  UNL d   1      -0.681  -0.176   0.386  0.00  0.00     0.143 A 
ATOM      2  C2  UNL d   1      -0.195  -1.481   0.256  0.00  0.00    -0.057 A 
ATOM      3  C3  UNL d   1      -0.899  -2.573   0.777  0.00  0.00     0.033 A 
ATOM      4  C4  UNL d   1      -2.092  -2.376   1.464  0.00  0.00    -0.042 A 
ATOM      5  C5  UNL d   1      -2.582  -1.085   1.627  0.00  0.00     0.033 A 
ATOM      6  C6  UNL d   1      -1.877   0.001   1.099  0.00  0.00    -0.057 A 
ENDROOT
BRANCH   1   7
ATOM      7  N   UNL d   1       0.021   0.960  -0.024  0.00  0.00    -0.732 N 
ATOM      8  C   UNL d   1       0.437   1.113  -1.402  0.00  0.00     0.284 C 
ATOM      9  H3  UNL d   1      -0.339   1.813   0.399  0.00  0.00     0.395 HD
ENDBRANCH   1   7
TORSDOF 1
ENDMDL
