MODEL 1
REMARK minimizedAffinity -2.0263257
REMARK minimizedRMSD -1
REMARK  1 active torsions:
REMARK  status: ('A' for Active; 'I' for Inactive)
REMARK    1  A    between atoms: N_2  and  C1_3 
ROOT
ATOM      1  C1  UNL d   1       0.072  -0.189   0.306  0.00  0.00     0.143 A 
ATOM      2  C2  UNL d   1       0.776  -1.375   0.068  0.00  0.00    -0.057 A 
ATOM      3  C3  UNL d   1       0.373  -2.586   0.643  0.00  0.00     0.033 A 
ATOM      4  C4  UNL d   1      -0.728  -2.628   1.493  0.00  0.00    -0.042 A 
ATOM      5  C5  UNL d   1      -1.427  -1.457   1.764  0.00  0.00     0.033 A 
ATOM      6  C6  UNL d   1      -1.023  -0.252   1.181  0.00  0.00    -0.057 A 
ENDROOT
BRANCH   1   7
ATOM      7  N   UNL d   1       0.481   1.064  -0.157  0.00  0.00    -0.732 N 
ATOM      8  C   UNL d   1       0.545   1.340  -1.576  0.00  0.00     0.284 C 
ATOM      9  H3  UNL d   1       0.099   1.826   0.398  0.00  0.00     0.395 HD
ENDBRANCH   1   7
TORSDOF 1
ENDMDL
