MODEL 1
REMARK minimizedAffinity -1.86522043
REMARK minimizedRMSD -1
REMARK  1 active torsions:
REMARK  status: ('A' for Active; 'I' for Inactive)
REMARK    1  A    between atoms: N_2  and  C1_3 
ROOT
ATOM      1  C1  UNL d   1      -1.281  -1.240   1.559  0.00  0.00     0.143 A 
ATOM      2  C2  UNL d   1      -1.093  -2.608   1.339  0.00  0.00    -0.057 A 
ATOM      3  C3  UNL d   1      -0.317  -3.072   0.270  0.00  0.00     0.033 A 
ATOM      4  C4  UNL d   1       0.263  -2.173  -0.618  0.00  0.00    -0.042 A 
ATOM      5  C5  UNL d   1       0.070  -0.808  -0.433  0.00  0.00     0.033 A 
ATOM      6  C6  UNL d   1      -0.701  -0.351   0.640  0.00  0.00    -0.057 A 
ENDROOT
BRANCH   1   7
ATOM      7  N   UNL d   1      -2.122  -0.718   2.545  0.00  0.00    -0.732 N 
ATOM      8  C   UNL d   1      -2.870   0.498   2.309  0.00  0.00     0.284 C 
ATOM      9  H3  UNL d   1      -2.647  -1.442   3.030  0.00  0.00     0.395 HD
ENDBRANCH   1   7
TORSDOF 1
ENDMDL
