MODEL 1
REMARK minimizedAffinity -1.62753594
REMARK minimizedRMSD -1
REMARK  1 active torsions:
REMARK  status: ('A' for Active; 'I' for Inactive)
REMARK    1  A    between atoms: N_2  and  C1_3 
ROOT
ATOM      1  C1  UNL d   1       0.622   0.782  -0.910  0.00  0.00     0.143 A 
ATOM      2  C2  UNL d   1       0.364  -0.375  -1.652  0.00  0.00    -0.057 A 
ATOM      3  C3  UNL d   1       0.219  -1.620  -1.028  0.00  0.00     0.033 A 
ATOM      4  C4  UNL d   1       0.360  -1.734   0.351  0.00  0.00    -0.042 A 
ATOM      5  C5  UNL d   1       0.642  -0.601   1.106  0.00  0.00     0.033 A 
ATOM      6  C6  UNL d   1       0.779   0.640   0.478  0.00  0.00    -0.057 A 
ENDROOT
BRANCH   1   7
ATOM      7  N   UNL d   1       0.874   2.032  -1.481  0.00  0.00    -0.732 N 
ATOM      8  C   UNL d   1       0.813   2.212  -2.916  0.00  0.00     0.284 C 
ATOM      9  H3  UNL d   1       0.459   2.793  -0.949  0.00  0.00     0.395 HD
ENDBRANCH   1   7
TORSDOF 1
ENDMDL
