MODEL 1
REMARK minimizedAffinity -3.98712087
REMARK minimizedRMSD -1
REMARK  1 active torsions:
REMARK  status: ('A' for Active; 'I' for Inactive)
REMARK    1  A    between atoms: N_2  and  C1_3 
ROOT
ATOM      1  C1  UNL d   1      -0.084  -0.756   0.253  0.00  0.00     0.143 A 
ATOM      2  C2  UNL d   1      -0.724  -1.826   0.888  0.00  0.00    -0.057 A 
ATOM      3  C3  UNL d   1      -1.924  -1.644   1.586  0.00  0.00     0.033 A 
ATOM      4  C4  UNL d   1      -2.492  -0.378   1.686  0.00  0.00    -0.042 A 
ATOM      5  C5  UNL d   1      -1.861   0.705   1.084  0.00  0.00     0.033 A 
ATOM      6  C6  UNL d   1      -0.666   0.515   0.383  0.00  0.00    -0.057 A 
ENDROOT
BRANCH   1   7
ATOM      7  N   UNL d   1       1.161  -0.854  -0.372  0.00  0.00    -0.732 N 
ATOM      8  C   UNL d   1       2.211  -1.671   0.199  0.00  0.00     0.284 C 
ATOM      9  H3  UNL d   1       1.083  -0.925  -1.384  0.00  0.00     0.395 HD
ENDBRANCH   1   7
TORSDOF 1
ENDMDL
