MODEL 1
REMARK minimizedAffinity -3.81033587
REMARK minimizedRMSD -1
REMARK  1 active torsions:
REMARK  status: ('A' for Active; 'I' for Inactive)
REMARK    1  A    between atoms: N_2  and  C1_3 
ROOT
ATOM      1  C1  UNL d   1       0.253  -0.309  -0.494  0.00  0.00     0.143 A 
ATOM      2  C2  UNL d   1       0.045   0.744   0.404  0.00  0.00    -0.057 A 
ATOM      3  C3  UNL d   1       0.134   2.079  -0.009  0.00  0.00     0.033 A 
ATOM      4  C4  UNL d   1       0.464   2.385  -1.325  0.00  0.00    -0.042 A 
ATOM      5  C5  UNL d   1       0.700   1.355  -2.229  0.00  0.00     0.033 A 
ATOM      6  C6  UNL d   1       0.602   0.024  -1.812  0.00  0.00    -0.057 A 
ENDROOT
BRANCH   1   7
ATOM      7  N   UNL d   1       0.275  -1.655  -0.122  0.00  0.00    -0.732 N 
ATOM      8  C   UNL d   1      -0.161  -2.063   1.196  0.00  0.00     0.284 C 
ATOM      9  H3  UNL d   1      -0.034  -2.270  -0.871  0.00  0.00     0.395 HD
ENDBRANCH   1   7
TORSDOF 1
ENDMDL
