MODEL 1
REMARK minimizedAffinity -3.37050962
REMARK minimizedRMSD -1
REMARK  1 active torsions:
REMARK  status: ('A' for Active; 'I' for Inactive)
REMARK    1  A    between atoms: N_2  and  C1_3 
ROOT
ATOM      1  C1  UNL d   1      -0.114   0.555   0.193  0.00  0.00     0.143 A 
ATOM      2  C2  UNL d   1       0.361  -0.749   0.369  0.00  0.00    -0.057 A 
ATOM      3  C3  UNL d   1      -0.381  -1.704   1.073  0.00  0.00     0.033 A 
ATOM      4  C4  UNL d   1      -1.604  -1.362   1.642  0.00  0.00    -0.042 A 
ATOM      5  C5  UNL d   1      -2.084  -0.065   1.502  0.00  0.00     0.033 A 
ATOM      6  C6  UNL d   1      -1.341   0.882   0.791  0.00  0.00    -0.057 A 
ENDROOT
BRANCH   1   7
ATOM      7  N   UNL d   1       0.622   1.576  -0.412  0.00  0.00    -0.732 N 
ATOM      8  C   UNL d   1       0.288   2.036  -1.743  0.00  0.00     0.284 C 
ATOM      9  H3  UNL d   1       0.859   2.322   0.238  0.00  0.00     0.395 HD
ENDBRANCH   1   7
TORSDOF 1
ENDMDL
