MODEL 1
REMARK minimizedAffinity -2.38939929
REMARK minimizedRMSD -1
REMARK  1 active torsions:
REMARK  status: ('A' for Active; 'I' for Inactive)
REMARK    1  A    between atoms: N_2  and  C1_3 
ROOT
ATOM      1  C1  UNL d   1       0.388   0.858  -0.990  0.00  0.00     0.143 A 
ATOM      2  C2  UNL d   1      -0.253  -0.319  -1.393  0.00  0.00    -0.057 A 
ATOM      3  C3  UNL d   1      -0.035  -1.530  -0.726  0.00  0.00     0.033 A 
ATOM      4  C4  UNL d   1       0.854  -1.592   0.343  0.00  0.00    -0.042 A 
ATOM      5  C5  UNL d   1       1.520  -0.441   0.746  0.00  0.00     0.033 A 
ATOM      6  C6  UNL d   1       1.293   0.767   0.079  0.00  0.00    -0.057 A 
ENDROOT
BRANCH   1   7
ATOM      7  N   UNL d   1       0.288   2.072  -1.673  0.00  0.00    -0.732 N 
ATOM      8  C   UNL d   1       1.046   2.300  -2.885  0.00  0.00     0.284 C 
ATOM      9  H3  UNL d   1      -0.667   2.420  -1.709  0.00  0.00     0.395 HD
ENDBRANCH   1   7
TORSDOF 1
ENDMDL
