MODEL 1
REMARK minimizedAffinity -3.79579186
REMARK minimizedRMSD -1
REMARK  1 active torsions:
REMARK  status: ('A' for Active; 'I' for Inactive)
REMARK    1  A    between atoms: N_2  and  C1_3 
ROOT
ATOM      1  C1  UNL d   1       0.228   0.696  -1.754  0.00  0.00     0.143 A 
ATOM      2  C2  UNL d   1       0.979   1.876  -1.724  0.00  0.00    -0.057 A 
ATOM      3  C3  UNL d   1       1.323   2.548  -2.904  0.00  0.00     0.033 A 
ATOM      4  C4  UNL d   1       0.945   2.033  -4.140  0.00  0.00    -0.042 A 
ATOM      5  C5  UNL d   1       0.220   0.848  -4.194  0.00  0.00     0.033 A 
ATOM      6  C6  UNL d   1      -0.126   0.186  -3.013  0.00  0.00    -0.057 A 
ENDROOT
BRANCH   1   7
ATOM      7  N   UNL d   1      -0.061  -0.071  -0.622  0.00  0.00    -0.732 N 
ATOM      8  C   UNL d   1       0.975  -0.844   0.028  0.00  0.00     0.284 C 
ATOM      9  H3  UNL d   1      -0.689   0.406   0.020  0.00  0.00     0.395 HD
ENDBRANCH   1   7
TORSDOF 1
ENDMDL
