MODEL 1
REMARK minimizedAffinity -4.84079456
REMARK minimizedRMSD -1
REMARK  1 active torsions:
REMARK  status: ('A' for Active; 'I' for Inactive)
REMARK    1  A    between atoms: N_2  and  C1_3 
ROOT
ATOM      1  C1  UNL d   1      -1.111   0.015   1.102  0.00  0.00     0.143 A 
ATOM      2  C2  UNL d   1      -0.175   0.663   0.289  0.00  0.00    -0.057 A 
ATOM      3  C3  UNL d   1       0.912  -0.028  -0.259  0.00  0.00     0.033 A 
ATOM      4  C4  UNL d   1       1.099  -1.378   0.021  0.00  0.00    -0.042 A 
ATOM      5  C5  UNL d   1       0.195  -2.036   0.847  0.00  0.00     0.033 A 
ATOM      6  C6  UNL d   1      -0.892  -1.342   1.387  0.00  0.00    -0.057 A 
ENDROOT
BRANCH   1   7
ATOM      7  N   UNL d   1      -2.158   0.669   1.757  0.00  0.00    -0.732 N 
ATOM      8  C   UNL d   1      -2.882   0.016   2.826  0.00  0.00     0.284 C 
ATOM      9  H3  UNL d   1      -1.953   1.650   1.933  0.00  0.00     0.395 HD
ENDBRANCH   1   7
TORSDOF 1
ENDMDL
