MODEL 1
REMARK minimizedAffinity -2.79182243
REMARK minimizedRMSD -1
REMARK  1 active torsions:
REMARK  status: ('A' for Active; 'I' for Inactive)
REMARK    1  A    between atoms: N_2  and  C1_3 
ROOT
ATOM      1  C1  UNL d   1       0.373   0.178  -0.553  0.00  0.00     0.143 A 
ATOM      2  C2  UNL d   1       1.166  -0.945  -0.812  0.00  0.00    -0.057 A 
ATOM      3  C3  UNL d   1       0.997  -2.135  -0.094  0.00  0.00     0.033 A 
ATOM      4  C4  UNL d   1       0.047  -2.214   0.919  0.00  0.00    -0.042 A 
ATOM      5  C5  UNL d   1      -0.736  -1.102   1.210  0.00  0.00     0.033 A 
ATOM      6  C6  UNL d   1      -0.567   0.081   0.485  0.00  0.00    -0.057 A 
ENDROOT
BRANCH   1   7
ATOM      7  N   UNL d   1       0.560   1.420  -1.165  0.00  0.00    -0.732 N 
ATOM      8  C   UNL d   1       1.463   1.561  -2.287  0.00  0.00     0.284 C 
ATOM      9  H3  UNL d   1      -0.310   1.939  -1.264  0.00  0.00     0.395 HD
ENDBRANCH   1   7
TORSDOF 1
ENDMDL
