MODEL 1
REMARK minimizedAffinity 10.6009169
REMARK minimizedRMSD -1
REMARK  1 active torsions:
REMARK  status: ('A' for Active; 'I' for Inactive)
REMARK    1  A    between atoms: C1_2  and  C2_3 
ROOT
ATOM      1  C2  UNL d   1      -0.443   0.681  -0.844  0.00  0.00    -0.073 A 
ATOM      2  C3  UNL d   1       0.428  -0.172  -1.530  0.00  0.00    -0.002 A 
ATOM      3  C4  UNL d   1       1.418  -0.873  -0.839  0.00  0.00     0.004 A 
ATOM      4  C5  UNL d   1       1.542  -0.733   0.543  0.00  0.00    -0.004 A 
ATOM      5  C6  UNL d   1       0.673   0.106   1.248  0.00  0.00    -0.075 A 
ATOM      6  C7  UNL d   1       0.795   0.269   2.735  0.00  0.00     0.076 C 
ATOM      7  C8  UNL d   1      -0.317   0.808   0.547  0.00  0.00     0.001 A 
ENDROOT
BRANCH   1   8
ATOM      8  C1  UNL d   1      -1.518   1.435  -1.584  0.00  0.00     0.053 C 
ATOM      9  C   UNL d   1      -2.463   0.501  -2.324  0.00  0.00     0.018 C 
ENDBRANCH   1   8
TORSDOF 1
ENDMDL
