MODEL 1
REMARK minimizedAffinity -3.9506669
REMARK minimizedRMSD -1
REMARK  0 active torsions:
REMARK  status: ('A' for Active; 'I' for Inactive)
ROOT
ATOM      1  C1  DEN d   1       1.161   0.589  -0.620  0.00  0.00     0.130 A 
ATOM      2  C2  DEN d   1       0.089   0.869  -1.572  0.00  0.00    -0.031 A 
ATOM      3  C3  DEN d   1      -1.173   0.353  -1.002  0.00  0.00     0.027 A 
ATOM      4  C4  DEN d   1      -1.568  -0.839   1.250  0.00  0.00     0.027 A 
ATOM      5  C5  DEN d   1      -0.960  -1.310   2.393  0.00  0.00    -0.003 A 
ATOM      6  C6  DEN d   1       0.391  -1.213   2.594  0.00  0.00     0.001 A 
ATOM      7  C7  DEN d   1       1.174  -0.590   1.658  0.00  0.00     0.017 A 
ATOM      8  C8  DEN d   1       0.569  -0.118   0.501  0.00  0.00    -0.094 A 
ATOM      9  C9  DEN d   1      -0.801  -0.215   0.321  0.00  0.00    -0.072 A 
ENDROOT
TORSDOF 0
ENDMDL
