MODEL 1
REMARK minimizedAffinity -2.44091702
REMARK minimizedRMSD -1
REMARK  0 active torsions:
REMARK  status: ('A' for Active; 'I' for Inactive)
ROOT
ATOM      1  C1  DEN d   1      -0.396  -1.084   3.008  0.00  0.00     0.130 A 
ATOM      2  C2  DEN d   1       0.881  -1.773   3.173  0.00  0.00    -0.031 A 
ATOM      3  C3  DEN d   1       1.615  -1.687   1.894  0.00  0.00     0.027 A 
ATOM      4  C4  DEN d   1       0.903  -0.555  -0.311  0.00  0.00     0.027 A 
ATOM      5  C5  DEN d   1      -0.101   0.149  -0.939  0.00  0.00    -0.003 A 
ATOM      6  C6  DEN d   1      -1.278   0.459  -0.310  0.00  0.00     0.001 A 
ATOM      7  C7  DEN d   1      -1.462   0.104   1.000  0.00  0.00     0.017 A 
ATOM      8  C8  DEN d   1      -0.458  -0.613   1.637  0.00  0.00    -0.094 A 
ATOM      9  C9  DEN d   1       0.730  -0.906   0.988  0.00  0.00    -0.072 A 
ENDROOT
TORSDOF 0
ENDMDL
