MODEL 1
REMARK minimizedAffinity -3.17298317
REMARK minimizedRMSD -1
REMARK  0 active torsions:
REMARK  status: ('A' for Active; 'I' for Inactive)
ROOT
ATOM      1  C1  DEN d   1      -0.783   3.400  -1.293  0.00  0.00     0.130 A 
ATOM      2  C2  DEN d   1      -0.684   3.479  -2.748  0.00  0.00    -0.031 A 
ATOM      3  C3  DEN d   1      -0.411   2.121  -3.261  0.00  0.00     0.027 A 
ATOM      4  C4  DEN d   1      -0.140  -0.084  -1.951  0.00  0.00     0.027 A 
ATOM      5  C5  DEN d   1      -0.129  -0.650  -0.695  0.00  0.00    -0.003 A 
ATOM      6  C6  DEN d   1      -0.300   0.094   0.443  0.00  0.00     0.001 A 
ATOM      7  C7  DEN d   1      -0.535   1.440   0.344  0.00  0.00     0.017 A 
ATOM      8  C8  DEN d   1      -0.540   2.019  -0.918  0.00  0.00    -0.094 A 
ATOM      9  C9  DEN d   1      -0.377   1.248  -2.057  0.00  0.00    -0.072 A 
ENDROOT
TORSDOF 0
ENDMDL
