MODEL 1
REMARK minimizedAffinity -4.65608025
REMARK minimizedRMSD -1
REMARK  0 active torsions:
REMARK  status: ('A' for Active; 'I' for Inactive)
ROOT
ATOM      1  C1  DEN d   1       2.150  -1.741  -0.447  0.00  0.00     0.130 A 
ATOM      2  C2  DEN d   1       2.800  -2.613   0.529  0.00  0.00    -0.031 A 
ATOM      3  C3  DEN d   1       2.120  -2.433   1.827  0.00  0.00     0.027 A 
ATOM      4  C4  DEN d   1       0.130  -0.901   2.417  0.00  0.00     0.027 A 
ATOM      5  C5  DEN d   1      -0.752   0.034   1.922  0.00  0.00    -0.003 A 
ATOM      6  C6  DEN d   1      -0.707   0.465   0.623  0.00  0.00     0.001 A 
ATOM      7  C7  DEN d   1       0.211  -0.074  -0.239  0.00  0.00     0.017 A 
ATOM      8  C8  DEN d   1       1.109  -1.012   0.254  0.00  0.00    -0.094 A 
ATOM      9  C9  DEN d   1       1.039  -1.444   1.568  0.00  0.00    -0.072 A 
ENDROOT
TORSDOF 0
ENDMDL
