MODEL 1
REMARK minimizedAffinity -3.51826215
REMARK minimizedRMSD -1
REMARK  0 active torsions:
REMARK  status: ('A' for Active; 'I' for Inactive)
ROOT
ATOM      1  C1  DEN d   1      -1.455   0.450  -0.431  0.00  0.00     0.130 A 
ATOM      2  C2  DEN d   1      -0.464   0.400  -1.502  0.00  0.00    -0.031 A 
ATOM      3  C3  DEN d   1       0.824  -0.017  -0.913  0.00  0.00     0.027 A 
ATOM      4  C4  DEN d   1       1.376  -0.591   1.541  0.00  0.00     0.027 A 
ATOM      5  C5  DEN d   1       0.862  -0.681   2.815  0.00  0.00    -0.003 A 
ATOM      6  C6  DEN d   1      -0.441  -0.370   3.101  0.00  0.00     0.001 A 
ATOM      7  C7  DEN d   1      -1.287   0.003   2.089  0.00  0.00     0.017 A 
ATOM      8  C8  DEN d   1      -0.774   0.103   0.803  0.00  0.00    -0.094 A 
ATOM      9  C9  DEN d   1       0.543  -0.228   0.533  0.00  0.00    -0.072 A 
ENDROOT
TORSDOF 0
ENDMDL
