MODEL 1
REMARK minimizedAffinity -7.11591005
REMARK minimizedRMSD -1
REMARK  0 active torsions:
REMARK  status: ('A' for Active; 'I' for Inactive)
ROOT
ATOM      1  C1  DEN d   1       0.472  -0.505  -0.876  0.00  0.00     0.130 A 
ATOM      2  C2  DEN d   1      -0.838   0.077  -0.595  0.00  0.00    -0.031 A 
ATOM      3  C3  DEN d   1      -1.053   0.034   0.865  0.00  0.00     0.027 A 
ATOM      4  C4  DEN d   1       0.509  -0.868   2.709  0.00  0.00     0.027 A 
ATOM      5  C5  DEN d   1       1.723  -1.470   2.957  0.00  0.00    -0.003 A 
ATOM      6  C6  DEN d   1       2.583  -1.820   1.950  0.00  0.00     0.001 A 
ATOM      7  C7  DEN d   1       2.261  -1.530   0.651  0.00  0.00     0.017 A 
ATOM      8  C8  DEN d   1       1.036  -0.930   0.392  0.00  0.00    -0.094 A 
ATOM      9  C9  DEN d   1       0.185  -0.573   1.425  0.00  0.00    -0.072 A 
ENDROOT
TORSDOF 0
ENDMDL
