MODEL 1
REMARK minimizedAffinity -3.65430737
REMARK minimizedRMSD -1
REMARK  0 active torsions:
REMARK  status: ('A' for Active; 'I' for Inactive)
ROOT
ATOM      1  C1  DEN d   1       2.022  -2.552   1.390  0.00  0.00     0.130 A 
ATOM      2  C2  DEN d   1       2.935  -2.712   0.260  0.00  0.00    -0.031 A 
ATOM      3  C3  DEN d   1       2.442  -1.870  -0.848  0.00  0.00     0.027 A 
ATOM      4  C4  DEN d   1       0.368  -0.338  -0.923  0.00  0.00     0.027 A 
ATOM      5  C5  DEN d   1      -0.719   0.116  -0.209  0.00  0.00    -0.003 A 
ATOM      6  C6  DEN d   1      -0.985  -0.310   1.065  0.00  0.00     0.001 A 
ATOM      7  C7  DEN d   1      -0.128  -1.183   1.682  0.00  0.00     0.017 A 
ATOM      8  C8  DEN d   1       0.966  -1.651   0.966  0.00  0.00    -0.094 A 
ATOM      9  C9  DEN d   1       1.224  -1.199  -0.317  0.00  0.00    -0.072 A 
ENDROOT
TORSDOF 0
ENDMDL
