MODEL 1
REMARK minimizedAffinity 0.486343592
REMARK minimizedRMSD -1
REMARK  0 active torsions:
REMARK  status: ('A' for Active; 'I' for Inactive)
ROOT
ATOM      1  C1  DEN d   1      -1.235  -0.673  -0.687  0.00  0.00     0.130 A 
ATOM      2  C2  DEN d   1      -1.247   0.731  -1.089  0.00  0.00    -0.031 A 
ATOM      3  C3  DEN d   1      -0.773   1.537   0.054  0.00  0.00     0.027 A 
ATOM      4  C4  DEN d   1      -0.019   0.752   2.392  0.00  0.00     0.027 A 
ATOM      5  C5  DEN d   1       0.154  -0.346   3.206  0.00  0.00    -0.003 A 
ATOM      6  C6  DEN d   1      -0.153  -1.616   2.794  0.00  0.00     0.001 A 
ATOM      7  C7  DEN d   1      -0.607  -1.824   1.518  0.00  0.00     0.017 A 
ATOM      8  C8  DEN d   1      -0.792  -0.721   0.695  0.00  0.00    -0.094 A 
ATOM      9  C9  DEN d   1      -0.464   0.553   1.126  0.00  0.00    -0.072 A 
ENDROOT
TORSDOF 0
ENDMDL
