MODEL 1
REMARK minimizedAffinity -1.61711586
REMARK minimizedRMSD -1
REMARK  0 active torsions:
REMARK  status: ('A' for Active; 'I' for Inactive)
ROOT
ATOM      1  C   UNL d   1      -0.960  -0.002  -1.269  0.00  0.00     0.172 C 
ATOM      2  N   UNL d   1      -0.683   1.226  -1.977  0.00  0.00    -0.070 N 
ATOM      3  C1  UNL d   1       0.554   1.655  -2.378  0.00  0.00    -0.004 A 
ATOM      4  C2  UNL d   1       0.394   2.865  -3.019  0.00  0.00    -0.047 A 
ATOM      5  C3  UNL d   1      -0.987   3.174  -3.001  0.00  0.00    -0.047 A 
ATOM      6  C4  UNL d   1      -1.631   2.142  -2.351  0.00  0.00    -0.004 A 
ENDROOT
TORSDOF 0
ENDMDL
