MODEL 1
REMARK minimizedAffinity -2.06903863
REMARK minimizedRMSD -1
REMARK  0 active torsions:
REMARK  status: ('A' for Active; 'I' for Inactive)
ROOT
ATOM      1  C   UNL d   1       1.161  -0.744   2.438  0.00  0.00     0.172 C 
ATOM      2  N   UNL d   1       0.702  -0.366   1.122  0.00  0.00    -0.070 N 
ATOM      3  C1  UNL d   1      -0.543   0.116   0.819  0.00  0.00    -0.004 A 
ATOM      4  C2  UNL d   1      -0.584   0.355  -0.538  0.00  0.00    -0.047 A 
ATOM      5  C3  UNL d   1       0.680   0.005  -1.068  0.00  0.00    -0.047 A 
ATOM      6  C4  UNL d   1       1.457  -0.439  -0.019  0.00  0.00    -0.004 A 
ENDROOT
TORSDOF 0
ENDMDL
