MODEL 1
REMARK minimizedAffinity -4.09638643
REMARK minimizedRMSD -1
REMARK  0 active torsions:
REMARK  status: ('A' for Active; 'I' for Inactive)
ROOT
ATOM      1  C   UNL d   1      -0.233   0.220  -0.926  0.00  0.00     0.172 C 
ATOM      2  N   UNL d   1       0.119  -0.115   0.434  0.00  0.00    -0.070 N 
ATOM      3  C1  UNL d   1       1.368  -0.463   0.872  0.00  0.00    -0.004 A 
ATOM      4  C2  UNL d   1       1.288  -0.705   2.227  0.00  0.00    -0.047 A 
ATOM      5  C3  UNL d   1      -0.057  -0.495   2.615  0.00  0.00    -0.047 A 
ATOM      6  C4  UNL d   1      -0.759  -0.131   1.486  0.00  0.00    -0.004 A 
ENDROOT
TORSDOF 0
ENDMDL
