MODEL 1
REMARK minimizedAffinity -3.40660238
REMARK minimizedRMSD -1
REMARK  0 active torsions:
REMARK  status: ('A' for Active; 'I' for Inactive)
ROOT
ATOM      1  C   UNL d   1       0.087   0.029  -1.156  0.00  0.00     0.172 C 
ATOM      2  N   UNL d   1       0.261  -0.101   0.271  0.00  0.00    -0.070 N 
ATOM      3  C1  UNL d   1      -0.746  -0.138   1.198  0.00  0.00    -0.004 A 
ATOM      4  C2  UNL d   1      -0.170  -0.270   2.443  0.00  0.00    -0.047 A 
ATOM      5  C3  UNL d   1       1.232  -0.314   2.258  0.00  0.00    -0.047 A 
ATOM      6  C4  UNL d   1       1.471  -0.207   0.904  0.00  0.00    -0.004 A 
ENDROOT
TORSDOF 0
ENDMDL
