MODEL 1
REMARK minimizedAffinity -1.43910789
REMARK minimizedRMSD -1
REMARK  0 active torsions:
REMARK  status: ('A' for Active; 'I' for Inactive)
ROOT
ATOM      1  C   UNL d   1       0.788   0.053  -1.391  0.00  0.00     0.172 C 
ATOM      2  N   UNL d   1       0.029   1.133  -1.975  0.00  0.00    -0.070 N 
ATOM      3  C1  UNL d   1       0.554   2.236  -2.594  0.00  0.00    -0.004 A 
ATOM      4  C2  UNL d   1      -0.495   3.025  -3.013  0.00  0.00    -0.047 A 
ATOM      5  C3  UNL d   1      -1.693   2.375  -2.632  0.00  0.00    -0.047 A 
ATOM      6  C4  UNL d   1      -1.339   1.206  -1.992  0.00  0.00    -0.004 A 
ENDROOT
TORSDOF 0
ENDMDL
