MODEL 1
REMARK minimizedAffinity -2.55027342
REMARK minimizedRMSD -1
REMARK  0 active torsions:
REMARK  status: ('A' for Active; 'I' for Inactive)
ROOT
ATOM      1  C   UNL d   1       1.106  -0.919   2.726  0.00  0.00     0.172 C 
ATOM      2  N   UNL d   1       0.562  -0.506   1.453  0.00  0.00    -0.070 N 
ATOM      3  C1  UNL d   1       1.237  -0.498   0.262  0.00  0.00    -0.004 A 
ATOM      4  C2  UNL d   1       0.372  -0.039  -0.709  0.00  0.00    -0.047 A 
ATOM      5  C3  UNL d   1      -0.864   0.238  -0.079  0.00  0.00    -0.047 A 
ATOM      6  C4  UNL d   1      -0.719  -0.060   1.260  0.00  0.00    -0.004 A 
ENDROOT
TORSDOF 0
ENDMDL
