MODEL 1
REMARK minimizedAffinity -3.02502561
REMARK minimizedRMSD -1
REMARK  0 active torsions:
REMARK  status: ('A' for Active; 'I' for Inactive)
ROOT
ATOM      1  C   UNL d   1      -1.908  -0.219   1.027  0.00  0.00     0.172 C 
ATOM      2  N   UNL d   1      -0.470  -0.090   1.014  0.00  0.00    -0.070 N 
ATOM      3  C1  UNL d   1       0.315  -0.015  -0.105  0.00  0.00    -0.004 A 
ATOM      4  C2  UNL d   1       1.625   0.101   0.305  0.00  0.00    -0.047 A 
ATOM      5  C3  UNL d   1       1.628   0.095   1.720  0.00  0.00    -0.047 A 
ATOM      6  C4  UNL d   1       0.318  -0.024   2.133  0.00  0.00    -0.004 A 
ENDROOT
TORSDOF 0
ENDMDL
