MODEL 1
REMARK minimizedAffinity -2.21499896
REMARK minimizedRMSD -1
REMARK  0 active torsions:
REMARK  status: ('A' for Active; 'I' for Inactive)
ROOT
ATOM      1  C   UNL d   1       1.378  -0.633   2.991  0.00  0.00     0.172 C 
ATOM      2  N   UNL d   1       1.001  -0.247   1.652  0.00  0.00    -0.070 N 
ATOM      3  C1  UNL d   1      -0.250   0.145   1.255  0.00  0.00    -0.004 A 
ATOM      4  C2  UNL d   1      -0.196   0.430  -0.092  0.00  0.00    -0.047 A 
ATOM      5  C3  UNL d   1       1.133   0.200  -0.521  0.00  0.00    -0.047 A 
ATOM      6  C4  UNL d   1       1.853  -0.218   0.579  0.00  0.00    -0.004 A 
ENDROOT
TORSDOF 0
ENDMDL
