MODEL 1
REMARK minimizedAffinity -3.7375741
REMARK minimizedRMSD -1
REMARK  0 active torsions:
REMARK  status: ('A' for Active; 'I' for Inactive)
ROOT
ATOM      1  C   UNL d   1      -0.296   0.668  -0.186  0.00  0.00     0.172 C 
ATOM      2  N   UNL d   1       0.129   0.150   1.094  0.00  0.00    -0.070 N 
ATOM      3  C1  UNL d   1       1.428  -0.028   1.491  0.00  0.00    -0.004 A 
ATOM      4  C2  UNL d   1       1.411  -0.539   2.771  0.00  0.00    -0.047 A 
ATOM      5  C3  UNL d   1       0.055  -0.674   3.155  0.00  0.00    -0.047 A 
ATOM      6  C4  UNL d   1      -0.716  -0.240   2.098  0.00  0.00    -0.004 A 
ENDROOT
TORSDOF 0
ENDMDL
