MODEL 1
REMARK minimizedAffinity 6.24304152
REMARK minimizedRMSD -1
REMARK  0 active torsions:
REMARK  status: ('A' for Active; 'I' for Inactive)
ROOT
ATOM      1  C   UNL d   1      -1.401   1.673  -0.943  0.00  0.00     0.172 C 
ATOM      2  N   UNL d   1      -1.583   2.716   0.040  0.00  0.00    -0.070 N 
ATOM      3  C1  UNL d   1      -1.067   2.716   1.308  0.00  0.00    -0.004 A 
ATOM      4  C2  UNL d   1      -1.465   3.882   1.926  0.00  0.00    -0.047 A 
ATOM      5  C3  UNL d   1      -2.248   4.607   0.997  0.00  0.00    -0.047 A 
ATOM      6  C4  UNL d   1      -2.305   3.862  -0.162  0.00  0.00    -0.004 A 
ENDROOT
TORSDOF 0
ENDMDL
