MODEL 1
REMARK minimizedAffinity 2.71096539
REMARK minimizedRMSD -1
REMARK  0 active torsions:
REMARK  status: ('A' for Active; 'I' for Inactive)
ROOT
ATOM      1  C   UNL d   1       2.630  -1.504  -0.376  0.00  0.00     0.172 C 
ATOM      2  N   UNL d   1       1.513  -2.408  -0.514  0.00  0.00    -0.070 N 
ATOM      3  C1  UNL d   1       0.608  -2.407  -1.542  0.00  0.00    -0.004 A 
ATOM      4  C2  UNL d   1      -0.299  -3.418  -1.307  0.00  0.00    -0.047 A 
ATOM      5  C3  UNL d   1       0.074  -4.048  -0.095  0.00  0.00    -0.047 A 
ATOM      6  C4  UNL d   1       1.198  -3.403   0.374  0.00  0.00    -0.004 A 
ENDROOT
TORSDOF 0
ENDMDL
