MODEL 1
REMARK minimizedAffinity 4.43668413
REMARK minimizedRMSD -1
REMARK  0 active torsions:
REMARK  status: ('A' for Active; 'I' for Inactive)
ROOT
ATOM      1  C   UNL d   1      -1.506   1.584  -0.671  0.00  0.00     0.172 C 
ATOM      2  N   UNL d   1      -0.847   1.326   0.587  0.00  0.00    -0.070 N 
ATOM      3  C1  UNL d   1      -1.429   1.402   1.824  0.00  0.00    -0.004 A 
ATOM      4  C2  UNL d   1      -0.471   1.083   2.762  0.00  0.00    -0.047 A 
ATOM      5  C3  UNL d   1       0.729   0.807   2.065  0.00  0.00    -0.047 A 
ATOM      6  C4  UNL d   1       0.468   0.964   0.720  0.00  0.00    -0.004 A 
ENDROOT
TORSDOF 0
ENDMDL
