MODEL 1
REMARK minimizedAffinity 0.0145026008
REMARK minimizedRMSD -1
REMARK  0 active torsions:
REMARK  status: ('A' for Active; 'I' for Inactive)
ROOT
ATOM      1  C   UNL d   1      -1.267   0.644   2.719  0.00  0.00     0.172 C 
ATOM      2  N   UNL d   1      -0.346  -0.046   3.592  0.00  0.00    -0.070 N 
ATOM      3  C1  UNL d   1       0.168  -1.298   3.383  0.00  0.00    -0.004 A 
ATOM      4  C2  UNL d   1       1.003  -1.593   4.439  0.00  0.00    -0.047 A 
ATOM      5  C3  UNL d   1       0.989  -0.481   5.314  0.00  0.00    -0.047 A 
ATOM      6  C4  UNL d   1       0.146   0.462   4.765  0.00  0.00    -0.004 A 
ENDROOT
TORSDOF 0
ENDMDL
