MODEL 1
REMARK minimizedAffinity 1.00788105
REMARK minimizedRMSD -1
REMARK  0 active torsions:
REMARK  status: ('A' for Active; 'I' for Inactive)
ROOT
ATOM      1  C   UNL d   1       2.569  -2.138   0.124  0.00  0.00     0.172 C 
ATOM      2  N   UNL d   1       3.194  -0.837   0.107  0.00  0.00    -0.070 N 
ATOM      3  C1  UNL d   1       2.553   0.359   0.293  0.00  0.00    -0.004 A 
ATOM      4  C2  UNL d   1       3.495   1.361   0.203  0.00  0.00    -0.047 A 
ATOM      5  C3  UNL d   1       4.745   0.746  -0.046  0.00  0.00    -0.047 A 
ATOM      6  C4  UNL d   1       4.529  -0.615  -0.101  0.00  0.00    -0.004 A 
ENDROOT
TORSDOF 0
ENDMDL
