MODEL 1
REMARK minimizedAffinity 2.2370007
REMARK minimizedRMSD -1
REMARK  0 active torsions:
REMARK  status: ('A' for Active; 'I' for Inactive)
ROOT
ATOM      1  C   UNL d   1      -1.576  -0.097  -2.467  0.00  0.00     0.172 C 
ATOM      2  N   UNL d   1      -2.495   0.404  -3.461  0.00  0.00    -0.070 N 
ATOM      3  C1  UNL d   1      -3.847   0.183  -3.482  0.00  0.00    -0.004 A 
ATOM      4  C2  UNL d   1      -4.363   0.828  -4.585  0.00  0.00    -0.047 A 
ATOM      5  C3  UNL d   1      -3.284   1.458  -5.250  0.00  0.00    -0.047 A 
ATOM      6  C4  UNL d   1      -2.140   1.179  -4.533  0.00  0.00    -0.004 A 
ENDROOT
TORSDOF 0
ENDMDL
