MODEL 1
REMARK minimizedAffinity 0.64506948
REMARK minimizedRMSD -1
REMARK  0 active torsions:
REMARK  status: ('A' for Active; 'I' for Inactive)
ROOT
ATOM      1  C   UNL d   1      -1.376   1.604  -0.192  0.00  0.00     0.172 C 
ATOM      2  N   UNL d   1      -0.578   1.177   0.933  0.00  0.00    -0.070 N 
ATOM      3  C1  UNL d   1      -0.992   1.141   2.238  0.00  0.00    -0.004 A 
ATOM      4  C2  UNL d   1       0.058   0.677   3.001  0.00  0.00    -0.047 A 
ATOM      5  C3  UNL d   1       1.140   0.427   2.125  0.00  0.00    -0.047 A 
ATOM      6  C4  UNL d   1       0.719   0.745   0.851  0.00  0.00    -0.004 A 
ENDROOT
TORSDOF 0
ENDMDL
