MODEL 1
REMARK minimizedAffinity 4.0168457
REMARK minimizedRMSD -1
REMARK  0 active torsions:
REMARK  status: ('A' for Active; 'I' for Inactive)
ROOT
ATOM      1  C   UNL d   1      -1.383   1.811   1.523  0.00  0.00     0.172 C 
ATOM      2  N   UNL d   1      -0.454   1.222   2.459  0.00  0.00    -0.070 N 
ATOM      3  C1  UNL d   1       0.904   1.398   2.453  0.00  0.00    -0.004 A 
ATOM      4  C2  UNL d   1       1.428   0.674   3.502  0.00  0.00    -0.047 A 
ATOM      5  C3  UNL d   1       0.347   0.040   4.160  0.00  0.00    -0.047 A 
ATOM      6  C4  UNL d   1      -0.806   0.396   3.493  0.00  0.00    -0.004 A 
ENDROOT
TORSDOF 0
ENDMDL
