MODEL 1
REMARK minimizedAffinity 2.94902611
REMARK minimizedRMSD -1
REMARK  0 active torsions:
REMARK  status: ('A' for Active; 'I' for Inactive)
ROOT
ATOM      1  C   UNL d   1      -0.688   1.085   2.736  0.00  0.00     0.172 C 
ATOM      2  N   UNL d   1      -1.079   1.615   1.451  0.00  0.00    -0.070 N 
ATOM      3  C1  UNL d   1      -0.788   1.057   0.235  0.00  0.00    -0.004 A 
ATOM      4  C2  UNL d   1      -1.337   1.861  -0.741  0.00  0.00    -0.047 A 
ATOM      5  C3  UNL d   1      -1.979   2.941  -0.089  0.00  0.00    -0.047 A 
ATOM      6  C4  UNL d   1      -1.804   2.763   1.268  0.00  0.00    -0.004 A 
ENDROOT
TORSDOF 0
ENDMDL
