MODEL 1
REMARK minimizedAffinity -2.46905613
REMARK minimizedRMSD -1
REMARK  0 active torsions:
REMARK  status: ('A' for Active; 'I' for Inactive)
ROOT
ATOM      1  C4' PXY d   1       4.179  -0.530   2.462  0.00  0.00     0.077 C 
ATOM      2  C1' PXY d   1      -0.109   0.634  -1.235  0.00  0.00     0.077 C 
ATOM      3  C1  PXY d   1       1.011   0.317  -0.264  0.00  0.00    -0.082 A 
ATOM      4  C2  PXY d   1       1.627   1.302   0.369  0.00  0.00     0.003 A 
ATOM      5  C3  PXY d   1       2.663   1.035   1.226  0.00  0.00     0.003 A 
ATOM      6  C4  PXY d   1       3.037  -0.257   1.480  0.00  0.00    -0.082 A 
ATOM      7  C5  PXY d   1       2.406  -1.269   0.846  0.00  0.00     0.003 A 
ATOM      8  C6  PXY d   1       1.385  -0.974  -0.052  0.00  0.00     0.003 A 
ENDROOT
TORSDOF 0
ENDMDL
