MODEL 1
REMARK minimizedAffinity -0.225539327
REMARK minimizedRMSD -1
REMARK  0 active torsions:
REMARK  status: ('A' for Active; 'I' for Inactive)
ROOT
ATOM      1  C4' PXY d   1      -1.486  -0.383   1.957  0.00  0.00     0.077 C 
ATOM      2  C1' PXY d   1       3.163  -0.747  -1.459  0.00  0.00     0.077 C 
ATOM      3  C1  PXY d   1       1.948  -0.663  -0.557  0.00  0.00    -0.082 A 
ATOM      4  C2  PXY d   1       0.884   0.017  -0.954  0.00  0.00     0.003 A 
ATOM      5  C3  PXY d   1      -0.211   0.130  -0.138  0.00  0.00     0.003 A 
ATOM      6  C4  PXY d   1      -0.240  -0.503   1.076  0.00  0.00    -0.082 A 
ATOM      7  C5  PXY d   1       0.837  -1.207   1.484  0.00  0.00     0.003 A 
ATOM      8  C6  PXY d   1       1.955  -1.276   0.658  0.00  0.00     0.003 A 
ENDROOT
TORSDOF 0
ENDMDL
