MODEL 1
REMARK minimizedAffinity 1.69301713
REMARK minimizedRMSD -1
REMARK  0 active torsions:
REMARK  status: ('A' for Active; 'I' for Inactive)
ROOT
ATOM      1  C4' PXY d   1      -3.678   0.180  -1.906  0.00  0.00     0.077 C 
ATOM      2  C1' PXY d   1       1.591   1.387   0.143  0.00  0.00     0.077 C 
ATOM      3  C1  PXY d   1       0.210   1.082  -0.401  0.00  0.00    -0.082 A 
ATOM      4  C2  PXY d   1      -0.576   0.237   0.247  0.00  0.00     0.003 A 
ATOM      5  C3  PXY d   1      -1.816  -0.075  -0.248  0.00  0.00     0.003 A 
ATOM      6  C4  PXY d   1      -2.278   0.525  -1.389  0.00  0.00    -0.082 A 
ATOM      7  C5  PXY d   1      -1.487   1.397  -2.049  0.00  0.00     0.003 A 
ATOM      8  C6  PXY d   1      -0.215   1.668  -1.553  0.00  0.00     0.003 A 
ENDROOT
TORSDOF 0
ENDMDL
