MODEL 1
REMARK minimizedAffinity -0.420644343
REMARK minimizedRMSD -1
REMARK  0 active torsions:
REMARK  status: ('A' for Active; 'I' for Inactive)
ROOT
ATOM      1  C4' PXY d   1       2.440  -1.425  -0.019  0.00  0.00     0.077 C 
ATOM      2  C1' PXY d   1      -2.174  -1.206   3.457  0.00  0.00     0.077 C 
ATOM      3  C1  PXY d   1      -0.956  -1.266   2.555  0.00  0.00    -0.082 A 
ATOM      4  C2  PXY d   1      -0.958  -0.606   1.409  0.00  0.00     0.003 A 
ATOM      5  C3  PXY d   1       0.122  -0.676   0.567  0.00  0.00     0.003 A 
ATOM      6  C4  PXY d   1       1.237  -1.385   0.927  0.00  0.00    -0.082 A 
ATOM      7  C5  PXY d   1       1.250  -2.052   2.100  0.00  0.00     0.003 A 
ATOM      8  C6  PXY d   1       0.128  -2.003   2.922  0.00  0.00     0.003 A 
ENDROOT
TORSDOF 0
ENDMDL
