MODEL 1
REMARK minimizedAffinity -0.518067062
REMARK minimizedRMSD -1
REMARK  0 active torsions:
REMARK  status: ('A' for Active; 'I' for Inactive)
ROOT
ATOM      1  C4' PXY d   1      -3.118   0.926  -3.499  0.00  0.00     0.077 C 
ATOM      2  C1' PXY d   1      -0.487   2.970   1.226  0.00  0.00     0.077 C 
ATOM      3  C1  PXY d   1      -1.178   2.446  -0.018  0.00  0.00    -0.082 A 
ATOM      4  C2  PXY d   1      -1.811   1.285   0.025  0.00  0.00     0.003 A 
ATOM      5  C3  PXY d   1      -2.414   0.781  -1.099  0.00  0.00     0.003 A 
ATOM      6  C4  PXY d   1      -2.414   1.498  -2.265  0.00  0.00    -0.082 A 
ATOM      7  C5  PXY d   1      -1.780   2.689  -2.314  0.00  0.00     0.003 A 
ATOM      8  C6  PXY d   1      -1.139   3.163  -1.174  0.00  0.00     0.003 A 
ENDROOT
TORSDOF 0
ENDMDL
