MODEL 1
REMARK minimizedAffinity -4.92147923
REMARK minimizedRMSD -1
REMARK  0 active torsions:
REMARK  status: ('A' for Active; 'I' for Inactive)
ROOT
ATOM      1  C4' PXY d   1      -1.315   1.492  -0.800  0.00  0.00     0.077 C 
ATOM      2  C1' PXY d   1       0.984  -3.137   1.788  0.00  0.00     0.077 C 
ATOM      3  C1  PXY d   1       0.372  -1.923   1.118  0.00  0.00    -0.082 A 
ATOM      4  C2  PXY d   1       0.640  -1.673  -0.153  0.00  0.00     0.003 A 
ATOM      5  C3  PXY d   1       0.120  -0.562  -0.765  0.00  0.00     0.003 A 
ATOM      6  C4  PXY d   1      -0.726   0.272  -0.085  0.00  0.00    -0.082 A 
ATOM      7  C5  PXY d   1      -1.013   0.018   1.209  0.00  0.00     0.003 A 
ATOM      8  C6  PXY d   1      -0.442  -1.093   1.824  0.00  0.00     0.003 A 
ENDROOT
TORSDOF 0
ENDMDL
