MODEL 1
REMARK minimizedAffinity 1.96184015
REMARK minimizedRMSD -1
REMARK  0 active torsions:
REMARK  status: ('A' for Active; 'I' for Inactive)
ROOT
ATOM      1  C4' PXY d   1       3.619   0.139  -1.906  0.00  0.00     0.077 C 
ATOM      2  C1' PXY d   1       1.192  -3.901   1.441  0.00  0.00     0.077 C 
ATOM      3  C1  PXY d   1       1.826  -2.832   0.572  0.00  0.00    -0.082 A 
ATOM      4  C2  PXY d   1       1.864  -2.994  -0.740  0.00  0.00     0.003 A 
ATOM      5  C3  PXY d   1       2.463  -2.053  -1.538  0.00  0.00     0.003 A 
ATOM      6  C4  PXY d   1       2.980  -0.909  -0.991  0.00  0.00    -0.082 A 
ATOM      7  C5  PXY d   1       2.935  -0.732   0.346  0.00  0.00     0.003 A 
ATOM      8  C6  PXY d   1       2.360  -1.718   1.142  0.00  0.00     0.003 A 
ENDROOT
TORSDOF 0
ENDMDL
