MODEL 1
REMARK minimizedAffinity 2.70692444
REMARK minimizedRMSD -1
REMARK  0 active torsions:
REMARK  status: ('A' for Active; 'I' for Inactive)
ROOT
ATOM      1  C4' PXY d   1      -3.917   1.550  -2.773  0.00  0.00     0.077 C 
ATOM      2  C1' PXY d   1      -2.090   0.328   2.574  0.00  0.00     0.077 C 
ATOM      3  C1  PXY d   1      -2.581   0.646   1.175  0.00  0.00    -0.082 A 
ATOM      4  C2  PXY d   1      -1.750   0.545   0.151  0.00  0.00     0.003 A 
ATOM      5  C3  PXY d   1      -2.169   0.860  -1.116  0.00  0.00     0.003 A 
ATOM      6  C4  PXY d   1      -3.467   1.230  -1.344  0.00  0.00    -0.082 A 
ATOM      7  C5  PXY d   1      -4.325   1.324  -0.306  0.00  0.00     0.003 A 
ATOM      8  C6  PXY d   1      -3.868   1.040   0.978  0.00  0.00     0.003 A 
ENDROOT
TORSDOF 0
ENDMDL
