MODEL 1
REMARK minimizedAffinity 6.5363102
REMARK minimizedRMSD -1
REMARK  0 active torsions:
REMARK  status: ('A' for Active; 'I' for Inactive)
ROOT
ATOM      1  C4' PXY d   1      -3.929   0.360  -0.189  0.00  0.00     0.077 C 
ATOM      2  C1' PXY d   1      -0.253   3.799  -3.031  0.00  0.00     0.077 C 
ATOM      3  C1  PXY d   1      -1.209   2.897  -2.275  0.00  0.00    -0.082 A 
ATOM      4  C2  PXY d   1      -2.011   2.085  -2.945  0.00  0.00     0.003 A 
ATOM      5  C3  PXY d   1      -2.904   1.287  -2.279  0.00  0.00     0.003 A 
ATOM      6  C4  PXY d   1      -2.940   1.281  -0.910  0.00  0.00    -0.082 A 
ATOM      7  C5  PXY d   1      -2.119   2.099  -0.219  0.00  0.00     0.003 A 
ATOM      8  C6  PXY d   1      -1.248   2.932  -0.916  0.00  0.00     0.003 A 
ENDROOT
TORSDOF 0
ENDMDL
