MODEL 1
REMARK minimizedAffinity -1.25714731
REMARK minimizedRMSD -1
REMARK  0 active torsions:
REMARK  status: ('A' for Active; 'I' for Inactive)
ROOT
ATOM      1  C4' PXY d   1       1.045  -3.863   1.418  0.00  0.00     0.077 C 
ATOM      2  C1' PXY d   1       2.833   0.615  -1.770  0.00  0.00     0.077 C 
ATOM      3  C1  PXY d   1       2.366  -0.553  -0.923  0.00  0.00    -0.082 A 
ATOM      4  C2  PXY d   1       2.413  -1.779  -1.417  0.00  0.00     0.003 A 
ATOM      5  C3  PXY d   1       1.966  -2.843  -0.676  0.00  0.00     0.003 A 
ATOM      6  C4  PXY d   1       1.514  -2.656   0.603  0.00  0.00    -0.082 A 
ATOM      7  C5  PXY d   1       1.473  -1.409   1.118  0.00  0.00     0.003 A 
ATOM      8  C6  PXY d   1       1.894  -0.337   0.335  0.00  0.00     0.003 A 
ENDROOT
TORSDOF 0
ENDMDL
