MODEL 1
REMARK minimizedAffinity 6.32529259
REMARK minimizedRMSD -1
REMARK  0 active torsions:
REMARK  status: ('A' for Active; 'I' for Inactive)
ROOT
ATOM      1  C4' PXY d   1      -2.482   0.851   1.902  0.00  0.00     0.077 C 
ATOM      2  C1' PXY d   1      -3.434   1.842  -3.713  0.00  0.00     0.077 C 
ATOM      3  C1  PXY d   1      -3.172   1.585  -2.242  0.00  0.00    -0.082 A 
ATOM      4  C2  PXY d   1      -4.013   0.835  -1.549  0.00  0.00     0.003 A 
ATOM      5  C3  PXY d   1      -3.808   0.618  -0.211  0.00  0.00     0.003 A 
ATOM      6  C4  PXY d   1      -2.702   1.130   0.413  0.00  0.00    -0.082 A 
ATOM      7  C5  PXY d   1      -1.833   1.888  -0.290  0.00  0.00     0.003 A 
ATOM      8  C6  PXY d   1      -2.081   2.130  -1.638  0.00  0.00     0.003 A 
ENDROOT
TORSDOF 0
ENDMDL
