MODEL 1
REMARK minimizedAffinity 5.17027187
REMARK minimizedRMSD -1
REMARK  0 active torsions:
REMARK  status: ('A' for Active; 'I' for Inactive)
ROOT
ATOM      1  C4' PXY d   1      -2.599   0.814  -1.834  0.00  0.00     0.077 C 
ATOM      2  C1' PXY d   1      -0.788  -2.656   2.421  0.00  0.00     0.077 C 
ATOM      3  C1  PXY d   1      -1.262  -1.756   1.296  0.00  0.00    -0.082 A 
ATOM      4  C2  PXY d   1      -1.106  -0.446   1.397  0.00  0.00     0.003 A 
ATOM      5  C3  PXY d   1      -1.558   0.385   0.404  0.00  0.00     0.003 A 
ATOM      6  C4  PXY d   1      -2.127  -0.134  -0.728  0.00  0.00    -0.082 A 
ATOM      7  C5  PXY d   1      -2.280  -1.470  -0.843  0.00  0.00     0.003 A 
ATOM      8  C6  PXY d   1      -1.852  -2.294   0.195  0.00  0.00     0.003 A 
ENDROOT
TORSDOF 0
ENDMDL
