MODEL 1
REMARK minimizedAffinity -0.0772777125
REMARK minimizedRMSD -1
REMARK  0 active torsions:
REMARK  status: ('A' for Active; 'I' for Inactive)
ROOT
ATOM      1  C4' PXY d   1       3.917   0.832  -2.614  0.00  0.00     0.077 C 
ATOM      2  C1' PXY d   1       1.350  -2.231   1.563  0.00  0.00     0.077 C 
ATOM      3  C1  PXY d   1       2.015  -1.417   0.470  0.00  0.00    -0.082 A 
ATOM      4  C2  PXY d   1       2.637  -2.037  -0.519  0.00  0.00     0.003 A 
ATOM      5  C3  PXY d   1       3.272  -1.317  -1.499  0.00  0.00     0.003 A 
ATOM      6  C4  PXY d   1       3.223   0.051  -1.494  0.00  0.00    -0.082 A 
ATOM      7  C5  PXY d   1       2.581   0.691  -0.494  0.00  0.00     0.003 A 
ATOM      8  C6  PXY d   1       1.978  -0.058   0.513  0.00  0.00     0.003 A 
ENDROOT
TORSDOF 0
ENDMDL
