MODEL 1
REMARK minimizedAffinity 4.90935326
REMARK minimizedRMSD -1
REMARK  0 active torsions:
REMARK  status: ('A' for Active; 'I' for Inactive)
ROOT
ATOM      1  C4' PXY d   1      -2.569  -2.898  -1.979  0.00  0.00     0.077 C 
ATOM      2  C1' PXY d   1      -2.413   1.104   2.189  0.00  0.00     0.077 C 
ATOM      3  C1  PXY d   1      -2.463   0.061   1.090  0.00  0.00    -0.082 A 
ATOM      4  C2  PXY d   1      -2.126  -1.189   1.359  0.00  0.00     0.003 A 
ATOM      5  C3  PXY d   1      -2.134  -2.138   0.369  0.00  0.00     0.003 A 
ATOM      6  C4  PXY d   1      -2.543  -1.815  -0.897  0.00  0.00    -0.082 A 
ATOM      7  C5  PXY d   1      -2.899  -0.543  -1.177  0.00  0.00     0.003 A 
ATOM      8  C6  PXY d   1      -2.844   0.414  -0.168  0.00  0.00     0.003 A 
ENDROOT
TORSDOF 0
ENDMDL
