MODEL 1
REMARK minimizedAffinity 1.69431925
REMARK minimizedRMSD -1
REMARK  0 active torsions:
REMARK  status: ('A' for Active; 'I' for Inactive)
ROOT
ATOM      1  C4' PXY d   1       0.529  -1.878   1.618  0.00  0.00     0.077 C 
ATOM      2  C1' PXY d   1       3.706   1.202  -2.102  0.00  0.00     0.077 C 
ATOM      3  C1  PXY d   1       2.874   0.384  -1.134  0.00  0.00    -0.082 A 
ATOM      4  C2  PXY d   1       2.013   0.993  -0.335  0.00  0.00     0.003 A 
ATOM      5  C3  PXY d   1       1.276   0.271   0.568  0.00  0.00     0.003 A 
ATOM      6  C4  PXY d   1       1.383  -1.093   0.618  0.00  0.00    -0.082 A 
ATOM      7  C5  PXY d   1       2.252  -1.722  -0.201  0.00  0.00     0.003 A 
ATOM      8  C6  PXY d   1       3.020  -0.968  -1.083  0.00  0.00     0.003 A 
ENDROOT
TORSDOF 0
ENDMDL
