MODEL 1
REMARK minimizedAffinity 0.198546648
REMARK minimizedRMSD -1
REMARK  0 active torsions:
REMARK  status: ('A' for Active; 'I' for Inactive)
ROOT
ATOM      1  C4' PXY d   1       0.638  -1.210   1.849  0.00  0.00     0.077 C 
ATOM      2  C1' PXY d   1      -4.154  -0.091  -1.185  0.00  0.00     0.077 C 
ATOM      3  C1  PXY d   1      -2.894  -0.372  -0.390  0.00  0.00    -0.082 A 
ATOM      4  C2  PXY d   1      -2.359  -1.582  -0.417  0.00  0.00     0.003 A 
ATOM      5  C3  PXY d   1      -1.238  -1.862   0.321  0.00  0.00     0.003 A 
ATOM      6  C4  PXY d   1      -0.628  -0.879   1.054  0.00  0.00    -0.082 A 
ATOM      7  C5  PXY d   1      -1.162   0.361   1.079  0.00  0.00     0.003 A 
ATOM      8  C6  PXY d   1      -2.323   0.614   0.355  0.00  0.00     0.003 A 
ENDROOT
TORSDOF 0
ENDMDL
