MODEL 1
REMARK minimizedAffinity 6.80912971
REMARK minimizedRMSD -1
REMARK  0 active torsions:
REMARK  status: ('A' for Active; 'I' for Inactive)
ROOT
ATOM      1  C4' PXY d   1      -3.903   0.744  -1.081  0.00  0.00     0.077 C 
ATOM      2  C1' PXY d   1      -0.698  -1.955   2.900  0.00  0.00     0.077 C 
ATOM      3  C1  PXY d   1      -1.534  -1.255   1.847  0.00  0.00    -0.082 A 
ATOM      4  C2  PXY d   1      -1.922  -0.006   2.044  0.00  0.00     0.003 A 
ATOM      5  C3  PXY d   1      -2.705   0.632   1.116  0.00  0.00     0.003 A 
ATOM      6  C4  PXY d   1      -3.050   0.002  -0.049  0.00  0.00    -0.082 A 
ATOM      7  C5  PXY d   1      -2.649  -1.269  -0.263  0.00  0.00     0.003 A 
ATOM      8  C6  PXY d   1      -1.889  -1.913   0.710  0.00  0.00     0.003 A 
ENDROOT
TORSDOF 0
ENDMDL
