MODEL 1
REMARK minimizedAffinity 3.39309812
REMARK minimizedRMSD -1
REMARK  0 active torsions:
REMARK  status: ('A' for Active; 'I' for Inactive)
ROOT
ATOM      1  C4' PXY d   1       3.512   1.092  -2.111  0.00  0.00     0.077 C 
ATOM      2  C1' PXY d   1       1.612  -3.057   1.438  0.00  0.00     0.077 C 
ATOM      3  C1  PXY d   1       2.101  -1.961   0.512  0.00  0.00    -0.082 A 
ATOM      4  C2  PXY d   1       2.754  -2.281  -0.594  0.00  0.00     0.003 A 
ATOM      5  C3  PXY d   1       3.231  -1.302  -1.426  0.00  0.00     0.003 A 
ATOM      6  C4  PXY d   1       2.991   0.018  -1.151  0.00  0.00    -0.082 A 
ATOM      7  C5  PXY d   1       2.317   0.353  -0.031  0.00  0.00     0.003 A 
ATOM      8  C6  PXY d   1       1.877  -0.655   0.822  0.00  0.00     0.003 A 
ENDROOT
TORSDOF 0
ENDMDL
