MODEL 1
REMARK minimizedAffinity 1.75617099
REMARK minimizedRMSD -1
REMARK  0 active torsions:
REMARK  status: ('A' for Active; 'I' for Inactive)
ROOT
ATOM      1  C4' PXY d   1      -0.839  -0.377   1.864  0.00  0.00     0.077 C 
ATOM      2  C1' PXY d   1       3.745  -0.334  -1.657  0.00  0.00     0.077 C 
ATOM      3  C1  PXY d   1       2.542  -0.358  -0.735  0.00  0.00    -0.082 A 
ATOM      4  C2  PXY d   1       1.771   0.713  -0.637  0.00  0.00     0.003 A 
ATOM      5  C3  PXY d   1       0.698   0.719   0.216  0.00  0.00     0.003 A 
ATOM      6  C4  PXY d   1       0.380  -0.400   0.938  0.00  0.00    -0.082 A 
ATOM      7  C5  PXY d   1       1.156  -1.500   0.836  0.00  0.00     0.003 A 
ATOM      8  C6  PXY d   1       2.265  -1.472  -0.005  0.00  0.00     0.003 A 
ENDROOT
TORSDOF 0
ENDMDL
