MODEL 1
REMARK minimizedAffinity 9.51452351
REMARK minimizedRMSD -1
REMARK  0 active torsions:
REMARK  status: ('A' for Active; 'I' for Inactive)
ROOT
ATOM      1  C4' PXY d   1      -4.268   0.404  -0.486  0.00  0.00     0.077 C 
ATOM      2  C1' PXY d   1      -1.552   3.454  -4.577  0.00  0.00     0.077 C 
ATOM      3  C1  PXY d   1      -2.276   2.658  -3.509  0.00  0.00    -0.082 A 
ATOM      4  C2  PXY d   1      -1.683   2.429  -2.349  0.00  0.00     0.003 A 
ATOM      5  C3  PXY d   1      -2.310   1.684  -1.384  0.00  0.00     0.003 A 
ATOM      6  C4  PXY d   1      -3.579   1.211  -1.590  0.00  0.00    -0.082 A 
ATOM      7  C5  PXY d   1      -4.195   1.449  -2.767  0.00  0.00     0.003 A 
ATOM      8  C6  PXY d   1      -3.524   2.173  -3.749  0.00  0.00     0.003 A 
ENDROOT
TORSDOF 0
ENDMDL
