MODEL 1
REMARK minimizedAffinity 5.49777842
REMARK minimizedRMSD -1
REMARK  0 active torsions:
REMARK  status: ('A' for Active; 'I' for Inactive)
ROOT
ATOM      1  C   UNL d   1       4.243  -3.057   4.735  0.00  0.00     0.020 A 
ATOM      2  C1  UNL d   1       3.516  -4.243   4.832  0.00  0.00     0.020 A 
ATOM      3  C2  UNL d   1       2.277  -4.356   4.198  0.00  0.00     0.034 A 
ATOM      4  C3  UNL d   1       1.760  -3.282   3.465  0.00  0.00     0.017 A 
ATOM      5  C4  UNL d   1       2.490  -2.092   3.368  0.00  0.00     0.017 A 
ATOM      6  C5  UNL d   1       3.731  -1.984   4.005  0.00  0.00     0.034 A 
ATOM      7 Cl   UNL d   1       1.918  -0.723   2.481  0.00  0.00    -0.070 Cl
ATOM      8 Cl1  UNL d   1       0.222  -3.493   2.707  0.00  0.00    -0.070 Cl
ENDROOT
TORSDOF 0
ENDMDL
