MODEL 1
REMARK minimizedAffinity 8.21845818
REMARK minimizedRMSD -1
REMARK  0 active torsions:
REMARK  status: ('A' for Active; 'I' for Inactive)
ROOT
ATOM      1  C   UNL d   1      -5.039   2.625  -3.652  0.00  0.00     0.020 A 
ATOM      2  C1  UNL d   1      -3.754   2.106  -3.502  0.00  0.00     0.020 A 
ATOM      3  C2  UNL d   1      -3.142   2.109  -2.246  0.00  0.00     0.034 A 
ATOM      4  C3  UNL d   1      -3.815   2.631  -1.136  0.00  0.00     0.017 A 
ATOM      5  C4  UNL d   1      -5.106   3.152  -1.288  0.00  0.00     0.017 A 
ATOM      6  C5  UNL d   1      -5.713   3.147  -2.547  0.00  0.00     0.034 A 
ATOM      7 Cl   UNL d   1      -5.999   3.814   0.035  0.00  0.00    -0.070 Cl
ATOM      8 Cl1  UNL d   1      -2.999   2.602   0.386  0.00  0.00    -0.070 Cl
ENDROOT
TORSDOF 0
ENDMDL
