MODEL 1
REMARK minimizedAffinity 4.65026665
REMARK minimizedRMSD -1
REMARK  0 active torsions:
REMARK  status: ('A' for Active; 'I' for Inactive)
ROOT
ATOM      1  C   UNL d   1      -1.715   1.341  -1.159  0.00  0.00     0.020 A 
ATOM      2  C1  UNL d   1      -1.546  -0.043  -1.149  0.00  0.00     0.020 A 
ATOM      3  C2  UNL d   1      -2.135  -0.825  -2.145  0.00  0.00     0.034 A 
ATOM      4  C3  UNL d   1      -2.896  -0.225  -3.155  0.00  0.00     0.017 A 
ATOM      5  C4  UNL d   1      -3.065   1.165  -3.164  0.00  0.00     0.017 A 
ATOM      6  C5  UNL d   1      -2.473   1.943  -2.164  0.00  0.00     0.034 A 
ATOM      7 Cl   UNL d   1      -3.989   1.978  -4.377  0.00  0.00    -0.070 Cl
ATOM      8 Cl1  UNL d   1      -3.595  -1.253  -4.354  0.00  0.00    -0.070 Cl
ENDROOT
TORSDOF 0
ENDMDL
