MODEL 1
REMARK minimizedAffinity -2.69475245
REMARK minimizedRMSD -1
REMARK  0 active torsions:
REMARK  status: ('A' for Active; 'I' for Inactive)
ROOT
ATOM      1  C   UNL d   1       0.622  -4.592   4.728  0.00  0.00     0.020 A 
ATOM      2  C1  UNL d   1       1.623  -5.042   5.587  0.00  0.00     0.020 A 
ATOM      3  C2  UNL d   1       2.864  -4.402   5.610  0.00  0.00     0.034 A 
ATOM      4  C3  UNL d   1       3.107  -3.308   4.771  0.00  0.00     0.017 A 
ATOM      5  C4  UNL d   1       2.101  -2.856   3.909  0.00  0.00     0.017 A 
ATOM      6  C5  UNL d   1       0.860  -3.501   3.890  0.00  0.00     0.034 A 
ATOM      7 Cl   UNL d   1       2.326  -1.513   2.845  0.00  0.00    -0.070 Cl
ATOM      8 Cl1  UNL d   1       4.664  -2.563   4.852  0.00  0.00    -0.070 Cl
ENDROOT
TORSDOF 0
ENDMDL
