MODEL 1
REMARK minimizedAffinity -0.100588076
REMARK minimizedRMSD -1
REMARK  0 active torsions:
REMARK  status: ('A' for Active; 'I' for Inactive)
ROOT
ATOM      1  C   UNL d   1       2.614  -4.703   3.021  0.00  0.00     0.020 A 
ATOM      2  C1  UNL d   1       2.723  -4.610   4.408  0.00  0.00     0.020 A 
ATOM      3  C2  UNL d   1       2.349  -3.433   5.060  0.00  0.00     0.034 A 
ATOM      4  C3  UNL d   1       1.865  -2.344   4.325  0.00  0.00     0.017 A 
ATOM      5  C4  UNL d   1       1.757  -2.439   2.933  0.00  0.00     0.017 A 
ATOM      6  C5  UNL d   1       2.132  -3.620   2.285  0.00  0.00     0.034 A 
ATOM      7 Cl   UNL d   1       1.168  -1.138   1.959  0.00  0.00    -0.070 Cl
ATOM      8 Cl1  UNL d   1       1.422  -0.920   5.197  0.00  0.00    -0.070 Cl
ENDROOT
TORSDOF 0
ENDMDL
