MODEL 1
REMARK minimizedAffinity 5.7370038
REMARK minimizedRMSD -1
REMARK  0 active torsions:
REMARK  status: ('A' for Active; 'I' for Inactive)
ROOT
ATOM      1  C   UNL d   1       0.891  -1.954   2.886  0.00  0.00     0.020 A 
ATOM      2  C1  UNL d   1       1.628  -2.944   3.536  0.00  0.00     0.020 A 
ATOM      3  C2  UNL d   1       3.009  -3.024   3.346  0.00  0.00     0.034 A 
ATOM      4  C3  UNL d   1       3.658  -2.113   2.506  0.00  0.00     0.017 A 
ATOM      5  C4  UNL d   1       2.918  -1.119   1.854  0.00  0.00     0.017 A 
ATOM      6  C5  UNL d   1       1.535  -1.044   2.048  0.00  0.00     0.034 A 
ATOM      7 Cl   UNL d   1       3.649   0.041   0.802  0.00  0.00    -0.070 Cl
ATOM      8 Cl1  UNL d   1       5.369  -2.270   2.318  0.00  0.00    -0.070 Cl
ENDROOT
TORSDOF 0
ENDMDL
