MODEL 1
REMARK minimizedAffinity 4.64740705
REMARK minimizedRMSD -1
REMARK  0 active torsions:
REMARK  status: ('A' for Active; 'I' for Inactive)
ROOT
ATOM      1  C   UNL d   1       4.475  -5.905  -3.564  0.00  0.00     0.020 A 
ATOM      2  C1  UNL d   1       3.119  -5.928  -3.886  0.00  0.00     0.020 A 
ATOM      3  C2  UNL d   1       2.161  -5.957  -2.870  0.00  0.00     0.034 A 
ATOM      4  C3  UNL d   1       2.557  -5.963  -1.528  0.00  0.00     0.017 A 
ATOM      5  C4  UNL d   1       3.919  -5.940  -1.206  0.00  0.00     0.017 A 
ATOM      6  C5  UNL d   1       4.874  -5.911  -2.226  0.00  0.00     0.034 A 
ATOM      7 Cl   UNL d   1       4.485  -5.946   0.427  0.00  0.00    -0.070 Cl
ATOM      8 Cl1  UNL d   1       1.318  -5.999  -0.325  0.00  0.00    -0.070 Cl
ENDROOT
TORSDOF 0
ENDMDL
