MODEL 1
REMARK minimizedAffinity 7.70536232
REMARK minimizedRMSD -1
REMARK  0 active torsions:
REMARK  status: ('A' for Active; 'I' for Inactive)
ROOT
ATOM      1  C   UNL d   1      -5.460   3.004   1.595  0.00  0.00     0.020 A 
ATOM      2  C1  UNL d   1      -5.999   3.375   0.363  0.00  0.00     0.020 A 
ATOM      3  C2  UNL d   1      -5.195   3.376  -0.779  0.00  0.00     0.034 A 
ATOM      4  C3  UNL d   1      -3.848   3.007  -0.692  0.00  0.00     0.017 A 
ATOM      5  C4  UNL d   1      -3.308   2.636   0.545  0.00  0.00     0.017 A 
ATOM      6  C5  UNL d   1      -4.118   2.636   1.685  0.00  0.00     0.034 A 
ATOM      7 Cl   UNL d   1      -1.655   2.168   0.732  0.00  0.00    -0.070 Cl
ATOM      8 Cl1  UNL d   1      -2.913   3.032  -2.144  0.00  0.00    -0.070 Cl
ENDROOT
TORSDOF 0
ENDMDL
