MODEL 1
REMARK minimizedAffinity 9.56423187
REMARK minimizedRMSD -1
REMARK  0 active torsions:
REMARK  status: ('A' for Active; 'I' for Inactive)
ROOT
ATOM      1  C   UNL d   1      -1.978   1.408  -0.456  0.00  0.00     0.020 A 
ATOM      2  C1  UNL d   1      -2.419   2.703  -0.726  0.00  0.00     0.020 A 
ATOM      3  C2  UNL d   1      -3.008   2.998  -1.957  0.00  0.00     0.034 A 
ATOM      4  C3  UNL d   1      -3.158   1.997  -2.923  0.00  0.00     0.017 A 
ATOM      5  C4  UNL d   1      -2.716   0.697  -2.652  0.00  0.00     0.017 A 
ATOM      6  C5  UNL d   1      -2.127   0.407  -1.417  0.00  0.00     0.034 A 
ATOM      7 Cl   UNL d   1      -2.867  -0.591  -3.795  0.00  0.00    -0.070 Cl
ATOM      8 Cl1  UNL d   1      -3.895   2.433  -4.424  0.00  0.00    -0.070 Cl
ENDROOT
TORSDOF 0
ENDMDL
