MODEL 1
REMARK minimizedAffinity 2.29925752
REMARK minimizedRMSD -1
REMARK  0 active torsions:
REMARK  status: ('A' for Active; 'I' for Inactive)
ROOT
ATOM      1  C   UNL d   1       1.831  -3.801   4.224  0.00  0.00     0.020 A 
ATOM      2  C1  UNL d   1       0.799  -2.990   3.752  0.00  0.00     0.020 A 
ATOM      3  C2  UNL d   1       1.093  -1.859   2.989  0.00  0.00     0.034 A 
ATOM      4  C3  UNL d   1       2.423  -1.535   2.694  0.00  0.00     0.017 A 
ATOM      5  C4  UNL d   1       3.458  -2.349   3.168  0.00  0.00     0.017 A 
ATOM      6  C5  UNL d   1       3.157  -3.481   3.932  0.00  0.00     0.034 A 
ATOM      7 Cl   UNL d   1       5.122  -2.013   2.846  0.00  0.00    -0.070 Cl
ATOM      8 Cl1  UNL d   1       2.714  -0.121   1.745  0.00  0.00    -0.070 Cl
ENDROOT
TORSDOF 0
ENDMDL
