MODEL 1
REMARK minimizedAffinity 3.14645123
REMARK minimizedRMSD -1
REMARK  0 active torsions:
REMARK  status: ('A' for Active; 'I' for Inactive)
ROOT
ATOM      1  C   UNL d   1       1.680  -1.263   1.567  0.00  0.00     0.020 A 
ATOM      2  C1  UNL d   1       1.807  -1.111   2.947  0.00  0.00     0.020 A 
ATOM      3  C2  UNL d   1       2.337   0.069   3.474  0.00  0.00     0.034 A 
ATOM      4  C3  UNL d   1       2.743   1.101   2.620  0.00  0.00     0.017 A 
ATOM      5  C4  UNL d   1       2.616   0.947   1.235  0.00  0.00     0.017 A 
ATOM      6  C5  UNL d   1       2.084  -0.236   0.712  0.00  0.00     0.034 A 
ATOM      7 Cl   UNL d   1       3.095   2.176   0.118  0.00  0.00    -0.070 Cl
ATOM      8 Cl1  UNL d   1       3.390   2.532   3.340  0.00  0.00    -0.070 Cl
ENDROOT
TORSDOF 0
ENDMDL
