MODEL 1
REMARK minimizedAffinity 3.84259987
REMARK minimizedRMSD -1
REMARK  0 active torsions:
REMARK  status: ('A' for Active; 'I' for Inactive)
ROOT
ATOM      1  C   UNL d   1       4.854  -5.690  -2.517  0.00  0.00     0.020 A 
ATOM      2  C1  UNL d   1       3.951  -5.908  -1.477  0.00  0.00     0.020 A 
ATOM      3  C2  UNL d   1       2.584  -6.000  -1.747  0.00  0.00     0.034 A 
ATOM      4  C3  UNL d   1       2.116  -5.874  -3.060  0.00  0.00     0.017 A 
ATOM      5  C4  UNL d   1       3.023  -5.655  -4.104  0.00  0.00     0.017 A 
ATOM      6  C5  UNL d   1       4.391  -5.564  -3.827  0.00  0.00     0.034 A 
ATOM      7 Cl   UNL d   1       2.521  -5.489  -5.749  0.00  0.00    -0.070 Cl
ATOM      8 Cl1  UNL d   1       0.413  -5.998  -3.322  0.00  0.00    -0.070 Cl
ENDROOT
TORSDOF 0
ENDMDL
