MODEL 1
REMARK minimizedAffinity 11.4653635
REMARK minimizedRMSD -1
REMARK  0 active torsions:
REMARK  status: ('A' for Active; 'I' for Inactive)
ROOT
ATOM      1  C   UNL d   1       2.429  -1.426   3.702  0.00  0.00     0.020 A 
ATOM      2  C1  UNL d   1       1.488  -2.400   3.368  0.00  0.00     0.020 A 
ATOM      3  C2  UNL d   1       0.827  -2.340   2.140  0.00  0.00     0.034 A 
ATOM      4  C3  UNL d   1       1.105  -1.304   1.240  0.00  0.00     0.017 A 
ATOM      5  C4  UNL d   1       2.049  -0.327   1.576  0.00  0.00     0.017 A 
ATOM      6  C5  UNL d   1       2.708  -0.392   2.807  0.00  0.00     0.034 A 
ATOM      7 Cl   UNL d   1       2.446   0.981   0.518  0.00  0.00    -0.070 Cl
ATOM      8 Cl1  UNL d   1       0.250  -1.293  -0.261  0.00  0.00    -0.070 Cl
ENDROOT
TORSDOF 0
ENDMDL
