MODEL 1
REMARK minimizedAffinity 4.01453876
REMARK minimizedRMSD -1
REMARK  0 active torsions:
REMARK  status: ('A' for Active; 'I' for Inactive)
ROOT
ATOM      1  C   UNL d   1      -4.700   3.352   1.599  0.00  0.00     0.020 A 
ATOM      2  C1  UNL d   1      -5.279   3.892   0.451  0.00  0.00     0.020 A 
ATOM      3  C2  UNL d   1      -4.773   3.561  -0.808  0.00  0.00     0.034 A 
ATOM      4  C3  UNL d   1      -3.686   2.687  -0.922  0.00  0.00     0.017 A 
ATOM      5  C4  UNL d   1      -3.106   2.145   0.230  0.00  0.00     0.017 A 
ATOM      6  C5  UNL d   1      -3.616   2.480   1.488  0.00  0.00     0.034 A 
ATOM      7 Cl   UNL d   1      -1.762   1.060   0.169  0.00  0.00    -0.070 Cl
ATOM      8 Cl1  UNL d   1      -3.114   2.320  -2.511  0.00  0.00    -0.070 Cl
ENDROOT
TORSDOF 0
ENDMDL
