MODEL 1
REMARK minimizedAffinity -5.39055872
REMARK minimizedRMSD -1
REMARK  1 active torsions:
REMARK  status: ('A' for Active; 'I' for Inactive)
REMARK    1  A    between atoms: C1_2  and  C2_3 
ROOT
ATOM      1  C2  UNL d   1      -0.741   0.006  -0.042  0.00  0.00    -0.077 A 
ATOM      2  C3  UNL d   1       0.294   0.945  -0.154  0.00  0.00     0.002 A 
ATOM      3  C4  UNL d   1       1.543   0.691   0.416  0.00  0.00     0.002 A 
ATOM      4  C5  UNL d   1       1.770  -0.502   1.097  0.00  0.00    -0.004 A 
ATOM      5  C6  UNL d   1       0.747  -1.442   1.216  0.00  0.00     0.002 A 
ATOM      6  C7  UNL d   1      -0.503  -1.190   0.648  0.00  0.00     0.002 A 
ENDROOT
BRANCH   1   7
ATOM      7  C1  UNL d   1      -2.074   0.256  -0.698  0.00  0.00     0.055 C 
ATOM      8  C   UNL d   1      -2.199  -0.510  -2.007  0.00  0.00     0.019 C 
ENDBRANCH   1   7
TORSDOF 1
ENDMDL
