MODEL 1
REMARK minimizedAffinity -3.98873377
REMARK minimizedRMSD -1
REMARK  1 active torsions:
REMARK  status: ('A' for Active; 'I' for Inactive)
REMARK    1  A    between atoms: C1_2  and  C2_3 
ROOT
ATOM      1  C2  UNL d   1      -0.973   0.089  -1.088  0.00  0.00    -0.077 A 
ATOM      2  C3  UNL d   1      -0.679  -0.216  -2.424  0.00  0.00     0.002 A 
ATOM      3  C4  UNL d   1      -1.681  -0.178  -3.395  0.00  0.00     0.002 A 
ATOM      4  C5  UNL d   1      -2.983   0.169  -3.041  0.00  0.00    -0.004 A 
ATOM      5  C6  UNL d   1      -3.287   0.472  -1.714  0.00  0.00     0.002 A 
ATOM      6  C7  UNL d   1      -2.286   0.433  -0.743  0.00  0.00     0.002 A 
ENDROOT
BRANCH   1   7
ATOM      7  C1  UNL d   1       0.117   0.096  -0.049  0.00  0.00     0.055 C 
ATOM      8  C   UNL d   1       0.954   1.364  -0.133  0.00  0.00     0.019 C 
ENDBRANCH   1   7
TORSDOF 1
ENDMDL
