MODEL 1
REMARK minimizedAffinity -2.88470197
REMARK minimizedRMSD -1
REMARK  1 active torsions:
REMARK  status: ('A' for Active; 'I' for Inactive)
REMARK    1  A    between atoms: C1_2  and  C2_3 
ROOT
ATOM      1  C2  UNL d   1       0.262  -0.062   0.066  0.00  0.00    -0.077 A 
ATOM      2  C3  UNL d   1       0.973  -0.497   1.193  0.00  0.00     0.002 A 
ATOM      3  C4  UNL d   1       2.228   0.040   1.487  0.00  0.00     0.002 A 
ATOM      4  C5  UNL d   1       2.781   1.017   0.662  0.00  0.00    -0.004 A 
ATOM      5  C6  UNL d   1       2.082   1.454  -0.463  0.00  0.00     0.002 A 
ATOM      6  C7  UNL d   1       0.828   0.918  -0.759  0.00  0.00     0.002 A 
ENDROOT
BRANCH   1   7
ATOM      7  C1  UNL d   1      -1.113  -0.604  -0.225  0.00  0.00     0.055 C 
ATOM      8  C   UNL d   1      -2.193   0.409   0.126  0.00  0.00     0.019 C 
ENDBRANCH   1   7
TORSDOF 1
ENDMDL
