MODEL 1
REMARK minimizedAffinity -4.09111738
REMARK minimizedRMSD -1
REMARK  1 active torsions:
REMARK  status: ('A' for Active; 'I' for Inactive)
REMARK    1  A    between atoms: C3_4  and  O_7 
ROOT
ATOM      1  C   UNL d   1      -1.315  -1.775   2.244  0.00  0.00    -0.033 A 
ATOM      2  C1  UNL d   1      -1.864  -0.491   2.271  0.00  0.00     0.039 A 
ATOM      3  C2  UNL d   1      -1.352   0.506   1.439  0.00  0.00    -0.080 A 
ATOM      4  C3  UNL d   1      -0.293   0.208   0.586  0.00  0.00     0.150 A 
ATOM      5  C4  UNL d   1       0.256  -1.070   0.552  0.00  0.00    -0.007 A 
ATOM      6  C5  UNL d   1      -0.256  -2.064   1.384  0.00  0.00     0.039 A 
ENDROOT
BRANCH   4   7
ATOM      7  O   UNL d   1       0.243   1.150  -0.241  0.00  0.00    -0.526 OA
ATOM      8  H5  UNL d   1      -0.217   1.992  -0.088  0.00  0.00     0.418 HD
ENDBRANCH   4   7
TORSDOF 1
ENDMDL
