MODEL 1
REMARK minimizedAffinity -4.71444988
REMARK minimizedRMSD -1
REMARK  1 active torsions:
REMARK  status: ('A' for Active; 'I' for Inactive)
REMARK    1  A    between atoms: C3_4  and  O_7 
ROOT
ATOM      1  C   UNL d   1       0.543  -1.797   0.382  0.00  0.00    -0.033 A 
ATOM      2  C1  UNL d   1      -0.355  -2.499   1.188  0.00  0.00     0.039 A 
ATOM      3  C2  UNL d   1      -1.525  -1.882   1.635  0.00  0.00    -0.080 A 
ATOM      4  C3  UNL d   1      -1.785  -0.564   1.270  0.00  0.00     0.150 A 
ATOM      5  C4  UNL d   1      -0.896   0.141   0.464  0.00  0.00    -0.007 A 
ATOM      6  C5  UNL d   1       0.272  -0.477   0.019  0.00  0.00     0.039 A 
ENDROOT
BRANCH   4   7
ATOM      7  O   UNL d   1      -2.911   0.082   1.686  0.00  0.00    -0.526 OA
ATOM      8  H5  UNL d   1      -3.416  -0.518   2.259  0.00  0.00     0.418 HD
ENDBRANCH   4   7
TORSDOF 1
ENDMDL
