MODEL 1
REMARK minimizedAffinity -3.06882238
REMARK minimizedRMSD -1
REMARK  1 active torsions:
REMARK  status: ('A' for Active; 'I' for Inactive)
REMARK    1  A    between atoms: C3_4  and  O_7 
ROOT
ATOM      1  C   UNL d   1      -0.464  -1.523   1.260  0.00  0.00    -0.033 A 
ATOM      2  C1  UNL d   1      -0.665  -0.155   1.454  0.00  0.00     0.039 A 
ATOM      3  C2  UNL d   1      -0.281   0.755   0.468  0.00  0.00    -0.080 A 
ATOM      4  C3  UNL d   1       0.302   0.285  -0.706  0.00  0.00     0.150 A 
ATOM      5  C4  UNL d   1       0.501  -1.076  -0.907  0.00  0.00    -0.007 A 
ATOM      6  C5  UNL d   1       0.117  -1.984   0.079  0.00  0.00     0.039 A 
ENDROOT
BRANCH   4   7
ATOM      7  O   UNL d   1       0.698   1.136  -1.695  0.00  0.00    -0.526 OA
ATOM      8  H5  UNL d   1       0.524   2.047  -1.405  0.00  0.00     0.418 HD
ENDBRANCH   4   7
TORSDOF 1
ENDMDL
