MODEL 1
REMARK minimizedAffinity -5.13492775
REMARK minimizedRMSD -1
REMARK  1 active torsions:
REMARK  status: ('A' for Active; 'I' for Inactive)
REMARK    1  A    between atoms: C3_4  and  O_7 
ROOT
ATOM      1  C   UNL d   1       0.496   0.063   0.246  0.00  0.00    -0.033 A 
ATOM      2  C1  UNL d   1      -0.891   0.199   0.167  0.00  0.00     0.039 A 
ATOM      3  C2  UNL d   1      -1.714  -0.921   0.305  0.00  0.00    -0.080 A 
ATOM      4  C3  UNL d   1      -1.137  -2.169   0.523  0.00  0.00     0.150 A 
ATOM      5  C4  UNL d   1       0.244  -2.312   0.607  0.00  0.00    -0.007 A 
ATOM      6  C5  UNL d   1       1.064  -1.193   0.467  0.00  0.00     0.039 A 
ENDROOT
BRANCH   4   7
ATOM      7  O   UNL d   1      -1.899  -3.291   0.660  0.00  0.00    -0.526 OA
ATOM      8  H5  UNL d   1      -2.833  -3.045   0.551  0.00  0.00     0.418 HD
ENDBRANCH   4   7
TORSDOF 1
ENDMDL
