MODEL 1
REMARK minimizedAffinity -0.968499959
REMARK minimizedRMSD -1
REMARK  1 active torsions:
REMARK  status: ('A' for Active; 'I' for Inactive)
REMARK    1  A    between atoms: C3_4  and  O_7 
ROOT
ATOM      1  C   UNL d   1       0.824   1.230  -0.161  0.00  0.00    -0.033 A 
ATOM      2  C1  UNL d   1       0.500  -0.069  -0.557  0.00  0.00     0.039 A 
ATOM      3  C2  UNL d   1       0.308  -0.361  -1.909  0.00  0.00    -0.080 A 
ATOM      4  C3  UNL d   1       0.443   0.653  -2.853  0.00  0.00     0.150 A 
ATOM      5  C4  UNL d   1       0.770   1.948  -2.466  0.00  0.00    -0.007 A 
ATOM      6  C5  UNL d   1       0.960   2.238  -1.115  0.00  0.00     0.039 A 
ENDROOT
BRANCH   4   7
ATOM      7  O   UNL d   1       0.261   0.417  -4.183  0.00  0.00    -0.526 OA
ATOM      8  H5  UNL d   1       0.012  -0.515  -4.299  0.00  0.00     0.418 HD
ENDBRANCH   4   7
TORSDOF 1
ENDMDL
