MODEL 1
REMARK minimizedAffinity -2.45964599
REMARK minimizedRMSD -1
REMARK  1 active torsions:
REMARK  status: ('A' for Active; 'I' for Inactive)
REMARK    1  A    between atoms: C3_4  and  O_7 
ROOT
ATOM      1  C   UNL d   1       0.351  -2.619   0.720  0.00  0.00    -0.033 A 
ATOM      2  C1  UNL d   1      -0.693  -1.965   1.377  0.00  0.00     0.039 A 
ATOM      3  C2  UNL d   1      -0.789  -0.573   1.325  0.00  0.00    -0.080 A 
ATOM      4  C3  UNL d   1       0.162   0.152   0.613  0.00  0.00     0.150 A 
ATOM      5  C4  UNL d   1       1.202  -0.494  -0.048  0.00  0.00    -0.007 A 
ATOM      6  C5  UNL d   1       1.297  -1.884   0.006  0.00  0.00     0.039 A 
ENDROOT
BRANCH   4   7
ATOM      7  O   UNL d   1       0.112   1.512   0.537  0.00  0.00    -0.526 OA
ATOM      8  H5  UNL d   1      -0.642   1.822   1.065  0.00  0.00     0.418 HD
ENDBRANCH   4   7
TORSDOF 1
ENDMDL
