MODEL 1
REMARK minimizedAffinity -2.41482162
REMARK minimizedRMSD -1
REMARK  1 active torsions:
REMARK  status: ('A' for Active; 'I' for Inactive)
REMARK    1  A    between atoms: C3_4  and  O_7 
ROOT
ATOM      1  C   UNL d   1       0.857   1.779  -4.190  0.00  0.00    -0.033 A 
ATOM      2  C1  UNL d   1       1.823   0.976  -3.580  0.00  0.00     0.039 A 
ATOM      3  C2  UNL d   1       1.811   0.798  -2.195  0.00  0.00    -0.080 A 
ATOM      4  C3  UNL d   1       0.830   1.426  -1.433  0.00  0.00     0.150 A 
ATOM      5  C4  UNL d   1      -0.138   2.224  -2.035  0.00  0.00    -0.007 A 
ATOM      6  C5  UNL d   1      -0.124   2.402  -3.418  0.00  0.00     0.039 A 
ENDROOT
BRANCH   4   7
ATOM      7  O   UNL d   1       0.780   1.285  -0.078  0.00  0.00    -0.526 OA
ATOM      8  H5  UNL d   1       1.527   0.730   0.201  0.00  0.00     0.418 HD
ENDBRANCH   4   7
TORSDOF 1
ENDMDL
