MODEL 1
REMARK minimizedAffinity -2.03927374
REMARK minimizedRMSD -1
REMARK  1 active torsions:
REMARK  status: ('A' for Active; 'I' for Inactive)
REMARK    1  A    between atoms: C3_4  and  O_7 
ROOT
ATOM      1  C   UNL d   1       1.406  -0.319  -0.367  0.00  0.00    -0.033 A 
ATOM      2  C1  UNL d   1       1.022   1.005  -0.584  0.00  0.00     0.039 A 
ATOM      3  C2  UNL d   1      -0.134   1.507   0.018  0.00  0.00    -0.080 A 
ATOM      4  C3  UNL d   1      -0.894   0.675   0.835  0.00  0.00     0.150 A 
ATOM      5  C4  UNL d   1      -0.515  -0.645   1.060  0.00  0.00    -0.007 A 
ATOM      6  C5  UNL d   1       0.639  -1.144   0.456  0.00  0.00     0.039 A 
ENDROOT
BRANCH   4   7
ATOM      7  O   UNL d   1      -2.032   1.118   1.441  0.00  0.00    -0.526 OA
ATOM      8  H5  UNL d   1      -2.185   2.039   1.173  0.00  0.00     0.418 HD
ENDBRANCH   4   7
TORSDOF 1
ENDMDL
