MODEL 1
REMARK minimizedAffinity 1.61560023
REMARK minimizedRMSD -1
REMARK  1 active torsions:
REMARK  status: ('A' for Active; 'I' for Inactive)
REMARK    1  A    between atoms: C3_4  and  O_7 
ROOT
ATOM      1  C   UNL d   1      -3.862  -3.922  -5.998  0.00  0.00    -0.033 A 
ATOM      2  C1  UNL d   1      -2.672  -3.213  -5.819  0.00  0.00     0.039 A 
ATOM      3  C2  UNL d   1      -1.482  -3.897  -5.565  0.00  0.00    -0.080 A 
ATOM      4  C3  UNL d   1      -1.493  -5.287  -5.494  0.00  0.00     0.150 A 
ATOM      5  C4  UNL d   1      -2.674  -6.000  -5.676  0.00  0.00    -0.007 A 
ATOM      6  C5  UNL d   1      -3.862  -5.316  -5.928  0.00  0.00     0.039 A 
ENDROOT
BRANCH   4   7
ATOM      7  O   UNL d   1      -0.357  -5.997  -5.245  0.00  0.00    -0.526 OA
ATOM      8  H5  UNL d   1       0.374  -5.371  -5.112  0.00  0.00     0.418 HD
ENDBRANCH   4   7
TORSDOF 1
ENDMDL
