MODEL 1
REMARK minimizedAffinity -1.92270017
REMARK minimizedRMSD -1
REMARK  1 active torsions:
REMARK  status: ('A' for Active; 'I' for Inactive)
REMARK    1  A    between atoms: C3_4  and  O_7 
ROOT
ATOM      1  C   UNL d   1       1.056  -1.330   0.473  0.00  0.00    -0.033 A 
ATOM      2  C1  UNL d   1       0.125  -2.052   1.223  0.00  0.00     0.039 A 
ATOM      3  C2  UNL d   1      -1.051  -1.438   1.657  0.00  0.00    -0.080 A 
ATOM      4  C3  UNL d   1      -1.286  -0.105   1.332  0.00  0.00     0.150 A 
ATOM      5  C4  UNL d   1      -0.365   0.619   0.581  0.00  0.00    -0.007 A 
ATOM      6  C5  UNL d   1       0.810   0.004   0.150  0.00  0.00     0.039 A 
ENDROOT
BRANCH   4   7
ATOM      7  O   UNL d   1      -2.418   0.539   1.736  0.00  0.00    -0.526 OA
ATOM      8  H5  UNL d   1      -2.947  -0.077   2.270  0.00  0.00     0.418 HD
ENDBRANCH   4   7
TORSDOF 1
ENDMDL
