MODEL 1
REMARK minimizedAffinity -2.32047415
REMARK minimizedRMSD -1
REMARK  1 active torsions:
REMARK  status: ('A' for Active; 'I' for Inactive)
REMARK    1  A    between atoms: C3_4  and  O_7 
ROOT
ATOM      1  C   UNL d   1       1.583   2.272  -3.451  0.00  0.00    -0.033 A 
ATOM      2  C1  UNL d   1       2.594   2.067  -2.510  0.00  0.00     0.039 A 
ATOM      3  C2  UNL d   1       2.268   1.767  -1.186  0.00  0.00    -0.080 A 
ATOM      4  C3  UNL d   1       0.929   1.672  -0.817  0.00  0.00     0.150 A 
ATOM      5  C4  UNL d   1      -0.083   1.871  -1.749  0.00  0.00    -0.007 A 
ATOM      6  C5  UNL d   1       0.244   2.172  -3.071  0.00  0.00     0.039 A 
ENDROOT
BRANCH   4   7
ATOM      7  O   UNL d   1       0.562   1.386   0.465  0.00  0.00    -0.526 OA
ATOM      8  H5  UNL d   1       1.366   1.302   1.004  0.00  0.00     0.418 HD
ENDBRANCH   4   7
TORSDOF 1
ENDMDL
