MODEL 1
REMARK minimizedAffinity -3.82245708
REMARK minimizedRMSD -1
REMARK  1 active torsions:
REMARK  status: ('A' for Active; 'I' for Inactive)
REMARK    1  A    between atoms: C3_4  and  O_7 
ROOT
ATOM      1  C   UNL d   1      -2.524  -1.158   2.497  0.00  0.00    -0.033 A 
ATOM      2  C1  UNL d   1      -1.848  -2.330   2.153  0.00  0.00     0.039 A 
ATOM      3  C2  UNL d   1      -0.823  -2.295   1.205  0.00  0.00    -0.080 A 
ATOM      4  C3  UNL d   1      -0.484  -1.082   0.611  0.00  0.00     0.150 A 
ATOM      5  C4  UNL d   1      -1.151   0.090   0.952  0.00  0.00    -0.007 A 
ATOM      6  C5  UNL d   1      -2.175   0.052   1.898  0.00  0.00     0.039 A 
ENDROOT
BRANCH   4   7
ATOM      7  O   UNL d   1       0.506  -0.999  -0.322  0.00  0.00    -0.526 OA
ATOM      8  H5  UNL d   1       0.858  -1.891  -0.479  0.00  0.00     0.418 HD
ENDBRANCH   4   7
TORSDOF 1
ENDMDL
