MODEL 1
REMARK minimizedAffinity -3.93228793
REMARK minimizedRMSD -1
REMARK  1 active torsions:
REMARK  status: ('A' for Active; 'I' for Inactive)
REMARK    1  A    between atoms: C3_4  and  O_7 
ROOT
ATOM      1  C   UNL d   1       0.025   3.212  -1.644  0.00  0.00    -0.033 A 
ATOM      2  C1  UNL d   1       0.971   2.410  -1.002  0.00  0.00     0.039 A 
ATOM      3  C2  UNL d   1       1.614   1.388  -1.704  0.00  0.00    -0.080 A 
ATOM      4  C3  UNL d   1       1.304   1.180  -3.045  0.00  0.00     0.150 A 
ATOM      5  C4  UNL d   1       0.365   1.977  -3.692  0.00  0.00    -0.007 A 
ATOM      6  C5  UNL d   1      -0.277   2.996  -2.989  0.00  0.00     0.039 A 
ENDROOT
BRANCH   4   7
ATOM      7  O   UNL d   1       1.902   0.192  -3.770  0.00  0.00    -0.526 OA
ATOM      8  H5  UNL d   1       2.506  -0.296  -3.185  0.00  0.00     0.418 HD
ENDBRANCH   4   7
TORSDOF 1
ENDMDL
