MODEL 1
REMARK minimizedAffinity -3.5390172
REMARK minimizedRMSD -1
REMARK  1 active torsions:
REMARK  status: ('A' for Active; 'I' for Inactive)
REMARK    1  A    between atoms: C3_4  and  O_7 
ROOT
ATOM      1  C   UNL d   1      -0.366   1.163   0.412  0.00  0.00    -0.033 A 
ATOM      2  C1  UNL d   1       0.799   0.489   0.042  0.00  0.00     0.039 A 
ATOM      3  C2  UNL d   1       0.964  -0.857   0.373  0.00  0.00    -0.080 A 
ATOM      4  C3  UNL d   1      -0.042  -1.517   1.072  0.00  0.00     0.150 A 
ATOM      5  C4  UNL d   1      -1.208  -0.853   1.441  0.00  0.00    -0.007 A 
ATOM      6  C5  UNL d   1      -1.370   0.492   1.110  0.00  0.00     0.039 A 
ENDROOT
BRANCH   4   7
ATOM      7  O   UNL d   1       0.075  -2.829   1.422  0.00  0.00    -0.526 OA
ATOM      8  H5  UNL d   1       0.944  -3.150   1.126  0.00  0.00     0.418 HD
ENDBRANCH   4   7
TORSDOF 1
ENDMDL
