MODEL 1
REMARK minimizedAffinity -3.55444217
REMARK minimizedRMSD -1
REMARK  1 active torsions:
REMARK  status: ('A' for Active; 'I' for Inactive)
REMARK    1  A    between atoms: C3_4  and  O_7 
ROOT
ATOM      1  C   UNL d   1       2.913   2.012  -2.043  0.00  0.00    -0.033 A 
ATOM      2  C1  UNL d   1       1.677   2.613  -1.798  0.00  0.00     0.039 A 
ATOM      3  C2  UNL d   1       0.612   2.406  -2.678  0.00  0.00    -0.080 A 
ATOM      4  C3  UNL d   1       0.797   1.598  -3.796  0.00  0.00     0.150 A 
ATOM      5  C4  UNL d   1       2.025   0.994  -4.044  0.00  0.00    -0.007 A 
ATOM      6  C5  UNL d   1       3.087   1.201  -3.165  0.00  0.00     0.039 A 
ENDROOT
BRANCH   4   7
ATOM      7  O   UNL d   1      -0.211   1.371  -4.685  0.00  0.00    -0.526 OA
ATOM      8  H5  UNL d   1      -0.992   1.876  -4.401  0.00  0.00     0.418 HD
ENDBRANCH   4   7
TORSDOF 1
ENDMDL
