MODEL 1
REMARK minimizedAffinity -1.85471261
REMARK minimizedRMSD -1
REMARK  1 active torsions:
REMARK  status: ('A' for Active; 'I' for Inactive)
REMARK    1  A    between atoms: C3_4  and  O_7 
ROOT
ATOM      1  C   UNL d   1       1.332   1.943  -3.822  0.00  0.00    -0.033 A 
ATOM      2  C1  UNL d   1       2.346   1.729  -2.886  0.00  0.00     0.039 A 
ATOM      3  C2  UNL d   1       2.024   1.431  -1.561  0.00  0.00    -0.080 A 
ATOM      4  C3  UNL d   1       0.686   1.349  -1.184  0.00  0.00     0.150 A 
ATOM      5  C4  UNL d   1      -0.329   1.557  -2.112  0.00  0.00    -0.007 A 
ATOM      6  C5  UNL d   1      -0.006   1.856  -3.435  0.00  0.00     0.039 A 
ENDROOT
BRANCH   4   7
ATOM      7  O   UNL d   1       0.323   1.066   0.099  0.00  0.00    -0.526 OA
ATOM      8  H5  UNL d   1       1.129   0.975   0.634  0.00  0.00     0.418 HD
ENDBRANCH   4   7
TORSDOF 1
ENDMDL
