MODEL 1
REMARK minimizedAffinity 8.59230423
REMARK minimizedRMSD -1
REMARK  2 active torsions:
REMARK  status: ('A' for Active; 'I' for Inactive)
REMARK    1  A    between atoms: C2'_3  and  C1'_4 
REMARK    2  A    between atoms: C1'_4  and  C1_5 
ROOT
ATOM      1  C1  I4B d   1       1.169   3.398  -0.168  0.00  0.00    -0.075 A 
ATOM      2  C2  I4B d   1       1.116   4.398   0.771  0.00  0.00     0.003 A 
ATOM      3  C3  I4B d   1       1.453   5.727   0.416  0.00  0.00     0.002 A 
ATOM      4  C4  I4B d   1       1.882   6.000  -0.866  0.00  0.00    -0.004 A 
ATOM      5  C5  I4B d   1       1.913   4.989  -1.822  0.00  0.00     0.002 A 
ATOM      6  C6  I4B d   1       1.543   3.682  -1.475  0.00  0.00     0.003 A 
ENDROOT
BRANCH   1   7
ATOM      7  C1' I4B d   1       0.839   2.000   0.249  0.00  0.00     0.060 C 
BRANCH   7   8
ATOM      8  C2' I4B d   1       1.943   1.090  -0.250  0.00  0.00    -0.013 C 
ATOM      9  C4' I4B d   1       2.656   0.419   0.894  0.00  0.00     0.013 C 
ATOM     10  C3' I4B d   1       1.329   0.081  -1.174  0.00  0.00     0.013 C 
ENDBRANCH   7   8
ENDBRANCH   1   7
TORSDOF 2
ENDMDL
