MODEL 1
REMARK minimizedAffinity -1.60766232
REMARK minimizedRMSD -1
REMARK  2 active torsions:
REMARK  status: ('A' for Active; 'I' for Inactive)
REMARK    1  A    between atoms: C2'_3  and  C1'_4 
REMARK    2  A    between atoms: C1'_4  and  C1_5 
ROOT
ATOM      1  C1  I4B d   1       1.408   2.974  -1.194  0.00  0.00    -0.075 A 
ATOM      2  C2  I4B d   1       1.428   2.757   0.161  0.00  0.00     0.003 A 
ATOM      3  C3  I4B d   1       1.309   1.443   0.675  0.00  0.00     0.002 A 
ATOM      4  C4  I4B d   1       1.122   0.388  -0.195  0.00  0.00    -0.004 A 
ATOM      5  C5  I4B d   1       1.125   0.607  -1.570  0.00  0.00     0.002 A 
ATOM      6  C6  I4B d   1       1.281   1.907  -2.073  0.00  0.00     0.003 A 
ENDROOT
BRANCH   1   7
ATOM      7  C1' I4B d   1       1.503   4.378  -1.701  0.00  0.00     0.060 C 
BRANCH   7   8
ATOM      8  C2' I4B d   1       2.498   5.121  -0.833  0.00  0.00    -0.013 C 
ATOM      9  C4' I4B d   1       3.397   5.999  -1.663  0.00  0.00     0.013 C 
ATOM     10  C3' I4B d   1       1.728   5.929   0.168  0.00  0.00     0.013 C 
ENDBRANCH   7   8
ENDBRANCH   1   7
TORSDOF 2
ENDMDL
