MODEL 1
REMARK minimizedAffinity 3.76286387
REMARK minimizedRMSD -1
REMARK  2 active torsions:
REMARK  status: ('A' for Active; 'I' for Inactive)
REMARK    1  A    between atoms: C2'_3  and  C1'_4 
REMARK    2  A    between atoms: C1'_4  and  C1_5 
ROOT
ATOM      1  C1  I4B d   1       0.414  -1.649  -1.176  0.00  0.00    -0.075 A 
ATOM      2  C2  I4B d   1      -0.590  -2.416  -1.711  0.00  0.00     0.003 A 
ATOM      3  C3  I4B d   1      -0.457  -3.825  -1.767  0.00  0.00     0.002 A 
ATOM      4  C4  I4B d   1       0.709  -4.416  -1.327  0.00  0.00    -0.004 A 
ATOM      5  C5  I4B d   1       1.717  -3.638  -0.764  0.00  0.00     0.002 A 
ATOM      6  C6  I4B d   1       1.564  -2.247  -0.676  0.00  0.00     0.003 A 
ENDROOT
BRANCH   1   7
ATOM      7  C1' I4B d   1       0.256  -0.161  -1.163  0.00  0.00     0.060 C 
BRANCH   7   8
ATOM      8  C2' I4B d   1       1.620   0.452  -0.922  0.00  0.00    -0.013 C 
ATOM      9  C4' I4B d   1       1.839   1.656  -1.799  0.00  0.00     0.013 C 
ATOM     10  C3' I4B d   1       1.714   0.815   0.530  0.00  0.00     0.013 C 
ENDBRANCH   7   8
ENDBRANCH   1   7
TORSDOF 2
ENDMDL
