MODEL 1
REMARK minimizedAffinity 0.341294795
REMARK minimizedRMSD -1
REMARK  2 active torsions:
REMARK  status: ('A' for Active; 'I' for Inactive)
REMARK    1  A    between atoms: C2'_3  and  C1'_4 
REMARK    2  A    between atoms: C1'_4  and  C1_5 
ROOT
ATOM      1  C1  I4B d   1       0.647   1.450  -0.829  0.00  0.00    -0.075 A 
ATOM      2  C2  I4B d   1       0.834   0.180  -1.317  0.00  0.00     0.003 A 
ATOM      3  C3  I4B d   1       1.319  -0.845  -0.469  0.00  0.00     0.002 A 
ATOM      4  C4  I4B d   1       1.649  -0.547   0.837  0.00  0.00    -0.004 A 
ATOM      5  C5  I4B d   1       1.437   0.735   1.337  0.00  0.00     0.002 A 
ATOM      6  C6  I4B d   1       0.921   1.737   0.502  0.00  0.00     0.003 A 
ENDROOT
BRANCH   1   7
ATOM      7  C1' I4B d   1       0.164   2.516  -1.760  0.00  0.00     0.060 C 
BRANCH   7   8
ATOM      8  C2' I4B d   1       1.375   3.264  -2.280  0.00  0.00    -0.013 C 
ATOM      9  C4' I4B d   1       1.600   4.539  -1.510  0.00  0.00     0.013 C 
ATOM     10  C3' I4B d   1       2.562   2.353  -2.177  0.00  0.00     0.013 C 
ENDBRANCH   7   8
ENDBRANCH   1   7
TORSDOF 2
ENDMDL
