MODEL 1
REMARK minimizedAffinity 3.15962267
REMARK minimizedRMSD -1
REMARK  2 active torsions:
REMARK  status: ('A' for Active; 'I' for Inactive)
REMARK    1  A    between atoms: C2'_3  and  C1'_4 
REMARK    2  A    between atoms: C1'_4  and  C1_5 
ROOT
ATOM      1  C1  I4B d   1       0.996   1.250   0.774  0.00  0.00    -0.075 A 
ATOM      2  C2  I4B d   1       1.511  -0.017   0.890  0.00  0.00     0.003 A 
ATOM      3  C3  I4B d   1       1.551  -0.876  -0.235  0.00  0.00     0.002 A 
ATOM      4  C4  I4B d   1       1.023  -0.448  -1.436  0.00  0.00    -0.004 A 
ATOM      5  C5  I4B d   1       0.522   0.845  -1.557  0.00  0.00     0.002 A 
ATOM      6  C6  I4B d   1       0.520   1.704  -0.449  0.00  0.00     0.003 A 
ENDROOT
BRANCH   1   7
ATOM      7  C1' I4B d   1       0.939   2.118   1.991  0.00  0.00     0.060 C 
BRANCH   7   8
ATOM      8  C2' I4B d   1       2.318   2.134   2.618  0.00  0.00    -0.013 C 
ATOM      9  C4' I4B d   1       2.698   3.522   3.064  0.00  0.00     0.013 C 
ATOM     10  C3' I4B d   1       2.312   1.177   3.772  0.00  0.00     0.013 C 
ENDBRANCH   7   8
ENDBRANCH   1   7
TORSDOF 2
ENDMDL
