MODEL 1
REMARK minimizedAffinity 7.08434534
REMARK minimizedRMSD -1
REMARK  2 active torsions:
REMARK  status: ('A' for Active; 'I' for Inactive)
REMARK    1  A    between atoms: C2'_3  and  C1'_4 
REMARK    2  A    between atoms: C1'_4  and  C1_5 
ROOT
ATOM      1  C1  I4B d   1       1.622  -0.399  -0.162  0.00  0.00    -0.075 A 
ATOM      2  C2  I4B d   1       2.011   0.912  -0.043  0.00  0.00     0.003 A 
ATOM      3  C3  I4B d   1       1.611   1.865  -1.010  0.00  0.00     0.002 A 
ATOM      4  C4  I4B d   1       0.869   1.456  -2.100  0.00  0.00    -0.004 A 
ATOM      5  C5  I4B d   1       0.456   0.132  -2.207  0.00  0.00     0.002 A 
ATOM      6  C6  I4B d   1       0.824  -0.800  -1.225  0.00  0.00     0.003 A 
ENDROOT
BRANCH   1   7
ATOM      7  C1' I4B d   1       2.091  -1.385   0.861  0.00  0.00     0.060 C 
BRANCH   7   8
ATOM      8  C2' I4B d   1       2.323  -2.709   0.161  0.00  0.00    -0.013 C 
ATOM      9  C4' I4B d   1       3.748  -3.168   0.321  0.00  0.00     0.013 C 
ATOM     10  C3' I4B d   1       1.364  -3.710   0.733  0.00  0.00     0.013 C 
ENDBRANCH   7   8
ENDBRANCH   1   7
TORSDOF 2
ENDMDL
