MODEL 1
REMARK minimizedAffinity -0.705819428
REMARK minimizedRMSD -1
REMARK  2 active torsions:
REMARK  status: ('A' for Active; 'I' for Inactive)
REMARK    1  A    between atoms: C2'_3  and  C1'_4 
REMARK    2  A    between atoms: C1'_4  and  C1_5 
ROOT
ATOM      1  C1  I4B d   1       1.131   1.720  -0.130  0.00  0.00    -0.075 A 
ATOM      2  C2  I4B d   1       0.684   1.229  -1.332  0.00  0.00     0.003 A 
ATOM      3  C3  I4B d   1       0.668  -0.167  -1.570  0.00  0.00     0.002 A 
ATOM      4  C4  I4B d   1       1.153  -1.026  -0.606  0.00  0.00    -0.004 A 
ATOM      5  C5  I4B d   1       1.585  -0.529   0.620  0.00  0.00     0.002 A 
ATOM      6  C6  I4B d   1       1.563   0.852   0.865  0.00  0.00     0.003 A 
ENDROOT
BRANCH   1   7
ATOM      7  C1' I4B d   1       1.165   3.201   0.076  0.00  0.00     0.060 C 
BRANCH   7   8
ATOM      8  C2' I4B d   1       1.681   3.838  -1.199  0.00  0.00    -0.013 C 
ATOM      9  C4' I4B d   1       0.783   3.524  -2.367  0.00  0.00     0.013 C 
ATOM     10  C3' I4B d   1       1.776   5.317  -0.971  0.00  0.00     0.013 C 
ENDBRANCH   7   8
ENDBRANCH   1   7
TORSDOF 2
ENDMDL
