MODEL 1
REMARK minimizedAffinity -2.29308748
REMARK minimizedRMSD -1
REMARK  2 active torsions:
REMARK  status: ('A' for Active; 'I' for Inactive)
REMARK    1  A    between atoms: C2'_3  and  C1'_4 
REMARK    2  A    between atoms: C1'_4  and  C1_5 
ROOT
ATOM      1  C1  I4B d   1       1.285   2.460  -1.218  0.00  0.00    -0.075 A 
ATOM      2  C2  I4B d   1       0.736   1.454  -1.974  0.00  0.00     0.003 A 
ATOM      3  C3  I4B d   1       0.669   0.135  -1.463  0.00  0.00     0.002 A 
ATOM      4  C4  I4B d   1       1.204  -0.141  -0.221  0.00  0.00    -0.004 A 
ATOM      5  C5  I4B d   1       1.739   0.884   0.552  0.00  0.00     0.002 A 
ATOM      6  C6  I4B d   1       1.769   2.196   0.056  0.00  0.00     0.003 A 
ENDROOT
BRANCH   1   7
ATOM      7  C1' I4B d   1       1.370   3.835  -1.802  0.00  0.00     0.060 C 
BRANCH   7   8
ATOM      8  C2' I4B d   1       2.252   4.672  -0.898  0.00  0.00    -0.013 C 
ATOM      9  C4' I4B d   1       2.577   5.999  -1.531  0.00  0.00     0.013 C 
ATOM     10  C3' I4B d   1       1.537   4.854   0.407  0.00  0.00     0.013 C 
ENDBRANCH   7   8
ENDBRANCH   1   7
TORSDOF 2
ENDMDL
