MODEL 1
REMARK minimizedAffinity 5.80606508
REMARK minimizedRMSD -1
REMARK  2 active torsions:
REMARK  status: ('A' for Active; 'I' for Inactive)
REMARK    1  A    between atoms: C2'_3  and  C1'_4 
REMARK    2  A    between atoms: C1'_4  and  C1_5 
ROOT
ATOM      1  C1  I4B d   1       1.223   2.737   0.208  0.00  0.00    -0.075 A 
ATOM      2  C2  I4B d   1       1.106   1.609  -0.565  0.00  0.00     0.003 A 
ATOM      3  C3  I4B d   1       1.269   1.688  -1.970  0.00  0.00     0.002 A 
ATOM      4  C4  I4B d   1       1.495   2.915  -2.560  0.00  0.00    -0.004 A 
ATOM      5  C5  I4B d   1       1.635   4.054  -1.772  0.00  0.00     0.002 A 
ATOM      6  C6  I4B d   1       1.511   3.963  -0.378  0.00  0.00     0.003 A 
ENDROOT
BRANCH   1   7
ATOM      7  C1' I4B d   1       1.013   2.624   1.685  0.00  0.00     0.060 C 
BRANCH   7   8
ATOM      8  C2' I4B d   1       2.357   2.803   2.362  0.00  0.00    -0.013 C 
ATOM      9  C4' I4B d   1       2.371   4.036   3.227  0.00  0.00     0.013 C 
ATOM     10  C3' I4B d   1       2.635   1.571   3.171  0.00  0.00     0.013 C 
ENDBRANCH   7   8
ENDBRANCH   1   7
TORSDOF 2
ENDMDL
