MODEL 1
REMARK minimizedAffinity 5.35985136
REMARK minimizedRMSD -1
REMARK  2 active torsions:
REMARK  status: ('A' for Active; 'I' for Inactive)
REMARK    1  A    between atoms: C2'_3  and  C1'_4 
REMARK    2  A    between atoms: C1'_4  and  C1_5 
ROOT
ATOM      1  C1  I4B d   1       2.031   1.538  -0.659  0.00  0.00    -0.075 A 
ATOM      2  C2  I4B d   1       3.010   0.576  -0.690  0.00  0.00     0.003 A 
ATOM      3  C3  I4B d   1       3.721   0.244   0.489  0.00  0.00     0.002 A 
ATOM      4  C4  I4B d   1       3.458   0.930   1.657  0.00  0.00    -0.004 A 
ATOM      5  C5  I4B d   1       2.450   1.890   1.692  0.00  0.00     0.002 A 
ATOM      6  C6  I4B d   1       1.723   2.187   0.530  0.00  0.00     0.003 A 
ENDROOT
BRANCH   1   7
ATOM      7  C1' I4B d   1       1.323   1.887  -1.929  0.00  0.00     0.060 C 
BRANCH   7   8
ATOM      8  C2' I4B d   1       0.546   3.167  -1.695  0.00  0.00    -0.013 C 
ATOM      9  C4' I4B d   1       1.471   4.327  -1.436  0.00  0.00     0.013 C 
ATOM     10  C3' I4B d   1      -0.311   3.415  -2.900  0.00  0.00     0.013 C 
ENDBRANCH   7   8
ENDBRANCH   1   7
TORSDOF 2
ENDMDL
