MODEL 1
REMARK minimizedAffinity 7.21853447
REMARK minimizedRMSD -1
REMARK  2 active torsions:
REMARK  status: ('A' for Active; 'I' for Inactive)
REMARK    1  A    between atoms: C2'_3  and  C1'_4 
REMARK    2  A    between atoms: C1'_4  and  C1_5 
ROOT
ATOM      1  C1  I4B d   1       1.035   1.062  -0.825  0.00  0.00    -0.075 A 
ATOM      2  C2  I4B d   1       1.716  -0.101  -0.562  0.00  0.00     0.003 A 
ATOM      3  C3  I4B d   1       2.250  -0.338   0.728  0.00  0.00     0.002 A 
ATOM      4  C4  I4B d   1       2.125   0.630   1.704  0.00  0.00    -0.004 A 
ATOM      5  C5  I4B d   1       1.415   1.798   1.442  0.00  0.00     0.002 A 
ATOM      6  C6  I4B d   1       0.855   2.010   0.174  0.00  0.00     0.003 A 
ENDROOT
BRANCH   1   7
ATOM      7  C1' I4B d   1       0.513   1.294  -2.207  0.00  0.00     0.060 C 
BRANCH   7   8
ATOM      8  C2' I4B d   1       0.074   2.741  -2.303  0.00  0.00    -0.013 C 
ATOM      9  C4' I4B d   1       1.197   3.677  -1.942  0.00  0.00     0.013 C 
ATOM     10  C3' I4B d   1      -0.408   2.987  -3.702  0.00  0.00     0.013 C 
ENDBRANCH   7   8
ENDBRANCH   1   7
TORSDOF 2
ENDMDL
