MODEL 1
REMARK minimizedAffinity 2.20280385
REMARK minimizedRMSD -1
REMARK  2 active torsions:
REMARK  status: ('A' for Active; 'I' for Inactive)
REMARK    1  A    between atoms: C2'_3  and  C1'_4 
REMARK    2  A    between atoms: C1'_4  and  C1_5 
ROOT
ATOM      1  C1  I4B d   1       0.614   1.144  -0.401  0.00  0.00    -0.075 A 
ATOM      2  C2  I4B d   1       1.244  -0.070  -0.514  0.00  0.00     0.003 A 
ATOM      3  C3  I4B d   1       2.149  -0.498   0.487  0.00  0.00     0.002 A 
ATOM      4  C4  I4B d   1       2.431   0.335   1.550  0.00  0.00    -0.004 A 
ATOM      5  C5  I4B d   1       1.774   1.556   1.674  0.00  0.00     0.002 A 
ATOM      6  C6  I4B d   1       0.850   1.958   0.699  0.00  0.00     0.003 A 
ENDROOT
BRANCH   1   7
ATOM      7  C1' I4B d   1      -0.311   1.580  -1.493  0.00  0.00     0.060 C 
BRANCH   7   8
ATOM      8  C2' I4B d   1       0.496   2.378  -2.498  0.00  0.00    -0.013 C 
ATOM      9  C4' I4B d   1       0.990   3.668  -1.898  0.00  0.00     0.013 C 
ATOM     10  C3' I4B d   1       1.637   1.522  -2.959  0.00  0.00     0.013 C 
ENDBRANCH   7   8
ENDBRANCH   1   7
TORSDOF 2
ENDMDL
