MODEL 1
REMARK minimizedAffinity 8.40833759
REMARK minimizedRMSD -1
REMARK  2 active torsions:
REMARK  status: ('A' for Active; 'I' for Inactive)
REMARK    1  A    between atoms: C2'_3  and  C1'_4 
REMARK    2  A    between atoms: C1'_4  and  C1_5 
ROOT
ATOM      1  C1  I4B d   1       1.015   1.673  -1.524  0.00  0.00    -0.075 A 
ATOM      2  C2  I4B d   1       1.930   1.339  -0.558  0.00  0.00     0.003 A 
ATOM      3  C3  I4B d   1       2.262  -0.019  -0.328  0.00  0.00     0.002 A 
ATOM      4  C4  I4B d   1       1.621  -1.006  -1.049  0.00  0.00    -0.004 A 
ATOM      5  C5  I4B d   1       0.710  -0.664  -2.044  0.00  0.00     0.002 A 
ATOM      6  C6  I4B d   1       0.414   0.684  -2.293  0.00  0.00     0.003 A 
ENDROOT
BRANCH   1   7
ATOM      7  C1' I4B d   1       0.664   3.114  -1.718  0.00  0.00     0.060 C 
BRANCH   7   8
ATOM      8  C2' I4B d   1       1.244   3.895  -0.556  0.00  0.00    -0.013 C 
ATOM      9  C4' I4B d   1       1.093   5.379  -0.768  0.00  0.00     0.013 C 
ATOM     10  C3' I4B d   1       0.546   3.452   0.695  0.00  0.00     0.013 C 
ENDBRANCH   7   8
ENDBRANCH   1   7
TORSDOF 2
ENDMDL
