MODEL 1
REMARK minimizedAffinity 16.2144203
REMARK minimizedRMSD -1
REMARK  0 active torsions:
REMARK  status: ('A' for Active; 'I' for Inactive)
ROOT
ATOM      1  C   UNL d   1       3.419   1.170   0.829  0.00  0.00    -0.002 A 
ATOM      2  C1  UNL d   1       4.098   0.005   0.502  0.00  0.00     0.010 A 
ATOM      3  C2  UNL d   1       4.568  -0.202  -0.797  0.00  0.00     0.041 A 
ATOM      4  C3  UNL d   1       4.343   0.792  -1.770  0.00  0.00    -0.075 A 
ATOM      5  S   UNL d   1       4.829   0.756  -3.424  0.00  0.00     0.015 SA
ATOM      6  C4  UNL d   1       4.147   2.287  -3.734  0.00  0.00     0.022 A 
ATOM      7  C5  UNL d   1       3.560   2.826  -2.615  0.00  0.00     0.026 A 
ATOM      8  C6  UNL d   1       3.663   1.974  -1.464  0.00  0.00    -0.082 A 
ATOM      9  C7  UNL d   1       3.198   2.154  -0.139  0.00  0.00     0.045 A 
ENDROOT
TORSDOF 0
ENDMDL
