MODEL 1
REMARK minimizedAffinity 8.19734955
REMARK minimizedRMSD -1
REMARK  0 active torsions:
REMARK  status: ('A' for Active; 'I' for Inactive)
ROOT
ATOM      1  C   UNL d   1      -0.543  -2.517   0.936  0.00  0.00    -0.002 A 
ATOM      2  C1  UNL d   1      -1.412  -3.530   1.316  0.00  0.00     0.010 A 
ATOM      3  C2  UNL d   1      -2.454  -3.925   0.476  0.00  0.00     0.041 A 
ATOM      4  C3  UNL d   1      -2.609  -3.280  -0.767  0.00  0.00    -0.075 A 
ATOM      5  S   UNL d   1      -3.812  -3.598  -1.961  0.00  0.00     0.015 SA
ATOM      6  C4  UNL d   1      -3.201  -2.397  -3.004  0.00  0.00     0.022 A 
ATOM      7  C5  UNL d   1      -2.105  -1.759  -2.471  0.00  0.00     0.026 A 
ATOM      8  C6  UNL d   1      -1.746  -2.258  -1.173  0.00  0.00    -0.082 A 
ATOM      9  C7  UNL d   1      -0.700  -1.880  -0.298  0.00  0.00     0.045 A 
ENDROOT
TORSDOF 0
ENDMDL
