MODEL 1
REMARK minimizedAffinity 11.2393055
REMARK minimizedRMSD -1
REMARK  0 active torsions:
REMARK  status: ('A' for Active; 'I' for Inactive)
ROOT
ATOM      1  C   UNL d   1       0.778   1.182   3.628  0.00  0.00    -0.002 A 
ATOM      2  C1  UNL d   1       1.501   0.024   3.882  0.00  0.00     0.010 A 
ATOM      3  C2  UNL d   1       2.383  -0.486   2.928  0.00  0.00     0.041 A 
ATOM      4  C3  UNL d   1       2.530   0.194   1.703  0.00  0.00    -0.075 A 
ATOM      5  S   UNL d   1       3.553  -0.246   0.386  0.00  0.00     0.015 SA
ATOM      6  C4  UNL d   1       3.056   1.093  -0.544  0.00  0.00     0.022 A 
ATOM      7  C5  UNL d   1       2.132   1.867   0.118  0.00  0.00     0.026 A 
ATOM      8  C6  UNL d   1       1.814   1.361   1.424  0.00  0.00    -0.082 A 
ATOM      9  C7  UNL d   1       0.927   1.853   2.412  0.00  0.00     0.045 A 
ENDROOT
TORSDOF 0
ENDMDL
