MODEL 1
REMARK minimizedAffinity 25.3878593
REMARK minimizedRMSD -1
REMARK  0 active torsions:
REMARK  status: ('A' for Active; 'I' for Inactive)
ROOT
ATOM      1  C   UNL d   1      -2.793  -2.741  -3.571  0.00  0.00    -0.002 A 
ATOM      2  C1  UNL d   1      -1.628  -3.442  -3.849  0.00  0.00     0.010 A 
ATOM      3  C2  UNL d   1      -0.723  -3.747  -2.831  0.00  0.00     0.041 A 
ATOM      4  C3  UNL d   1      -1.011  -3.333  -1.515  0.00  0.00    -0.075 A 
ATOM      5  S   UNL d   1      -0.050  -3.595  -0.108  0.00  0.00     0.015 SA
ATOM      6  C4  UNL d   1      -1.163  -2.783   0.895  0.00  0.00     0.022 A 
ATOM      7  C5  UNL d   1      -2.248  -2.317   0.190  0.00  0.00     0.026 A 
ATOM      8  C6  UNL d   1      -2.178  -2.626  -1.211  0.00  0.00    -0.082 A 
ATOM      9  C7  UNL d   1      -3.076  -2.332  -2.265  0.00  0.00     0.045 A 
ENDROOT
TORSDOF 0
ENDMDL
