MODEL 1
REMARK minimizedAffinity 8.77535629
REMARK minimizedRMSD -1
REMARK  0 active torsions:
REMARK  status: ('A' for Active; 'I' for Inactive)
ROOT
ATOM      1  C   UNL d   1       2.427   0.787  -0.618  0.00  0.00    -0.002 A 
ATOM      2  C1  UNL d   1       3.520  -0.047  -0.431  0.00  0.00     0.010 A 
ATOM      3  C2  UNL d   1       3.815  -0.557   0.835  0.00  0.00     0.041 A 
ATOM      4  C3  UNL d   1       2.984  -0.213   1.920  0.00  0.00    -0.075 A 
ATOM      5  S   UNL d   1       3.151  -0.720   3.559  0.00  0.00     0.015 SA
ATOM      6  C4  UNL d   1       1.775   0.158   4.049  0.00  0.00     0.022 A 
ATOM      7  C5  UNL d   1       1.190   0.828   3.000  0.00  0.00     0.026 A 
ATOM      8  C6  UNL d   1       1.877   0.624   1.756  0.00  0.00    -0.082 A 
ATOM      9  C7  UNL d   1       1.605   1.126   0.460  0.00  0.00     0.045 A 
ENDROOT
TORSDOF 0
ENDMDL
