MODEL 1
REMARK minimizedAffinity 3.91082072
REMARK minimizedRMSD -1
REMARK  0 active torsions:
REMARK  status: ('A' for Active; 'I' for Inactive)
ROOT
ATOM      1  C   UNL d   1       1.022   0.861   3.700  0.00  0.00    -0.002 A 
ATOM      2  C1  UNL d   1       1.693  -0.304   4.045  0.00  0.00     0.010 A 
ATOM      3  C2  UNL d   1       2.584  -0.901   3.151  0.00  0.00     0.041 A 
ATOM      4  C3  UNL d   1       2.792  -0.302   1.894  0.00  0.00    -0.075 A 
ATOM      5  S   UNL d   1       3.837  -0.856   0.639  0.00  0.00     0.015 SA
ATOM      6  C4  UNL d   1       3.418   0.442  -0.384  0.00  0.00     0.022 A 
ATOM      7  C5  UNL d   1       2.504   1.286   0.201  0.00  0.00     0.026 A 
ATOM      8  C6  UNL d   1       2.129   0.872   1.524  0.00  0.00    -0.082 A 
ATOM      9  C7  UNL d   1       1.232   1.453   2.452  0.00  0.00     0.045 A 
ENDROOT
TORSDOF 0
ENDMDL
