MODEL 1
REMARK minimizedAffinity 10.3901796
REMARK minimizedRMSD -1
REMARK  0 active torsions:
REMARK  status: ('A' for Active; 'I' for Inactive)
ROOT
ATOM      1  C   UNL d   1       6.000  -0.907   0.636  0.00  0.00    -0.002 A 
ATOM      2  C1  UNL d   1       5.704  -1.176   1.964  0.00  0.00     0.010 A 
ATOM      3  C2  UNL d   1       4.451  -0.857   2.492  0.00  0.00     0.041 A 
ATOM      4  C3  UNL d   1       3.491  -0.259   1.653  0.00  0.00    -0.075 A 
ATOM      5  S   UNL d   1       1.890   0.218   2.080  0.00  0.00     0.015 SA
ATOM      6  C4  UNL d   1       1.561   0.791   0.508  0.00  0.00     0.022 A 
ATOM      7  C5  UNL d   1       2.635   0.630  -0.334  0.00  0.00     0.026 A 
ATOM      8  C6  UNL d   1       3.765   0.022   0.311  0.00  0.00    -0.082 A 
ATOM      9  C7  UNL d   1       5.045  -0.313  -0.194  0.00  0.00     0.045 A 
ENDROOT
TORSDOF 0
ENDMDL
