MODEL 1
REMARK minimizedAffinity 12.6135616
REMARK minimizedRMSD -1
REMARK  0 active torsions:
REMARK  status: ('A' for Active; 'I' for Inactive)
ROOT
ATOM      1  C   UNL d   1       1.973   1.763   1.383  0.00  0.00    -0.002 A 
ATOM      2  C1  UNL d   1       2.799   2.656   0.715  0.00  0.00     0.010 A 
ATOM      3  C2  UNL d   1       3.908   2.199  -0.000  0.00  0.00     0.041 A 
ATOM      4  C3  UNL d   1       4.174   0.816  -0.035  0.00  0.00    -0.075 A 
ATOM      5  S   UNL d   1       5.475   0.029  -0.847  0.00  0.00     0.015 SA
ATOM      6  C4  UNL d   1       4.964  -1.512  -0.328  0.00  0.00     0.022 A 
ATOM      7  C5  UNL d   1       3.831  -1.446   0.448  0.00  0.00     0.026 A 
ATOM      8  C6  UNL d   1       3.357  -0.103   0.629  0.00  0.00    -0.082 A 
ATOM      9  C7  UNL d   1       2.241   0.392   1.347  0.00  0.00     0.045 A 
ENDROOT
TORSDOF 0
ENDMDL
