MODEL 1
REMARK minimizedAffinity 2.96561074
REMARK minimizedRMSD -1
REMARK  0 active torsions:
REMARK  status: ('A' for Active; 'I' for Inactive)
ROOT
ATOM      1  C   UNL d   1       3.215   0.627  -0.073  0.00  0.00    -0.002 A 
ATOM      2  C1  UNL d   1       2.595   1.866   0.009  0.00  0.00     0.010 A 
ATOM      3  C2  UNL d   1       1.801   2.191   1.110  0.00  0.00     0.041 A 
ATOM      4  C3  UNL d   1       1.640   1.242   2.139  0.00  0.00    -0.075 A 
ATOM      5  S   UNL d   1       0.715   1.420   3.582  0.00  0.00     0.015 SA
ATOM      6  C4  UNL d   1       1.122  -0.144   4.125  0.00  0.00     0.022 A 
ATOM      7  C5  UNL d   1       1.942  -0.800   3.238  0.00  0.00     0.026 A 
ATOM      8  C6  UNL d   1       2.255  -0.012   2.079  0.00  0.00    -0.082 A 
ATOM      9  C7  UNL d   1       3.054  -0.312   0.949  0.00  0.00     0.045 A 
ENDROOT
TORSDOF 0
ENDMDL
