MODEL 1
REMARK minimizedAffinity 21.7958298
REMARK minimizedRMSD -1
REMARK  0 active torsions:
REMARK  status: ('A' for Active; 'I' for Inactive)
ROOT
ATOM      1  C   UNL d   1       1.425   0.850   1.006  0.00  0.00    -0.002 A 
ATOM      2  C1  UNL d   1       2.068   1.500  -0.038  0.00  0.00     0.010 A 
ATOM      3  C2  UNL d   1       3.420   1.263  -0.296  0.00  0.00     0.041 A 
ATOM      4  C3  UNL d   1       4.120   0.351   0.518  0.00  0.00    -0.075 A 
ATOM      5  S   UNL d   1       5.779  -0.097   0.388  0.00  0.00     0.015 SA
ATOM      6  C4  UNL d   1       5.673  -1.163   1.714  0.00  0.00     0.022 A 
ATOM      7  C5  UNL d   1       4.409  -1.188   2.255  0.00  0.00     0.026 A 
ATOM      8  C6  UNL d   1       3.493  -0.316   1.575  0.00  0.00    -0.082 A 
ATOM      9  C7  UNL d   1       2.122  -0.053   1.812  0.00  0.00     0.045 A 
ENDROOT
TORSDOF 0
ENDMDL
