MODEL 1
REMARK minimizedAffinity 6.44623804
REMARK minimizedRMSD -1
REMARK  0 active torsions:
REMARK  status: ('A' for Active; 'I' for Inactive)
ROOT
ATOM      1  C   UNL d   1      -2.096  -2.428   0.149  0.00  0.00    -0.002 A 
ATOM      2  C1  UNL d   1      -0.837  -2.999   0.271  0.00  0.00     0.010 A 
ATOM      3  C2  UNL d   1      -0.237  -3.634  -0.818  0.00  0.00     0.041 A 
ATOM      4  C3  UNL d   1      -0.929  -3.685  -2.044  0.00  0.00    -0.075 A 
ATOM      5  S   UNL d   1      -0.390  -4.410  -3.513  0.00  0.00     0.015 SA
ATOM      6  C4  UNL d   1      -1.818  -3.978  -4.337  0.00  0.00     0.022 A 
ATOM      7  C5  UNL d   1      -2.695  -3.297  -3.527  0.00  0.00     0.026 A 
ATOM      8  C6  UNL d   1      -2.197  -3.117  -2.192  0.00  0.00    -0.082 A 
ATOM      9  C7  UNL d   1      -2.779  -2.481  -1.069  0.00  0.00     0.045 A 
ENDROOT
TORSDOF 0
ENDMDL
