MODEL 1
REMARK minimizedAffinity 24.0242386
REMARK minimizedRMSD -1
REMARK  0 active torsions:
REMARK  status: ('A' for Active; 'I' for Inactive)
ROOT
ATOM      1  C   UNL d   1      -2.877  -5.999   1.971  0.00  0.00    -0.002 A 
ATOM      2  C1  UNL d   1      -1.573  -5.990   2.444  0.00  0.00     0.010 A 
ATOM      3  C2  UNL d   1      -0.694  -4.966   2.083  0.00  0.00     0.041 A 
ATOM      4  C3  UNL d   1      -1.153  -3.942   1.232  0.00  0.00    -0.075 A 
ATOM      5  S   UNL d   1      -0.254  -2.587   0.658  0.00  0.00     0.015 SA
ATOM      6  C4  UNL d   1      -1.581  -1.989  -0.228  0.00  0.00     0.022 A 
ATOM      7  C5  UNL d   1      -2.691  -2.791  -0.101  0.00  0.00     0.026 A 
ATOM      8  C6  UNL d   1      -2.462  -3.930   0.743  0.00  0.00    -0.082 A 
ATOM      9  C7  UNL d   1      -3.329  -4.981   1.127  0.00  0.00     0.045 A 
ENDROOT
TORSDOF 0
ENDMDL
