MODEL 1
REMARK minimizedAffinity 14.8899288
REMARK minimizedRMSD -1
REMARK  0 active torsions:
REMARK  status: ('A' for Active; 'I' for Inactive)
ROOT
ATOM      1  C   UNL d   1      -6.000   6.000   3.624  0.00  0.00    -0.002 A 
ATOM      2  C1  UNL d   1      -5.386   5.999   4.868  0.00  0.00     0.010 A 
ATOM      3  C2  UNL d   1      -4.725   4.861   5.334  0.00  0.00     0.041 A 
ATOM      4  C3  UNL d   1      -4.690   3.712   4.519  0.00  0.00    -0.075 A 
ATOM      5  S   UNL d   1      -3.939   2.203   4.882  0.00  0.00     0.015 SA
ATOM      6  C4  UNL d   1      -4.415   1.524   3.393  0.00  0.00     0.022 A 
ATOM      7  C5  UNL d   1      -5.130   2.413   2.626  0.00  0.00     0.026 A 
ATOM      8  C6  UNL d   1      -5.300   3.689   3.262  0.00  0.00    -0.082 A 
ATOM      9  C7  UNL d   1      -5.963   4.858   2.818  0.00  0.00     0.045 A 
ENDROOT
TORSDOF 0
ENDMDL
