MODEL 1
REMARK minimizedAffinity 9.12529755
REMARK minimizedRMSD -1
REMARK  3 active torsions:
REMARK  status: ('A' for Active; 'I' for Inactive)
REMARK    1  A    between atoms: C3'_2  and  C2'_3 
REMARK    2  A    between atoms: C2'_3  and  C1'_4 
REMARK    3  A    between atoms: C1'_4  and  C1_5 
ROOT
ATOM      1  C1  N4B d   1      -5.526   4.839   1.478  0.00  0.00    -0.075 A 
ATOM      2  C2  N4B d   1      -4.665   3.894   0.877  0.00  0.00     0.002 A 
ATOM      3  C3  N4B d   1      -4.321   4.023  -0.446  0.00  0.00     0.002 A 
ATOM      4  C4  N4B d   1      -4.837   5.073  -1.190  0.00  0.00    -0.004 A 
ATOM      5  C5  N4B d   1      -5.648   5.996  -0.596  0.00  0.00     0.002 A 
ATOM      6  C6  N4B d   1      -5.999   5.881   0.734  0.00  0.00     0.002 A 
ENDROOT
BRANCH   1   7
ATOM      7  C1' N4B d   1      -5.999   4.691   2.898  0.00  0.00     0.057 C 
BRANCH   7   8
ATOM      8  C2' N4B d   1      -5.750   5.997   3.647  0.00  0.00     0.009 C 
BRANCH   8   9
ATOM      9  C3' N4B d   1      -5.344   5.756   5.090  0.00  0.00     0.004 C 
ATOM     10  C4' N4B d   1      -4.411   4.592   5.244  0.00  0.00     0.003 C 
ENDBRANCH   8   9
ENDBRANCH   7   8
ENDBRANCH   1   7
TORSDOF 3
ENDMDL
