MODEL 1
REMARK minimizedAffinity 11.1664391
REMARK minimizedRMSD -1
REMARK  3 active torsions:
REMARK  status: ('A' for Active; 'I' for Inactive)
REMARK    1  A    between atoms: C3'_2  and  C2'_3 
REMARK    2  A    between atoms: C2'_3  and  C1'_4 
REMARK    3  A    between atoms: C1'_4  and  C1_5 
ROOT
ATOM      1  C1  N4B d   1      -3.730  -4.038  -2.221  0.00  0.00    -0.075 A 
ATOM      2  C2  N4B d   1      -4.816  -3.606  -3.014  0.00  0.00     0.002 A 
ATOM      3  C3  N4B d   1      -5.943  -4.384  -3.118  0.00  0.00     0.002 A 
ATOM      4  C4  N4B d   1      -5.999  -5.601  -2.456  0.00  0.00    -0.004 A 
ATOM      5  C5  N4B d   1      -4.956  -6.000  -1.672  0.00  0.00     0.002 A 
ATOM      6  C6  N4B d   1      -3.819  -5.226  -1.555  0.00  0.00     0.002 A 
ENDROOT
BRANCH   1   7
ATOM      7  C1' N4B d   1      -2.443  -3.263  -2.146  0.00  0.00     0.057 C 
BRANCH   7   8
ATOM      8  C2' N4B d   1      -2.356  -2.568  -0.790  0.00  0.00     0.009 C 
BRANCH   8   9
ATOM      9  C3' N4B d   1      -1.161  -3.047   0.017  0.00  0.00     0.004 C 
ATOM     10  C4' N4B d   1      -1.557  -3.863   1.211  0.00  0.00     0.003 C 
ENDBRANCH   8   9
ENDBRANCH   7   8
ENDBRANCH   1   7
TORSDOF 3
ENDMDL
