MODEL 1
REMARK minimizedAffinity 7.12585258
REMARK minimizedRMSD -1
REMARK  3 active torsions:
REMARK  status: ('A' for Active; 'I' for Inactive)
REMARK    1  A    between atoms: C3'_2  and  C2'_3 
REMARK    2  A    between atoms: C2'_3  and  C1'_4 
REMARK    3  A    between atoms: C1'_4  and  C1_5 
ROOT
ATOM      1  C1  N4B d   1       5.235  -0.406   1.442  0.00  0.00    -0.075 A 
ATOM      2  C2  N4B d   1       3.838  -0.606   1.494  0.00  0.00     0.002 A 
ATOM      3  C3  N4B d   1       3.208  -0.740   2.707  0.00  0.00     0.002 A 
ATOM      4  C4  N4B d   1       3.955  -0.697   3.875  0.00  0.00    -0.004 A 
ATOM      5  C5  N4B d   1       5.300  -0.477   3.817  0.00  0.00     0.002 A 
ATOM      6  C6  N4B d   1       5.945  -0.337   2.605  0.00  0.00     0.002 A 
ENDROOT
BRANCH   1   7
ATOM      7  C1' N4B d   1       5.979  -0.339   0.136  0.00  0.00     0.057 C 
BRANCH   7   8
ATOM      8  C2' N4B d   1       5.986   1.102  -0.364  0.00  0.00     0.009 C 
BRANCH   8   9
ATOM      9  C3' N4B d   1       5.999   2.101   0.780  0.00  0.00     0.004 C 
ATOM     10  C4' N4B d   1       5.849   3.519   0.316  0.00  0.00     0.003 C 
ENDBRANCH   8   9
ENDBRANCH   7   8
ENDBRANCH   1   7
TORSDOF 3
ENDMDL
