MODEL 1
REMARK minimizedAffinity 4.6967206
REMARK minimizedRMSD -1
REMARK  3 active torsions:
REMARK  status: ('A' for Active; 'I' for Inactive)
REMARK    1  A    between atoms: C3'_2  and  C2'_3 
REMARK    2  A    between atoms: C2'_3  and  C1'_4 
REMARK    3  A    between atoms: C1'_4  and  C1_5 
ROOT
ATOM      1  C1  N4B d   1      -4.034  -4.824  -4.538  0.00  0.00    -0.075 A 
ATOM      2  C2  N4B d   1      -5.241  -4.178  -4.191  0.00  0.00     0.002 A 
ATOM      3  C3  N4B d   1      -5.853  -4.463  -2.995  0.00  0.00     0.002 A 
ATOM      4  C4  N4B d   1      -5.289  -5.399  -2.142  0.00  0.00    -0.004 A 
ATOM      5  C5  N4B d   1      -4.110  -6.000  -2.473  0.00  0.00     0.002 A 
ATOM      6  C6  N4B d   1      -3.482  -5.721  -3.670  0.00  0.00     0.002 A 
ENDROOT
BRANCH   1   7
ATOM      7  C1' N4B d   1      -3.373  -4.609  -5.872  0.00  0.00     0.057 C 
BRANCH   7   8
ATOM      8  C2' N4B d   1      -1.865  -4.500  -5.672  0.00  0.00     0.009 C 
BRANCH   8   9
ATOM      9  C3' N4B d   1      -1.348  -3.109  -5.997  0.00  0.00     0.004 C 
ATOM     10  C4' N4B d   1      -0.255  -2.664  -5.072  0.00  0.00     0.003 C 
ENDBRANCH   8   9
ENDBRANCH   7   8
ENDBRANCH   1   7
TORSDOF 3
ENDMDL
