MODEL 1
REMARK minimizedAffinity 0.926750064
REMARK minimizedRMSD -1
REMARK  3 active torsions:
REMARK  status: ('A' for Active; 'I' for Inactive)
REMARK    1  A    between atoms: C3'_2  and  C2'_3 
REMARK    2  A    between atoms: C2'_3  and  C1'_4 
REMARK    3  A    between atoms: C1'_4  and  C1_5 
ROOT
ATOM      1  C1  N4B d   1      -4.560  -5.458  -3.064  0.00  0.00    -0.075 A 
ATOM      2  C2  N4B d   1      -5.625  -4.671  -3.554  0.00  0.00     0.002 A 
ATOM      3  C3  N4B d   1      -5.556  -4.131  -4.815  0.00  0.00     0.002 A 
ATOM      4  C4  N4B d   1      -4.428  -4.346  -5.593  0.00  0.00    -0.004 A 
ATOM      5  C5  N4B d   1      -3.415  -5.129  -5.122  0.00  0.00     0.002 A 
ATOM      6  C6  N4B d   1      -3.472  -5.682  -3.858  0.00  0.00     0.002 A 
ENDROOT
BRANCH   1   7
ATOM      7  C1' N4B d   1      -4.553  -6.000  -1.661  0.00  0.00     0.057 C 
BRANCH   7   8
ATOM      8  C2' N4B d   1      -3.222  -5.656  -0.998  0.00  0.00     0.009 C 
BRANCH   8   9
ATOM      9  C3' N4B d   1      -3.408  -5.149   0.422  0.00  0.00     0.004 C 
ATOM     10  C4' N4B d   1      -2.310  -4.226   0.857  0.00  0.00     0.003 C 
ENDBRANCH   8   9
ENDBRANCH   7   8
ENDBRANCH   1   7
TORSDOF 3
ENDMDL
