MODEL 1
REMARK minimizedAffinity 2.86649203
REMARK minimizedRMSD -1
REMARK  3 active torsions:
REMARK  status: ('A' for Active; 'I' for Inactive)
REMARK    1  A    between atoms: C3'_2  and  C2'_3 
REMARK    2  A    between atoms: C2'_3  and  C1'_4 
REMARK    3  A    between atoms: C1'_4  and  C1_5 
ROOT
ATOM      1  C1  N4B d   1      -2.716  -3.258  -3.570  0.00  0.00    -0.075 A 
ATOM      2  C2  N4B d   1      -2.858  -4.101  -4.695  0.00  0.00     0.002 A 
ATOM      3  C3  N4B d   1      -2.294  -3.744  -5.895  0.00  0.00     0.002 A 
ATOM      4  C4  N4B d   1      -1.603  -2.547  -6.000  0.00  0.00    -0.004 A 
ATOM      5  C5  N4B d   1      -1.448  -1.751  -4.903  0.00  0.00     0.002 A 
ATOM      6  C6  N4B d   1      -2.006  -2.098  -3.689  0.00  0.00     0.002 A 
ENDROOT
BRANCH   1   7
ATOM      7  C1' N4B d   1      -3.387  -3.563  -2.259  0.00  0.00     0.057 C 
BRANCH   7   8
ATOM      8  C2' N4B d   1      -3.790  -5.034  -2.234  0.00  0.00     0.009 C 
BRANCH   8   9
ATOM      9  C3' N4B d   1      -5.269  -5.223  -2.523  0.00  0.00     0.004 C 
ATOM     10  C4' N4B d   1      -5.941  -3.958  -2.966  0.00  0.00     0.003 C 
ENDBRANCH   8   9
ENDBRANCH   7   8
ENDBRANCH   1   7
TORSDOF 3
ENDMDL
