MODEL 1
REMARK minimizedAffinity 12.9991865
REMARK minimizedRMSD -1
REMARK  3 active torsions:
REMARK  status: ('A' for Active; 'I' for Inactive)
REMARK    1  A    between atoms: C3'_2  and  C2'_3 
REMARK    2  A    between atoms: C2'_3  and  C1'_4 
REMARK    3  A    between atoms: C1'_4  and  C1_5 
ROOT
ATOM      1  C1  N4B d   1       2.289   1.374   1.319  0.00  0.00    -0.075 A 
ATOM      2  C2  N4B d   1       2.260   0.170   2.055  0.00  0.00     0.002 A 
ATOM      3  C3  N4B d   1       3.375  -0.630   2.109  0.00  0.00     0.002 A 
ATOM      4  C4  N4B d   1       4.520  -0.256   1.422  0.00  0.00    -0.004 A 
ATOM      5  C5  N4B d   1       4.549   0.921   0.734  0.00  0.00     0.002 A 
ATOM      6  C6  N4B d   1       3.437   1.736   0.674  0.00  0.00     0.002 A 
ENDROOT
BRANCH   1   7
ATOM      7  C1' N4B d   1       1.068   2.238   1.160  0.00  0.00     0.057 C 
BRANCH   7   8
ATOM      8  C2' N4B d   1       0.043   1.857   2.223  0.00  0.00     0.009 C 
BRANCH   8   9
ATOM      9  C3' N4B d   1      -1.254   2.632   2.066  0.00  0.00     0.004 C 
ATOM     10  C4' N4B d   1      -2.449   1.870   2.555  0.00  0.00     0.003 C 
ENDBRANCH   8   9
ENDBRANCH   7   8
ENDBRANCH   1   7
TORSDOF 3
ENDMDL
