MODEL 1
REMARK minimizedAffinity 5.36173916
REMARK minimizedRMSD -1
REMARK  3 active torsions:
REMARK  status: ('A' for Active; 'I' for Inactive)
REMARK    1  A    between atoms: C3'_2  and  C2'_3 
REMARK    2  A    between atoms: C2'_3  and  C1'_4 
REMARK    3  A    between atoms: C1'_4  and  C1_5 
ROOT
ATOM      1  C1  N4B d   1      -3.708  -4.197  -2.654  0.00  0.00    -0.075 A 
ATOM      2  C2  N4B d   1      -4.261  -4.410  -3.936  0.00  0.00     0.002 A 
ATOM      3  C3  N4B d   1      -5.398  -5.168  -4.075  0.00  0.00     0.002 A 
ATOM      4  C4  N4B d   1      -5.986  -5.735  -2.954  0.00  0.00    -0.004 A 
ATOM      5  C5  N4B d   1      -5.460  -5.502  -1.717  0.00  0.00     0.002 A 
ATOM      6  C6  N4B d   1      -4.320  -4.740  -1.562  0.00  0.00     0.002 A 
ENDROOT
BRANCH   1   7
ATOM      7  C1' N4B d   1      -2.418  -3.447  -2.461  0.00  0.00     0.057 C 
BRANCH   7   8
ATOM      8  C2' N4B d   1      -2.278  -2.399  -3.561  0.00  0.00     0.009 C 
BRANCH   8   9
ATOM      9  C3' N4B d   1      -1.219  -2.784  -4.580  0.00  0.00     0.004 C 
ATOM     10  C4' N4B d   1      -1.680  -2.598  -5.995  0.00  0.00     0.003 C 
ENDBRANCH   8   9
ENDBRANCH   7   8
ENDBRANCH   1   7
TORSDOF 3
ENDMDL
