MODEL 1
REMARK minimizedAffinity 0.657000482
REMARK minimizedRMSD -1
REMARK  1 active torsions:
REMARK  status: ('A' for Active; 'I' for Inactive)
REMARK    1  A    between atoms: C1_2  and  C2_3 
ROOT
ATOM      1  C2  UNL d   1       0.298  -0.373  -0.613  0.00  0.00    -0.077 A 
ATOM      2  C3  UNL d   1       0.750  -0.250   0.708  0.00  0.00     0.002 A 
ATOM      3  C4  UNL d   1      -0.157  -0.038   1.748  0.00  0.00     0.002 A 
ATOM      4  C5  UNL d   1      -1.521   0.050   1.478  0.00  0.00    -0.004 A 
ATOM      5  C6  UNL d   1      -1.981  -0.069   0.167  0.00  0.00     0.002 A 
ATOM      6  C7  UNL d   1      -1.075  -0.280  -0.874  0.00  0.00     0.002 A 
ENDROOT
BRANCH   1   7
ATOM      7  C1  UNL d   1       1.270  -0.651  -1.730  0.00  0.00     0.055 C 
ATOM      8  C   UNL d   1       1.583   0.611  -2.519  0.00  0.00     0.019 C 
ENDBRANCH   1   7
TORSDOF 1
ENDMDL
