MODEL 1
REMARK minimizedAffinity 1.31621385
REMARK minimizedRMSD -1
REMARK  1 active torsions:
REMARK  status: ('A' for Active; 'I' for Inactive)
REMARK    1  A    between atoms: C1_2  and  C2_3 
ROOT
ATOM      1  C2  UNL d   1       0.741  -1.894   1.472  0.00  0.00    -0.077 A 
ATOM      2  C3  UNL d   1       1.827  -2.703   1.110  0.00  0.00     0.002 A 
ATOM      3  C4  UNL d   1       2.018  -3.944   1.722  0.00  0.00     0.002 A 
ATOM      4  C5  UNL d   1       1.125  -4.387   2.696  0.00  0.00    -0.004 A 
ATOM      5  C6  UNL d   1       0.044  -3.588   3.065  0.00  0.00     0.002 A 
ATOM      6  C7  UNL d   1      -0.148  -2.347   2.455  0.00  0.00     0.002 A 
ENDROOT
BRANCH   1   7
ATOM      7  C1  UNL d   1       0.506  -0.577   0.779  0.00  0.00     0.055 C 
ATOM      8  C   UNL d   1      -0.975  -0.227   0.744  0.00  0.00     0.019 C 
ENDBRANCH   1   7
TORSDOF 1
ENDMDL
