MODEL 1
REMARK minimizedAffinity 10.5426254
REMARK minimizedRMSD -1
REMARK  0 active torsions:
REMARK  status: ('A' for Active; 'I' for Inactive)
ROOT
ATOM      1  O1  BZF d   1      -0.916   3.399   1.596  0.00  0.00    -0.204 OA
ATOM      2  C2  BZF d   1      -0.197   2.237   1.392  0.00  0.00     0.174 A 
ATOM      3  C3  BZF d   1       0.376   2.237   0.171  0.00  0.00    -0.012 A 
ATOM      4  C3A BZF d   1       0.069   3.517  -0.389  0.00  0.00    -0.107 A 
ATOM      5  C4  BZF d   1       0.375   4.121  -1.575  0.00  0.00     0.055 A 
ATOM      6  C5  BZF d   1      -0.142   5.349  -1.843  0.00  0.00    -0.016 A 
ATOM      7  C6  BZF d   1      -0.970   5.999  -0.952  0.00  0.00     0.022 A 
ATOM      8  C7  BZF d   1      -1.298   5.442   0.239  0.00  0.00     0.029 A 
ATOM      9  C7A BZF d   1      -0.751   4.216   0.527  0.00  0.00     0.058 A 
ENDROOT
TORSDOF 0
ENDMDL
