MODEL 1
REMARK minimizedAffinity 19.7129593
REMARK minimizedRMSD -1
REMARK  0 active torsions:
REMARK  status: ('A' for Active; 'I' for Inactive)
ROOT
ATOM      1  O1  BZF d   1      -4.258   5.732  -0.245  0.00  0.00    -0.204 OA
ATOM      2  C2  BZF d   1      -3.992   5.996   1.085  0.00  0.00     0.174 A 
ATOM      3  C3  BZF d   1      -2.665   5.969   1.321  0.00  0.00    -0.012 A 
ATOM      4  C3A BZF d   1      -2.059   5.761   0.042  0.00  0.00    -0.107 A 
ATOM      5  C4  BZF d   1      -0.763   5.658  -0.377  0.00  0.00     0.055 A 
ATOM      6  C5  BZF d   1      -0.512   5.381  -1.684  0.00  0.00    -0.016 A 
ATOM      7  C6  BZF d   1      -1.530   5.196  -2.596  0.00  0.00     0.022 A 
ATOM      8  C7  BZF d   1      -2.831   5.294  -2.228  0.00  0.00     0.029 A 
ATOM      9  C7A BZF d   1      -3.088   5.606  -0.915  0.00  0.00     0.058 A 
ENDROOT
TORSDOF 0
ENDMDL
