MODEL 1
REMARK minimizedAffinity 3.52723098
REMARK minimizedRMSD -1
REMARK  0 active torsions:
REMARK  status: ('A' for Active; 'I' for Inactive)
ROOT
ATOM      1  O1  BZF d   1      -4.269   5.912  -0.169  0.00  0.00    -0.204 OA
ATOM      2  C2  BZF d   1      -4.281   6.000   1.210  0.00  0.00     0.174 A 
ATOM      3  C3  BZF d   1      -3.024   5.987   1.701  0.00  0.00    -0.012 A 
ATOM      4  C3A BZF d   1      -2.172   5.977   0.552  0.00  0.00    -0.107 A 
ATOM      5  C4  BZF d   1      -0.816   5.977   0.389  0.00  0.00     0.055 A 
ATOM      6  C5  BZF d   1      -0.301   5.891  -0.866  0.00  0.00    -0.016 A 
ATOM      7  C6  BZF d   1      -1.112   5.798  -1.978  0.00  0.00     0.022 A 
ATOM      8  C7  BZF d   1      -2.463   5.800  -1.867  0.00  0.00     0.029 A 
ATOM      9  C7A BZF d   1      -2.986   5.920  -0.603  0.00  0.00     0.058 A 
ENDROOT
TORSDOF 0
ENDMDL
