MODEL 1
REMARK minimizedAffinity 6.2834425
REMARK minimizedRMSD -1
REMARK  0 active torsions:
REMARK  status: ('A' for Active; 'I' for Inactive)
ROOT
ATOM      1  O1  BZF d   1      -1.068   3.365   1.678  0.00  0.00    -0.204 OA
ATOM      2  C2  BZF d   1      -0.288   2.232   1.544  0.00  0.00     0.174 A 
ATOM      3  C3  BZF d   1       0.419   2.272   0.396  0.00  0.00    -0.012 A 
ATOM      4  C3A BZF d   1       0.128   3.548  -0.181  0.00  0.00    -0.107 A 
ATOM      5  C4  BZF d   1       0.543   4.181  -1.318  0.00  0.00     0.055 A 
ATOM      6  C5  BZF d   1       0.014   5.393  -1.630  0.00  0.00    -0.016 A 
ATOM      7  C6  BZF d   1      -0.934   5.999  -0.831  0.00  0.00     0.022 A 
ATOM      8  C7  BZF d   1      -1.372   5.413   0.310  0.00  0.00     0.029 A 
ATOM      9  C7A BZF d   1      -0.815   4.203   0.644  0.00  0.00     0.058 A 
ENDROOT
TORSDOF 0
ENDMDL
