MODEL 1
REMARK minimizedAffinity 9.45573235
REMARK minimizedRMSD -1
REMARK  0 active torsions:
REMARK  status: ('A' for Active; 'I' for Inactive)
ROOT
ATOM      1  O1  BZF d   1       3.870  -5.989  -4.313  0.00  0.00    -0.204 OA
ATOM      2  C2  BZF d   1       5.005  -5.722  -5.052  0.00  0.00     0.174 A 
ATOM      3  C3  BZF d   1       5.999  -5.274  -4.259  0.00  0.00    -0.012 A 
ATOM      4  C3A BZF d   1       5.479  -5.347  -2.927  0.00  0.00    -0.107 A 
ATOM      5  C4  BZF d   1       5.999  -5.054  -1.699  0.00  0.00     0.055 A 
ATOM      6  C5  BZF d   1       5.206  -5.167  -0.602  0.00  0.00    -0.016 A 
ATOM      7  C6  BZF d   1       3.888  -5.565  -0.697  0.00  0.00     0.022 A 
ATOM      8  C7  BZF d   1       3.330  -5.872  -1.893  0.00  0.00     0.029 A 
ATOM      9  C7A BZF d   1       4.139  -5.791  -3.000  0.00  0.00     0.058 A 
ENDROOT
TORSDOF 0
ENDMDL
