MODEL 1
REMARK minimizedAffinity 19.8329182
REMARK minimizedRMSD -1
REMARK  0 active torsions:
REMARK  status: ('A' for Active; 'I' for Inactive)
ROOT
ATOM      1  O1  BZF d   1       2.555  -4.101   0.891  0.00  0.00    -0.204 OA
ATOM      2  C2  BZF d   1       2.211  -2.772   1.052  0.00  0.00     0.174 A 
ATOM      3  C3  BZF d   1       1.434  -2.352   0.032  0.00  0.00    -0.012 A 
ATOM      4  C3A BZF d   1       1.207  -3.514  -0.771  0.00  0.00    -0.107 A 
ATOM      5  C4  BZF d   1       0.496  -3.740  -1.915  0.00  0.00     0.055 A 
ATOM      6  C5  BZF d   1       0.537  -4.973  -2.485  0.00  0.00    -0.016 A 
ATOM      7  C6  BZF d   1       1.281  -6.000  -1.942  0.00  0.00     0.022 A 
ATOM      8  C7  BZF d   1       1.998  -5.825  -0.805  0.00  0.00     0.029 A 
ATOM      9  C7A BZF d   1       1.932  -4.590  -0.209  0.00  0.00     0.058 A 
ENDROOT
TORSDOF 0
ENDMDL
