MODEL 1
REMARK minimizedAffinity 10.6737499
REMARK minimizedRMSD -1
REMARK  0 active torsions:
REMARK  status: ('A' for Active; 'I' for Inactive)
ROOT
ATOM      1  O1  BZF d   1       0.860   3.050  -1.014  0.00  0.00    -0.204 OA
ATOM      2  C2  BZF d   1       0.350   2.390   0.087  0.00  0.00     0.174 A 
ATOM      3  C3  BZF d   1      -0.748   3.019   0.555  0.00  0.00    -0.012 A 
ATOM      4  C3A BZF d   1      -0.988   4.090  -0.363  0.00  0.00    -0.107 A 
ATOM      5  C4  BZF d   1      -1.945   5.061  -0.443  0.00  0.00     0.055 A 
ATOM      6  C5  BZF d   1      -1.853   5.999  -1.422  0.00  0.00    -0.016 A 
ATOM      7  C6  BZF d   1      -0.817   6.000  -2.333  0.00  0.00     0.022 A 
ATOM      8  C7  BZF d   1       0.153   5.054  -2.296  0.00  0.00     0.029 A 
ATOM      9  C7A BZF d   1       0.045   4.085  -1.328  0.00  0.00     0.058 A 
ENDROOT
TORSDOF 0
ENDMDL
