MODEL 1
REMARK minimizedAffinity 12.2955389
REMARK minimizedRMSD -1
REMARK  0 active torsions:
REMARK  status: ('A' for Active; 'I' for Inactive)
ROOT
ATOM      1  O1  BZF d   1       1.204   4.317  -1.140  0.00  0.00    -0.204 OA
ATOM      2  C2  BZF d   1      -0.018   4.407  -1.778  0.00  0.00     0.174 A 
ATOM      3  C3  BZF d   1      -0.971   3.759  -1.078  0.00  0.00    -0.012 A 
ATOM      4  C3A BZF d   1      -0.323   3.309   0.115  0.00  0.00    -0.107 A 
ATOM      5  C4  BZF d   1      -0.750   2.617   1.212  0.00  0.00     0.055 A 
ATOM      6  C5  BZF d   1       0.152   2.274   2.169  0.00  0.00    -0.016 A 
ATOM      7  C6  BZF d   1       1.488   2.601   2.058  0.00  0.00     0.022 A 
ATOM      8  C7  BZF d   1       1.958   3.290   0.991  0.00  0.00     0.029 A 
ATOM      9  C7A BZF d   1       1.043   3.668   0.038  0.00  0.00     0.058 A 
ENDROOT
TORSDOF 0
ENDMDL
