MODEL 1
REMARK minimizedAffinity 1.13441753
REMARK minimizedRMSD -1
REMARK  1 active torsions:
REMARK  status: ('A' for Active; 'I' for Inactive)
REMARK    1  A    between atoms: C1_2  and  C2_3 
ROOT
ATOM      1  C2  UNL d   1      -3.919   0.076  -5.336  0.00  0.00    -0.073 A 
ATOM      2  C3  UNL d   1      -4.530   0.315  -4.099  0.00  0.00    -0.002 A 
ATOM      3  C4  UNL d   1      -5.293  -0.679  -3.486  0.00  0.00     0.004 A 
ATOM      4  C5  UNL d   1      -5.447  -1.923  -4.098  0.00  0.00    -0.004 A 
ATOM      5  C6  UNL d   1      -4.835  -2.185  -5.327  0.00  0.00    -0.075 A 
ATOM      6  C7  UNL d   1      -4.993  -3.518  -6.000  0.00  0.00     0.076 C 
ATOM      7  C8  UNL d   1      -4.073  -1.181  -5.939  0.00  0.00     0.001 A 
ENDROOT
BRANCH   1   8
ATOM      8  C1  UNL d   1      -3.089   1.145  -5.999  0.00  0.00     0.053 C 
ATOM      9  C   UNL d   1      -3.447   2.536  -5.500  0.00  0.00     0.018 C 
ENDBRANCH   1   8
TORSDOF 1
ENDMDL
