MODEL 1
REMARK minimizedAffinity -1.06773937
REMARK minimizedRMSD -1
REMARK  1 active torsions:
REMARK  status: ('A' for Active; 'I' for Inactive)
REMARK    1  A    between atoms: C1_2  and  C2_3 
ROOT
ATOM      1  C2  UNL d   1      -3.151  -5.071  -5.694  0.00  0.00    -0.073 A 
ATOM      2  C3  UNL d   1      -4.450  -5.583  -5.787  0.00  0.00    -0.002 A 
ATOM      3  C4  UNL d   1      -5.538  -4.722  -5.934  0.00  0.00     0.004 A 
ATOM      4  C5  UNL d   1      -5.339  -3.343  -5.996  0.00  0.00    -0.004 A 
ATOM      5  C6  UNL d   1      -4.047  -2.813  -5.916  0.00  0.00    -0.075 A 
ATOM      6  C7  UNL d   1      -3.815  -1.331  -5.978  0.00  0.00     0.076 C 
ATOM      7  C8  UNL d   1      -2.960  -3.684  -5.766  0.00  0.00     0.001 A 
ENDROOT
BRANCH   1   8
ATOM      8  C1  UNL d   1      -1.972  -5.998  -5.542  0.00  0.00     0.053 C 
ATOM      9  C   UNL d   1      -1.429  -6.000  -4.122  0.00  0.00     0.018 C 
ENDBRANCH   1   8
TORSDOF 1
ENDMDL
