MODEL 1
REMARK minimizedAffinity -1.29544222
REMARK minimizedRMSD -1
REMARK  1 active torsions:
REMARK  status: ('A' for Active; 'I' for Inactive)
REMARK    1  A    between atoms: C1_2  and  C2_3 
ROOT
ATOM      1  C2  UNL d   1      -3.424   1.568  -5.960  0.00  0.00    -0.073 A 
ATOM      2  C3  UNL d   1      -4.778   1.922  -5.988  0.00  0.00    -0.002 A 
ATOM      3  C4  UNL d   1      -5.156   3.265  -5.974  0.00  0.00     0.004 A 
ATOM      4  C5  UNL d   1      -4.187   4.267  -5.938  0.00  0.00    -0.004 A 
ATOM      5  C6  UNL d   1      -2.828   3.934  -5.921  0.00  0.00    -0.075 A 
ATOM      6  C7  UNL d   1      -1.773   5.000  -5.881  0.00  0.00     0.076 C 
ATOM      7  C8  UNL d   1      -2.456   2.583  -5.933  0.00  0.00     0.001 A 
ENDROOT
BRANCH   1   8
ATOM      8  C1  UNL d   1      -3.010   0.120  -5.981  0.00  0.00     0.053 C 
ATOM      9  C   UNL d   1      -4.209  -0.815  -5.998  0.00  0.00     0.018 C 
ENDBRANCH   1   8
TORSDOF 1
ENDMDL
