MODEL 1
REMARK minimizedAffinity 0.507025003
REMARK minimizedRMSD -1
REMARK  1 active torsions:
REMARK  status: ('A' for Active; 'I' for Inactive)
REMARK    1  A    between atoms: C1_2  and  C2_3 
ROOT
ATOM      1  C2  UNL d   1      -3.818   0.933  -5.976  0.00  0.00    -0.073 A 
ATOM      2  C3  UNL d   1      -5.214   1.033  -5.992  0.00  0.00    -0.002 A 
ATOM      3  C4  UNL d   1      -5.832   2.284  -5.989  0.00  0.00     0.004 A 
ATOM      4  C5  UNL d   1      -5.062   3.447  -5.976  0.00  0.00    -0.004 A 
ATOM      5  C6  UNL d   1      -3.665   3.368  -5.972  0.00  0.00    -0.075 A 
ATOM      6  C7  UNL d   1      -2.823   4.610  -5.956  0.00  0.00     0.076 C 
ATOM      7  C8  UNL d   1      -3.052   2.108  -5.972  0.00  0.00     0.001 A 
ENDROOT
BRANCH   1   8
ATOM      8  C1  UNL d   1      -3.146  -0.415  -5.985  0.00  0.00     0.053 C 
ATOM      9  C   UNL d   1      -4.154  -1.554  -6.000  0.00  0.00     0.018 C 
ENDBRANCH   1   8
TORSDOF 1
ENDMDL
