MODEL 1
REMARK minimizedAffinity -1.58699286
REMARK minimizedRMSD -1
REMARK  1 active torsions:
REMARK  status: ('A' for Active; 'I' for Inactive)
REMARK    1  A    between atoms: C1_2  and  C2_3 
ROOT
ATOM      1  C2  UNL d   1      -3.655   1.659  -5.787  0.00  0.00    -0.073 A 
ATOM      2  C3  UNL d   1      -2.452   1.050  -5.414  0.00  0.00    -0.002 A 
ATOM      3  C4  UNL d   1      -2.389  -0.331  -5.224  0.00  0.00     0.004 A 
ATOM      4  C5  UNL d   1      -3.526  -1.117  -5.412  0.00  0.00    -0.004 A 
ATOM      5  C6  UNL d   1      -4.735  -0.529  -5.796  0.00  0.00    -0.075 A 
ATOM      6  C7  UNL d   1      -5.968  -1.360  -6.000  0.00  0.00     0.076 C 
ATOM      7  C8  UNL d   1      -4.790   0.859  -5.982  0.00  0.00     0.001 A 
ENDROOT
BRANCH   1   8
ATOM      8  C1  UNL d   1      -3.726   3.149  -5.999  0.00  0.00     0.053 C 
ATOM      9  C   UNL d   1      -2.353   3.800  -5.930  0.00  0.00     0.018 C 
ENDBRANCH   1   8
TORSDOF 1
ENDMDL
