MODEL 1
REMARK minimizedAffinity 0.0319875591
REMARK minimizedRMSD -1
REMARK  1 active torsions:
REMARK  status: ('A' for Active; 'I' for Inactive)
REMARK    1  A    between atoms: C1_2  and  C2_3 
ROOT
ATOM      1  C2  UNL d   1      -3.377   1.502  -5.888  0.00  0.00    -0.073 A 
ATOM      2  C3  UNL d   1      -4.458   0.624  -5.750  0.00  0.00    -0.002 A 
ATOM      3  C4  UNL d   1      -5.761   1.117  -5.672  0.00  0.00     0.004 A 
ATOM      4  C5  UNL d   1      -5.997   2.490  -5.737  0.00  0.00    -0.004 A 
ATOM      5  C6  UNL d   1      -4.931   3.383  -5.887  0.00  0.00    -0.075 A 
ATOM      6  C7  UNL d   1      -5.168   4.863  -5.957  0.00  0.00     0.076 C 
ATOM      7  C8  UNL d   1      -3.625   2.880  -5.962  0.00  0.00     0.001 A 
ENDROOT
BRANCH   1   8
ATOM      8  C1  UNL d   1      -1.969   0.973  -5.979  0.00  0.00     0.053 C 
ATOM      9  C   UNL d   1      -1.930  -0.546  -5.999  0.00  0.00     0.018 C 
ENDBRANCH   1   8
TORSDOF 1
ENDMDL
