MODEL 1
REMARK minimizedAffinity 3.36774445
REMARK minimizedRMSD -1
REMARK  1 active torsions:
REMARK  status: ('A' for Active; 'I' for Inactive)
REMARK    1  A    between atoms: C1_2  and  C2_3 
ROOT
ATOM      1  C2  UNL d   1      -2.629   1.610  -5.994  0.00  0.00    -0.073 A 
ATOM      2  C3  UNL d   1      -3.137   2.914  -5.990  0.00  0.00    -0.002 A 
ATOM      3  C4  UNL d   1      -4.516   3.133  -5.996  0.00  0.00     0.004 A 
ATOM      4  C5  UNL d   1      -5.398   2.052  -6.000  0.00  0.00    -0.004 A 
ATOM      5  C6  UNL d   1      -4.909   0.742  -5.991  0.00  0.00    -0.075 A 
ATOM      6  C7  UNL d   1      -5.845  -0.431  -5.997  0.00  0.00     0.076 C 
ATOM      7  C8  UNL d   1      -3.523   0.531  -5.988  0.00  0.00     0.001 A 
ENDROOT
BRANCH   1   8
ATOM      8  C1  UNL d   1      -1.141   1.369  -5.980  0.00  0.00     0.053 C 
ATOM      9  C   UNL d   1      -0.678   0.737  -4.677  0.00  0.00     0.018 C 
ENDBRANCH   1   8
TORSDOF 1
ENDMDL
