MODEL 1
REMARK minimizedAffinity -0.879097223
REMARK minimizedRMSD -1
REMARK  1 active torsions:
REMARK  status: ('A' for Active; 'I' for Inactive)
REMARK    1  A    between atoms: C1_2  and  C2_3 
ROOT
ATOM      1  C2  UNL d   1      -3.508   3.487  -5.981  0.00  0.00    -0.073 A 
ATOM      2  C3  UNL d   1      -4.875   3.784  -5.979  0.00  0.00    -0.002 A 
ATOM      3  C4  UNL d   1      -5.819   2.757  -5.991  0.00  0.00     0.004 A 
ATOM      4  C5  UNL d   1      -5.407   1.424  -5.998  0.00  0.00    -0.004 A 
ATOM      5  C6  UNL d   1      -4.045   1.107  -5.989  0.00  0.00    -0.075 A 
ATOM      6  C7  UNL d   1      -3.585  -0.321  -5.999  0.00  0.00     0.076 C 
ATOM      7  C8  UNL d   1      -3.103   2.145  -5.979  0.00  0.00     0.001 A 
ENDROOT
BRANCH   1   8
ATOM      8  C1  UNL d   1      -2.484   4.593  -5.962  0.00  0.00     0.053 C 
ATOM      9  C   UNL d   1      -3.131   5.969  -5.998  0.00  0.00     0.018 C 
ENDBRANCH   1   8
TORSDOF 1
ENDMDL
