MODEL 1
REMARK minimizedAffinity -0.768467844
REMARK minimizedRMSD -1
REMARK  1 active torsions:
REMARK  status: ('A' for Active; 'I' for Inactive)
REMARK    1  A    between atoms: C1_2  and  C2_3 
ROOT
ATOM      1  C2  UNL d   1      -5.213   2.069  -5.852  0.00  0.00    -0.073 A 
ATOM      2  C3  UNL d   1      -3.814   2.087  -5.861  0.00  0.00    -0.002 A 
ATOM      3  C4  UNL d   1      -3.124   3.298  -5.923  0.00  0.00     0.004 A 
ATOM      4  C5  UNL d   1      -3.824   4.503  -5.969  0.00  0.00    -0.004 A 
ATOM      5  C6  UNL d   1      -5.223   4.507  -5.949  0.00  0.00    -0.075 A 
ATOM      6  C7  UNL d   1      -5.991   5.795  -6.000  0.00  0.00     0.076 C 
ATOM      7  C8  UNL d   1      -5.908   3.287  -5.890  0.00  0.00     0.001 A 
ENDROOT
BRANCH   1   8
ATOM      8  C1  UNL d   1      -5.962   0.764  -5.780  0.00  0.00     0.053 C 
ATOM      9  C   UNL d   1      -5.048  -0.431  -6.000  0.00  0.00     0.018 C 
ENDBRANCH   1   8
TORSDOF 1
ENDMDL
