MODEL 1
REMARK minimizedAffinity -1.40314162
REMARK minimizedRMSD -1
REMARK  1 active torsions:
REMARK  status: ('A' for Active; 'I' for Inactive)
REMARK    1  A    between atoms: C1_2  and  C2_3 
ROOT
ATOM      1  C2  UNL d   1      -4.048   0.303  -5.854  0.00  0.00    -0.073 A 
ATOM      2  C3  UNL d   1      -5.372   0.748  -5.938  0.00  0.00    -0.002 A 
ATOM      3  C4  UNL d   1      -5.654   2.113  -6.000  0.00  0.00     0.004 A 
ATOM      4  C5  UNL d   1      -4.617   3.046  -5.985  0.00  0.00    -0.004 A 
ATOM      5  C6  UNL d   1      -3.286   2.620  -5.914  0.00  0.00    -0.075 A 
ATOM      6  C7  UNL d   1      -2.159   3.610  -5.895  0.00  0.00     0.076 C 
ATOM      7  C8  UNL d   1      -3.011   1.247  -5.850  0.00  0.00     0.001 A 
ENDROOT
BRANCH   1   8
ATOM      8  C1  UNL d   1      -3.738  -1.171  -5.794  0.00  0.00     0.053 C 
ATOM      9  C   UNL d   1      -5.000  -2.018  -5.781  0.00  0.00     0.018 C 
ENDBRANCH   1   8
TORSDOF 1
ENDMDL
