MODEL 1
REMARK minimizedAffinity 0.297969997
REMARK minimizedRMSD -1
REMARK  1 active torsions:
REMARK  status: ('A' for Active; 'I' for Inactive)
REMARK    1  A    between atoms: C1_2  and  C2_3 
ROOT
ATOM      1  C2  UNL d   1      -4.067  -0.382  -5.992  0.00  0.00    -0.073 A 
ATOM      2  C3  UNL d   1      -2.694  -0.651  -5.989  0.00  0.00    -0.002 A 
ATOM      3  C4  UNL d   1      -1.771   0.395  -5.996  0.00  0.00     0.004 A 
ATOM      4  C5  UNL d   1      -2.209   1.719  -6.000  0.00  0.00    -0.004 A 
ATOM      5  C6  UNL d   1      -3.578   2.008  -5.991  0.00  0.00    -0.075 A 
ATOM      6  C7  UNL d   1      -4.066   3.427  -5.997  0.00  0.00     0.076 C 
ATOM      7  C8  UNL d   1      -4.499   0.952  -5.986  0.00  0.00     0.001 A 
ENDROOT
BRANCH   1   8
ATOM      8  C1  UNL d   1      -5.068  -1.508  -5.977  0.00  0.00     0.053 C 
ATOM      9  C   UNL d   1      -4.661  -2.620  -5.023  0.00  0.00     0.018 C 
ENDBRANCH   1   8
TORSDOF 1
ENDMDL
