MODEL 1
REMARK minimizedAffinity 4.56859064
REMARK minimizedRMSD -1
REMARK  1 active torsions:
REMARK  status: ('A' for Active; 'I' for Inactive)
REMARK    1  A    between atoms: C1_2  and  C2_3 
ROOT
ATOM      1  C2  UNL d   1      -2.130   2.422  -5.988  0.00  0.00    -0.073 A 
ATOM      2  C3  UNL d   1      -1.906   3.803  -5.989  0.00  0.00    -0.002 A 
ATOM      3  C4  UNL d   1      -2.981   4.692  -5.998  0.00  0.00     0.004 A 
ATOM      4  C5  UNL d   1      -4.290   4.210  -5.999  0.00  0.00    -0.004 A 
ATOM      5  C6  UNL d   1      -4.535   2.833  -5.987  0.00  0.00    -0.075 A 
ATOM      6  C7  UNL d   1      -5.937   2.299  -5.990  0.00  0.00     0.076 C 
ATOM      7  C8  UNL d   1      -3.450   1.947  -5.981  0.00  0.00     0.001 A 
ENDROOT
BRANCH   1   8
ATOM      8  C1  UNL d   1      -0.972   1.458  -5.972  0.00  0.00     0.053 C 
ATOM      9  C   UNL d   1      -1.034   0.512  -4.784  0.00  0.00     0.018 C 
ENDBRANCH   1   8
TORSDOF 1
ENDMDL
