MODEL 1
REMARK minimizedAffinity -1.8977294
REMARK minimizedRMSD -1
REMARK  2 active torsions:
REMARK  status: ('A' for Active; 'I' for Inactive)
REMARK    1  A    between atoms: C1_2  and  C2_3 
REMARK    2  A    between atoms: C2_3  and  C3_4 
ROOT
ATOM      1  C3  UNL d   1      -0.027   2.162   0.909  0.00  0.00    -0.075 A 
ATOM      2  C4  UNL d   1      -0.262   1.719   2.219  0.00  0.00     0.002 A 
ATOM      3  C5  UNL d   1       0.094   0.426   2.603  0.00  0.00     0.002 A 
ATOM      4  C6  UNL d   1       0.679  -0.442   1.684  0.00  0.00    -0.004 A 
ATOM      5  C7  UNL d   1       0.902  -0.017   0.375  0.00  0.00     0.002 A 
ATOM      6  C8  UNL d   1       0.550   1.277  -0.011  0.00  0.00     0.002 A 
ENDROOT
BRANCH   1   7
ATOM      7  C2  UNL d   1      -0.384   3.570   0.495  0.00  0.00     0.056 C 
BRANCH   7   8
ATOM      8  C1  UNL d   1       0.332   4.047  -0.773  0.00  0.00     0.007 C 
ATOM      9  C   UNL d   1      -0.444   3.748  -2.049  0.00  0.00     0.009 C 
ENDBRANCH   7   8
ENDBRANCH   1   7
TORSDOF 2
ENDMDL
