MODEL 1
REMARK minimizedAffinity -4.71428299
REMARK minimizedRMSD -1
REMARK  2 active torsions:
REMARK  status: ('A' for Active; 'I' for Inactive)
REMARK    1  A    between atoms: C1_2  and  C2_3 
REMARK    2  A    between atoms: C2_3  and  C3_4 
ROOT
ATOM      1  C3  UNL d   1      -0.012  -0.178  -0.119  0.00  0.00    -0.075 A 
ATOM      2  C4  UNL d   1      -0.199   1.004  -0.850  0.00  0.00     0.002 A 
ATOM      3  C5  UNL d   1      -0.401   2.218  -0.194  0.00  0.00     0.002 A 
ATOM      4  C6  UNL d   1      -0.430   2.265   1.198  0.00  0.00    -0.004 A 
ATOM      5  C7  UNL d   1      -0.262   1.095   1.934  0.00  0.00     0.002 A 
ATOM      6  C8  UNL d   1      -0.055  -0.121   1.281  0.00  0.00     0.002 A 
ENDROOT
BRANCH   1   7
ATOM      7  C2  UNL d   1       0.237  -1.491  -0.822  0.00  0.00     0.056 C 
BRANCH   7   8
ATOM      8  C1  UNL d   1      -1.021  -2.347  -1.010  0.00  0.00     0.007 C 
ATOM      9  C   UNL d   1      -0.721  -3.834  -1.142  0.00  0.00     0.009 C 
ENDBRANCH   7   8
ENDBRANCH   1   7
TORSDOF 2
ENDMDL
