MODEL 1
REMARK minimizedAffinity -2.94137073
REMARK minimizedRMSD -1
REMARK  2 active torsions:
REMARK  status: ('A' for Active; 'I' for Inactive)
REMARK    1  A    between atoms: C1_2  and  C2_3 
REMARK    2  A    between atoms: C2_3  and  C3_4 
ROOT
ATOM      1  C3  UNL d   1       0.234  -2.024  -0.759  0.00  0.00    -0.075 A 
ATOM      2  C4  UNL d   1      -1.130  -2.348  -0.808  0.00  0.00     0.002 A 
ATOM      3  C5  UNL d   1      -1.538  -3.652  -1.090  0.00  0.00     0.002 A 
ATOM      4  C6  UNL d   1      -0.592  -4.644  -1.336  0.00  0.00    -0.004 A 
ATOM      5  C7  UNL d   1       0.765  -4.330  -1.307  0.00  0.00     0.002 A 
ATOM      6  C8  UNL d   1       1.177  -3.027  -1.021  0.00  0.00     0.002 A 
ENDROOT
BRANCH   1   7
ATOM      7  C2  UNL d   1       0.683  -0.621  -0.426  0.00  0.00     0.056 C 
BRANCH   7   8
ATOM      8  C1  UNL d   1      -0.310   0.163   0.438  0.00  0.00     0.007 C 
ATOM      9  C   UNL d   1       0.174   0.375   1.866  0.00  0.00     0.009 C 
ENDBRANCH   7   8
ENDBRANCH   1   7
TORSDOF 2
ENDMDL
