MODEL 1
REMARK minimizedAffinity -4.99158812
REMARK minimizedRMSD -1
REMARK  2 active torsions:
REMARK  status: ('A' for Active; 'I' for Inactive)
REMARK    1  A    between atoms: C1_2  and  C2_3 
REMARK    2  A    between atoms: C2_3  and  C3_4 
ROOT
ATOM      1  C3  UNL d   1       0.076  -0.514   0.082  0.00  0.00    -0.075 A 
ATOM      2  C4  UNL d   1       0.396  -0.538   1.447  0.00  0.00     0.002 A 
ATOM      3  C5  UNL d   1       0.075   0.543   2.270  0.00  0.00     0.002 A 
ATOM      4  C6  UNL d   1      -0.560   1.663   1.737  0.00  0.00    -0.004 A 
ATOM      5  C7  UNL d   1      -0.867   1.705   0.379  0.00  0.00     0.002 A 
ATOM      6  C8  UNL d   1      -0.551   0.623  -0.445  0.00  0.00     0.002 A 
ENDROOT
BRANCH   1   7
ATOM      7  C2  UNL d   1       0.394  -1.692  -0.807  0.00  0.00     0.056 C 
BRANCH   7   8
ATOM      8  C1  UNL d   1      -0.830  -2.526  -1.200  0.00  0.00     0.007 C 
ATOM      9  C   UNL d   1      -0.944  -3.829  -0.420  0.00  0.00     0.009 C 
ENDBRANCH   7   8
ENDBRANCH   1   7
TORSDOF 2
ENDMDL
