MODEL 1
REMARK minimizedAffinity -4.23514462
REMARK minimizedRMSD -1
REMARK  2 active torsions:
REMARK  status: ('A' for Active; 'I' for Inactive)
REMARK    1  A    between atoms: C1_2  and  C2_3 
REMARK    2  A    between atoms: C2_3  and  C3_4 
ROOT
ATOM      1  C3  UNL d   1       0.201   0.730   0.156  0.00  0.00    -0.075 A 
ATOM      2  C4  UNL d   1       0.066   1.505   1.317  0.00  0.00     0.002 A 
ATOM      3  C5  UNL d   1      -0.092   2.889   1.231  0.00  0.00     0.002 A 
ATOM      4  C6  UNL d   1      -0.106   3.515  -0.013  0.00  0.00    -0.004 A 
ATOM      5  C7  UNL d   1       0.045   2.757  -1.173  0.00  0.00     0.002 A 
ATOM      6  C8  UNL d   1       0.198   1.372  -1.090  0.00  0.00     0.002 A 
ENDROOT
BRANCH   1   7
ATOM      7  C2  UNL d   1       0.342  -0.771   0.241  0.00  0.00     0.056 C 
BRANCH   7   8
ATOM      8  C1  UNL d   1       0.766  -1.433  -1.074  0.00  0.00     0.007 C 
ATOM      9  C   UNL d   1       0.103  -2.784  -1.307  0.00  0.00     0.009 C 
ENDBRANCH   7   8
ENDBRANCH   1   7
TORSDOF 2
ENDMDL
