MODEL 1
REMARK minimizedAffinity -4.45144939
REMARK minimizedRMSD -1
REMARK  2 active torsions:
REMARK  status: ('A' for Active; 'I' for Inactive)
REMARK    1  A    between atoms: C1_2  and  C2_3 
REMARK    2  A    between atoms: C2_3  and  C3_4 
ROOT
ATOM      1  C3  UNL d   1       0.104   1.199  -0.386  0.00  0.00    -0.075 A 
ATOM      2  C4  UNL d   1       0.213   0.959   0.992  0.00  0.00     0.002 A 
ATOM      3  C5  UNL d   1       0.773  -0.229   1.462  0.00  0.00     0.002 A 
ATOM      4  C6  UNL d   1       1.221  -1.195   0.563  0.00  0.00    -0.004 A 
ATOM      5  C7  UNL d   1       1.102  -0.975  -0.808  0.00  0.00     0.002 A 
ATOM      6  C8  UNL d   1       0.546   0.215  -1.281  0.00  0.00     0.002 A 
ENDROOT
BRANCH   1   7
ATOM      7  C2  UNL d   1      -0.474   2.495  -0.901  0.00  0.00     0.056 C 
BRANCH   7   8
ATOM      8  C1  UNL d   1      -0.313   3.676   0.062  0.00  0.00     0.007 C 
ATOM      9  C   UNL d   1       0.623   4.756  -0.464  0.00  0.00     0.009 C 
ENDBRANCH   7   8
ENDBRANCH   1   7
TORSDOF 2
ENDMDL
