MODEL 1
REMARK minimizedAffinity -2.96132946
REMARK minimizedRMSD -1
REMARK  2 active torsions:
REMARK  status: ('A' for Active; 'I' for Inactive)
REMARK    1  A    between atoms: C1_2  and  C2_3 
REMARK    2  A    between atoms: C2_3  and  C3_4 
ROOT
ATOM      1  C3  UNL d   1      -0.491  -1.437  -0.399  0.00  0.00    -0.075 A 
ATOM      2  C4  UNL d   1       0.458  -0.423  -0.588  0.00  0.00     0.002 A 
ATOM      3  C5  UNL d   1       0.775   0.453   0.450  0.00  0.00     0.002 A 
ATOM      4  C6  UNL d   1       0.141   0.334   1.685  0.00  0.00    -0.004 A 
ATOM      5  C7  UNL d   1      -0.816  -0.660   1.879  0.00  0.00     0.002 A 
ATOM      6  C8  UNL d   1      -1.132  -1.541   0.843  0.00  0.00     0.002 A 
ENDROOT
BRANCH   1   7
ATOM      7  C2  UNL d   1      -0.817  -2.408  -1.509  0.00  0.00     0.056 C 
BRANCH   7   8
ATOM      8  C1  UNL d   1      -0.230  -3.809  -1.305  0.00  0.00     0.007 C 
ATOM      9  C   UNL d   1      -1.272  -4.842  -0.896  0.00  0.00     0.009 C 
ENDBRANCH   7   8
ENDBRANCH   1   7
TORSDOF 2
ENDMDL
