MODEL 1
REMARK minimizedAffinity 1.09503233
REMARK minimizedRMSD -1
REMARK  2 active torsions:
REMARK  status: ('A' for Active; 'I' for Inactive)
REMARK    1  A    between atoms: C1_2  and  C2_3 
REMARK    2  A    between atoms: C2_3  and  C3_4 
ROOT
ATOM      1  C3  UNL d   1       0.578   2.620   1.564  0.00  0.00    -0.075 A 
ATOM      2  C4  UNL d   1       1.065   3.729   0.858  0.00  0.00     0.002 A 
ATOM      3  C5  UNL d   1       2.024   4.567   1.429  0.00  0.00     0.002 A 
ATOM      4  C6  UNL d   1       2.498   4.314   2.714  0.00  0.00    -0.004 A 
ATOM      5  C7  UNL d   1       2.009   3.224   3.431  0.00  0.00     0.002 A 
ATOM      6  C8  UNL d   1       1.053   2.381   2.861  0.00  0.00     0.002 A 
ENDROOT
BRANCH   1   7
ATOM      7  C2  UNL d   1      -0.437   1.692   0.941  0.00  0.00     0.056 C 
BRANCH   7   8
ATOM      8  C1  UNL d   1       0.179   0.545   0.133  0.00  0.00     0.007 C 
ATOM      9  C   UNL d   1       0.733  -0.573   1.005  0.00  0.00     0.009 C 
ENDBRANCH   7   8
ENDBRANCH   1   7
TORSDOF 2
ENDMDL
