MODEL 1
REMARK minimizedAffinity -1.53076577
REMARK minimizedRMSD -1
REMARK  1 active torsions:
REMARK  status: ('A' for Active; 'I' for Inactive)
REMARK    1  A    between atoms: C1_2  and  C2_3 
ROOT
ATOM      1  C2  UNL d   1       6.000   2.398   4.144  0.00  0.00    -0.081 A 
ATOM      2  C3  UNL d   1       6.000   1.316   3.255  0.00  0.00     0.006 A 
ATOM      3  C4  UNL d   1       5.967   0.005   3.736  0.00  0.00     0.002 A 
ATOM      4  C5  UNL d   1       5.926  -0.246   5.112  0.00  0.00    -0.080 A 
ATOM      5  C6  UNL d   1       5.860  -1.648   5.640  0.00  0.00     0.076 C 
ATOM      6  C7  UNL d   1       5.943   0.835   6.000  0.00  0.00     0.002 A 
ATOM      7  C8  UNL d   1       5.976   2.146   5.520  0.00  0.00     0.006 A 
ENDROOT
BRANCH   1   8
ATOM      8  C1  UNL d   1       5.969   3.814   3.627  0.00  0.00     0.054 C 
ATOM      9  C   UNL d   1       5.886   4.817   4.768  0.00  0.00     0.018 C 
ENDBRANCH   1   8
TORSDOF 1
ENDMDL
