MODEL 1
REMARK minimizedAffinity -0.323688805
REMARK minimizedRMSD -1
REMARK  1 active torsions:
REMARK  status: ('A' for Active; 'I' for Inactive)
REMARK    1  A    between atoms: C1_2  and  C2_3 
ROOT
ATOM      1  C2  UNL d   1       5.988  -0.585   4.830  0.00  0.00    -0.081 A 
ATOM      2  C3  UNL d   1       5.995   0.322   5.897  0.00  0.00     0.006 A 
ATOM      3  C4  UNL d   1       6.000   1.698   5.655  0.00  0.00     0.002 A 
ATOM      4  C5  UNL d   1       5.989   2.189   4.346  0.00  0.00    -0.080 A 
ATOM      5  C6  UNL d   1       5.963   3.664   4.073  0.00  0.00     0.076 C 
ATOM      6  C7  UNL d   1       6.000   1.283   3.280  0.00  0.00     0.002 A 
ATOM      7  C8  UNL d   1       5.996  -0.093   3.521  0.00  0.00     0.006 A 
ENDROOT
BRANCH   1   8
ATOM      8  C1  UNL d   1       5.918  -2.069   5.087  0.00  0.00     0.054 C 
ATOM      9  C   UNL d   1       4.866  -2.733   4.211  0.00  0.00     0.018 C 
ENDBRANCH   1   8
TORSDOF 1
ENDMDL
