MODEL 1
REMARK minimizedAffinity 10.1131287
REMARK minimizedRMSD -1
REMARK  1 active torsions:
REMARK  status: ('A' for Active; 'I' for Inactive)
REMARK    1  A    between atoms: C1_2  and  C2_3 
ROOT
ATOM      1  C2  UNL d   1       4.609   2.897  -4.253  0.00  0.00    -0.081 A 
ATOM      2  C3  UNL d   1       4.305   2.174  -3.093  0.00  0.00     0.006 A 
ATOM      3  C4  UNL d   1       3.206   1.311  -3.064  0.00  0.00     0.002 A 
ATOM      4  C5  UNL d   1       2.399   1.152  -4.195  0.00  0.00    -0.080 A 
ATOM      5  C6  UNL d   1       1.235   0.206  -4.187  0.00  0.00     0.076 C 
ATOM      6  C7  UNL d   1       2.693   1.887  -5.349  0.00  0.00     0.002 A 
ATOM      7  C8  UNL d   1       3.791   2.750  -5.378  0.00  0.00     0.006 A 
ENDROOT
BRANCH   1   8
ATOM      8  C1  UNL d   1       5.831   3.778  -4.308  0.00  0.00     0.054 C 
ATOM      9  C   UNL d   1       5.462   5.213  -4.657  0.00  0.00     0.018 C 
ENDBRANCH   1   8
TORSDOF 1
ENDMDL
