MODEL 1
REMARK minimizedAffinity -2.74099398
REMARK minimizedRMSD -1
REMARK  1 active torsions:
REMARK  status: ('A' for Active; 'I' for Inactive)
REMARK    1  A    between atoms: C1_2  and  C2_3 
ROOT
ATOM      1  C2  UNL d   1       5.597   2.881   3.648  0.00  0.00    -0.081 A 
ATOM      2  C3  UNL d   1       5.967   2.927   4.997  0.00  0.00     0.006 A 
ATOM      3  C4  UNL d   1       6.000   1.759   5.763  0.00  0.00     0.002 A 
ATOM      4  C5  UNL d   1       5.671   0.526   5.191  0.00  0.00    -0.080 A 
ATOM      5  C6  UNL d   1       5.731  -0.740   5.994  0.00  0.00     0.076 C 
ATOM      6  C7  UNL d   1       5.285   0.482   3.847  0.00  0.00     0.002 A 
ATOM      7  C8  UNL d   1       5.251   1.649   3.081  0.00  0.00     0.006 A 
ENDROOT
BRANCH   1   8
ATOM      8  C1  UNL d   1       5.624   4.128   2.802  0.00  0.00     0.054 C 
ATOM      9  C   UNL d   1       6.000   5.349   3.630  0.00  0.00     0.018 C 
ENDBRANCH   1   8
TORSDOF 1
ENDMDL
