MODEL 1
REMARK minimizedAffinity -0.988195419
REMARK minimizedRMSD -1
REMARK  1 active torsions:
REMARK  status: ('A' for Active; 'I' for Inactive)
REMARK    1  A    between atoms: C1_2  and  C2_3 
ROOT
ATOM      1  C2  UNL d   1       5.420  -0.225   5.301  0.00  0.00    -0.081 A 
ATOM      2  C3  UNL d   1       6.000   0.886   5.925  0.00  0.00     0.006 A 
ATOM      3  C4  UNL d   1       5.981   2.137   5.304  0.00  0.00     0.002 A 
ATOM      4  C5  UNL d   1       5.376   2.300   4.053  0.00  0.00    -0.080 A 
ATOM      5  C6  UNL d   1       5.323   3.643   3.389  0.00  0.00     0.076 C 
ATOM      6  C7  UNL d   1       4.812   1.186   3.421  0.00  0.00     0.002 A 
ATOM      7  C8  UNL d   1       4.831  -0.065   4.042  0.00  0.00     0.006 A 
ENDROOT
BRANCH   1   8
ATOM      8  C1  UNL d   1       5.381  -1.562   5.997  0.00  0.00     0.054 C 
ATOM      9  C   UNL d   1       5.854  -2.678   5.077  0.00  0.00     0.018 C 
ENDBRANCH   1   8
TORSDOF 1
ENDMDL
