MODEL 1
REMARK minimizedAffinity -1.23468709
REMARK minimizedRMSD -1
REMARK  1 active torsions:
REMARK  status: ('A' for Active; 'I' for Inactive)
REMARK    1  A    between atoms: C1_2  and  C2_3 
ROOT
ATOM      1  C2  UNL d   1       5.101   2.473   3.890  0.00  0.00    -0.081 A 
ATOM      2  C3  UNL d   1       4.702   2.086   5.175  0.00  0.00     0.006 A 
ATOM      3  C4  UNL d   1       4.955   0.792   5.636  0.00  0.00     0.002 A 
ATOM      4  C5  UNL d   1       5.617  -0.134   4.822  0.00  0.00    -0.080 A 
ATOM      5  C6  UNL d   1       5.921  -1.518   5.315  0.00  0.00     0.076 C 
ATOM      6  C7  UNL d   1       6.000   0.247   3.532  0.00  0.00     0.002 A 
ATOM      7  C8  UNL d   1       5.747   1.541   3.071  0.00  0.00     0.006 A 
ENDROOT
BRANCH   1   8
ATOM      8  C1  UNL d   1       4.887   3.887   3.415  0.00  0.00     0.054 C 
ATOM      9  C   UNL d   1       5.964   4.820   3.951  0.00  0.00     0.018 C 
ENDBRANCH   1   8
TORSDOF 1
ENDMDL
