MODEL 1
REMARK minimizedAffinity -3.59649801
REMARK minimizedRMSD -1
REMARK  1 active torsions:
REMARK  status: ('A' for Active; 'I' for Inactive)
REMARK    1  A    between atoms: C1_2  and  C2_3 
ROOT
ATOM      1  C2  UNL d   1       5.335   3.177   3.944  0.00  0.00    -0.081 A 
ATOM      2  C3  UNL d   1       5.894   3.114   5.227  0.00  0.00     0.006 A 
ATOM      3  C4  UNL d   1       6.000   1.890   5.893  0.00  0.00     0.002 A 
ATOM      4  C5  UNL d   1       5.557   0.711   5.285  0.00  0.00    -0.080 A 
ATOM      5  C6  UNL d   1       5.693  -0.613   5.977  0.00  0.00     0.076 C 
ATOM      6  C7  UNL d   1       4.982   0.777   4.011  0.00  0.00     0.002 A 
ATOM      7  C8  UNL d   1       4.875   1.999   3.345  0.00  0.00     0.006 A 
ENDROOT
BRANCH   1   8
ATOM      8  C1  UNL d   1       5.278   4.486   3.197  0.00  0.00     0.054 C 
ATOM      9  C   UNL d   1       5.997   5.590   3.959  0.00  0.00     0.018 C 
ENDBRANCH   1   8
TORSDOF 1
ENDMDL
