MODEL 1
REMARK minimizedAffinity -3.08410692
REMARK minimizedRMSD -1
REMARK  1 active torsions:
REMARK  status: ('A' for Active; 'I' for Inactive)
REMARK    1  A    between atoms: C1_2  and  C2_3 
ROOT
ATOM      1  C2  UNL d   1       5.869   3.750   3.770  0.00  0.00    -0.081 A 
ATOM      2  C3  UNL d   1       5.699   3.235   5.061  0.00  0.00     0.006 A 
ATOM      3  C4  UNL d   1       5.671   1.855   5.276  0.00  0.00     0.002 A 
ATOM      4  C5  UNL d   1       5.820   0.967   4.205  0.00  0.00    -0.080 A 
ATOM      5  C6  UNL d   1       5.822  -0.516   4.426  0.00  0.00     0.076 C 
ATOM      6  C7  UNL d   1       5.972   1.481   2.913  0.00  0.00     0.002 A 
ATOM      7  C8  UNL d   1       6.000   2.861   2.698  0.00  0.00     0.006 A 
ENDROOT
BRANCH   1   8
ATOM      8  C1  UNL d   1       5.965   5.237   3.544  0.00  0.00     0.054 C 
ATOM      9  C   UNL d   1       5.999   5.996   4.863  0.00  0.00     0.018 C 
ENDBRANCH   1   8
TORSDOF 1
ENDMDL
