MODEL 1
REMARK minimizedAffinity -4.50462818
REMARK minimizedRMSD -1
REMARK  1 active torsions:
REMARK  status: ('A' for Active; 'I' for Inactive)
REMARK    1  A    between atoms: C1_2  and  C2_3 
ROOT
ATOM      1  C2  UNL d   1       5.651   3.761   3.449  0.00  0.00    -0.081 A 
ATOM      2  C3  UNL d   1       5.271   3.466   4.764  0.00  0.00     0.006 A 
ATOM      3  C4  UNL d   1       5.251   2.144   5.216  0.00  0.00     0.002 A 
ATOM      4  C5  UNL d   1       5.618   1.097   4.363  0.00  0.00    -0.080 A 
ATOM      5  C6  UNL d   1       5.631  -0.323   4.844  0.00  0.00     0.076 C 
ATOM      6  C7  UNL d   1       5.981   1.391   3.044  0.00  0.00     0.002 A 
ATOM      7  C8  UNL d   1       6.000   2.712   2.592  0.00  0.00     0.006 A 
ENDROOT
BRANCH   1   8
ATOM      8  C1  UNL d   1       5.735   5.191   2.979  0.00  0.00     0.054 C 
ATOM      9  C   UNL d   1       5.996   5.266   1.481  0.00  0.00     0.018 C 
ENDBRANCH   1   8
TORSDOF 1
ENDMDL
