MODEL 1
REMARK minimizedAffinity 2.172225
REMARK minimizedRMSD -1
REMARK  1 active torsions:
REMARK  status: ('A' for Active; 'I' for Inactive)
REMARK    1  A    between atoms: C1_2  and  C2_3 
ROOT
ATOM      1  C2  UNL d   1       5.941   1.908   3.629  0.00  0.00    -0.081 A 
ATOM      2  C3  UNL d   1       5.892   1.980   5.026  0.00  0.00     0.006 A 
ATOM      3  C4  UNL d   1       5.898   0.815   5.797  0.00  0.00     0.002 A 
ATOM      4  C5  UNL d   1       5.961  -0.441   5.184  0.00  0.00    -0.080 A 
ATOM      5  C6  UNL d   1       5.999  -1.699   6.000  0.00  0.00     0.076 C 
ATOM      6  C7  UNL d   1       5.993  -0.514   3.787  0.00  0.00     0.002 A 
ATOM      7  C8  UNL d   1       5.986   0.651   3.016  0.00  0.00     0.006 A 
ENDROOT
BRANCH   1   8
ATOM      8  C1  UNL d   1       6.000   3.164   2.798  0.00  0.00     0.054 C 
ATOM      9  C   UNL d   1       5.944   4.409   3.672  0.00  0.00     0.018 C 
ENDBRANCH   1   8
TORSDOF 1
ENDMDL
