MODEL 1
REMARK minimizedAffinity -1.01254904
REMARK minimizedRMSD -1
REMARK  1 active torsions:
REMARK  status: ('A' for Active; 'I' for Inactive)
REMARK    1  A    between atoms: C1_2  and  C2_3 
ROOT
ATOM      1  C2  UNL d   1       5.926   2.614   4.196  0.00  0.00    -0.081 A 
ATOM      2  C3  UNL d   1       5.930   2.314   5.563  0.00  0.00     0.006 A 
ATOM      3  C4  UNL d   1       5.933   0.986   5.997  0.00  0.00     0.002 A 
ATOM      4  C5  UNL d   1       5.941  -0.063   5.071  0.00  0.00    -0.080 A 
ATOM      5  C6  UNL d   1       5.975  -1.493   5.523  0.00  0.00     0.076 C 
ATOM      6  C7  UNL d   1       5.919   0.237   3.704  0.00  0.00     0.002 A 
ATOM      7  C8  UNL d   1       5.915   1.564   3.271  0.00  0.00     0.006 A 
ENDROOT
BRANCH   1   8
ATOM      8  C1  UNL d   1       5.988   4.045   3.725  0.00  0.00     0.054 C 
ATOM      9  C   UNL d   1       5.528   5.005   4.813  0.00  0.00     0.018 C 
ENDBRANCH   1   8
TORSDOF 1
ENDMDL
