MODEL 1
REMARK minimizedAffinity -1.79198754
REMARK minimizedRMSD -1
REMARK  1 active torsions:
REMARK  status: ('A' for Active; 'I' for Inactive)
REMARK    1  A    between atoms: C1_2  and  C2_3 
ROOT
ATOM      1  C2  UNL d   1       5.725   1.865   3.987  0.00  0.00    -0.081 A 
ATOM      2  C3  UNL d   1       5.570   2.157   2.627  0.00  0.00     0.006 A 
ATOM      3  C4  UNL d   1       5.632   3.478   2.175  0.00  0.00     0.002 A 
ATOM      4  C5  UNL d   1       5.858   4.526   3.073  0.00  0.00    -0.080 A 
ATOM      5  C6  UNL d   1       5.957   5.945   2.597  0.00  0.00     0.076 C 
ATOM      6  C7  UNL d   1       5.994   4.235   4.435  0.00  0.00     0.002 A 
ATOM      7  C8  UNL d   1       5.932   2.916   4.888  0.00  0.00     0.006 A 
ENDROOT
BRANCH   1   8
ATOM      8  C1  UNL d   1       5.723   0.437   4.469  0.00  0.00     0.054 C 
ATOM      9  C   UNL d   1       5.911   0.361   5.977  0.00  0.00     0.018 C 
ENDBRANCH   1   8
TORSDOF 1
ENDMDL
