MODEL 1
REMARK minimizedAffinity -3.66395736
REMARK minimizedRMSD -1
REMARK  1 active torsions:
REMARK  status: ('A' for Active; 'I' for Inactive)
REMARK    1  A    between atoms: C1_2  and  C2_3 
ROOT
ATOM      1  C2  UNL d   1       5.023   4.419   2.848  0.00  0.00    -0.081 A 
ATOM      2  C3  UNL d   1       4.044   4.004   3.760  0.00  0.00     0.006 A 
ATOM      3  C4  UNL d   1       4.047   2.698   4.256  0.00  0.00     0.002 A 
ATOM      4  C5  UNL d   1       5.032   1.789   3.856  0.00  0.00    -0.080 A 
ATOM      5  C6  UNL d   1       5.064   0.393   4.404  0.00  0.00     0.076 C 
ATOM      6  C7  UNL d   1       5.999   2.198   2.932  0.00  0.00     0.002 A 
ATOM      7  C8  UNL d   1       5.996   3.504   2.434  0.00  0.00     0.006 A 
ENDROOT
BRANCH   1   8
ATOM      8  C1  UNL d   1       5.061   5.845   2.361  0.00  0.00     0.054 C 
ATOM      9  C   UNL d   1       5.980   5.994   1.157  0.00  0.00     0.018 C 
ENDBRANCH   1   8
TORSDOF 1
ENDMDL
