MODEL 1
REMARK minimizedAffinity -5.12774754
REMARK minimizedRMSD -1
REMARK  1 active torsions:
REMARK  status: ('A' for Active; 'I' for Inactive)
REMARK    1  A    between atoms: C1_2  and  C2_3 
ROOT
ATOM      1  C2  UNL d   1      -0.546   0.263   0.112  0.00  0.00    -0.081 A 
ATOM      2  C3  UNL d   1       0.612  -0.432  -0.257  0.00  0.00     0.006 A 
ATOM      3  C4  UNL d   1       1.094  -1.476   0.536  0.00  0.00     0.002 A 
ATOM      4  C5  UNL d   1       0.422  -1.848   1.706  0.00  0.00    -0.080 A 
ATOM      5  C6  UNL d   1       0.912  -2.986   2.550  0.00  0.00     0.076 C 
ATOM      6  C7  UNL d   1      -0.725  -1.142   2.084  0.00  0.00     0.002 A 
ATOM      7  C8  UNL d   1      -1.207  -0.097   1.292  0.00  0.00     0.006 A 
ENDROOT
BRANCH   1   8
ATOM      8  C1  UNL d   1      -1.105   1.347  -0.774  0.00  0.00     0.054 C 
ATOM      9  C   UNL d   1      -2.197   0.807  -1.687  0.00  0.00     0.018 C 
ENDBRANCH   1   8
TORSDOF 1
ENDMDL
