MODEL 1
REMARK minimizedAffinity -5.17423487
REMARK minimizedRMSD -1
REMARK  1 active torsions:
REMARK  status: ('A' for Active; 'I' for Inactive)
REMARK    1  A    between atoms: C1_2  and  C2_3 
ROOT
ATOM      1  C2  UNL d   1      -0.126   0.408  -0.229  0.00  0.00    -0.081 A 
ATOM      2  C3  UNL d   1       1.185   0.078  -0.595  0.00  0.00     0.006 A 
ATOM      3  C4  UNL d   1       1.821  -1.028  -0.027  0.00  0.00     0.002 A 
ATOM      4  C5  UNL d   1       1.155  -1.827   0.909  0.00  0.00    -0.080 A 
ATOM      5  C6  UNL d   1       1.816  -3.034   1.504  0.00  0.00     0.076 C 
ATOM      6  C7  UNL d   1      -0.148  -1.487   1.287  0.00  0.00     0.002 A 
ATOM      7  C8  UNL d   1      -0.785  -0.381   0.720  0.00  0.00     0.006 A 
ENDROOT
BRANCH   1   8
ATOM      8  C1  UNL d   1      -0.838   1.562  -0.888  0.00  0.00     0.054 C 
ATOM      9  C   UNL d   1      -1.569   1.116  -2.146  0.00  0.00     0.018 C 
ENDBRANCH   1   8
TORSDOF 1
ENDMDL
