MODEL 1
REMARK minimizedAffinity -4.07378817
REMARK minimizedRMSD -1
REMARK  1 active torsions:
REMARK  status: ('A' for Active; 'I' for Inactive)
REMARK    1  A    between atoms: C1_2  and  C2_3 
ROOT
ATOM      1  C2  UNL d   1      -0.215   0.383  -0.155  0.00  0.00    -0.081 A 
ATOM      2  C3  UNL d   1       1.148   0.184  -0.408  0.00  0.00     0.006 A 
ATOM      3  C4  UNL d   1       1.804  -0.943   0.094  0.00  0.00     0.002 A 
ATOM      4  C5  UNL d   1       1.108  -1.892   0.849  0.00  0.00    -0.080 A 
ATOM      5  C6  UNL d   1       1.793  -3.122   1.368  0.00  0.00     0.076 C 
ATOM      6  C7  UNL d   1      -0.249  -1.685   1.117  0.00  0.00     0.002 A 
ATOM      7  C8  UNL d   1      -0.906  -0.558   0.617  0.00  0.00     0.006 A 
ENDROOT
BRANCH   1   8
ATOM      8  C1  UNL d   1      -0.940   1.563  -0.748  0.00  0.00     0.054 C 
ATOM      9  C   UNL d   1      -1.507   1.231  -2.121  0.00  0.00     0.018 C 
ENDBRANCH   1   8
TORSDOF 1
ENDMDL
