MODEL 1
REMARK minimizedAffinity -4.00484896
REMARK minimizedRMSD -1
REMARK  1 active torsions:
REMARK  status: ('A' for Active; 'I' for Inactive)
REMARK    1  A    between atoms: C1_2  and  C2_3 
ROOT
ATOM      1  C2  UNL d   1       0.042   0.389   0.101  0.00  0.00    -0.081 A 
ATOM      2  C3  UNL d   1       1.318  -0.068  -0.250  0.00  0.00     0.006 A 
ATOM      3  C4  UNL d   1       1.784  -1.298   0.221  0.00  0.00     0.002 A 
ATOM      4  C5  UNL d   1       0.979  -2.094   1.044  0.00  0.00    -0.080 A 
ATOM      5  C6  UNL d   1       1.455  -3.430   1.532  0.00  0.00     0.076 C 
ATOM      6  C7  UNL d   1      -0.288  -1.629   1.409  0.00  0.00     0.002 A 
ATOM      7  C8  UNL d   1      -0.754  -0.399   0.939  0.00  0.00     0.006 A 
ENDROOT
BRANCH   1   8
ATOM      8  C1  UNL d   1      -0.488   1.685  -0.457  0.00  0.00     0.054 C 
ATOM      9  C   UNL d   1      -1.374   1.443  -1.671  0.00  0.00     0.018 C 
ENDBRANCH   1   8
TORSDOF 1
ENDMDL
