MODEL 1
REMARK minimizedAffinity -5.10501909
REMARK minimizedRMSD -1
REMARK  1 active torsions:
REMARK  status: ('A' for Active; 'I' for Inactive)
REMARK    1  A    between atoms: C1_2  and  C2_3 
ROOT
ATOM      1  C2  UNL d   1       0.027  -0.312   0.225  0.00  0.00    -0.081 A 
ATOM      2  C3  UNL d   1       1.152  -1.144   0.158  0.00  0.00     0.006 A 
ATOM      3  C4  UNL d   1       1.402  -2.078   1.166  0.00  0.00     0.002 A 
ATOM      4  C5  UNL d   1       0.528  -2.202   2.252  0.00  0.00    -0.080 A 
ATOM      5  C6  UNL d   1       0.769  -3.222   3.325  0.00  0.00     0.076 C 
ATOM      6  C7  UNL d   1      -0.586  -1.360   2.327  0.00  0.00     0.002 A 
ATOM      7  C8  UNL d   1      -0.836  -0.425   1.320  0.00  0.00     0.006 A 
ENDROOT
BRANCH   1   8
ATOM      8  C1  UNL d   1      -0.280   0.651  -0.893  0.00  0.00     0.054 C 
ATOM      9  C   UNL d   1      -1.638   1.311  -0.697  0.00  0.00     0.018 C 
ENDBRANCH   1   8
TORSDOF 1
ENDMDL
