MODEL 1
REMARK minimizedAffinity -3.17573285
REMARK minimizedRMSD -1
REMARK  1 active torsions:
REMARK  status: ('A' for Active; 'I' for Inactive)
REMARK    1  A    between atoms: C1_2  and  C2_3 
ROOT
ATOM      1  C2  UNL d   1      -0.132   0.672  -0.014  0.00  0.00    -0.081 A 
ATOM      2  C3  UNL d   1       1.134   0.260  -0.449  0.00  0.00     0.006 A 
ATOM      3  C4  UNL d   1       1.681  -0.943   0.003  0.00  0.00     0.002 A 
ATOM      4  C5  UNL d   1       0.969  -1.758   0.889  0.00  0.00    -0.080 A 
ATOM      5  C6  UNL d   1       1.533  -3.067   1.358  0.00  0.00     0.076 C 
ATOM      6  C7  UNL d   1      -0.288  -1.339   1.337  0.00  0.00     0.002 A 
ATOM      7  C8  UNL d   1      -0.835  -0.135   0.887  0.00  0.00     0.006 A 
ENDROOT
BRANCH   1   8
ATOM      8  C1  UNL d   1      -0.753   1.937  -0.549  0.00  0.00     0.054 C 
ATOM      9  C   UNL d   1      -1.446   1.693  -1.882  0.00  0.00     0.018 C 
ENDBRANCH   1   8
TORSDOF 1
ENDMDL
