MODEL 1
REMARK minimizedAffinity -3.2143507
REMARK minimizedRMSD -1
REMARK  1 active torsions:
REMARK  status: ('A' for Active; 'I' for Inactive)
REMARK    1  A    between atoms: C1_2  and  C2_3 
ROOT
ATOM      1  C2  UNL d   1       1.152  -0.560  -0.585  0.00  0.00    -0.081 A 
ATOM      2  C3  UNL d   1       0.545   0.592  -0.071  0.00  0.00     0.006 A 
ATOM      3  C4  UNL d   1      -0.570   1.147  -0.703  0.00  0.00     0.002 A 
ATOM      4  C5  UNL d   1      -1.101   0.556  -1.854  0.00  0.00    -0.080 A 
ATOM      5  C6  UNL d   1      -2.316   1.124  -2.524  0.00  0.00     0.076 C 
ATOM      6  C7  UNL d   1      -0.485  -0.585  -2.378  0.00  0.00     0.002 A 
ATOM      7  C8  UNL d   1       0.631  -1.140  -1.747  0.00  0.00     0.006 A 
ENDROOT
BRANCH   1   8
ATOM      8  C1  UNL d   1       2.315  -1.198   0.130  0.00  0.00     0.054 C 
ATOM      9  C   UNL d   1       1.880  -1.819   1.450  0.00  0.00     0.018 C 
ENDBRANCH   1   8
TORSDOF 1
ENDMDL
