MODEL 1
REMARK minimizedAffinity -1.51130378
REMARK minimizedRMSD -1
REMARK  1 active torsions:
REMARK  status: ('A' for Active; 'I' for Inactive)
REMARK    1  A    between atoms: C1_2  and  C2_3 
ROOT
ATOM      1  C2  UNL d   1      -0.548   1.047  -0.712  0.00  0.00    -0.081 A 
ATOM      2  C3  UNL d   1       0.807   0.729  -0.864  0.00  0.00     0.006 A 
ATOM      3  C4  UNL d   1       1.371  -0.331  -0.151  0.00  0.00     0.002 A 
ATOM      4  C5  UNL d   1       0.588  -1.096   0.720  0.00  0.00    -0.080 A 
ATOM      5  C6  UNL d   1       1.173  -2.256   1.469  0.00  0.00     0.076 C 
ATOM      6  C7  UNL d   1      -0.762  -0.768   0.886  0.00  0.00     0.002 A 
ATOM      7  C8  UNL d   1      -1.326   0.293   0.173  0.00  0.00     0.006 A 
ENDROOT
BRANCH   1   8
ATOM      8  C1  UNL d   1      -1.173   2.149  -1.528  0.00  0.00     0.054 C 
ATOM      9  C   UNL d   1      -2.364   1.638  -2.327  0.00  0.00     0.018 C 
ENDBRANCH   1   8
TORSDOF 1
ENDMDL
