MODEL 1
REMARK minimizedAffinity -3.29043007
REMARK minimizedRMSD -1
REMARK  1 active torsions:
REMARK  status: ('A' for Active; 'I' for Inactive)
REMARK    1  A    between atoms: C1_2  and  C2_3 
ROOT
ATOM      1  C2  UNL d   1      -0.288  -0.136  -0.101  0.00  0.00    -0.081 A 
ATOM      2  C3  UNL d   1       1.067  -0.418  -0.315  0.00  0.00     0.006 A 
ATOM      3  C4  UNL d   1       1.680  -1.487   0.344  0.00  0.00     0.002 A 
ATOM      4  C5  UNL d   1       0.948  -2.295   1.221  0.00  0.00    -0.080 A 
ATOM      5  C6  UNL d   1       1.587  -3.463   1.911  0.00  0.00     0.076 C 
ATOM      6  C7  UNL d   1      -0.401  -2.002   1.448  0.00  0.00     0.002 A 
ATOM      7  C8  UNL d   1      -1.015  -0.934   0.790  0.00  0.00     0.006 A 
ENDROOT
BRANCH   1   8
ATOM      8  C1  UNL d   1      -0.968   0.975  -0.859  0.00  0.00     0.054 C 
ATOM      9  C   UNL d   1      -1.788   0.432  -2.020  0.00  0.00     0.018 C 
ENDBRANCH   1   8
TORSDOF 1
ENDMDL
