MODEL 1
REMARK minimizedAffinity -0.389751852
REMARK minimizedRMSD -1
REMARK  1 active torsions:
REMARK  status: ('A' for Active; 'I' for Inactive)
REMARK    1  A    between atoms: C1_2  and  C2_3 
ROOT
ATOM      1  C2  UNL d   1      -0.086  -1.502   0.531  0.00  0.00    -0.081 A 
ATOM      2  C3  UNL d   1       0.506  -0.612  -0.373  0.00  0.00     0.006 A 
ATOM      3  C4  UNL d   1       0.273   0.761  -0.271  0.00  0.00     0.002 A 
ATOM      4  C5  UNL d   1      -0.549   1.268   0.742  0.00  0.00    -0.080 A 
ATOM      5  C6  UNL d   1      -0.783   2.743   0.882  0.00  0.00     0.076 C 
ATOM      6  C7  UNL d   1      -1.155   0.377   1.635  0.00  0.00     0.002 A 
ATOM      7  C8  UNL d   1      -0.922  -0.996   1.532  0.00  0.00     0.006 A 
ENDROOT
BRANCH   1   8
ATOM      8  C1  UNL d   1       0.215  -2.978   0.462  0.00  0.00     0.054 C 
ATOM      9  C   UNL d   1       1.431  -3.334   1.305  0.00  0.00     0.018 C 
ENDBRANCH   1   8
TORSDOF 1
ENDMDL
