MODEL 1
REMARK minimizedAffinity -4.72936916
REMARK minimizedRMSD -1
REMARK  1 active torsions:
REMARK  status: ('A' for Active; 'I' for Inactive)
REMARK    1  A    between atoms: C1_2  and  C2_3 
ROOT
ATOM      1  C2  UNL d   1      -0.421   0.936  -0.419  0.00  0.00    -0.081 A 
ATOM      2  C3  UNL d   1       0.913   0.701  -0.772  0.00  0.00     0.006 A 
ATOM      3  C4  UNL d   1       1.595  -0.408  -0.263  0.00  0.00     0.002 A 
ATOM      4  C5  UNL d   1       0.951  -1.303   0.599  0.00  0.00    -0.080 A 
ATOM      5  C6  UNL d   1       1.662  -2.513   1.127  0.00  0.00     0.076 C 
ATOM      6  C7  UNL d   1      -0.377  -1.058   0.965  0.00  0.00     0.002 A 
ATOM      7  C8  UNL d   1      -1.058   0.051   0.457  0.00  0.00     0.006 A 
ENDROOT
BRANCH   1   8
ATOM      8  C1  UNL d   1      -1.179   2.095  -1.017  0.00  0.00     0.054 C 
ATOM      9  C   UNL d   1      -2.054   1.644  -2.177  0.00  0.00     0.018 C 
ENDBRANCH   1   8
TORSDOF 1
ENDMDL
