MODEL 1
REMARK minimizedAffinity -5.59731388
REMARK minimizedRMSD -1
REMARK  1 active torsions:
REMARK  status: ('A' for Active; 'I' for Inactive)
REMARK    1  A    between atoms: C1_2  and  C2_3 
ROOT
ATOM      1  C2  UNL d   1      -0.343   0.286  -0.125  0.00  0.00    -0.081 A 
ATOM      2  C3  UNL d   1      -1.135  -0.830   0.171  0.00  0.00     0.006 A 
ATOM      3  C4  UNL d   1      -0.543  -2.055   0.488  0.00  0.00     0.002 A 
ATOM      4  C5  UNL d   1       0.849  -2.182   0.523  0.00  0.00    -0.080 A 
ATOM      5  C6  UNL d   1       1.498  -3.484   0.891  0.00  0.00     0.076 C 
ATOM      6  C7  UNL d   1       1.641  -1.072   0.211  0.00  0.00     0.002 A 
ATOM      7  C8  UNL d   1       1.050   0.153  -0.107  0.00  0.00     0.006 A 
ENDROOT
BRANCH   1   8
ATOM      8  C1  UNL d   1      -0.977   1.624  -0.404  0.00  0.00     0.054 C 
ATOM      9  C   UNL d   1      -2.059   1.513  -1.469  0.00  0.00     0.018 C 
ENDBRANCH   1   8
TORSDOF 1
ENDMDL
