MODEL 1
REMARK minimizedAffinity -5.17436409
REMARK minimizedRMSD -1
REMARK  1 active torsions:
REMARK  status: ('A' for Active; 'I' for Inactive)
REMARK    1  A    between atoms: C1_2  and  C2_3 
ROOT
ATOM      1  C2  UNL d   1       0.394   0.454  -0.138  0.00  0.00    -0.081 A 
ATOM      2  C3  UNL d   1       1.740   0.072  -0.101  0.00  0.00     0.006 A 
ATOM      3  C4  UNL d   1       2.127  -1.099   0.555  0.00  0.00     0.002 A 
ATOM      4  C5  UNL d   1       1.173  -1.912   1.177  0.00  0.00    -0.080 A 
ATOM      5  C6  UNL d   1       1.571  -3.188   1.858  0.00  0.00     0.076 C 
ATOM      6  C7  UNL d   1      -0.170  -1.522   1.155  0.00  0.00     0.002 A 
ATOM      7  C8  UNL d   1      -0.557  -0.350   0.500  0.00  0.00     0.006 A 
ENDROOT
BRANCH   1   8
ATOM      8  C1  UNL d   1      -0.034   1.682  -0.899  0.00  0.00     0.054 C 
ATOM      9  C   UNL d   1      -1.437   1.520  -1.468  0.00  0.00     0.018 C 
ENDBRANCH   1   8
TORSDOF 1
ENDMDL
