MODEL 1
REMARK minimizedAffinity -4.01504374
REMARK minimizedRMSD -1
REMARK  1 active torsions:
REMARK  status: ('A' for Active; 'I' for Inactive)
REMARK    1  A    between atoms: C1_2  and  C2_3 
ROOT
ATOM      1  C2  UNL d   1      -0.299   0.808  -0.375  0.00  0.00    -0.081 A 
ATOM      2  C3  UNL d   1       1.046   0.525  -0.647  0.00  0.00     0.006 A 
ATOM      3  C4  UNL d   1       1.657  -0.604  -0.098  0.00  0.00     0.002 A 
ATOM      4  C5  UNL d   1       0.934  -1.473   0.725  0.00  0.00    -0.080 A 
ATOM      5  C6  UNL d   1       1.570  -2.705   1.297  0.00  0.00     0.076 C 
ATOM      6  C7  UNL d   1      -0.404  -1.182   1.012  0.00  0.00     0.002 A 
ATOM      7  C8  UNL d   1      -1.016  -0.052   0.463  0.00  0.00     0.006 A 
ENDROOT
BRANCH   1   8
ATOM      8  C1  UNL d   1      -0.979   1.989  -1.018  0.00  0.00     0.054 C 
ATOM      9  C   UNL d   1      -2.012   1.543  -2.043  0.00  0.00     0.018 C 
ENDBRANCH   1   8
TORSDOF 1
ENDMDL
