MODEL 1
REMARK minimizedAffinity -5.30933094
REMARK minimizedRMSD -1
REMARK  1 active torsions:
REMARK  status: ('A' for Active; 'I' for Inactive)
REMARK    1  A    between atoms: C1_2  and  C2_3 
ROOT
ATOM      1  C2  UNL d   1       0.998  -0.512   0.246  0.00  0.00    -0.081 A 
ATOM      2  C3  UNL d   1      -0.194   0.052   0.717  0.00  0.00     0.006 A 
ATOM      3  C4  UNL d   1      -0.983   0.843  -0.122  0.00  0.00     0.002 A 
ATOM      4  C5  UNL d   1      -0.598   1.077  -1.446  0.00  0.00    -0.080 A 
ATOM      5  C6  UNL d   1      -1.451   1.899  -2.366  0.00  0.00     0.076 C 
ATOM      6  C7  UNL d   1       0.602   0.527  -1.911  0.00  0.00     0.002 A 
ATOM      7  C8  UNL d   1       1.391  -0.263  -1.073  0.00  0.00     0.006 A 
ENDROOT
BRANCH   1   8
ATOM      8  C1  UNL d   1       1.817  -1.419   1.129  0.00  0.00     0.054 C 
ATOM      9  C   UNL d   1       1.330  -2.858   1.048  0.00  0.00     0.018 C 
ENDBRANCH   1   8
TORSDOF 1
ENDMDL
