MODEL 1
REMARK minimizedAffinity -2.30892134
REMARK minimizedRMSD -1
REMARK  1 active torsions:
REMARK  status: ('A' for Active; 'I' for Inactive)
REMARK    1  A    between atoms: C1_2  and  C2_3 
ROOT
ATOM      1  C2  UNL d   1      -0.104   0.605  -0.297  0.00  0.00    -0.081 A 
ATOM      2  C3  UNL d   1      -0.803  -0.224   0.589  0.00  0.00     0.006 A 
ATOM      3  C4  UNL d   1      -0.182  -1.343   1.150  0.00  0.00     0.002 A 
ATOM      4  C5  UNL d   1       1.149  -1.645   0.842  0.00  0.00    -0.080 A 
ATOM      5  C6  UNL d   1       1.836  -2.826   1.462  0.00  0.00     0.076 C 
ATOM      6  C7  UNL d   1       1.841  -0.827  -0.057  0.00  0.00     0.002 A 
ATOM      7  C8  UNL d   1       1.221   0.291  -0.619  0.00  0.00     0.006 A 
ENDROOT
BRANCH   1   8
ATOM      8  C1  UNL d   1      -0.750   1.848  -0.854  0.00  0.00     0.054 C 
ATOM      9  C   UNL d   1      -1.464   1.560  -2.167  0.00  0.00     0.018 C 
ENDBRANCH   1   8
TORSDOF 1
ENDMDL
