MODEL 1
REMARK minimizedAffinity -3.74075842
REMARK minimizedRMSD -1
REMARK  1 active torsions:
REMARK  status: ('A' for Active; 'I' for Inactive)
REMARK    1  A    between atoms: C1_2  and  C2_3 
ROOT
ATOM      1  C2  UNL d   1      -0.132   0.786  -0.196  0.00  0.00    -0.081 A 
ATOM      2  C3  UNL d   1       1.184   0.439  -0.523  0.00  0.00     0.006 A 
ATOM      3  C4  UNL d   1       1.732  -0.765  -0.074  0.00  0.00     0.002 A 
ATOM      4  C5  UNL d   1       0.970  -1.646   0.702  0.00  0.00    -0.080 A 
ATOM      5  C6  UNL d   1       1.536  -2.955   1.164  0.00  0.00     0.076 C 
ATOM      6  C7  UNL d   1      -0.340  -1.292   1.043  0.00  0.00     0.002 A 
ATOM      7  C8  UNL d   1      -0.887  -0.087   0.595  0.00  0.00     0.006 A 
ENDROOT
BRANCH   1   8
ATOM      8  C1  UNL d   1      -0.747   2.053  -0.733  0.00  0.00     0.054 C 
ATOM      9  C   UNL d   1      -1.367   1.830  -2.104  0.00  0.00     0.018 C 
ENDBRANCH   1   8
TORSDOF 1
ENDMDL
