MODEL 1
REMARK minimizedAffinity 19.6536255
REMARK minimizedRMSD -1
REMARK  0 active torsions:
REMARK  status: ('A' for Active; 'I' for Inactive)
ROOT
ATOM      1  C   UNL d   1      -5.316   5.523   5.555  0.00  0.00    -0.002 A 
ATOM      2  C1  UNL d   1      -4.025   5.953   5.287  0.00  0.00     0.010 A 
ATOM      3  C2  UNL d   1      -3.389   5.596   4.096  0.00  0.00     0.041 A 
ATOM      4  C3  UNL d   1      -4.081   4.792   3.169  0.00  0.00    -0.075 A 
ATOM      5  S   UNL d   1      -3.503   4.231   1.645  0.00  0.00     0.015 SA
ATOM      6  C4  UNL d   1      -4.958   3.408   1.312  0.00  0.00     0.022 A 
ATOM      7  C5  UNL d   1      -5.873   3.547   2.329  0.00  0.00     0.026 A 
ATOM      8  C6  UNL d   1      -5.383   4.347   3.416  0.00  0.00    -0.082 A 
ATOM      9  C7  UNL d   1      -6.000   4.726   4.632  0.00  0.00     0.045 A 
ENDROOT
TORSDOF 0
ENDMDL
