MODEL 1
REMARK minimizedAffinity 16.039175
REMARK minimizedRMSD -1
REMARK  0 active torsions:
REMARK  status: ('A' for Active; 'I' for Inactive)
ROOT
ATOM      1  C   UNL d   1       5.954   2.032  -0.064  0.00  0.00    -0.002 A 
ATOM      2  C1  UNL d   1       5.052   2.945   0.463  0.00  0.00     0.010 A 
ATOM      3  C2  UNL d   1       3.727   2.578   0.702  0.00  0.00     0.041 A 
ATOM      4  C3  UNL d   1       3.319   1.263   0.402  0.00  0.00    -0.075 A 
ATOM      5  S   UNL d   1       1.747   0.589   0.613  0.00  0.00     0.015 SA
ATOM      6  C4  UNL d   1       2.235  -0.928   0.009  0.00  0.00     0.022 A 
ATOM      7  C5  UNL d   1       3.562  -0.938  -0.350  0.00  0.00     0.026 A 
ATOM      8  C6  UNL d   1       4.209   0.325  -0.129  0.00  0.00    -0.082 A 
ATOM      9  C7  UNL d   1       5.546   0.728  -0.361  0.00  0.00     0.045 A 
ENDROOT
TORSDOF 0
ENDMDL
