MODEL 1
REMARK minimizedAffinity 10.9854116
REMARK minimizedRMSD -1
REMARK  0 active torsions:
REMARK  status: ('A' for Active; 'I' for Inactive)
ROOT
ATOM      1  C   UNL d   1       3.234  -3.079  -1.708  0.00  0.00    -0.002 A 
ATOM      2  C1  UNL d   1       2.255  -2.982  -0.730  0.00  0.00     0.010 A 
ATOM      3  C2  UNL d   1       2.109  -1.811   0.016  0.00  0.00     0.041 A 
ATOM      4  C3  UNL d   1       2.970  -0.726  -0.243  0.00  0.00    -0.075 A 
ATOM      5  S   UNL d   1       2.975   0.808   0.543  0.00  0.00     0.015 SA
ATOM      6  C4  UNL d   1       4.277   1.372  -0.402  0.00  0.00     0.022 A 
ATOM      7  C5  UNL d   1       4.709   0.426  -1.301  0.00  0.00     0.026 A 
ATOM      8  C6  UNL d   1       3.963  -0.799  -1.225  0.00  0.00    -0.082 A 
ATOM      9  C7  UNL d   1       4.087  -2.001  -1.962  0.00  0.00     0.045 A 
ENDROOT
TORSDOF 0
ENDMDL
