MODEL 1
REMARK minimizedAffinity 22.0304279
REMARK minimizedRMSD -1
REMARK  0 active torsions:
REMARK  status: ('A' for Active; 'I' for Inactive)
ROOT
ATOM      1  C   UNL d   1      -5.932   3.814   5.856  0.00  0.00    -0.002 A 
ATOM      2  C1  UNL d   1      -5.995   5.200   5.900  0.00  0.00     0.010 A 
ATOM      3  C2  UNL d   1      -5.971   5.950   4.722  0.00  0.00     0.041 A 
ATOM      4  C3  UNL d   1      -5.884   5.277   3.487  0.00  0.00    -0.075 A 
ATOM      5  S   UNL d   1      -5.841   5.988   1.917  0.00  0.00     0.015 SA
ATOM      6  C4  UNL d   1      -5.740   4.468   1.151  0.00  0.00     0.022 A 
ATOM      7  C5  UNL d   1      -5.738   3.434   2.056  0.00  0.00     0.026 A 
ATOM      8  C6  UNL d   1      -5.821   3.882   3.417  0.00  0.00    -0.082 A 
ATOM      9  C7  UNL d   1      -5.847   3.150   4.629  0.00  0.00     0.045 A 
ENDROOT
TORSDOF 0
ENDMDL
