MODEL 1
REMARK minimizedAffinity 12.1815138
REMARK minimizedRMSD -1
REMARK  0 active torsions:
REMARK  status: ('A' for Active; 'I' for Inactive)
ROOT
ATOM      1  C   UNL d   1       5.987   1.891  -0.112  0.00  0.00    -0.002 A 
ATOM      2  C1  UNL d   1       5.181   2.902   0.392  0.00  0.00     0.010 A 
ATOM      3  C2  UNL d   1       3.836   2.661   0.680  0.00  0.00     0.041 A 
ATOM      4  C3  UNL d   1       3.311   1.374   0.452  0.00  0.00    -0.075 A 
ATOM      5  S   UNL d   1       1.693   0.847   0.732  0.00  0.00     0.015 SA
ATOM      6  C4  UNL d   1       2.034  -0.732   0.189  0.00  0.00     0.022 A 
ATOM      7  C5  UNL d   1       3.345  -0.872  -0.200  0.00  0.00     0.026 A 
ATOM      8  C6  UNL d   1       4.103   0.339  -0.054  0.00  0.00    -0.082 A 
ATOM      9  C7  UNL d   1       5.462   0.616  -0.337  0.00  0.00     0.045 A 
ENDROOT
TORSDOF 0
ENDMDL
