MODEL 1
REMARK minimizedAffinity 22.8575535
REMARK minimizedRMSD -1
REMARK  0 active torsions:
REMARK  status: ('A' for Active; 'I' for Inactive)
ROOT
ATOM      1  C   UNL d   1      -0.042  -4.113  -0.929  0.00  0.00    -0.002 A 
ATOM      2  C1  UNL d   1       0.062  -3.357  -2.088  0.00  0.00     0.010 A 
ATOM      3  C2  UNL d   1       1.004  -2.331  -2.185  0.00  0.00     0.041 A 
ATOM      4  C3  UNL d   1       1.849  -2.076  -1.086  0.00  0.00    -0.075 A 
ATOM      5  S   UNL d   1       3.077  -0.871  -0.978  0.00  0.00     0.015 SA
ATOM      6  C4  UNL d   1       3.493  -1.331   0.609  0.00  0.00     0.022 A 
ATOM      7  C5  UNL d   1       2.724  -2.377   1.061  0.00  0.00     0.026 A 
ATOM      8  C6  UNL d   1       1.764  -2.824   0.091  0.00  0.00    -0.082 A 
ATOM      9  C7  UNL d   1       0.798  -3.857   0.158  0.00  0.00     0.045 A 
ENDROOT
TORSDOF 0
ENDMDL
