MODEL 1
REMARK minimizedAffinity 5.35679436
REMARK minimizedRMSD -1
REMARK  0 active torsions:
REMARK  status: ('A' for Active; 'I' for Inactive)
ROOT
ATOM      1  C   UNL d   1       5.821   6.000   3.914  0.00  0.00    -0.002 A 
ATOM      2  C1  UNL d   1       5.919   5.888   5.294  0.00  0.00     0.010 A 
ATOM      3  C2  UNL d   1       5.065   5.038   6.000  0.00  0.00     0.041 A 
ATOM      4  C3  UNL d   1       4.102   4.295   5.289  0.00  0.00    -0.075 A 
ATOM      5  S   UNL d   1       2.950   3.192   5.943  0.00  0.00     0.015 SA
ATOM      6  C4  UNL d   1       2.301   2.843   4.406  0.00  0.00     0.022 A 
ATOM      7  C5  UNL d   1       2.936   3.543   3.407  0.00  0.00     0.026 A 
ATOM      8  C6  UNL d   1       3.984   4.391   3.899  0.00  0.00    -0.082 A 
ATOM      9  C7  UNL d   1       4.865   5.261   3.212  0.00  0.00     0.045 A 
ENDROOT
TORSDOF 0
ENDMDL
