MODEL 1
REMARK minimizedAffinity 9.43890381
REMARK minimizedRMSD -1
REMARK  0 active torsions:
REMARK  status: ('A' for Active; 'I' for Inactive)
ROOT
ATOM      1  C   UNL d   1      -2.959   4.258   2.254  0.00  0.00    -0.002 A 
ATOM      2  C1  UNL d   1      -2.291   5.324   2.839  0.00  0.00     0.010 A 
ATOM      3  C2  UNL d   1      -2.783   5.917   4.003  0.00  0.00     0.041 A 
ATOM      4  C3  UNL d   1      -3.968   5.415   4.576  0.00  0.00    -0.075 A 
ATOM      5  S   UNL d   1      -4.757   5.983   6.000  0.00  0.00     0.015 SA
ATOM      6  C4  UNL d   1      -5.998   4.823   5.865  0.00  0.00     0.022 A 
ATOM      7  C5  UNL d   1      -5.831   4.015   4.766  0.00  0.00     0.026 A 
ATOM      8  C6  UNL d   1      -4.658   4.342   4.005  0.00  0.00    -0.082 A 
ATOM      9  C7  UNL d   1      -4.134   3.763   2.824  0.00  0.00     0.045 A 
ENDROOT
TORSDOF 0
ENDMDL
