MODEL 1
REMARK minimizedAffinity -3.98984456
REMARK minimizedRMSD -1
REMARK  0 active torsions:
REMARK  status: ('A' for Active; 'I' for Inactive)
ROOT
ATOM      1  C   UNL d   1       1.472  -0.529  -0.188  0.00  0.00     0.124 A 
ATOM      2  C1  UNL d   1       1.787  -1.691   0.502  0.00  0.00     0.062 A 
ATOM      3  C2  UNL d   1       0.979  -2.122   1.551  0.00  0.00     0.162 A 
ATOM      4  C3  UNL d   1      -0.152  -1.392   1.915  0.00  0.00    -0.034 A 
ATOM      5  C4  UNL d   1      -0.461  -0.223   1.216  0.00  0.00     0.162 A 
ATOM      6  C5  UNL d   1       0.349   0.204   0.169  0.00  0.00     0.062 A 
ATOM      7  F   UNL d   1       0.044   1.327  -0.497  0.00  0.00    -0.097 F 
ATOM      8  F1  UNL d   1      -1.541   0.503   1.539  0.00  0.00    -0.096 F 
ATOM      9  I   UNL d   1      -1.362  -2.034   3.481  0.00  0.00    -0.060 I 
ATOM     10  F2  UNL d   1       1.307  -3.249   2.201  0.00  0.00    -0.096 F 
ATOM     11  F3  UNL d   1       2.872  -2.400   0.160  0.00  0.00    -0.097 F 
ATOM     12  F4  UNL d   1       2.252  -0.115  -1.196  0.00  0.00    -0.092 F 
ENDROOT
TORSDOF 0
ENDMDL
