MODEL 1
REMARK minimizedAffinity -1.88717997
REMARK minimizedRMSD -1
REMARK  0 active torsions:
REMARK  status: ('A' for Active; 'I' for Inactive)
ROOT
ATOM      1  C   UNL d   1       0.961  -1.234   0.778  0.00  0.00     0.124 A 
ATOM      2  C1  UNL d   1      -0.089  -0.381   1.088  0.00  0.00     0.062 A 
ATOM      3  C2  UNL d   1      -0.768   0.290   0.075  0.00  0.00     0.162 A 
ATOM      4  C3  UNL d   1      -0.401   0.109  -1.258  0.00  0.00    -0.034 A 
ATOM      5  C4  UNL d   1       0.657  -0.750  -1.562  0.00  0.00     0.162 A 
ATOM      6  C5  UNL d   1       1.333  -1.418  -0.546  0.00  0.00     0.062 A 
ATOM      7  F   UNL d   1       2.347  -2.242  -0.848  0.00  0.00    -0.097 F 
ATOM      8  F1  UNL d   1       1.036  -0.946  -2.834  0.00  0.00    -0.096 F 
ATOM      9  I   UNL d   1      -1.414   1.111  -2.775  0.00  0.00    -0.060 I 
ATOM     10  F2  UNL d   1      -1.778   1.109   0.404  0.00  0.00    -0.096 F 
ATOM     11  F3  UNL d   1      -0.449  -0.201   2.367  0.00  0.00    -0.097 F 
ATOM     12  F4  UNL d   1       1.614  -1.877   1.754  0.00  0.00    -0.092 F 
ENDROOT
TORSDOF 0
ENDMDL
