MODEL 1
REMARK minimizedAffinity -3.92949224
REMARK minimizedRMSD -1
REMARK  0 active torsions:
REMARK  status: ('A' for Active; 'I' for Inactive)
ROOT
ATOM      1  C   UNL d   1       1.673  -1.716   1.158  0.00  0.00     0.124 A 
ATOM      2  C1  UNL d   1       0.328  -1.386   1.240  0.00  0.00     0.062 A 
ATOM      3  C2  UNL d   1      -0.157  -0.256   0.588  0.00  0.00     0.162 A 
ATOM      4  C3  UNL d   1       0.706   0.553  -0.153  0.00  0.00    -0.034 A 
ATOM      5  C4  UNL d   1       2.058   0.215  -0.229  0.00  0.00     0.162 A 
ATOM      6  C5  UNL d   1       2.537  -0.916   0.424  0.00  0.00     0.062 A 
ATOM      7  F   UNL d   1       3.837  -1.233   0.344  0.00  0.00    -0.097 F 
ATOM      8  F1  UNL d   1       2.915   0.971  -0.932  0.00  0.00    -0.096 F 
ATOM      9  I   UNL d   1      -0.014   2.244  -1.129  0.00  0.00    -0.060 I 
ATOM     10  F2  UNL d   1      -1.462   0.039   0.684  0.00  0.00    -0.096 F 
ATOM     11  F3  UNL d   1      -0.509  -2.158   1.949  0.00  0.00    -0.097 F 
ATOM     12  F4  UNL d   1       2.137  -2.804   1.787  0.00  0.00    -0.092 F 
ENDROOT
TORSDOF 0
ENDMDL
