MODEL 1
REMARK minimizedAffinity -1.28590858
REMARK minimizedRMSD -1
REMARK  0 active torsions:
REMARK  status: ('A' for Active; 'I' for Inactive)
ROOT
ATOM      1  C   UNL d   1      -0.148   4.046  -2.505  0.00  0.00     0.124 A 
ATOM      2  C1  UNL d   1      -0.086   2.841  -3.190  0.00  0.00     0.062 A 
ATOM      3  C2  UNL d   1       0.057   1.645  -2.493  0.00  0.00     0.162 A 
ATOM      4  C3  UNL d   1       0.139   1.648  -1.100  0.00  0.00    -0.034 A 
ATOM      5  C4  UNL d   1       0.076   2.864  -0.418  0.00  0.00     0.162 A 
ATOM      6  C5  UNL d   1      -0.067   4.057  -1.119  0.00  0.00     0.062 A 
ATOM      7  F   UNL d   1      -0.127   5.220  -0.455  0.00  0.00    -0.097 F 
ATOM      8  F1  UNL d   1       0.151   2.903   0.921  0.00  0.00    -0.096 F 
ATOM      9  I   UNL d   1       0.353  -0.138  -0.054  0.00  0.00    -0.060 I 
ATOM     10  F2  UNL d   1       0.114   0.496  -3.182  0.00  0.00    -0.096 F 
ATOM     11  F3  UNL d   1      -0.163   2.828  -4.529  0.00  0.00    -0.097 F 
ATOM     12  F4  UNL d   1      -0.285   5.195  -3.178  0.00  0.00    -0.092 F 
ENDROOT
TORSDOF 0
ENDMDL
