MODEL 1
REMARK minimizedAffinity -3.67316151
REMARK minimizedRMSD -1
REMARK  0 active torsions:
REMARK  status: ('A' for Active; 'I' for Inactive)
ROOT
ATOM      1  C   UNL d   1      -0.310  -1.306   0.796  0.00  0.00     0.124 A 
ATOM      2  C1  UNL d   1      -0.517  -0.039   0.269  0.00  0.00     0.062 A 
ATOM      3  C2  UNL d   1       0.561   0.714  -0.187  0.00  0.00     0.162 A 
ATOM      4  C3  UNL d   1       1.856   0.202  -0.119  0.00  0.00    -0.034 A 
ATOM      5  C4  UNL d   1       2.057  -1.073   0.413  0.00  0.00     0.162 A 
ATOM      6  C5  UNL d   1       0.977  -1.822   0.867  0.00  0.00     0.062 A 
ATOM      7  F   UNL d   1       1.179  -3.046   1.376  0.00  0.00    -0.097 F 
ATOM      8  F1  UNL d   1       3.290  -1.596   0.492  0.00  0.00    -0.096 F 
ATOM      9  I   UNL d   1       3.470   1.325  -0.800  0.00  0.00    -0.060 I 
ATOM     10  F2  UNL d   1       0.331   1.936  -0.691  0.00  0.00    -0.096 F 
ATOM     11  F3  UNL d   1      -1.759   0.462   0.200  0.00  0.00    -0.097 F 
ATOM     12  F4  UNL d   1      -1.348  -2.029   1.235  0.00  0.00    -0.092 F 
ENDROOT
TORSDOF 0
ENDMDL
