MODEL 1
REMARK minimizedAffinity -1.52562177
REMARK minimizedRMSD -1
REMARK  0 active torsions:
REMARK  status: ('A' for Active; 'I' for Inactive)
ROOT
ATOM      1  C   UNL d   1       1.624  -2.464   0.837  0.00  0.00     0.124 A 
ATOM      2  C1  UNL d   1       2.359  -1.289   0.761  0.00  0.00     0.062 A 
ATOM      3  C2  UNL d   1       1.772  -0.127   0.270  0.00  0.00     0.162 A 
ATOM      4  C3  UNL d   1       0.441  -0.133  -0.148  0.00  0.00    -0.034 A 
ATOM      5  C4  UNL d   1      -0.291  -1.318  -0.069  0.00  0.00     0.162 A 
ATOM      6  C5  UNL d   1       0.300  -2.478   0.422  0.00  0.00     0.062 A 
ATOM      7  F   UNL d   1      -0.412  -3.612   0.495  0.00  0.00    -0.097 F 
ATOM      8  F1  UNL d   1      -1.573  -1.359  -0.462  0.00  0.00    -0.096 F 
ATOM      9  I   UNL d   1      -0.440   1.604  -0.882  0.00  0.00    -0.060 I 
ATOM     10  F2  UNL d   1       2.506   0.994   0.208  0.00  0.00    -0.096 F 
ATOM     11  F3  UNL d   1       3.639  -1.274   1.160  0.00  0.00    -0.097 F 
ATOM     12  F4  UNL d   1       2.192  -3.582   1.309  0.00  0.00    -0.092 F 
ENDROOT
TORSDOF 0
ENDMDL
