MODEL 1
REMARK minimizedAffinity -1.41687202
REMARK minimizedRMSD -1
REMARK  0 active torsions:
REMARK  status: ('A' for Active; 'I' for Inactive)
ROOT
ATOM      1  C   UNL d   1       1.468  -1.788   1.102  0.00  0.00     0.124 A 
ATOM      2  C1  UNL d   1       0.084  -1.690   1.103  0.00  0.00     0.062 A 
ATOM      3  C2  UNL d   1      -0.546  -0.671   0.395  0.00  0.00     0.162 A 
ATOM      4  C3  UNL d   1       0.208   0.258  -0.322  0.00  0.00    -0.034 A 
ATOM      5  C4  UNL d   1       1.600   0.153  -0.318  0.00  0.00     0.162 A 
ATOM      6  C5  UNL d   1       2.225  -0.867   0.392  0.00  0.00     0.062 A 
ATOM      7  F   UNL d   1       3.563  -0.960   0.390  0.00  0.00    -0.097 F 
ATOM      8  F1  UNL d   1       2.355   1.029  -0.996  0.00  0.00    -0.096 F 
ATOM      9  I   UNL d   1      -0.730   1.783  -1.383  0.00  0.00    -0.060 I 
ATOM     10  F2  UNL d   1      -1.885  -0.600   0.414  0.00  0.00    -0.096 F 
ATOM     11  F3  UNL d   1      -0.649  -2.578   1.790  0.00  0.00    -0.097 F 
ATOM     12  F4  UNL d   1       2.072  -2.769   1.786  0.00  0.00    -0.092 F 
ENDROOT
TORSDOF 0
ENDMDL
