MODEL 1
REMARK minimizedAffinity -0.882099092
REMARK minimizedRMSD -1
REMARK  0 active torsions:
REMARK  status: ('A' for Active; 'I' for Inactive)
ROOT
ATOM      1  C   UNL d   1       1.047  -1.108   1.639  0.00  0.00     0.124 A 
ATOM      2  C1  UNL d   1       1.760  -0.769   0.497  0.00  0.00     0.062 A 
ATOM      3  C2  UNL d   1       1.154  -0.028  -0.513  0.00  0.00     0.162 A 
ATOM      4  C3  UNL d   1      -0.174   0.380  -0.387  0.00  0.00    -0.034 A 
ATOM      5  C4  UNL d   1      -0.885   0.034   0.764  0.00  0.00     0.162 A 
ATOM      6  C5  UNL d   1      -0.275  -0.707   1.771  0.00  0.00     0.062 A 
ATOM      7  F   UNL d   1      -0.966  -1.034   2.872  0.00  0.00    -0.097 F 
ATOM      8  F1  UNL d   1      -2.164   0.410   0.918  0.00  0.00    -0.096 F 
ATOM      9  I   UNL d   1      -1.084   1.488  -1.895  0.00  0.00    -0.060 I 
ATOM     10  F2  UNL d   1       1.868   0.285  -1.604  0.00  0.00    -0.096 F 
ATOM     11  F3  UNL d   1       3.037  -1.157   0.367  0.00  0.00    -0.097 F 
ATOM     12  F4  UNL d   1       1.632  -1.822   2.609  0.00  0.00    -0.092 F 
ENDROOT
TORSDOF 0
ENDMDL
