MODEL 1
REMARK minimizedAffinity -0.959016502
REMARK minimizedRMSD -1
REMARK  0 active torsions:
REMARK  status: ('A' for Active; 'I' for Inactive)
ROOT
ATOM      1  C   UNL d   1       0.047  -0.672   0.163  0.00  0.00     0.124 A 
ATOM      2  C1  UNL d   1       0.634  -1.770   0.776  0.00  0.00     0.062 A 
ATOM      3  C2  UNL d   1       1.891  -1.655   1.364  0.00  0.00     0.162 A 
ATOM      4  C3  UNL d   1       2.569  -0.436   1.343  0.00  0.00    -0.034 A 
ATOM      5  C4  UNL d   1       1.972   0.664   0.724  0.00  0.00     0.162 A 
ATOM      6  C5  UNL d   1       0.717   0.544   0.137  0.00  0.00     0.062 A 
ATOM      7  F   UNL d   1       0.151   1.606  -0.454  0.00  0.00    -0.097 F 
ATOM      8  F1  UNL d   1       2.596   1.850   0.685  0.00  0.00    -0.096 F 
ATOM      9  I   UNL d   1       4.447  -0.260   2.221  0.00  0.00    -0.060 I 
ATOM     10  F2  UNL d   1       2.434  -2.733   1.950  0.00  0.00    -0.096 F 
ATOM     11  F3  UNL d   1      -0.010  -2.946   0.802  0.00  0.00    -0.097 F 
ATOM     12  F4  UNL d   1      -1.161  -0.786  -0.402  0.00  0.00    -0.092 F 
ENDROOT
TORSDOF 0
ENDMDL
