MODEL 1
REMARK minimizedAffinity -1.20473063
REMARK minimizedRMSD -1
REMARK  0 active torsions:
REMARK  status: ('A' for Active; 'I' for Inactive)
ROOT
ATOM      1  C   UNL d   1       1.385  -1.839   1.247  0.00  0.00     0.124 A 
ATOM      2  C1  UNL d   1       0.002  -1.741   1.180  0.00  0.00     0.062 A 
ATOM      3  C2  UNL d   1      -0.593  -0.734   0.427  0.00  0.00     0.162 A 
ATOM      4  C3  UNL d   1       0.195   0.185  -0.267  0.00  0.00    -0.034 A 
ATOM      5  C4  UNL d   1       1.585   0.081  -0.195  0.00  0.00     0.162 A 
ATOM      6  C5  UNL d   1       2.175  -0.928   0.560  0.00  0.00     0.062 A 
ATOM      7  F   UNL d   1       3.511  -1.020   0.623  0.00  0.00    -0.097 F 
ATOM      8  F1  UNL d   1       2.372   0.947  -0.850  0.00  0.00    -0.096 F 
ATOM      9  I   UNL d   1      -0.692   1.693  -1.395  0.00  0.00    -0.060 I 
ATOM     10  F2  UNL d   1      -1.932  -0.664   0.380  0.00  0.00    -0.096 F 
ATOM     11  F3  UNL d   1      -0.763  -2.620   1.844  0.00  0.00    -0.097 F 
ATOM     12  F4  UNL d   1       1.955  -2.809   1.973  0.00  0.00    -0.092 F 
ENDROOT
TORSDOF 0
ENDMDL
