MODEL 1
REMARK minimizedAffinity 1.07594419
REMARK minimizedRMSD -1
REMARK  0 active torsions:
REMARK  status: ('A' for Active; 'I' for Inactive)
ROOT
ATOM      1  C   UNL d   1       1.658  -2.055   1.384  0.00  0.00     0.124 A 
ATOM      2  C1  UNL d   1       2.347  -1.029   0.752  0.00  0.00     0.062 A 
ATOM      3  C2  UNL d   1       1.652  -0.042   0.060  0.00  0.00     0.162 A 
ATOM      4  C3  UNL d   1       0.259  -0.074  -0.003  0.00  0.00    -0.034 A 
ATOM      5  C4  UNL d   1      -0.427  -1.109   0.634  0.00  0.00     0.162 A 
ATOM      6  C5  UNL d   1       0.272  -2.094   1.324  0.00  0.00     0.062 A 
ATOM      7  F   UNL d   1      -0.396  -3.085   1.934  0.00  0.00    -0.097 F 
ATOM      8  F1  UNL d   1      -1.766  -1.171   0.594  0.00  0.00    -0.096 F 
ATOM      9  I   UNL d   1      -0.784   1.401  -1.036  0.00  0.00    -0.060 I 
ATOM     10  F2  UNL d   1       2.344   0.938  -0.541  0.00  0.00    -0.096 F 
ATOM     11  F3  UNL d   1       3.686  -0.990   0.807  0.00  0.00    -0.097 F 
ATOM     12  F4  UNL d   1       2.329  -3.005   2.048  0.00  0.00    -0.092 F 
ENDROOT
TORSDOF 0
ENDMDL
