MODEL 1
REMARK minimizedAffinity -3.05149817
REMARK minimizedRMSD -1
REMARK  0 active torsions:
REMARK  status: ('A' for Active; 'I' for Inactive)
ROOT
ATOM      1  C   UNL d   1      -0.346  -1.672   1.574  0.00  0.00     0.124 A 
ATOM      2  C1  UNL d   1       0.585  -2.639   1.218  0.00  0.00     0.062 A 
ATOM      3  C2  UNL d   1       1.696  -2.293   0.455  0.00  0.00     0.162 A 
ATOM      4  C3  UNL d   1       1.885  -0.973   0.044  0.00  0.00    -0.034 A 
ATOM      5  C4  UNL d   1       0.944  -0.007   0.405  0.00  0.00     0.162 A 
ATOM      6  C5  UNL d   1      -0.165  -0.358   1.168  0.00  0.00     0.062 A 
ATOM      7  F   UNL d   1      -1.063   0.578   1.511  0.00  0.00    -0.097 F 
ATOM      8  F1  UNL d   1       1.095   1.271   0.027  0.00  0.00    -0.096 F 
ATOM      9  I   UNL d   1       3.546  -0.452  -1.097  0.00  0.00    -0.060 I 
ATOM     10  F2  UNL d   1       2.579  -3.247   0.125  0.00  0.00    -0.096 F 
ATOM     11  F3  UNL d   1       0.412  -3.910   1.608  0.00  0.00    -0.097 F 
ATOM     12  F4  UNL d   1      -1.415  -2.008   2.307  0.00  0.00    -0.092 F 
ENDROOT
TORSDOF 0
ENDMDL
