MODEL 1
REMARK minimizedAffinity -2.89631271
REMARK minimizedRMSD -1
REMARK  0 active torsions:
REMARK  status: ('A' for Active; 'I' for Inactive)
ROOT
ATOM      1  C   UNL d   1       1.580  -2.267   1.957  0.00  0.00     0.124 A 
ATOM      2  C1  UNL d   1       2.200  -1.401   1.068  0.00  0.00     0.062 A 
ATOM      3  C2  UNL d   1       1.442  -0.504   0.320  0.00  0.00     0.162 A 
ATOM      4  C3  UNL d   1       0.055  -0.469   0.459  0.00  0.00    -0.034 A 
ATOM      5  C4  UNL d   1      -0.562  -1.344   1.355  0.00  0.00     0.162 A 
ATOM      6  C5  UNL d   1       0.200  -2.238   2.100  0.00  0.00     0.062 A 
ATOM      7  F   UNL d   1      -0.402  -3.074   2.959  0.00  0.00    -0.097 F 
ATOM      8  F1  UNL d   1      -1.894  -1.336   1.513  0.00  0.00    -0.096 F 
ATOM      9  I   UNL d   1      -1.082   0.871  -0.657  0.00  0.00    -0.060 I 
ATOM     10  F2  UNL d   1       2.068   0.321  -0.532  0.00  0.00    -0.096 F 
ATOM     11  F3  UNL d   1       3.533  -1.428   0.927  0.00  0.00    -0.097 F 
ATOM     12  F4  UNL d   1       2.311  -3.130   2.675  0.00  0.00    -0.092 F 
ENDROOT
TORSDOF 0
ENDMDL
