MODEL 1
REMARK minimizedAffinity -5.31753206
REMARK minimizedRMSD -1
REMARK  0 active torsions:
REMARK  status: ('A' for Active; 'I' for Inactive)
ROOT
ATOM      1  C   UNL d   1       0.651  -2.589   1.807  0.00  0.00     0.124 A 
ATOM      2  C1  UNL d   1      -0.445  -1.857   2.243  0.00  0.00     0.062 A 
ATOM      3  C2  UNL d   1      -0.859  -0.730   1.539  0.00  0.00     0.162 A 
ATOM      4  C3  UNL d   1      -0.177  -0.328   0.390  0.00  0.00    -0.034 A 
ATOM      5  C4  UNL d   1       0.925  -1.069  -0.041  0.00  0.00     0.162 A 
ATOM      6  C5  UNL d   1       1.335  -2.194   0.666  0.00  0.00     0.062 A 
ATOM      7  F   UNL d   1       2.394  -2.900   0.244  0.00  0.00    -0.097 F 
ATOM      8  F1  UNL d   1       1.603  -0.710  -1.141  0.00  0.00    -0.096 F 
ATOM      9  I   UNL d   1      -0.794   1.356  -0.666  0.00  0.00    -0.060 I 
ATOM     10  F2  UNL d   1      -1.922  -0.043   1.983  0.00  0.00    -0.096 F 
ATOM     11  F3  UNL d   1      -1.107  -2.236   3.346  0.00  0.00    -0.097 F 
ATOM     12  F4  UNL d   1       1.048  -3.672   2.488  0.00  0.00    -0.092 F 
ENDROOT
TORSDOF 0
ENDMDL
