MODEL 1
REMARK minimizedAffinity -3.75658226
REMARK minimizedRMSD -1
REMARK  0 active torsions:
REMARK  status: ('A' for Active; 'I' for Inactive)
ROOT
ATOM      1  C   UNL d   1      -1.559   1.203   1.233  0.00  0.00     0.078 C 
ATOM      2  C1  UNL d   1      -0.692   0.763   0.091  0.00  0.00    -0.077 A 
ATOM      3  C2  UNL d   1      -0.083  -0.498   0.093  0.00  0.00    -0.001 A 
ATOM      4  C3  UNL d   1       0.730  -0.891  -0.971  0.00  0.00     0.003 A 
ATOM      5  C4  UNL d   1       0.942  -0.029  -2.045  0.00  0.00    -0.005 A 
ATOM      6  C5  UNL d   1       0.342   1.229  -2.055  0.00  0.00     0.003 A 
ATOM      7  C6  UNL d   1      -0.471   1.624  -0.991  0.00  0.00    -0.001 A 
ENDROOT
TORSDOF 0
ENDMDL
