MODEL 1
REMARK minimizedAffinity -0.184715882
REMARK minimizedRMSD -1
REMARK  0 active torsions:
REMARK  status: ('A' for Active; 'I' for Inactive)
ROOT
ATOM      1  C   UNL d   1       0.990  -0.217  -0.658  0.00  0.00     0.078 C 
ATOM      2  C1  UNL d   1       0.577   0.404   0.643  0.00  0.00    -0.077 A 
ATOM      3  C2  UNL d   1       0.154   1.738   0.703  0.00  0.00    -0.001 A 
ATOM      4  C3  UNL d   1      -0.219   2.305   1.923  0.00  0.00     0.003 A 
ATOM      5  C4  UNL d   1      -0.171   1.547   3.091  0.00  0.00    -0.005 A 
ATOM      6  C5  UNL d   1       0.251   0.220   3.041  0.00  0.00     0.003 A 
ATOM      7  C6  UNL d   1       0.624  -0.349   1.822  0.00  0.00    -0.001 A 
ENDROOT
TORSDOF 0
ENDMDL
