MODEL 1
REMARK minimizedAffinity -3.03863192
REMARK minimizedRMSD -1
REMARK  0 active torsions:
REMARK  status: ('A' for Active; 'I' for Inactive)
ROOT
ATOM      1  C   UNL d   1      -1.478   1.911   1.857  0.00  0.00     0.078 C 
ATOM      2  C1  UNL d   1      -0.828   1.009   0.850  0.00  0.00    -0.077 A 
ATOM      3  C2  UNL d   1      -0.126  -0.133   1.252  0.00  0.00    -0.001 A 
ATOM      4  C3  UNL d   1       0.482  -0.958   0.304  0.00  0.00     0.003 A 
ATOM      5  C4  UNL d   1       0.394  -0.649  -1.052  0.00  0.00    -0.005 A 
ATOM      6  C5  UNL d   1      -0.301   0.487  -1.461  0.00  0.00     0.003 A 
ATOM      7  C6  UNL d   1      -0.909   1.313  -0.515  0.00  0.00    -0.001 A 
ENDROOT
TORSDOF 0
ENDMDL
