MODEL 1
REMARK minimizedAffinity -5.12280607
REMARK minimizedRMSD -1
REMARK  0 active torsions:
REMARK  status: ('A' for Active; 'I' for Inactive)
ROOT
ATOM      1  C   UNL d   1      -1.070   3.270  -0.941  0.00  0.00     0.078 C 
ATOM      2  C1  UNL d   1      -0.726   2.165   0.013  0.00  0.00    -0.077 A 
ATOM      3  C2  UNL d   1      -0.761   2.371   1.397  0.00  0.00    -0.001 A 
ATOM      4  C3  UNL d   1      -0.429   1.336   2.273  0.00  0.00     0.003 A 
ATOM      5  C4  UNL d   1      -0.060   0.088   1.774  0.00  0.00    -0.005 A 
ATOM      6  C5  UNL d   1      -0.021  -0.126   0.398  0.00  0.00     0.003 A 
ATOM      7  C6  UNL d   1      -0.352   0.908  -0.479  0.00  0.00    -0.001 A 
ENDROOT
TORSDOF 0
ENDMDL
