MODEL 1
REMARK minimizedAffinity 0.658131957
REMARK minimizedRMSD -1
REMARK  0 active torsions:
REMARK  status: ('A' for Active; 'I' for Inactive)
ROOT
ATOM      1  C   UNL d   1       0.918  -1.616   2.963  0.00  0.00     0.078 C 
ATOM      2  C1  UNL d   1       0.703  -0.306   2.265  0.00  0.00    -0.077 A 
ATOM      3  C2  UNL d   1       1.374  -0.005   1.073  0.00  0.00    -0.001 A 
ATOM      4  C3  UNL d   1       1.172   1.222   0.440  0.00  0.00     0.003 A 
ATOM      5  C4  UNL d   1       0.301   2.159   0.991  0.00  0.00    -0.005 A 
ATOM      6  C5  UNL d   1      -0.369   1.870   2.178  0.00  0.00     0.003 A 
ATOM      7  C6  UNL d   1      -0.169   0.643   2.813  0.00  0.00    -0.001 A 
ENDROOT
TORSDOF 0
ENDMDL
