MODEL 1
REMARK minimizedAffinity -4.17120266
REMARK minimizedRMSD -1
REMARK  0 active torsions:
REMARK  status: ('A' for Active; 'I' for Inactive)
ROOT
ATOM      1  C   UNL d   1       3.845  -5.999   0.237  0.00  0.00     0.078 C 
ATOM      2  C1  UNL d   1       2.556  -5.360  -0.185  0.00  0.00    -0.077 A 
ATOM      3  C2  UNL d   1       1.329  -5.999   0.032  0.00  0.00    -0.001 A 
ATOM      4  C3  UNL d   1       0.138  -5.396  -0.375  0.00  0.00     0.003 A 
ATOM      5  C4  UNL d   1       0.161  -4.153  -1.003  0.00  0.00    -0.005 A 
ATOM      6  C5  UNL d   1       1.378  -3.511  -1.226  0.00  0.00     0.003 A 
ATOM      7  C6  UNL d   1       2.570  -4.111  -0.819  0.00  0.00    -0.001 A 
ENDROOT
TORSDOF 0
ENDMDL
