MODEL 1
REMARK minimizedAffinity -0.186166361
REMARK minimizedRMSD -1
REMARK  0 active torsions:
REMARK  status: ('A' for Active; 'I' for Inactive)
ROOT
ATOM      1  C   UNL d   1       1.088  -0.437   1.526  0.00  0.00     0.078 C 
ATOM      2  C1  UNL d   1       0.038   0.422   0.885  0.00  0.00    -0.077 A 
ATOM      3  C2  UNL d   1      -0.774   1.264   1.655  0.00  0.00    -0.001 A 
ATOM      4  C3  UNL d   1      -1.753   2.050   1.047  0.00  0.00     0.003 A 
ATOM      5  C4  UNL d   1      -1.931   2.002  -0.335  0.00  0.00    -0.005 A 
ATOM      6  C5  UNL d   1      -1.129   1.165  -1.109  0.00  0.00     0.003 A 
ATOM      7  C6  UNL d   1      -0.149   0.378  -0.502  0.00  0.00    -0.001 A 
ENDROOT
TORSDOF 0
ENDMDL
