MODEL 1
REMARK minimizedAffinity -5.23981571
REMARK minimizedRMSD -1
REMARK  1 active torsions:
REMARK  status: ('A' for Active; 'I' for Inactive)
REMARK    1  A    between atoms: C3_4  and  O_7 
ROOT
ATOM      1  C   UNL d   1       0.447   4.291  -0.346  0.00  0.00    -0.033 A 
ATOM      2  C1  UNL d   1       0.220   2.926  -0.533  0.00  0.00     0.039 A 
ATOM      3  C2  UNL d   1       1.190   1.997  -0.151  0.00  0.00    -0.080 A 
ATOM      4  C3  UNL d   1       2.380   2.445   0.417  0.00  0.00     0.150 A 
ATOM      5  C4  UNL d   1       2.610   3.803   0.610  0.00  0.00    -0.007 A 
ATOM      6  C5  UNL d   1       1.641   4.729   0.227  0.00  0.00     0.039 A 
ENDROOT
BRANCH   4   7
ATOM      7  O   UNL d   1       3.358   1.576   0.801  0.00  0.00    -0.526 OA
ATOM      8  H5  UNL d   1       3.072   0.674   0.581  0.00  0.00     0.418 HD
ENDBRANCH   4   7
TORSDOF 1
ENDMDL
