MODEL 1
REMARK minimizedAffinity 4.08340597
REMARK minimizedRMSD -1
REMARK  1 active torsions:
REMARK  status: ('A' for Active; 'I' for Inactive)
REMARK    1  A    between atoms: C3_4  and  O_7 
ROOT
ATOM      1  C   UNL d   1       0.458   0.999   0.963  0.00  0.00    -0.033 A 
ATOM      2  C1  UNL d   1       1.394   1.319  -0.023  0.00  0.00     0.039 A 
ATOM      3  C2  UNL d   1       1.303   2.533  -0.707  0.00  0.00    -0.080 A 
ATOM      4  C3  UNL d   1       0.274   3.417  -0.395  0.00  0.00     0.150 A 
ATOM      5  C4  UNL d   1      -0.659   3.107   0.590  0.00  0.00    -0.007 A 
ATOM      6  C5  UNL d   1      -0.567   1.894   1.270  0.00  0.00     0.039 A 
ENDROOT
BRANCH   4   7
ATOM      7  O   UNL d   1       0.141   4.612  -1.038  0.00  0.00    -0.526 OA
ATOM      8  H5  UNL d   1       0.839   4.678  -1.711  0.00  0.00     0.418 HD
ENDBRANCH   4   7
TORSDOF 1
ENDMDL
