MODEL 1
REMARK minimizedAffinity 5.69216347
REMARK minimizedRMSD -1
REMARK  1 active torsions:
REMARK  status: ('A' for Active; 'I' for Inactive)
REMARK    1  A    between atoms: C3_4  and  O_7 
ROOT
ATOM      1  C   UNL d   1      -0.518   2.117   1.827  0.00  0.00    -0.033 A 
ATOM      2  C1  UNL d   1      -1.136   0.924   2.204  0.00  0.00     0.039 A 
ATOM      3  C2  UNL d   1      -2.439   0.648   1.785  0.00  0.00    -0.080 A 
ATOM      4  C3  UNL d   1      -3.111   1.572   0.989  0.00  0.00     0.150 A 
ATOM      5  C4  UNL d   1      -2.499   2.761   0.606  0.00  0.00    -0.007 A 
ATOM      6  C5  UNL d   1      -1.199   3.035   1.027  0.00  0.00     0.039 A 
ENDROOT
BRANCH   4   7
ATOM      7  O   UNL d   1      -4.386   1.349   0.560  0.00  0.00    -0.526 OA
ATOM      8  H5  UNL d   1      -4.690   0.501   0.925  0.00  0.00     0.418 HD
ENDBRANCH   4   7
TORSDOF 1
ENDMDL
