MODEL 1
REMARK minimizedAffinity 0.621869385
REMARK minimizedRMSD -1
REMARK  1 active torsions:
REMARK  status: ('A' for Active; 'I' for Inactive)
REMARK    1  A    between atoms: C3_4  and  O_7 
ROOT
ATOM      1  C   UNL d   1       3.134   1.495   0.811  0.00  0.00    -0.033 A 
ATOM      2  C1  UNL d   1       3.021   2.869   1.033  0.00  0.00     0.039 A 
ATOM      3  C2  UNL d   1       1.791   3.507   0.863  0.00  0.00    -0.080 A 
ATOM      4  C3  UNL d   1       0.682   2.761   0.472  0.00  0.00     0.150 A 
ATOM      5  C4  UNL d   1       0.786   1.391   0.253  0.00  0.00    -0.007 A 
ATOM      6  C5  UNL d   1       2.016   0.756   0.423  0.00  0.00     0.039 A 
ENDROOT
BRANCH   4   7
ATOM      7  O   UNL d   1      -0.538   3.340   0.289  0.00  0.00    -0.526 OA
ATOM      8  H5  UNL d   1      -0.453   4.295   0.448  0.00  0.00     0.418 HD
ENDBRANCH   4   7
TORSDOF 1
ENDMDL
