MODEL 1
REMARK minimizedAffinity 1.9947865
REMARK minimizedRMSD -1
REMARK  1 active torsions:
REMARK  status: ('A' for Active; 'I' for Inactive)
REMARK    1  A    between atoms: C3_4  and  O_7 
ROOT
ATOM      1  C   UNL d   1      -6.000   5.846  -2.316  0.00  0.00    -0.033 A 
ATOM      2  C1  UNL d   1      -5.998   5.587  -0.944  0.00  0.00     0.039 A 
ATOM      3  C2  UNL d   1      -5.996   4.270  -0.480  0.00  0.00    -0.080 A 
ATOM      4  C3  UNL d   1      -5.995   3.222  -1.397  0.00  0.00     0.150 A 
ATOM      5  C4  UNL d   1      -5.993   3.473  -2.765  0.00  0.00    -0.007 A 
ATOM      6  C5  UNL d   1      -5.996   4.789  -3.227  0.00  0.00     0.039 A 
ENDROOT
BRANCH   4   7
ATOM      7  O   UNL d   1      -5.998   1.921  -0.992  0.00  0.00    -0.526 OA
ATOM      8  H5  UNL d   1      -6.029   1.901  -0.021  0.00  0.00     0.418 HD
ENDBRANCH   4   7
TORSDOF 1
ENDMDL
