MODEL 1
REMARK minimizedAffinity -0.769800901
REMARK minimizedRMSD -1
REMARK  1 active torsions:
REMARK  status: ('A' for Active; 'I' for Inactive)
REMARK    1  A    between atoms: C3_4  and  O_7 
ROOT
ATOM      1  C   UNL d   1      -2.118  -5.856   2.342  0.00  0.00    -0.033 A 
ATOM      2  C1  UNL d   1      -1.380  -5.407   3.439  0.00  0.00     0.039 A 
ATOM      3  C2  UNL d   1      -0.690  -4.195   3.370  0.00  0.00    -0.080 A 
ATOM      4  C3  UNL d   1      -0.747  -3.442   2.201  0.00  0.00     0.150 A 
ATOM      5  C4  UNL d   1      -1.483  -3.881   1.105  0.00  0.00    -0.007 A 
ATOM      6  C5  UNL d   1      -2.170  -5.092   1.175  0.00  0.00     0.039 A 
ENDROOT
BRANCH   4   7
ATOM      7  O   UNL d   1      -0.086  -2.256   2.085  0.00  0.00    -0.526 OA
ATOM      8  H5  UNL d   1       0.403  -2.094   2.908  0.00  0.00     0.418 HD
ENDBRANCH   4   7
TORSDOF 1
ENDMDL
