MODEL 1
REMARK minimizedAffinity -3.10073113
REMARK minimizedRMSD -1
REMARK  1 active torsions:
REMARK  status: ('A' for Active; 'I' for Inactive)
REMARK    1  A    between atoms: C3_4  and  O_7 
ROOT
ATOM      1  C   UNL d   1      -1.386   1.993   0.399  0.00  0.00    -0.033 A 
ATOM      2  C1  UNL d   1      -0.731   3.197   0.131  0.00  0.00     0.039 A 
ATOM      3  C2  UNL d   1       0.663   3.256   0.161  0.00  0.00    -0.080 A 
ATOM      4  C3  UNL d   1       1.390   2.107   0.458  0.00  0.00     0.150 A 
ATOM      5  C4  UNL d   1       0.744   0.904   0.722  0.00  0.00    -0.007 A 
ATOM      6  C5  UNL d   1      -0.649   0.846   0.693  0.00  0.00     0.039 A 
ENDROOT
BRANCH   4   7
ATOM      7  O   UNL d   1       2.753   2.117   0.503  0.00  0.00    -0.526 OA
ATOM      8  H5  UNL d   1       3.060   3.022   0.328  0.00  0.00     0.418 HD
ENDBRANCH   4   7
TORSDOF 1
ENDMDL
