MODEL 1
REMARK minimizedAffinity 2.07226777
REMARK minimizedRMSD -1
REMARK  1 active torsions:
REMARK  status: ('A' for Active; 'I' for Inactive)
REMARK    1  A    between atoms: C3_4  and  O_7 
ROOT
ATOM      1  C   UNL d   1       2.023  -0.623  -0.157  0.00  0.00    -0.033 A 
ATOM      2  C1  UNL d   1       1.945   0.749  -0.407  0.00  0.00     0.039 A 
ATOM      3  C2  UNL d   1       1.740   1.212  -1.708  0.00  0.00    -0.080 A 
ATOM      4  C3  UNL d   1       1.614   0.296  -2.748  0.00  0.00     0.150 A 
ATOM      5  C4  UNL d   1       1.688  -1.072  -2.505  0.00  0.00    -0.007 A 
ATOM      6  C5  UNL d   1       1.893  -1.533  -1.206  0.00  0.00     0.039 A 
ENDROOT
BRANCH   4   7
ATOM      7  O   UNL d   1       1.418   0.700  -4.035  0.00  0.00    -0.526 OA
ATOM      8  H5  UNL d   1       1.417   1.672  -4.055  0.00  0.00     0.418 HD
ENDBRANCH   4   7
TORSDOF 1
ENDMDL
