MODEL 1
REMARK minimizedAffinity 4.3919735
REMARK minimizedRMSD -1
REMARK  1 active torsions:
REMARK  status: ('A' for Active; 'I' for Inactive)
REMARK    1  A    between atoms: C3_4  and  O_7 
ROOT
ATOM      1  C   UNL d   1       2.168  -0.354   0.271  0.00  0.00    -0.033 A 
ATOM      2  C1  UNL d   1       2.502   0.800  -0.440  0.00  0.00     0.039 A 
ATOM      3  C2  UNL d   1       2.377   0.827  -1.830  0.00  0.00    -0.080 A 
ATOM      4  C3  UNL d   1       1.916  -0.305  -2.497  0.00  0.00     0.150 A 
ATOM      5  C4  UNL d   1       1.577  -1.457  -1.795  0.00  0.00    -0.007 A 
ATOM      6  C5  UNL d   1       1.704  -1.482  -0.407  0.00  0.00     0.039 A 
ENDROOT
BRANCH   4   7
ATOM      7  O   UNL d   1       1.781  -0.327  -3.853  0.00  0.00    -0.526 OA
ATOM      8  H5  UNL d   1       2.079   0.527  -4.206  0.00  0.00     0.418 HD
ENDBRANCH   4   7
TORSDOF 1
ENDMDL
