MODEL 1
REMARK minimizedAffinity -0.94525677
REMARK minimizedRMSD -1
REMARK  1 active torsions:
REMARK  status: ('A' for Active; 'I' for Inactive)
REMARK    1  A    between atoms: C3_4  and  O_7 
ROOT
ATOM      1  C   UNL d   1      -1.579   2.335   0.766  0.00  0.00    -0.033 A 
ATOM      2  C1  UNL d   1      -0.848   3.475   0.425  0.00  0.00     0.039 A 
ATOM      3  C2  UNL d   1       0.546   3.424   0.377  0.00  0.00    -0.080 A 
ATOM      4  C3  UNL d   1       1.197   2.229   0.672  0.00  0.00     0.150 A 
ATOM      5  C4  UNL d   1       0.475   1.088   1.009  0.00  0.00    -0.007 A 
ATOM      6  C5  UNL d   1      -0.917   1.141   1.057  0.00  0.00     0.039 A 
ENDROOT
BRANCH   4   7
ATOM      7  O   UNL d   1       2.557   2.132   0.644  0.00  0.00    -0.526 OA
ATOM      8  H5  UNL d   1       2.923   3.004   0.423  0.00  0.00     0.418 HD
ENDBRANCH   4   7
TORSDOF 1
ENDMDL
