MODEL 1
REMARK minimizedAffinity 2.19805884
REMARK minimizedRMSD -1
REMARK  1 active torsions:
REMARK  status: ('A' for Active; 'I' for Inactive)
REMARK    1  A    between atoms: C3_4  and  O_7 
ROOT
ATOM      1  C   UNL d   1      -1.146   3.471   0.456  0.00  0.00    -0.033 A 
ATOM      2  C1  UNL d   1       0.162   2.986   0.523  0.00  0.00     0.039 A 
ATOM      3  C2  UNL d   1       0.397   1.651   0.857  0.00  0.00    -0.080 A 
ATOM      4  C3  UNL d   1      -0.683   0.813   1.121  0.00  0.00     0.150 A 
ATOM      5  C4  UNL d   1      -1.988   1.288   1.052  0.00  0.00    -0.007 A 
ATOM      6  C5  UNL d   1      -2.221   2.622   0.719  0.00  0.00     0.039 A 
ENDROOT
BRANCH   4   7
ATOM      7  O   UNL d   1      -0.503  -0.497   1.455  0.00  0.00    -0.526 OA
ATOM      8  H5  UNL d   1       0.451  -0.677   1.492  0.00  0.00     0.418 HD
ENDBRANCH   4   7
TORSDOF 1
ENDMDL
