MODEL 1
REMARK minimizedAffinity 0.515811384
REMARK minimizedRMSD -1
REMARK  1 active torsions:
REMARK  status: ('A' for Active; 'I' for Inactive)
REMARK    1  A    between atoms: C3_4  and  O_7 
ROOT
ATOM      1  C   UNL d   1       2.472   3.277   0.263  0.00  0.00    -0.033 A 
ATOM      2  C1  UNL d   1       1.738   2.370   1.031  0.00  0.00     0.039 A 
ATOM      3  C2  UNL d   1       0.343   2.423   1.032  0.00  0.00    -0.080 A 
ATOM      4  C3  UNL d   1      -0.305   3.384   0.262  0.00  0.00     0.150 A 
ATOM      5  C4  UNL d   1       0.419   4.288  -0.508  0.00  0.00    -0.007 A 
ATOM      6  C5  UNL d   1       1.813   4.234  -0.507  0.00  0.00     0.039 A 
ENDROOT
BRANCH   4   7
ATOM      7  O   UNL d   1      -1.665   3.478   0.235  0.00  0.00    -0.526 OA
ATOM      8  H5  UNL d   1      -2.032   2.809   0.837  0.00  0.00     0.418 HD
ENDBRANCH   4   7
TORSDOF 1
ENDMDL
