MODEL 1
REMARK minimizedAffinity 9.85888577
REMARK minimizedRMSD -1
REMARK  1 active torsions:
REMARK  status: ('A' for Active; 'I' for Inactive)
REMARK    1  A    between atoms: C3_4  and  O_7 
ROOT
ATOM      1  C   UNL d   1       0.041   2.221   2.661  0.00  0.00    -0.033 A 
ATOM      2  C1  UNL d   1      -1.306   2.372   2.328  0.00  0.00     0.039 A 
ATOM      3  C2  UNL d   1      -1.666   2.969   1.119  0.00  0.00    -0.080 A 
ATOM      4  C3  UNL d   1      -0.671   3.409   0.251  0.00  0.00     0.150 A 
ATOM      5  C4  UNL d   1       0.674   3.260   0.574  0.00  0.00    -0.007 A 
ATOM      6  C5  UNL d   1       1.032   2.664   1.783  0.00  0.00     0.039 A 
ENDROOT
BRANCH   4   7
ATOM      7  O   UNL d   1      -0.973   4.002  -0.938  0.00  0.00    -0.526 OA
ATOM      8  H5  UNL d   1      -1.940   4.065  -1.014  0.00  0.00     0.418 HD
ENDBRANCH   4   7
TORSDOF 1
ENDMDL
