MODEL 1
REMARK minimizedAffinity 5.02539825
REMARK minimizedRMSD -1
REMARK  1 active torsions:
REMARK  status: ('A' for Active; 'I' for Inactive)
REMARK    1  A    between atoms: C3_4  and  O_7 
ROOT
ATOM      1  C   UNL d   1       2.489   2.074   0.883  0.00  0.00    -0.033 A 
ATOM      2  C1  UNL d   1       1.105   1.938   1.004  0.00  0.00     0.039 A 
ATOM      3  C2  UNL d   1       0.253   2.791   0.299  0.00  0.00    -0.080 A 
ATOM      4  C3  UNL d   1       0.798   3.774  -0.522  0.00  0.00     0.150 A 
ATOM      5  C4  UNL d   1       2.176   3.912  -0.650  0.00  0.00    -0.007 A 
ATOM      6  C5  UNL d   1       3.025   3.060   0.055  0.00  0.00     0.039 A 
ENDROOT
BRANCH   4   7
ATOM      7  O   UNL d   1       0.008   4.633  -1.226  0.00  0.00    -0.526 OA
ATOM      8  H5  UNL d   1      -0.921   4.438  -1.018  0.00  0.00     0.418 HD
ENDBRANCH   4   7
TORSDOF 1
ENDMDL
