MODEL 1
REMARK minimizedAffinity -2.89735723
REMARK minimizedRMSD -1
REMARK  0 active torsions:
REMARK  status: ('A' for Active; 'I' for Inactive)
ROOT
ATOM      1  C   UNL d   1      -0.607  -3.340  -1.190  0.00  0.00     0.020 A 
ATOM      2  C1  UNL d   1      -0.730  -3.010   0.159  0.00  0.00     0.020 A 
ATOM      3  C2  UNL d   1      -0.567  -1.685   0.570  0.00  0.00     0.034 A 
ATOM      4  C3  UNL d   1      -0.281  -0.687  -0.367  0.00  0.00     0.017 A 
ATOM      5  C4  UNL d   1      -0.158  -1.019  -1.721  0.00  0.00     0.017 A 
ATOM      6  C5  UNL d   1      -0.322  -2.347  -2.128  0.00  0.00     0.034 A 
ATOM      7 Cl   UNL d   1       0.193   0.158  -2.937  0.00  0.00    -0.070 Cl
ATOM      8 Cl1  UNL d   1      -0.093   0.930   0.212  0.00  0.00    -0.070 Cl
ENDROOT
TORSDOF 0
ENDMDL
