MODEL 1
REMARK minimizedAffinity -1.21783209
REMARK minimizedRMSD -1
REMARK  0 active torsions:
REMARK  status: ('A' for Active; 'I' for Inactive)
ROOT
ATOM      1  C   UNL d   1      -1.305  -1.494   1.510  0.00  0.00     0.020 A 
ATOM      2  C1  UNL d   1      -1.417  -2.398   0.454  0.00  0.00     0.020 A 
ATOM      3  C2  UNL d   1      -0.934  -2.056  -0.811  0.00  0.00     0.034 A 
ATOM      4  C3  UNL d   1      -0.338  -0.808  -1.024  0.00  0.00     0.017 A 
ATOM      5  C4  UNL d   1      -0.227   0.098   0.037  0.00  0.00     0.017 A 
ATOM      6  C5  UNL d   1      -0.711  -0.249   1.302  0.00  0.00     0.034 A 
ATOM      7 Cl   UNL d   1       0.497   1.657  -0.148  0.00  0.00    -0.070 Cl
ATOM      8 Cl1  UNL d   1       0.237  -0.452  -2.614  0.00  0.00    -0.070 Cl
ENDROOT
TORSDOF 0
ENDMDL
