MODEL 1
REMARK minimizedAffinity -2.40501475
REMARK minimizedRMSD -1
REMARK  0 active torsions:
REMARK  status: ('A' for Active; 'I' for Inactive)
ROOT
ATOM      1  C   UNL d   1      -0.744  -1.221   1.197  0.00  0.00     0.020 A 
ATOM      2  C1  UNL d   1       0.419  -0.999   1.935  0.00  0.00     0.020 A 
ATOM      3  C2  UNL d   1       1.262   0.064   1.606  0.00  0.00     0.034 A 
ATOM      4  C3  UNL d   1       0.944   0.910   0.537  0.00  0.00     0.017 A 
ATOM      5  C4  UNL d   1      -0.223   0.687  -0.202  0.00  0.00     0.017 A 
ATOM      6  C5  UNL d   1      -1.064  -0.380   0.131  0.00  0.00     0.034 A 
ATOM      7 Cl   UNL d   1      -0.682   1.688  -1.534  0.00  0.00    -0.070 Cl
ATOM      8 Cl1  UNL d   1       2.031   2.206   0.187  0.00  0.00    -0.070 Cl
ENDROOT
TORSDOF 0
ENDMDL
