MODEL 1
REMARK minimizedAffinity -4.01457453
REMARK minimizedRMSD -1
REMARK  0 active torsions:
REMARK  status: ('A' for Active; 'I' for Inactive)
ROOT
ATOM      1  C   UNL d   1      -0.150  -1.818  -1.968  0.00  0.00     0.020 A 
ATOM      2  C1  UNL d   1      -0.748  -2.715  -1.083  0.00  0.00     0.020 A 
ATOM      3  C2  UNL d   1      -1.121  -2.290   0.194  0.00  0.00     0.034 A 
ATOM      4  C3  UNL d   1      -0.897  -0.967   0.589  0.00  0.00     0.017 A 
ATOM      5  C4  UNL d   1      -0.297  -0.068  -0.300  0.00  0.00     0.017 A 
ATOM      6  C5  UNL d   1       0.075  -0.498  -1.577  0.00  0.00     0.034 A 
ATOM      7 Cl   UNL d   1       0.011   1.581   0.116  0.00  0.00    -0.070 Cl
ATOM      8 Cl1  UNL d   1      -1.385  -0.511   2.183  0.00  0.00    -0.070 Cl
ENDROOT
TORSDOF 0
ENDMDL
