MODEL 1
REMARK minimizedAffinity -2.81979489
REMARK minimizedRMSD -1
REMARK  0 active torsions:
REMARK  status: ('A' for Active; 'I' for Inactive)
ROOT
ATOM      1  C   UNL d   1       0.027   1.283  -1.245  0.00  0.00     0.020 A 
ATOM      2  C1  UNL d   1       0.479   0.148  -1.916  0.00  0.00     0.020 A 
ATOM      3  C2  UNL d   1       0.353  -1.110  -1.322  0.00  0.00     0.034 A 
ATOM      4  C3  UNL d   1      -0.227  -1.235  -0.054  0.00  0.00     0.017 A 
ATOM      5  C4  UNL d   1      -0.681  -0.094   0.618  0.00  0.00     0.017 A 
ATOM      6  C5  UNL d   1      -0.552   1.163   0.019  0.00  0.00     0.034 A 
ATOM      7 Cl   UNL d   1      -1.407  -0.169   2.185  0.00  0.00    -0.070 Cl
ATOM      8 Cl1  UNL d   1      -0.352  -2.821   0.620  0.00  0.00    -0.070 Cl
ENDROOT
TORSDOF 0
ENDMDL
