MODEL 1
REMARK minimizedAffinity -2.64243317
REMARK minimizedRMSD -1
REMARK  0 active torsions:
REMARK  status: ('A' for Active; 'I' for Inactive)
ROOT
ATOM      1  C   UNL d   1      -0.927  -0.950   1.470  0.00  0.00     0.020 A 
ATOM      2  C1  UNL d   1      -0.005  -0.536   2.430  0.00  0.00     0.020 A 
ATOM      3  C2  UNL d   1       0.899   0.486   2.135  0.00  0.00     0.034 A 
ATOM      4  C3  UNL d   1       0.883   1.097   0.876  0.00  0.00     0.017 A 
ATOM      5  C4  UNL d   1      -0.043   0.681  -0.087  0.00  0.00     0.017 A 
ATOM      6  C5  UNL d   1      -0.946  -0.343   0.214  0.00  0.00     0.034 A 
ATOM      7 Cl   UNL d   1      -0.123   1.388  -1.663  0.00  0.00    -0.070 Cl
ATOM      8 Cl1  UNL d   1       2.030   2.355   0.579  0.00  0.00    -0.070 Cl
ENDROOT
TORSDOF 0
ENDMDL
