MODEL 1
REMARK minimizedAffinity -0.509767473
REMARK minimizedRMSD -1
REMARK  0 active torsions:
REMARK  status: ('A' for Active; 'I' for Inactive)
ROOT
ATOM      1  C   UNL d   1      -0.401   1.321   0.996  0.00  0.00     0.020 A 
ATOM      2  C1  UNL d   1       0.008   1.703  -0.281  0.00  0.00     0.020 A 
ATOM      3  C2  UNL d   1       0.077   0.755  -1.304  0.00  0.00     0.034 A 
ATOM      4  C3  UNL d   1      -0.264  -0.579  -1.052  0.00  0.00     0.017 A 
ATOM      5  C4  UNL d   1      -0.674  -0.961   0.230  0.00  0.00     0.017 A 
ATOM      6  C5  UNL d   1      -0.742  -0.008   1.251  0.00  0.00     0.034 A 
ATOM      7 Cl   UNL d   1      -1.111  -2.588   0.617  0.00  0.00    -0.070 Cl
ATOM      8 Cl1  UNL d   1      -0.155  -1.698  -2.365  0.00  0.00    -0.070 Cl
ENDROOT
TORSDOF 0
ENDMDL
