MODEL 1
REMARK minimizedAffinity -3.29225659
REMARK minimizedRMSD -1
REMARK  0 active torsions:
REMARK  status: ('A' for Active; 'I' for Inactive)
ROOT
ATOM      1  C   UNL d   1      -0.366  -1.984  -2.084  0.00  0.00     0.020 A 
ATOM      2  C1  UNL d   1      -0.922  -2.866  -1.158  0.00  0.00     0.020 A 
ATOM      3  C2  UNL d   1      -1.238  -2.421   0.127  0.00  0.00     0.034 A 
ATOM      4  C3  UNL d   1      -0.996  -1.092   0.491  0.00  0.00     0.017 A 
ATOM      5  C4  UNL d   1      -0.437  -0.207  -0.438  0.00  0.00     0.017 A 
ATOM      6  C5  UNL d   1      -0.124  -0.657  -1.724  0.00  0.00     0.034 A 
ATOM      7 Cl   UNL d   1      -0.111   1.448  -0.062  0.00  0.00    -0.070 Cl
ATOM      8 Cl1  UNL d   1      -1.411  -0.611   2.098  0.00  0.00    -0.070 Cl
ENDROOT
TORSDOF 0
ENDMDL
