MODEL 1
REMARK minimizedAffinity -2.4467175
REMARK minimizedRMSD -1
REMARK  0 active torsions:
REMARK  status: ('A' for Active; 'I' for Inactive)
ROOT
ATOM      1  C   UNL d   1       2.583   3.474   1.539  0.00  0.00     0.020 A 
ATOM      2  C1  UNL d   1       1.323   3.785   1.029  0.00  0.00     0.020 A 
ATOM      3  C2  UNL d   1       0.561   2.799   0.400  0.00  0.00     0.034 A 
ATOM      4  C3  UNL d   1       1.058   1.496   0.279  0.00  0.00     0.017 A 
ATOM      5  C4  UNL d   1       2.322   1.184   0.791  0.00  0.00     0.017 A 
ATOM      6  C5  UNL d   1       3.081   2.176   1.420  0.00  0.00     0.034 A 
ATOM      7 Cl   UNL d   1       3.002  -0.401   0.679  0.00  0.00    -0.070 Cl
ATOM      8 Cl1  UNL d   1       0.061   0.326  -0.511  0.00  0.00    -0.070 Cl
ENDROOT
TORSDOF 0
ENDMDL
