MODEL 1
REMARK minimizedAffinity -0.642421484
REMARK minimizedRMSD -1
REMARK  0 active torsions:
REMARK  status: ('A' for Active; 'I' for Inactive)
ROOT
ATOM      1  C   UNL d   1       0.325  -0.530   1.853  0.00  0.00     0.020 A 
ATOM      2  C1  UNL d   1      -0.738  -0.957   1.059  0.00  0.00     0.020 A 
ATOM      3  C2  UNL d   1      -1.107  -0.221  -0.069  0.00  0.00     0.034 A 
ATOM      4  C3  UNL d   1      -0.412   0.947  -0.406  0.00  0.00     0.017 A 
ATOM      5  C4  UNL d   1       0.655   1.374   0.392  0.00  0.00     0.017 A 
ATOM      6  C5  UNL d   1       1.020   0.633   1.521  0.00  0.00     0.034 A 
ATOM      7 Cl   UNL d   1       1.561   2.804   0.041  0.00  0.00    -0.070 Cl
ATOM      8 Cl1  UNL d   1      -0.921   1.808  -1.814  0.00  0.00    -0.070 Cl
ENDROOT
TORSDOF 0
ENDMDL
