MODEL 1
REMARK minimizedAffinity -0.469990581
REMARK minimizedRMSD -1
REMARK  0 active torsions:
REMARK  status: ('A' for Active; 'I' for Inactive)
ROOT
ATOM      1  C   UNL d   1      -0.441   1.049   0.765  0.00  0.00     0.020 A 
ATOM      2  C1  UNL d   1      -0.033   1.579  -0.458  0.00  0.00     0.020 A 
ATOM      3  C2  UNL d   1       0.207   0.730  -1.541  0.00  0.00     0.034 A 
ATOM      4  C3  UNL d   1       0.038  -0.653  -1.403  0.00  0.00     0.017 A 
ATOM      5  C4  UNL d   1      -0.372  -1.183  -0.174  0.00  0.00     0.017 A 
ATOM      6  C5  UNL d   1      -0.611  -0.329   0.907  0.00  0.00     0.034 A 
ATOM      7 Cl   UNL d   1      -0.602  -2.878   0.073  0.00  0.00    -0.070 Cl
ATOM      8 Cl1  UNL d   1       0.352  -1.643  -2.784  0.00  0.00    -0.070 Cl
ENDROOT
TORSDOF 0
ENDMDL
