MODEL 1
REMARK minimizedAffinity -3.23021793
REMARK minimizedRMSD -1
REMARK  0 active torsions:
REMARK  status: ('A' for Active; 'I' for Inactive)
ROOT
ATOM      1  C   UNL d   1      -0.937  -1.450   1.246  0.00  0.00     0.020 A 
ATOM      2  C1  UNL d   1      -0.815  -2.750   0.755  0.00  0.00     0.020 A 
ATOM      3  C2  UNL d   1      -0.535  -2.962  -0.596  0.00  0.00     0.034 A 
ATOM      4  C3  UNL d   1      -0.376  -1.874  -1.461  0.00  0.00     0.017 A 
ATOM      5  C4  UNL d   1      -0.499  -0.570  -0.968  0.00  0.00     0.017 A 
ATOM      6  C5  UNL d   1      -0.780  -0.363   0.386  0.00  0.00     0.034 A 
ATOM      7 Cl   UNL d   1      -0.316   0.823  -1.975  0.00  0.00    -0.070 Cl
ATOM      8 Cl1  UNL d   1      -0.030  -2.210  -3.121  0.00  0.00    -0.070 Cl
ENDROOT
TORSDOF 0
ENDMDL
