MODEL 1
REMARK minimizedAffinity -4.58286381
REMARK minimizedRMSD -1
REMARK  0 active torsions:
REMARK  status: ('A' for Active; 'I' for Inactive)
ROOT
ATOM      1  C   UNL d   1      -0.790  -1.596   1.669  0.00  0.00     0.020 A 
ATOM      2  C1  UNL d   1      -1.244  -2.284   0.544  0.00  0.00     0.020 A 
ATOM      3  C2  UNL d   1      -0.988  -1.780  -0.732  0.00  0.00     0.034 A 
ATOM      4  C3  UNL d   1      -0.277  -0.584  -0.888  0.00  0.00     0.017 A 
ATOM      5  C4  UNL d   1       0.178   0.105   0.242  0.00  0.00     0.017 A 
ATOM      6  C5  UNL d   1      -0.081  -0.404   1.518  0.00  0.00     0.034 A 
ATOM      7 Cl   UNL d   1       1.062   1.586   0.130  0.00  0.00    -0.070 Cl
ATOM      8 Cl1  UNL d   1       0.004  -0.019  -2.496  0.00  0.00    -0.070 Cl
ENDROOT
TORSDOF 0
ENDMDL
