MODEL 1
REMARK minimizedAffinity -1.98161614
REMARK minimizedRMSD -1
REMARK  0 active torsions:
REMARK  status: ('A' for Active; 'I' for Inactive)
ROOT
ATOM      1  C   UNL d   1      -0.348   0.749   1.343  0.00  0.00     0.020 A 
ATOM      2  C1  UNL d   1       0.147   1.401   0.214  0.00  0.00     0.020 A 
ATOM      3  C2  UNL d   1       0.396   0.679  -0.955  0.00  0.00     0.034 A 
ATOM      4  C3  UNL d   1       0.152  -0.698  -0.998  0.00  0.00     0.017 A 
ATOM      5  C4  UNL d   1      -0.345  -1.351   0.136  0.00  0.00     0.017 A 
ATOM      6  C5  UNL d   1      -0.593  -0.624   1.304  0.00  0.00     0.034 A 
ATOM      7 Cl   UNL d   1      -0.671  -3.048   0.159  0.00  0.00    -0.070 Cl
ATOM      8 Cl1  UNL d   1       0.483  -1.527  -2.477  0.00  0.00    -0.070 Cl
ENDROOT
TORSDOF 0
ENDMDL
