MODEL 1
REMARK minimizedAffinity -3.21645164
REMARK minimizedRMSD -1
REMARK  0 active torsions:
REMARK  status: ('A' for Active; 'I' for Inactive)
ROOT
ATOM      1  C   UNL d   1       0.720  -2.123  -0.087  0.00  0.00     0.020 A 
ATOM      2  C1  UNL d   1      -0.389  -2.675   0.553  0.00  0.00     0.020 A 
ATOM      3  C2  UNL d   1      -1.408  -1.844   1.024  0.00  0.00     0.034 A 
ATOM      4  C3  UNL d   1      -1.320  -0.457   0.856  0.00  0.00     0.017 A 
ATOM      5  C4  UNL d   1      -0.206   0.095   0.214  0.00  0.00     0.017 A 
ATOM      6  C5  UNL d   1       0.811  -0.741  -0.256  0.00  0.00     0.034 A 
ATOM      7 Cl   UNL d   1      -0.026   1.797  -0.031  0.00  0.00    -0.070 Cl
ATOM      8 Cl1  UNL d   1      -2.617   0.509   1.463  0.00  0.00    -0.070 Cl
ENDROOT
TORSDOF 0
ENDMDL
