MODEL 1
REMARK minimizedAffinity -2.7500701
REMARK minimizedRMSD -1
REMARK  0 active torsions:
REMARK  status: ('A' for Active; 'I' for Inactive)
ROOT
ATOM      1  C   UNL d   1      -0.590  -1.166   1.463  0.00  0.00     0.020 A 
ATOM      2  C1  UNL d   1       0.583  -0.943   2.183  0.00  0.00     0.020 A 
ATOM      3  C2  UNL d   1       1.430   0.110   1.830  0.00  0.00     0.034 A 
ATOM      4  C3  UNL d   1       1.104   0.945   0.755  0.00  0.00     0.017 A 
ATOM      5  C4  UNL d   1      -0.074   0.720   0.033  0.00  0.00     0.017 A 
ATOM      6  C5  UNL d   1      -0.918  -0.336   0.391  0.00  0.00     0.034 A 
ATOM      7 Cl   UNL d   1      -0.543   1.707  -1.306  0.00  0.00    -0.070 Cl
ATOM      8 Cl1  UNL d   1       2.196   2.228   0.374  0.00  0.00    -0.070 Cl
ENDROOT
TORSDOF 0
ENDMDL
