MODEL 1
REMARK minimizedAffinity -1.27488291
REMARK minimizedRMSD -1
REMARK  0 active torsions:
REMARK  status: ('A' for Active; 'I' for Inactive)
ROOT
ATOM      1  C   UNL d   1      -1.003  -0.961   1.666  0.00  0.00     0.020 A 
ATOM      2  C1  UNL d   1      -1.474  -1.718   0.594  0.00  0.00     0.020 A 
ATOM      3  C2  UNL d   1      -1.124  -1.372  -0.712  0.00  0.00     0.034 A 
ATOM      4  C3  UNL d   1      -0.301  -0.266  -0.951  0.00  0.00     0.017 A 
ATOM      5  C4  UNL d   1       0.172   0.494   0.126  0.00  0.00     0.017 A 
ATOM      6  C5  UNL d   1      -0.182   0.142   1.432  0.00  0.00     0.034 A 
ATOM      7 Cl   UNL d   1       1.192   1.872  -0.089  0.00  0.00    -0.070 Cl
ATOM      8 Cl1  UNL d   1       0.092   0.105  -2.592  0.00  0.00    -0.070 Cl
ENDROOT
TORSDOF 0
ENDMDL
