MODEL 1
REMARK minimizedAffinity -2.62138677
REMARK minimizedRMSD -1
REMARK  0 active torsions:
REMARK  status: ('A' for Active; 'I' for Inactive)
ROOT
ATOM      1  C   UNL d   1      -0.973  -1.280   1.717  0.00  0.00     0.020 A 
ATOM      2  C1  UNL d   1      -1.019  -2.393   0.878  0.00  0.00     0.020 A 
ATOM      3  C2  UNL d   1      -0.544  -2.300  -0.432  0.00  0.00     0.034 A 
ATOM      4  C3  UNL d   1      -0.022  -1.091  -0.907  0.00  0.00     0.017 A 
ATOM      5  C4  UNL d   1       0.024   0.025  -0.064  0.00  0.00     0.017 A 
ATOM      6  C5  UNL d   1      -0.453  -0.073   1.246  0.00  0.00     0.034 A 
ATOM      7 Cl   UNL d   1       0.654   1.550  -0.579  0.00  0.00    -0.070 Cl
ATOM      8 Cl1  UNL d   1       0.548  -1.048  -2.538  0.00  0.00    -0.070 Cl
ENDROOT
TORSDOF 0
ENDMDL
