MODEL 1
REMARK minimizedAffinity -2.37967873
REMARK minimizedRMSD -1
REMARK  0 active torsions:
REMARK  status: ('A' for Active; 'I' for Inactive)
ROOT
ATOM      1  C   UNL d   1      -0.694  -2.453   1.397  0.00  0.00     0.020 A 
ATOM      2  C1  UNL d   1      -0.783  -1.207   2.017  0.00  0.00     0.020 A 
ATOM      3  C2  UNL d   1      -0.598  -0.041   1.271  0.00  0.00     0.034 A 
ATOM      4  C3  UNL d   1      -0.323  -0.118  -0.100  0.00  0.00     0.017 A 
ATOM      5  C4  UNL d   1      -0.234  -1.369  -0.721  0.00  0.00     0.017 A 
ATOM      6  C5  UNL d   1      -0.421  -2.534   0.031  0.00  0.00     0.034 A 
ATOM      7 Cl   UNL d   1       0.102  -1.545  -2.407  0.00  0.00    -0.070 Cl
ATOM      8 Cl1  UNL d   1      -0.106   1.364  -0.961  0.00  0.00    -0.070 Cl
ENDROOT
TORSDOF 0
ENDMDL
