MODEL 1
REMARK minimizedAffinity -1.70522416
REMARK minimizedRMSD -1
REMARK  0 active torsions:
REMARK  status: ('A' for Active; 'I' for Inactive)
ROOT
ATOM      1  C   UNL d   1       1.012   3.428   0.346  0.00  0.00     0.020 A 
ATOM      2  C1  UNL d   1       1.241   3.484   1.721  0.00  0.00     0.020 A 
ATOM      3  C2  UNL d   1       0.964   2.373   2.521  0.00  0.00     0.034 A 
ATOM      4  C3  UNL d   1       0.456   1.202   1.947  0.00  0.00     0.017 A 
ATOM      5  C4  UNL d   1       0.227   1.146   0.568  0.00  0.00     0.017 A 
ATOM      6  C5  UNL d   1       0.506   2.261  -0.229  0.00  0.00     0.034 A 
ATOM      7 Cl   UNL d   1      -0.397  -0.264  -0.212  0.00  0.00    -0.070 Cl
ATOM      8 Cl1  UNL d   1       0.137  -0.133   2.996  0.00  0.00    -0.070 Cl
ENDROOT
TORSDOF 0
ENDMDL
