MODEL 1
REMARK minimizedAffinity 6.95269251
REMARK minimizedRMSD -1
REMARK  1 active torsions:
REMARK  status: ('A' for Active; 'I' for Inactive)
REMARK    1  A    between atoms: C1_2  and  C2_3 
ROOT
ATOM      1  C2  UNL d   1       1.707  -0.048  -2.789  0.00  0.00    -0.081 A 
ATOM      2  C3  UNL d   1       1.386   0.702  -1.651  0.00  0.00     0.006 A 
ATOM      3  C4  UNL d   1       0.852   0.080  -0.520  0.00  0.00     0.002 A 
ATOM      4  C5  UNL d   1       0.638  -1.303  -0.505  0.00  0.00    -0.080 A 
ATOM      5  C6  UNL d   1       0.094  -1.987   0.713  0.00  0.00     0.076 C 
ATOM      6  C7  UNL d   1       0.942  -2.050  -1.648  0.00  0.00     0.002 A 
ATOM      7  C8  UNL d   1       1.476  -1.428  -2.779  0.00  0.00     0.006 A 
ENDROOT
BRANCH   1   8
ATOM      8  C1  UNL d   1       2.343   0.610  -3.987  0.00  0.00     0.054 C 
ATOM      9  C   UNL d   1       3.837   0.812  -3.779  0.00  0.00     0.018 C 
ENDBRANCH   1   8
TORSDOF 1
ENDMDL
