MODEL 1
REMARK minimizedAffinity 3.72504091
REMARK minimizedRMSD -1
REMARK  1 active torsions:
REMARK  status: ('A' for Active; 'I' for Inactive)
REMARK    1  A    between atoms: C1_2  and  C2_3 
ROOT
ATOM      1  C2  UNL d   1      -0.346  -2.095   0.209  0.00  0.00    -0.081 A 
ATOM      2  C3  UNL d   1      -0.544  -1.114  -0.771  0.00  0.00     0.006 A 
ATOM      3  C4  UNL d   1       0.545  -0.436  -1.325  0.00  0.00     0.002 A 
ATOM      4  C5  UNL d   1       1.849  -0.733  -0.915  0.00  0.00    -0.080 A 
ATOM      5  C6  UNL d   1       3.028  -0.034  -1.523  0.00  0.00     0.076 C 
ATOM      6  C7  UNL d   1       2.046  -1.701   0.076  0.00  0.00     0.002 A 
ATOM      7  C8  UNL d   1       0.958  -2.378   0.631  0.00  0.00     0.006 A 
ENDROOT
BRANCH   1   8
ATOM      8  C1  UNL d   1      -1.513  -2.873   0.761  0.00  0.00     0.054 C 
ATOM      9  C   UNL d   1      -2.271  -2.066   1.806  0.00  0.00     0.018 C 
ENDBRANCH   1   8
TORSDOF 1
ENDMDL
