MODEL 1
REMARK minimizedAffinity 0.326288879
REMARK minimizedRMSD -1
REMARK  1 active torsions:
REMARK  status: ('A' for Active; 'I' for Inactive)
REMARK    1  A    between atoms: C1_2  and  C2_3 
ROOT
ATOM      1  C2  UNL d   1      -3.248   2.139   4.840  0.00  0.00    -0.081 A 
ATOM      2  C3  UNL d   1      -3.796   2.701   6.000  0.00  0.00     0.006 A 
ATOM      3  C4  UNL d   1      -4.408   3.956   5.957  0.00  0.00     0.002 A 
ATOM      4  C5  UNL d   1      -4.490   4.665   4.754  0.00  0.00    -0.080 A 
ATOM      5  C6  UNL d   1      -5.172   6.000   4.688  0.00  0.00     0.076 C 
ATOM      6  C7  UNL d   1      -3.928   4.111   3.599  0.00  0.00     0.002 A 
ATOM      7  C8  UNL d   1      -3.315   2.857   3.641  0.00  0.00     0.006 A 
ENDROOT
BRANCH   1   8
ATOM      8  C1  UNL d   1      -2.645   0.758   4.870  0.00  0.00     0.054 C 
ATOM      9  C   UNL d   1      -3.682  -0.292   5.241  0.00  0.00     0.018 C 
ENDBRANCH   1   8
TORSDOF 1
ENDMDL
