MODEL 1
REMARK minimizedAffinity -1.26019168
REMARK minimizedRMSD -1
REMARK  1 active torsions:
REMARK  status: ('A' for Active; 'I' for Inactive)
REMARK    1  A    between atoms: C1_2  and  C2_3 
ROOT
ATOM      1  C2  UNL d   1      -3.602   1.097   4.067  0.00  0.00    -0.081 A 
ATOM      2  C3  UNL d   1      -4.626   0.473   3.345  0.00  0.00     0.006 A 
ATOM      3  C4  UNL d   1      -4.522  -0.874   2.987  0.00  0.00     0.002 A 
ATOM      4  C5  UNL d   1      -3.396  -1.619   3.351  0.00  0.00    -0.080 A 
ATOM      5  C6  UNL d   1      -3.284  -3.073   3.000  0.00  0.00     0.076 C 
ATOM      6  C7  UNL d   1      -2.364  -0.991   4.058  0.00  0.00     0.002 A 
ATOM      7  C8  UNL d   1      -2.468   0.355   4.415  0.00  0.00     0.006 A 
ENDROOT
BRANCH   1   8
ATOM      8  C1  UNL d   1      -3.741   2.531   4.510  0.00  0.00     0.054 C 
ATOM      9  C   UNL d   1      -4.051   2.622   5.998  0.00  0.00     0.018 C 
ENDBRANCH   1   8
TORSDOF 1
ENDMDL
