MODEL 1
REMARK minimizedAffinity -0.851955295
REMARK minimizedRMSD -1
REMARK  1 active torsions:
REMARK  status: ('A' for Active; 'I' for Inactive)
REMARK    1  A    between atoms: C1_2  and  C2_3 
ROOT
ATOM      1  C2  UNL d   1       0.657  -1.423  -0.400  0.00  0.00    -0.081 A 
ATOM      2  C3  UNL d   1       1.920  -1.973  -0.152  0.00  0.00     0.006 A 
ATOM      3  C4  UNL d   1       2.041  -3.205   0.496  0.00  0.00     0.002 A 
ATOM      4  C5  UNL d   1       0.902  -3.910   0.900  0.00  0.00    -0.080 A 
ATOM      5  C6  UNL d   1       1.018  -5.247   1.570  0.00  0.00     0.076 C 
ATOM      6  C7  UNL d   1      -0.359  -3.352   0.668  0.00  0.00     0.002 A 
ATOM      7  C8  UNL d   1      -0.481  -2.120   0.020  0.00  0.00     0.006 A 
ENDROOT
BRANCH   1   8
ATOM      8  C1  UNL d   1       0.521  -0.126  -1.157  0.00  0.00     0.054 C 
ATOM      9  C   UNL d   1       0.139  -0.371  -2.609  0.00  0.00     0.018 C 
ENDBRANCH   1   8
TORSDOF 1
ENDMDL
