MODEL 1
REMARK minimizedAffinity -0.365215421
REMARK minimizedRMSD -1
REMARK  1 active torsions:
REMARK  status: ('A' for Active; 'I' for Inactive)
REMARK    1  A    between atoms: C1_2  and  C2_3 
ROOT
ATOM      1  C2  UNL d   1       1.778   1.260  -4.010  0.00  0.00    -0.081 A 
ATOM      2  C3  UNL d   1       2.160   0.059  -3.400  0.00  0.00     0.006 A 
ATOM      3  C4  UNL d   1       1.687  -0.272  -2.128  0.00  0.00     0.002 A 
ATOM      4  C5  UNL d   1       0.818   0.588  -1.449  0.00  0.00    -0.080 A 
ATOM      5  C6  UNL d   1       0.279   0.231  -0.095  0.00  0.00     0.076 C 
ATOM      6  C7  UNL d   1       0.449   1.796  -2.050  0.00  0.00     0.002 A 
ATOM      7  C8  UNL d   1       0.922   2.128  -3.322  0.00  0.00     0.006 A 
ENDROOT
BRANCH   1   8
ATOM      8  C1  UNL d   1       2.234   1.589  -5.408  0.00  0.00     0.054 C 
ATOM      9  C   UNL d   1       3.744   1.453  -5.543  0.00  0.00     0.018 C 
ENDBRANCH   1   8
TORSDOF 1
ENDMDL
