MODEL 1
REMARK minimizedAffinity 3.246382
REMARK minimizedRMSD -1
REMARK  1 active torsions:
REMARK  status: ('A' for Active; 'I' for Inactive)
REMARK    1  A    between atoms: C1_2  and  C2_3 
ROOT
ATOM      1  C2  UNL d   1       0.724  -1.021  -0.506  0.00  0.00    -0.081 A 
ATOM      2  C3  UNL d   1       0.525  -1.457  -1.821  0.00  0.00     0.006 A 
ATOM      3  C4  UNL d   1       0.566  -0.549  -2.882  0.00  0.00     0.002 A 
ATOM      4  C5  UNL d   1       0.814   0.807  -2.646  0.00  0.00    -0.080 A 
ATOM      5  C6  UNL d   1       0.890   1.787  -3.779  0.00  0.00     0.076 C 
ATOM      6  C7  UNL d   1       0.995   1.246  -1.330  0.00  0.00     0.002 A 
ATOM      7  C8  UNL d   1       0.953   0.339  -0.269  0.00  0.00     0.006 A 
ENDROOT
BRANCH   1   8
ATOM      8  C1  UNL d   1       0.744  -2.008   0.634  0.00  0.00     0.054 C 
ATOM      9  C   UNL d   1      -0.624  -2.124   1.290  0.00  0.00     0.018 C 
ENDBRANCH   1   8
TORSDOF 1
ENDMDL
