MODEL 1
REMARK minimizedAffinity 2.82646298
REMARK minimizedRMSD -1
REMARK  1 active torsions:
REMARK  status: ('A' for Active; 'I' for Inactive)
REMARK    1  A    between atoms: C1_2  and  C2_3 
ROOT
ATOM      1  C2  UNL d   1       0.802  -0.694  -1.133  0.00  0.00    -0.081 A 
ATOM      2  C3  UNL d   1       0.649   0.441  -1.940  0.00  0.00     0.006 A 
ATOM      3  C4  UNL d   1       0.964   0.390  -3.300  0.00  0.00     0.002 A 
ATOM      4  C5  UNL d   1       1.429  -0.796  -3.877  0.00  0.00    -0.080 A 
ATOM      5  C6  UNL d   1       1.742  -0.872  -5.342  0.00  0.00     0.076 C 
ATOM      6  C7  UNL d   1       1.598  -1.925  -3.068  0.00  0.00     0.002 A 
ATOM      7  C8  UNL d   1       1.284  -1.875  -1.708  0.00  0.00     0.006 A 
ENDROOT
BRANCH   1   8
ATOM      8  C1  UNL d   1       0.402  -0.661   0.320  0.00  0.00     0.054 C 
ATOM      9  C   UNL d   1      -0.641  -1.725   0.631  0.00  0.00     0.018 C 
ENDBRANCH   1   8
TORSDOF 1
ENDMDL
