MODEL 1
REMARK minimizedAffinity 10.3307867
REMARK minimizedRMSD -1
REMARK  1 active torsions:
REMARK  status: ('A' for Active; 'I' for Inactive)
REMARK    1  A    between atoms: C1_2  and  C2_3 
ROOT
ATOM      1  C2  UNL d   1      -4.493   5.021   4.229  0.00  0.00    -0.081 A 
ATOM      2  C3  UNL d   1      -3.395   4.284   3.769  0.00  0.00     0.006 A 
ATOM      3  C4  UNL d   1      -2.962   4.407   2.447  0.00  0.00     0.002 A 
ATOM      4  C5  UNL d   1      -3.614   5.275   1.565  0.00  0.00    -0.080 A 
ATOM      5  C6  UNL d   1      -3.141   5.440   0.151  0.00  0.00     0.076 C 
ATOM      6  C7  UNL d   1      -4.722   5.999   2.019  0.00  0.00     0.002 A 
ATOM      7  C8  UNL d   1      -5.156   5.876   3.340  0.00  0.00     0.006 A 
ENDROOT
BRANCH   1   8
ATOM      8  C1  UNL d   1      -4.922   4.939   5.671  0.00  0.00     0.054 C 
ATOM      9  C   UNL d   1      -5.965   5.998   6.000  0.00  0.00     0.018 C 
ENDBRANCH   1   8
TORSDOF 1
ENDMDL
