MODEL 1
REMARK minimizedAffinity 3.29823709
REMARK minimizedRMSD -1
REMARK  1 active torsions:
REMARK  status: ('A' for Active; 'I' for Inactive)
REMARK    1  A    between atoms: C1_2  and  C2_3 
ROOT
ATOM      1  C2  UNL d   1       0.924   0.964  -1.638  0.00  0.00    -0.081 A 
ATOM      2  C3  UNL d   1       0.862  -0.120  -0.753  0.00  0.00     0.006 A 
ATOM      3  C4  UNL d   1       1.059  -1.423  -1.215  0.00  0.00     0.002 A 
ATOM      4  C5  UNL d   1       1.330  -1.664  -2.566  0.00  0.00    -0.080 A 
ATOM      5  C6  UNL d   1       1.573  -3.056  -3.070  0.00  0.00     0.076 C 
ATOM      6  C7  UNL d   1       1.375  -0.583  -3.454  0.00  0.00     0.002 A 
ATOM      7  C8  UNL d   1       1.177   0.720  -2.993  0.00  0.00     0.006 A 
ENDROOT
BRANCH   1   8
ATOM      8  C1  UNL d   1       0.776   2.376  -1.132  0.00  0.00     0.054 C 
ATOM      9  C   UNL d   1       1.940   2.766  -0.231  0.00  0.00     0.018 C 
ENDBRANCH   1   8
TORSDOF 1
ENDMDL
