MODEL 1
REMARK minimizedAffinity 4.02537107
REMARK minimizedRMSD -1
REMARK  1 active torsions:
REMARK  status: ('A' for Active; 'I' for Inactive)
REMARK    1  A    between atoms: C1_2  and  C2_3 
ROOT
ATOM      1  C2  UNL d   1       1.001  -0.723  -3.048  0.00  0.00    -0.081 A 
ATOM      2  C3  UNL d   1       1.262   0.551  -3.567  0.00  0.00     0.006 A 
ATOM      3  C4  UNL d   1       1.151   1.682  -2.755  0.00  0.00     0.002 A 
ATOM      4  C5  UNL d   1       0.785   1.558  -1.410  0.00  0.00    -0.080 A 
ATOM      5  C6  UNL d   1       0.691   2.761  -0.520  0.00  0.00     0.076 C 
ATOM      6  C7  UNL d   1       0.507   0.287  -0.897  0.00  0.00     0.002 A 
ATOM      7  C8  UNL d   1       0.617  -0.845  -1.708  0.00  0.00     0.006 A 
ENDROOT
BRANCH   1   8
ATOM      8  C1  UNL d   1       1.184  -1.951  -3.903  0.00  0.00     0.054 C 
ATOM      9  C   UNL d   1       1.568  -3.160  -3.062  0.00  0.00     0.018 C 
ENDBRANCH   1   8
TORSDOF 1
ENDMDL
