MODEL 1
REMARK minimizedAffinity 7.94483566
REMARK minimizedRMSD -1
REMARK  1 active torsions:
REMARK  status: ('A' for Active; 'I' for Inactive)
REMARK    1  A    between atoms: C1_2  and  C2_3 
ROOT
ATOM      1  C2  UNL d   1       1.096  -0.184  -2.661  0.00  0.00    -0.081 A 
ATOM      2  C3  UNL d   1       0.742  -1.104  -1.666  0.00  0.00     0.006 A 
ATOM      3  C4  UNL d   1       0.832  -2.477  -1.907  0.00  0.00     0.002 A 
ATOM      4  C5  UNL d   1       1.285  -2.953  -3.143  0.00  0.00    -0.080 A 
ATOM      5  C6  UNL d   1       1.416  -4.424  -3.404  0.00  0.00     0.076 C 
ATOM      6  C7  UNL d   1       1.622  -2.034  -4.142  0.00  0.00     0.002 A 
ATOM      7  C8  UNL d   1       1.531  -0.661  -3.902  0.00  0.00     0.006 A 
ENDROOT
BRANCH   1   8
ATOM      8  C1  UNL d   1       1.061   1.297  -2.382  0.00  0.00     0.054 C 
ATOM      9  C   UNL d   1       1.087   1.579  -0.887  0.00  0.00     0.018 C 
ENDBRANCH   1   8
TORSDOF 1
ENDMDL
