MODEL 1
REMARK minimizedAffinity 5.91586733
REMARK minimizedRMSD -1
REMARK  2 active torsions:
REMARK  status: ('A' for Active; 'I' for Inactive)
REMARK    1  A    between atoms: C2'_3  and  C1'_4 
REMARK    2  A    between atoms: C1'_4  and  C1_5 
ROOT
ATOM      1  C1  I4B d   1      -2.701  -3.657  -4.289  0.00  0.00    -0.075 A 
ATOM      2  C2  I4B d   1      -3.504  -2.555  -4.446  0.00  0.00     0.003 A 
ATOM      3  C3  I4B d   1      -4.637  -2.613  -5.293  0.00  0.00     0.002 A 
ATOM      4  C4  I4B d   1      -4.900  -3.769  -5.998  0.00  0.00    -0.004 A 
ATOM      5  C5  I4B d   1      -4.098  -4.893  -5.820  0.00  0.00     0.002 A 
ATOM      6  C6  I4B d   1      -2.998  -4.841  -4.951  0.00  0.00     0.003 A 
ENDROOT
BRANCH   1   7
ATOM      7  C1' I4B d   1      -1.493  -3.550  -3.413  0.00  0.00     0.060 C 
BRANCH   7   8
ATOM      8  C2' I4B d   1      -1.080  -4.953  -3.015  0.00  0.00    -0.013 C 
ATOM      9  C4' I4B d   1       0.396  -5.024  -2.724  0.00  0.00     0.013 C 
ATOM     10  C3' I4B d   1      -1.888  -5.351  -1.816  0.00  0.00     0.013 C 
ENDBRANCH   7   8
ENDBRANCH   1   7
TORSDOF 2
ENDMDL
