MODEL 1
REMARK minimizedAffinity 14.7115688
REMARK minimizedRMSD -1
REMARK  2 active torsions:
REMARK  status: ('A' for Active; 'I' for Inactive)
REMARK    1  A    between atoms: C2'_3  and  C1'_4 
REMARK    2  A    between atoms: C1'_4  and  C1_5 
ROOT
ATOM      1  C1  I4B d   1       3.266  -1.822  -0.356  0.00  0.00    -0.075 A 
ATOM      2  C2  I4B d   1       4.542  -1.775   0.147  0.00  0.00     0.003 A 
ATOM      3  C3  I4B d   1       5.098  -0.542   0.566  0.00  0.00     0.002 A 
ATOM      4  C4  I4B d   1       4.366   0.619   0.418  0.00  0.00    -0.004 A 
ATOM      5  C5  I4B d   1       3.064   0.566  -0.071  0.00  0.00     0.002 A 
ATOM      6  C6  I4B d   1       2.505  -0.664  -0.449  0.00  0.00     0.003 A 
ENDROOT
BRANCH   1   7
ATOM      7  C1' I4B d   1       2.722  -3.137  -0.819  0.00  0.00     0.060 C 
BRANCH   7   8
ATOM      8  C2' I4B d   1       2.091  -2.927  -2.181  0.00  0.00    -0.013 C 
ATOM      9  C4' I4B d   1       3.120  -2.517  -3.201  0.00  0.00     0.013 C 
ATOM     10  C3' I4B d   1       1.413  -4.204  -2.579  0.00  0.00     0.013 C 
ENDBRANCH   7   8
ENDBRANCH   1   7
TORSDOF 2
ENDMDL
