MODEL 1
REMARK minimizedAffinity 15.1580715
REMARK minimizedRMSD -1
REMARK  2 active torsions:
REMARK  status: ('A' for Active; 'I' for Inactive)
REMARK    1  A    between atoms: C2'_3  and  C1'_4 
REMARK    2  A    between atoms: C1'_4  and  C1_5 
ROOT
ATOM      1  C1  I4B d   1       1.573  -4.242  -2.244  0.00  0.00    -0.075 A 
ATOM      2  C2  I4B d   1       2.141  -5.108  -1.343  0.00  0.00     0.003 A 
ATOM      3  C3  I4B d   1       3.032  -4.624  -0.355  0.00  0.00     0.002 A 
ATOM      4  C4  I4B d   1       3.363  -3.284  -0.335  0.00  0.00    -0.004 A 
ATOM      5  C5  I4B d   1       2.768  -2.404  -1.235  0.00  0.00     0.002 A 
ATOM      6  C6  I4B d   1       1.857  -2.884  -2.187  0.00  0.00     0.003 A 
ENDROOT
BRANCH   1   7
ATOM      7  C1' I4B d   1       0.662  -4.792  -3.295  0.00  0.00     0.060 C 
BRANCH   7   8
ATOM      8  C2' I4B d   1      -0.749  -4.344  -2.971  0.00  0.00    -0.013 C 
ATOM      9  C4' I4B d   1      -1.482  -3.911  -4.214  0.00  0.00     0.013 C 
ATOM     10  C3' I4B d   1      -1.453  -5.483  -2.296  0.00  0.00     0.013 C 
ENDBRANCH   7   8
ENDBRANCH   1   7
TORSDOF 2
ENDMDL
