MODEL 1
REMARK minimizedAffinity 3.8267386
REMARK minimizedRMSD -1
REMARK  2 active torsions:
REMARK  status: ('A' for Active; 'I' for Inactive)
REMARK    1  A    between atoms: C2'_3  and  C1'_4 
REMARK    2  A    between atoms: C1'_4  and  C1_5 
ROOT
ATOM      1  C1  I4B d   1       2.017  -4.510  -1.869  0.00  0.00    -0.075 A 
ATOM      2  C2  I4B d   1       2.630  -5.720  -2.085  0.00  0.00     0.003 A 
ATOM      3  C3  I4B d   1       3.885  -5.999  -1.493  0.00  0.00     0.002 A 
ATOM      4  C4  I4B d   1       4.511  -5.029  -0.738  0.00  0.00    -0.004 A 
ATOM      5  C5  I4B d   1       3.879  -3.812  -0.501  0.00  0.00     0.002 A 
ATOM      6  C6  I4B d   1       2.618  -3.555  -1.059  0.00  0.00     0.003 A 
ENDROOT
BRANCH   1   7
ATOM      7  C1' I4B d   1       0.707  -4.236  -2.536  0.00  0.00     0.060 C 
BRANCH   7   8
ATOM      8  C2' I4B d   1       0.938  -3.184  -3.602  0.00  0.00    -0.013 C 
ATOM      9  C4' I4B d   1       1.507  -1.922  -3.008  0.00  0.00     0.013 C 
ATOM     10  C3' I4B d   1       1.862  -3.762  -4.632  0.00  0.00     0.013 C 
ENDBRANCH   7   8
ENDBRANCH   1   7
TORSDOF 2
ENDMDL
