MODEL 1
REMARK minimizedAffinity 18.072588
REMARK minimizedRMSD -1
REMARK  2 active torsions:
REMARK  status: ('A' for Active; 'I' for Inactive)
REMARK    1  A    between atoms: C2'_3  and  C1'_4 
REMARK    2  A    between atoms: C1'_4  and  C1_5 
ROOT
ATOM      1  C1  I4B d   1       1.465  -3.322  -0.373  0.00  0.00    -0.075 A 
ATOM      2  C2  I4B d   1       1.120  -2.050  -0.755  0.00  0.00     0.003 A 
ATOM      3  C3  I4B d   1       2.088  -1.016  -0.747  0.00  0.00     0.002 A 
ATOM      4  C4  I4B d   1       3.366  -1.286  -0.304  0.00  0.00    -0.004 A 
ATOM      5  C5  I4B d   1       3.720  -2.581   0.062  0.00  0.00     0.002 A 
ATOM      6  C6  I4B d   1       2.767  -3.609   0.015  0.00  0.00     0.003 A 
ENDROOT
BRANCH   1   7
ATOM      7  C1' I4B d   1       0.410  -4.382  -0.362  0.00  0.00     0.060 C 
BRANCH   7   8
ATOM      8  C2' I4B d   1       0.093  -4.740  -1.800  0.00  0.00    -0.013 C 
ATOM      9  C4' I4B d   1       0.806  -6.000  -2.218  0.00  0.00     0.013 C 
ATOM     10  C3' I4B d   1      -1.393  -4.893  -1.923  0.00  0.00     0.013 C 
ENDBRANCH   7   8
ENDBRANCH   1   7
TORSDOF 2
ENDMDL
