MODEL 1
REMARK minimizedAffinity 10.4284563
REMARK minimizedRMSD -1
REMARK  2 active torsions:
REMARK  status: ('A' for Active; 'I' for Inactive)
REMARK    1  A    between atoms: C2'_3  and  C1'_4 
REMARK    2  A    between atoms: C1'_4  and  C1_5 
ROOT
ATOM      1  C1  I4B d   1      -2.320  -4.595  -3.877  0.00  0.00    -0.075 A 
ATOM      2  C2  I4B d   1      -2.529  -5.489  -4.898  0.00  0.00     0.003 A 
ATOM      3  C3  I4B d   1      -3.358  -5.140  -5.991  0.00  0.00     0.002 A 
ATOM      4  C4  I4B d   1      -3.994  -3.915  -5.999  0.00  0.00    -0.004 A 
ATOM      5  C5  I4B d   1      -3.763  -3.002  -4.974  0.00  0.00     0.002 A 
ATOM      6  C6  I4B d   1      -2.911  -3.339  -3.912  0.00  0.00     0.003 A 
ENDROOT
BRANCH   1   7
ATOM      7  C1' I4B d   1      -1.465  -5.009  -2.721  0.00  0.00     0.060 C 
BRANCH   7   8
ATOM      8  C2' I4B d   1      -0.025  -4.684  -3.066  0.00  0.00    -0.013 C 
ATOM      9  C4' I4B d   1       0.621  -3.858  -1.985  0.00  0.00     0.013 C 
ATOM     10  C3' I4B d   1       0.706  -5.977  -3.269  0.00  0.00     0.013 C 
ENDBRANCH   7   8
ENDBRANCH   1   7
TORSDOF 2
ENDMDL
