MODEL 1
REMARK minimizedAffinity 12.1384439
REMARK minimizedRMSD -1
REMARK  2 active torsions:
REMARK  status: ('A' for Active; 'I' for Inactive)
REMARK    1  A    between atoms: C2'_3  and  C1'_4 
REMARK    2  A    between atoms: C1'_4  and  C1_5 
ROOT
ATOM      1  C1  I4B d   1       3.100  -0.740  -0.632  0.00  0.00    -0.075 A 
ATOM      2  C2  I4B d   1       3.426  -2.048  -0.373  0.00  0.00     0.003 A 
ATOM      3  C3  I4B d   1       4.748  -2.394  -0.004  0.00  0.00     0.002 A 
ATOM      4  C4  I4B d   1       5.718  -1.413   0.044  0.00  0.00    -0.004 A 
ATOM      5  C5  I4B d   1       5.381  -0.084  -0.196  0.00  0.00     0.002 A 
ATOM      6  C6  I4B d   1       4.061   0.256  -0.524  0.00  0.00     0.003 A 
ENDROOT
BRANCH   1   7
ATOM      7  C1' I4B d   1       1.701  -0.415  -1.051  0.00  0.00     0.060 C 
BRANCH   7   8
ATOM      8  C2' I4B d   1       1.354  -1.292  -2.237  0.00  0.00    -0.013 C 
ATOM      9  C4' I4B d   1      -0.041  -1.013  -2.731  0.00  0.00     0.013 C 
ATOM     10  C3' I4B d   1       2.369  -1.040  -3.312  0.00  0.00     0.013 C 
ENDBRANCH   7   8
ENDBRANCH   1   7
TORSDOF 2
ENDMDL
