MODEL 1
REMARK minimizedAffinity 8.78594589
REMARK minimizedRMSD -1
REMARK  2 active torsions:
REMARK  status: ('A' for Active; 'I' for Inactive)
REMARK    1  A    between atoms: C2'_3  and  C1'_4 
REMARK    2  A    between atoms: C1'_4  and  C1_5 
ROOT
ATOM      1  C1  I4B d   1       3.612  -2.571   0.845  0.00  0.00    -0.075 A 
ATOM      2  C2  I4B d   1       3.497  -3.756   0.161  0.00  0.00     0.003 A 
ATOM      3  C3  I4B d   1       4.644  -4.549  -0.087  0.00  0.00     0.002 A 
ATOM      4  C4  I4B d   1       5.883  -4.099   0.320  0.00  0.00    -0.004 A 
ATOM      5  C5  I4B d   1       5.994  -2.909   1.034  0.00  0.00     0.002 A 
ATOM      6  C6  I4B d   1       4.850  -2.146   1.309  0.00  0.00     0.003 A 
ENDROOT
BRANCH   1   7
ATOM      7  C1' I4B d   1       2.385  -1.742   1.060  0.00  0.00     0.060 C 
BRANCH   7   8
ATOM      8  C2' I4B d   1       2.535  -0.469   0.252  0.00  0.00    -0.013 C 
ATOM      9  C4' I4B d   1       1.645  -0.487  -0.963  0.00  0.00     0.013 C 
ATOM     10  C3' I4B d   1       2.206   0.689   1.147  0.00  0.00     0.013 C 
ENDBRANCH   7   8
ENDBRANCH   1   7
TORSDOF 2
ENDMDL
