MODEL 1
REMARK minimizedAffinity 18.9748135
REMARK minimizedRMSD -1
REMARK  2 active torsions:
REMARK  status: ('A' for Active; 'I' for Inactive)
REMARK    1  A    between atoms: C2'_3  and  C1'_4 
REMARK    2  A    between atoms: C1'_4  and  C1_5 
ROOT
ATOM      1  C1  I4B d   1       1.286  -4.432  -2.219  0.00  0.00    -0.075 A 
ATOM      2  C2  I4B d   1       1.526  -3.095  -2.417  0.00  0.00     0.003 A 
ATOM      3  C3  I4B d   1       2.433  -2.402  -1.579  0.00  0.00     0.002 A 
ATOM      4  C4  I4B d   1       3.035  -3.068  -0.531  0.00  0.00    -0.004 A 
ATOM      5  C5  I4B d   1       2.808  -4.429  -0.346  0.00  0.00     0.002 A 
ATOM      6  C6  I4B d   1       1.938  -5.118  -1.202  0.00  0.00     0.003 A 
ENDROOT
BRANCH   1   7
ATOM      7  C1' I4B d   1       0.298  -5.126  -3.102  0.00  0.00     0.060 C 
BRANCH   7   8
ATOM      8  C2' I4B d   1      -1.079  -4.586  -2.775  0.00  0.00    -0.013 C 
ATOM      9  C4' I4B d   1      -1.716  -3.947  -3.981  0.00  0.00     0.013 C 
ATOM     10  C3' I4B d   1      -1.912  -5.724  -2.262  0.00  0.00     0.013 C 
ENDBRANCH   7   8
ENDBRANCH   1   7
TORSDOF 2
ENDMDL
