MODEL 1
REMARK minimizedAffinity 15.6982346
REMARK minimizedRMSD -1
REMARK  2 active torsions:
REMARK  status: ('A' for Active; 'I' for Inactive)
REMARK    1  A    between atoms: C2'_3  and  C1'_4 
REMARK    2  A    between atoms: C1'_4  and  C1_5 
ROOT
ATOM      1  C1  I4B d   1       0.860  -2.761  -2.098  0.00  0.00    -0.075 A 
ATOM      2  C2  I4B d   1       0.972  -1.494  -2.614  0.00  0.00     0.003 A 
ATOM      3  C3  I4B d   1       1.732  -0.512  -1.933  0.00  0.00     0.002 A 
ATOM      4  C4  I4B d   1       2.316  -0.824  -0.722  0.00  0.00    -0.004 A 
ATOM      5  C5  I4B d   1       2.220  -2.116  -0.212  0.00  0.00     0.002 A 
ATOM      6  C6  I4B d   1       1.498  -3.094  -0.911  0.00  0.00     0.003 A 
ENDROOT
BRANCH   1   7
ATOM      7  C1' I4B d   1       0.022  -3.764  -2.827  0.00  0.00     0.060 C 
BRANCH   7   8
ATOM      8  C2' I4B d   1      -1.418  -3.566  -2.402  0.00  0.00    -0.013 C 
ATOM      9  C4' I4B d   1      -2.280  -3.160  -3.569  0.00  0.00     0.013 C 
ATOM     10  C3' I4B d   1      -1.902  -4.848  -1.792  0.00  0.00     0.013 C 
ENDBRANCH   7   8
ENDBRANCH   1   7
TORSDOF 2
ENDMDL
