MODEL 1
REMARK minimizedAffinity 9.51820564
REMARK minimizedRMSD -1
REMARK  2 active torsions:
REMARK  status: ('A' for Active; 'I' for Inactive)
REMARK    1  A    between atoms: C2'_3  and  C1'_4 
REMARK    2  A    between atoms: C1'_4  and  C1_5 
ROOT
ATOM      1  C1  I4B d   1      -3.181  -4.451  -5.177  0.00  0.00    -0.075 A 
ATOM      2  C2  I4B d   1      -3.161  -3.079  -5.139  0.00  0.00     0.003 A 
ATOM      3  C3  I4B d   1      -4.306  -2.338  -5.523  0.00  0.00     0.002 A 
ATOM      4  C4  I4B d   1      -5.423  -3.005  -5.983  0.00  0.00    -0.004 A 
ATOM      5  C5  I4B d   1      -5.450  -4.396  -5.998  0.00  0.00     0.002 A 
ATOM      6  C6  I4B d   1      -4.326  -5.125  -5.581  0.00  0.00     0.003 A 
ENDROOT
BRANCH   1   7
ATOM      7  C1' I4B d   1      -1.944  -5.200  -4.796  0.00  0.00     0.060 C 
BRANCH   7   8
ATOM      8  C2' I4B d   1      -1.510  -4.719  -3.426  0.00  0.00    -0.013 C 
ATOM      9  C4' I4B d   1      -2.430  -5.234  -2.351  0.00  0.00     0.013 C 
ATOM     10  C3' I4B d   1      -0.101  -5.180  -3.199  0.00  0.00     0.013 C 
ENDBRANCH   7   8
ENDBRANCH   1   7
TORSDOF 2
ENDMDL
