MODEL 1
REMARK minimizedAffinity 26.2512074
REMARK minimizedRMSD -1
REMARK  2 active torsions:
REMARK  status: ('A' for Active; 'I' for Inactive)
REMARK    1  A    between atoms: C2'_3  and  C1'_4 
REMARK    2  A    between atoms: C1'_4  and  C1_5 
ROOT
ATOM      1  C1  I4B d   1      -2.683   1.424   3.394  0.00  0.00    -0.075 A 
ATOM      2  C2  I4B d   1      -2.354   1.873   2.140  0.00  0.00     0.003 A 
ATOM      3  C3  I4B d   1      -0.995   2.033   1.774  0.00  0.00     0.002 A 
ATOM      4  C4  I4B d   1      -0.007   1.784   2.705  0.00  0.00    -0.004 A 
ATOM      5  C5  I4B d   1      -0.342   1.308   3.969  0.00  0.00     0.002 A 
ATOM      6  C6  I4B d   1      -1.688   1.115   4.312  0.00  0.00     0.003 A 
ENDROOT
BRANCH   1   7
ATOM      7  C1' I4B d   1      -4.129   1.298   3.758  0.00  0.00     0.060 C 
BRANCH   7   8
ATOM      8  C2' I4B d   1      -4.684   2.693   3.959  0.00  0.00    -0.013 C 
ATOM      9  C4' I4B d   1      -6.000   2.864   3.246  0.00  0.00     0.013 C 
ATOM     10  C3' I4B d   1      -4.832   2.925   5.433  0.00  0.00     0.013 C 
ENDBRANCH   7   8
ENDBRANCH   1   7
TORSDOF 2
ENDMDL
