MODEL 1
REMARK minimizedAffinity -1.3672483
REMARK minimizedRMSD -1
REMARK  1 active torsions:
REMARK  status: ('A' for Active; 'I' for Inactive)
REMARK    1  A    between atoms: N_2  and  C1_3 
ROOT
ATOM      1  C1  UNL d   1       1.183  -2.758  -0.072  0.00  0.00     0.143 A 
ATOM      2  C2  UNL d   1      -0.155  -2.698   0.333  0.00  0.00    -0.057 A 
ATOM      3  C3  UNL d   1      -0.699  -1.524   0.868  0.00  0.00     0.033 A 
ATOM      4  C4  UNL d   1       0.095  -0.395   1.035  0.00  0.00    -0.042 A 
ATOM      5  C5  UNL d   1       1.434  -0.439   0.663  0.00  0.00     0.033 A 
ATOM      6  C6  UNL d   1       1.970  -1.612   0.123  0.00  0.00    -0.057 A 
ENDROOT
BRANCH   1   7
ATOM      7  N   UNL d   1       1.809  -3.924  -0.519  0.00  0.00    -0.732 N 
ATOM      8  C   UNL d   1       3.171  -4.225  -0.132  0.00  0.00     0.284 C 
ATOM      9  H3  UNL d   1       1.186  -4.728  -0.506  0.00  0.00     0.395 HD
ENDBRANCH   1   7
TORSDOF 1
ENDMDL
