MODEL 1
REMARK minimizedAffinity -3.81245852
REMARK minimizedRMSD -1
REMARK  1 active torsions:
REMARK  status: ('A' for Active; 'I' for Inactive)
REMARK    1  A    between atoms: N_2  and  C1_3 
ROOT
ATOM      1  C1  UNL d   1      -0.286  -0.771   1.544  0.00  0.00     0.143 A 
ATOM      2  C2  UNL d   1      -0.107  -2.151   1.399  0.00  0.00    -0.057 A 
ATOM      3  C3  UNL d   1       0.929  -2.669   0.612  0.00  0.00     0.033 A 
ATOM      4  C4  UNL d   1       1.788  -1.814  -0.070  0.00  0.00    -0.042 A 
ATOM      5  C5  UNL d   1       1.613  -0.439   0.040  0.00  0.00     0.033 A 
ATOM      6  C6  UNL d   1       0.581   0.073   0.832  0.00  0.00    -0.057 A 
ENDROOT
BRANCH   1   7
ATOM      7  N   UNL d   1      -1.356  -0.194   2.232  0.00  0.00    -0.732 N 
ATOM      8  C   UNL d   1      -1.933   1.056   1.785  0.00  0.00     0.284 C 
ATOM      9  H3  UNL d   1      -2.041  -0.883   2.534  0.00  0.00     0.395 HD
ENDBRANCH   1   7
TORSDOF 1
ENDMDL
