MODEL 1
REMARK minimizedAffinity -1.67487288
REMARK minimizedRMSD -1
REMARK  1 active torsions:
REMARK  status: ('A' for Active; 'I' for Inactive)
REMARK    1  A    between atoms: N_2  and  C1_3 
ROOT
ATOM      1  C1  UNL d   1       4.957   3.880  -1.095  0.00  0.00     0.143 A 
ATOM      2  C2  UNL d   1       5.654   5.060  -0.815  0.00  0.00    -0.057 A 
ATOM      3  C3  UNL d   1       5.465   5.745   0.391  0.00  0.00     0.033 A 
ATOM      4  C4  UNL d   1       4.551   5.277   1.329  0.00  0.00    -0.042 A 
ATOM      5  C5  UNL d   1       3.828   4.119   1.061  0.00  0.00     0.033 A 
ATOM      6  C6  UNL d   1       4.026   3.435  -0.142  0.00  0.00    -0.057 A 
ENDROOT
BRANCH   1   7
ATOM      7  N   UNL d   1       5.027   3.206  -2.317  0.00  0.00    -0.732 N 
ATOM      8  C   UNL d   1       4.133   2.105  -2.605  0.00  0.00     0.284 C 
ATOM      9  H3  UNL d   1       5.175   3.838  -3.101  0.00  0.00     0.395 HD
ENDBRANCH   1   7
TORSDOF 1
ENDMDL
