MODEL 1
REMARK minimizedAffinity -2.37643647
REMARK minimizedRMSD -1
REMARK  1 active torsions:
REMARK  status: ('A' for Active; 'I' for Inactive)
REMARK    1  A    between atoms: N_2  and  C1_3 
ROOT
ATOM      1  C1  UNL d   1       4.484   3.859  -0.709  0.00  0.00     0.143 A 
ATOM      2  C2  UNL d   1       3.703   3.869   0.452  0.00  0.00    -0.057 A 
ATOM      3  C3  UNL d   1       3.762   4.934   1.358  0.00  0.00     0.033 A 
ATOM      4  C4  UNL d   1       4.627   6.000   1.132  0.00  0.00    -0.042 A 
ATOM      5  C5  UNL d   1       5.431   6.000  -0.003  0.00  0.00     0.033 A 
ATOM      6  C6  UNL d   1       5.363   4.936  -0.907  0.00  0.00    -0.057 A 
ENDROOT
BRANCH   1   7
ATOM      7  N   UNL d   1       4.543   2.783  -1.598  0.00  0.00    -0.732 N 
ATOM      8  C   UNL d   1       3.540   2.623  -2.629  0.00  0.00     0.284 C 
ATOM      9  H3  UNL d   1       5.492   2.586  -1.907  0.00  0.00     0.395 HD
ENDBRANCH   1   7
TORSDOF 1
ENDMDL
