MODEL 1
REMARK minimizedAffinity -0.109626636
REMARK minimizedRMSD -1
REMARK  1 active torsions:
REMARK  status: ('A' for Active; 'I' for Inactive)
REMARK    1  A    between atoms: N_2  and  C1_3 
ROOT
ATOM      1  C1  UNL d   1       1.700  -1.655   0.194  0.00  0.00     0.143 A 
ATOM      2  C2  UNL d   1       0.581  -2.397  -0.198  0.00  0.00    -0.057 A 
ATOM      3  C3  UNL d   1      -0.706  -2.053   0.235  0.00  0.00     0.033 A 
ATOM      4  C4  UNL d   1      -0.892  -0.975   1.094  0.00  0.00    -0.042 A 
ATOM      5  C5  UNL d   1       0.209  -0.239   1.517  0.00  0.00     0.033 A 
ATOM      6  C6  UNL d   1       1.490  -0.583   1.075  0.00  0.00    -0.057 A 
ENDROOT
BRANCH   1   7
ATOM      7  N   UNL d   1       3.015  -2.006  -0.123  0.00  0.00    -0.732 N 
ATOM      8  C   UNL d   1       3.374  -3.388  -0.355  0.00  0.00     0.284 C 
ATOM      9  H3  UNL d   1       3.446  -1.349  -0.770  0.00  0.00     0.395 HD
ENDBRANCH   1   7
TORSDOF 1
ENDMDL
