MODEL 1
REMARK minimizedAffinity -1.88286746
REMARK minimizedRMSD -1
REMARK  1 active torsions:
REMARK  status: ('A' for Active; 'I' for Inactive)
REMARK    1  A    between atoms: N_2  and  C1_3 
ROOT
ATOM      1  C1  UNL d   1       0.766  -2.726  -0.144  0.00  0.00     0.143 A 
ATOM      2  C2  UNL d   1      -0.462  -2.848   0.515  0.00  0.00    -0.057 A 
ATOM      3  C3  UNL d   1      -1.086  -1.738   1.098  0.00  0.00     0.033 A 
ATOM      4  C4  UNL d   1      -0.477  -0.489   1.057  0.00  0.00    -0.042 A 
ATOM      5  C5  UNL d   1       0.756  -0.349   0.430  0.00  0.00     0.033 A 
ATOM      6  C6  UNL d   1       1.371  -1.460  -0.157  0.00  0.00    -0.057 A 
ENDROOT
BRANCH   1   7
ATOM      7  N   UNL d   1       1.484  -3.809  -0.657  0.00  0.00    -0.732 N 
ATOM      8  C   UNL d   1       2.930  -3.822  -0.614  0.00  0.00     0.284 C 
ATOM      9  H3  UNL d   1       1.053  -4.703  -0.431  0.00  0.00     0.395 HD
ENDBRANCH   1   7
TORSDOF 1
ENDMDL
