MODEL 1
REMARK minimizedAffinity -3.02434707
REMARK minimizedRMSD -1
REMARK  1 active torsions:
REMARK  status: ('A' for Active; 'I' for Inactive)
REMARK    1  A    between atoms: N_2  and  C1_3 
ROOT
ATOM      1  C1  UNL d   1      -0.253  -0.631   2.025  0.00  0.00     0.143 A 
ATOM      2  C2  UNL d   1       0.968  -0.193   1.500  0.00  0.00    -0.057 A 
ATOM      3  C3  UNL d   1       1.510  -0.769   0.344  0.00  0.00     0.033 A 
ATOM      4  C4  UNL d   1       0.853  -1.817  -0.292  0.00  0.00    -0.042 A 
ATOM      5  C5  UNL d   1      -0.349  -2.286   0.227  0.00  0.00     0.033 A 
ATOM      6  C6  UNL d   1      -0.889  -1.702   1.377  0.00  0.00    -0.057 A 
ENDROOT
BRANCH   1   7
ATOM      7  N   UNL d   1      -0.795  -0.166   3.225  0.00  0.00    -0.732 N 
ATOM      8  C   UNL d   1      -0.058  -0.289   4.464  0.00  0.00     0.284 C 
ATOM      9  H3  UNL d   1      -1.277   0.724   3.114  0.00  0.00     0.395 HD
ENDBRANCH   1   7
TORSDOF 1
ENDMDL
