MODEL 1
REMARK minimizedAffinity 2.88316798
REMARK minimizedRMSD -1
REMARK  1 active torsions:
REMARK  status: ('A' for Active; 'I' for Inactive)
REMARK    1  A    between atoms: N_2  and  C1_3 
ROOT
ATOM      1  C1  UNL d   1      -0.209  -1.567   0.748  0.00  0.00     0.143 A 
ATOM      2  C2  UNL d   1       0.701  -1.049   1.675  0.00  0.00    -0.057 A 
ATOM      3  C3  UNL d   1       0.340  -0.016   2.548  0.00  0.00     0.033 A 
ATOM      4  C4  UNL d   1      -0.934   0.539   2.489  0.00  0.00    -0.042 A 
ATOM      5  C5  UNL d   1      -1.848   0.056   1.558  0.00  0.00     0.033 A 
ATOM      6  C6  UNL d   1      -1.483  -0.980   0.693  0.00  0.00    -0.057 A 
ENDROOT
BRANCH   1   7
ATOM      7  N   UNL d   1       0.121  -2.526  -0.214  0.00  0.00    -0.732 N 
ATOM      8  C   UNL d   1       1.430  -3.141  -0.222  0.00  0.00     0.284 C 
ATOM      9  H3  UNL d   1      -0.644  -3.172  -0.396  0.00  0.00     0.395 HD
ENDBRANCH   1   7
TORSDOF 1
ENDMDL
