MODEL 1
REMARK minimizedAffinity -1.58812642
REMARK minimizedRMSD -1
REMARK  1 active torsions:
REMARK  status: ('A' for Active; 'I' for Inactive)
REMARK    1  A    between atoms: N_2  and  C1_3 
ROOT
ATOM      1  C1  UNL d   1       2.208   4.174  -4.517  0.00  0.00     0.143 A 
ATOM      2  C2  UNL d   1       1.416   4.206  -3.365  0.00  0.00    -0.057 A 
ATOM      3  C3  UNL d   1       0.340   5.095  -3.248  0.00  0.00     0.033 A 
ATOM      4  C4  UNL d   1       0.056   5.991  -4.274  0.00  0.00    -0.042 A 
ATOM      5  C5  UNL d   1       0.846   5.994  -5.418  0.00  0.00     0.033 A 
ATOM      6  C6  UNL d   1       1.914   5.099  -5.531  0.00  0.00    -0.057 A 
ENDROOT
BRANCH   1   7
ATOM      7  N   UNL d   1       3.351   3.382  -4.653  0.00  0.00    -0.732 N 
ATOM      8  C   UNL d   1       3.760   2.489  -3.590  0.00  0.00     0.284 C 
ATOM      9  H3  UNL d   1       3.441   2.986  -5.586  0.00  0.00     0.395 HD
ENDBRANCH   1   7
TORSDOF 1
ENDMDL
