MODEL 1
REMARK minimizedAffinity -4.66341782
REMARK minimizedRMSD -1
REMARK  0 active torsions:
REMARK  status: ('A' for Active; 'I' for Inactive)
ROOT
ATOM      1  C1  BNZ d   1      -0.327  -0.529   1.520  0.00  0.00     0.000 A 
ATOM      2  C2  BNZ d   1      -1.226   0.487   1.711  0.00  0.00     0.000 A 
ATOM      3  C3  BNZ d   1      -1.492   1.382   0.713  0.00  0.00     0.000 A 
ATOM      4  C4  BNZ d   1      -0.830   1.285  -0.458  0.00  0.00     0.000 A 
ATOM      5  C5  BNZ d   1       0.086   0.273  -0.662  0.00  0.00     0.000 A 
ATOM      6  C6  BNZ d   1       0.322  -0.650   0.331  0.00  0.00     0.000 A 
ENDROOT
TORSDOF 0
ENDMDL
