MODEL 1
REMARK minimizedAffinity -4.84396315
REMARK minimizedRMSD -1
REMARK  0 active torsions:
REMARK  status: ('A' for Active; 'I' for Inactive)
ROOT
ATOM      1  C1  BNZ d   1       0.077  -0.135  -0.444  0.00  0.00     0.000 A 
ATOM      2  C2  BNZ d   1      -0.265   1.123  -0.024  0.00  0.00     0.000 A 
ATOM      3  C3  BNZ d   1      -1.068   1.302   1.067  0.00  0.00     0.000 A 
ATOM      4  C4  BNZ d   1      -1.560   0.225   1.713  0.00  0.00     0.000 A 
ATOM      5  C5  BNZ d   1      -1.232  -1.049   1.296  0.00  0.00     0.000 A 
ATOM      6  C6  BNZ d   1      -0.392  -1.226   0.221  0.00  0.00     0.000 A 
ENDROOT
TORSDOF 0
ENDMDL
