MODEL 1
REMARK minimizedAffinity -4.61956167
REMARK minimizedRMSD -1
REMARK  0 active torsions:
REMARK  status: ('A' for Active; 'I' for Inactive)
ROOT
ATOM      1  C1  BNZ d   1      -0.493   1.089  -0.660  0.00  0.00     0.000 A 
ATOM      2  C2  BNZ d   1      -1.629   1.629  -0.120  0.00  0.00     0.000 A 
ATOM      3  C3  BNZ d   1      -2.025   1.302   1.147  0.00  0.00     0.000 A 
ATOM      4  C4  BNZ d   1      -1.307   0.407   1.856  0.00  0.00     0.000 A 
ATOM      5  C5  BNZ d   1      -0.164  -0.153   1.322  0.00  0.00     0.000 A 
ATOM      6  C6  BNZ d   1       0.253   0.208   0.061  0.00  0.00     0.000 A 
ENDROOT
TORSDOF 0
ENDMDL
