MODEL 1
REMARK minimizedAffinity -4.25966311
REMARK minimizedRMSD -1
REMARK  0 active torsions:
REMARK  status: ('A' for Active; 'I' for Inactive)
ROOT
ATOM      1  C1  BNZ d   1      -0.467  -0.228   1.400  0.00  0.00     0.000 A 
ATOM      2  C2  BNZ d   1      -1.494   0.495   1.946  0.00  0.00     0.000 A 
ATOM      3  C3  BNZ d   1      -2.146   1.447   1.213  0.00  0.00     0.000 A 
ATOM      4  C4  BNZ d   1      -1.745   1.703  -0.049  0.00  0.00     0.000 A 
ATOM      5  C5  BNZ d   1      -0.705   0.989  -0.610  0.00  0.00     0.000 A 
ATOM      6  C6  BNZ d   1      -0.077   0.004   0.117  0.00  0.00     0.000 A 
ENDROOT
TORSDOF 0
ENDMDL
