MODEL 1
REMARK minimizedAffinity -3.84562993
REMARK minimizedRMSD -1
REMARK  0 active torsions:
REMARK  status: ('A' for Active; 'I' for Inactive)
ROOT
ATOM      1  C1  BNZ d   1      -1.956   1.491  -0.427  0.00  0.00     0.000 A 
ATOM      2  C2  BNZ d   1      -0.993   0.561  -0.715  0.00  0.00     0.000 A 
ATOM      3  C3  BNZ d   1      -0.203   0.043   0.273  0.00  0.00     0.000 A 
ATOM      4  C4  BNZ d   1      -0.349   0.484   1.539  0.00  0.00     0.000 A 
ATOM      5  C5  BNZ d   1      -1.309   1.428   1.843  0.00  0.00     0.000 A 
ATOM      6  C6  BNZ d   1      -2.129   1.919   0.853  0.00  0.00     0.000 A 
ENDROOT
TORSDOF 0
ENDMDL
