MODEL 1
REMARK minimizedAffinity -5.11488628
REMARK minimizedRMSD -1
REMARK  0 active torsions:
REMARK  status: ('A' for Active; 'I' for Inactive)
ROOT
ATOM      1  C1  BNZ d   1      -1.056   1.174   2.127  0.00  0.00     0.000 A 
ATOM      2  C2  BNZ d   1      -2.131   1.699   1.460  0.00  0.00     0.000 A 
ATOM      3  C3  BNZ d   1      -2.351   1.403   0.144  0.00  0.00     0.000 A 
ATOM      4  C4  BNZ d   1      -1.475   0.617  -0.514  0.00  0.00     0.000 A 
ATOM      5  C5  BNZ d   1      -0.381   0.088   0.142  0.00  0.00     0.000 A 
ATOM      6  C6  BNZ d   1      -0.184   0.356   1.477  0.00  0.00     0.000 A 
ENDROOT
TORSDOF 0
ENDMDL
