MODEL 1
REMARK minimizedAffinity -4.83657932
REMARK minimizedRMSD -1
REMARK  0 active torsions:
REMARK  status: ('A' for Active; 'I' for Inactive)
ROOT
ATOM      1  C1  BNZ d   1      -0.479   0.426  -0.390  0.00  0.00     0.000 A 
ATOM      2  C2  BNZ d   1      -1.256   1.527  -0.148  0.00  0.00     0.000 A 
ATOM      3  C3  BNZ d   1      -1.756   1.769   1.101  0.00  0.00     0.000 A 
ATOM      4  C4  BNZ d   1      -1.513   0.891   2.095  0.00  0.00     0.000 A 
ATOM      5  C5  BNZ d   1      -0.738  -0.228   1.865  0.00  0.00     0.000 A 
ATOM      6  C6  BNZ d   1      -0.204  -0.449   0.616  0.00  0.00     0.000 A 
ENDROOT
TORSDOF 0
ENDMDL
