MODEL 1
REMARK minimizedAffinity -4.92136192
REMARK minimizedRMSD -1
REMARK  0 active torsions:
REMARK  status: ('A' for Active; 'I' for Inactive)
ROOT
ATOM      1  C1  BNZ d   1      -0.456   0.070   1.472  0.00  0.00     0.000 A 
ATOM      2  C2  BNZ d   1      -0.966   1.207   2.041  0.00  0.00     0.000 A 
ATOM      3  C3  BNZ d   1      -1.832   2.007   1.348  0.00  0.00     0.000 A 
ATOM      4  C4  BNZ d   1      -2.153   1.692   0.077  0.00  0.00     0.000 A 
ATOM      5  C5  BNZ d   1      -1.639   0.555  -0.513  0.00  0.00     0.000 A 
ATOM      6  C6  BNZ d   1      -0.799  -0.269   0.200  0.00  0.00     0.000 A 
ENDROOT
TORSDOF 0
ENDMDL
