MODEL 1
REMARK minimizedAffinity -4.90454435
REMARK minimizedRMSD -1
REMARK  0 active torsions:
REMARK  status: ('A' for Active; 'I' for Inactive)
ROOT
ATOM      1  C1  BNZ d   1      -1.528   1.478   1.070  0.00  0.00     0.000 A 
ATOM      2  C2  BNZ d   1      -0.876   1.841  -0.078  0.00  0.00     0.000 A 
ATOM      3  C3  BNZ d   1       0.095   1.042  -0.615  0.00  0.00     0.000 A 
ATOM      4  C4  BNZ d   1       0.440  -0.098   0.018  0.00  0.00     0.000 A 
ATOM      5  C5  BNZ d   1      -0.201  -0.473   1.181  0.00  0.00     0.000 A 
ATOM      6  C6  BNZ d   1      -1.205   0.314   1.698  0.00  0.00     0.000 A 
ENDROOT
TORSDOF 0
ENDMDL
