MODEL 1
REMARK minimizedAffinity -4.51364374
REMARK minimizedRMSD -1
REMARK  0 active torsions:
REMARK  status: ('A' for Active; 'I' for Inactive)
ROOT
ATOM      1  C1  BNZ d   1      -1.257   1.160   2.458  0.00  0.00     0.000 A 
ATOM      2  C2  BNZ d   1      -0.367   0.254   1.944  0.00  0.00     0.000 A 
ATOM      3  C3  BNZ d   1      -0.200   0.127   0.593  0.00  0.00     0.000 A 
ATOM      4  C4  BNZ d   1      -0.951   0.874  -0.242  0.00  0.00     0.000 A 
ATOM      5  C5  BNZ d   1      -1.859   1.785   0.261  0.00  0.00     0.000 A 
ATOM      6  C6  BNZ d   1      -1.996   1.938   1.622  0.00  0.00     0.000 A 
ENDROOT
TORSDOF 0
ENDMDL
