MODEL 1
REMARK minimizedAffinity -3.38807321
REMARK minimizedRMSD -1
REMARK  0 active torsions:
REMARK  status: ('A' for Active; 'I' for Inactive)
ROOT
ATOM      1  C1  BNZ d   1       0.052  -0.717   0.986  0.00  0.00     0.000 A 
ATOM      2  C2  BNZ d   1      -0.854   0.272   1.259  0.00  0.00     0.000 A 
ATOM      3  C3  BNZ d   1      -1.226   1.167   0.295  0.00  0.00     0.000 A 
ATOM      4  C4  BNZ d   1      -0.662   1.095  -0.928  0.00  0.00     0.000 A 
ATOM      5  C5  BNZ d   1       0.260   0.109  -1.217  0.00  0.00     0.000 A 
ATOM      6  C6  BNZ d   1       0.603  -0.813  -0.255  0.00  0.00     0.000 A 
ENDROOT
TORSDOF 0
ENDMDL
