MODEL 1
REMARK minimizedAffinity -3.72629499
REMARK minimizedRMSD -1
REMARK  0 active torsions:
REMARK  status: ('A' for Active; 'I' for Inactive)
ROOT
ATOM      1  C1  BNZ d   1      -0.628  -0.368   1.216  0.00  0.00     0.000 A 
ATOM      2  C2  BNZ d   1       0.110  -0.309   0.064  0.00  0.00     0.000 A 
ATOM      3  C3  BNZ d   1       0.522   0.891  -0.443  0.00  0.00     0.000 A 
ATOM      4  C4  BNZ d   1       0.163   2.032   0.180  0.00  0.00     0.000 A 
ATOM      5  C5  BNZ d   1      -0.589   1.990   1.337  0.00  0.00     0.000 A 
ATOM      6  C6  BNZ d   1      -0.969   0.778   1.866  0.00  0.00     0.000 A 
ENDROOT
TORSDOF 0
ENDMDL
