MODEL 1
REMARK minimizedAffinity -4.1389966
REMARK minimizedRMSD -1
REMARK  0 active torsions:
REMARK  status: ('A' for Active; 'I' for Inactive)
ROOT
ATOM      1  C1  BNZ d   1      -0.649  -0.093   2.095  0.00  0.00     0.000 A 
ATOM      2  C2  BNZ d   1      -0.114  -0.354   0.861  0.00  0.00     0.000 A 
ATOM      3  C3  BNZ d   1      -0.375   0.465  -0.202  0.00  0.00     0.000 A 
ATOM      4  C4  BNZ d   1      -1.201   1.519  -0.040  0.00  0.00     0.000 A 
ATOM      5  C5  BNZ d   1      -1.756   1.789   1.195  0.00  0.00     0.000 A 
ATOM      6  C6  BNZ d   1      -1.460   0.986   2.272  0.00  0.00     0.000 A 
ENDROOT
TORSDOF 0
ENDMDL
