MODEL 1
REMARK minimizedAffinity -4.5784235
REMARK minimizedRMSD -1
REMARK  0 active torsions:
REMARK  status: ('A' for Active; 'I' for Inactive)
ROOT
ATOM      1  C1  BNZ d   1      -0.598  -0.074   1.725  0.00  0.00     0.000 A 
ATOM      2  C2  BNZ d   1      -1.280   0.993   2.247  0.00  0.00     0.000 A 
ATOM      3  C3  BNZ d   1      -1.911   1.888   1.430  0.00  0.00     0.000 A 
ATOM      4  C4  BNZ d   1      -1.826   1.739   0.092  0.00  0.00     0.000 A 
ATOM      5  C5  BNZ d   1      -1.135   0.674  -0.450  0.00  0.00     0.000 A 
ATOM      6  C6  BNZ d   1      -0.533  -0.247   0.377  0.00  0.00     0.000 A 
ENDROOT
TORSDOF 0
ENDMDL
