MODEL 1
REMARK minimizedAffinity -3.98731184
REMARK minimizedRMSD -1
REMARK  0 active torsions:
REMARK  status: ('A' for Active; 'I' for Inactive)
ROOT
ATOM      1  C1  BNZ d   1      -0.085  -0.315   1.075  0.00  0.00     0.000 A 
ATOM      2  C2  BNZ d   1       0.801  -0.460   0.040  0.00  0.00     0.000 A 
ATOM      3  C3  BNZ d   1       0.774   0.392  -1.029  0.00  0.00     0.000 A 
ATOM      4  C4  BNZ d   1      -0.163   1.361  -1.081  0.00  0.00     0.000 A 
ATOM      5  C5  BNZ d   1      -1.068   1.514  -0.050  0.00  0.00     0.000 A 
ATOM      6  C6  BNZ d   1      -1.014   0.679   1.042  0.00  0.00     0.000 A 
ENDROOT
TORSDOF 0
ENDMDL
