MODEL 1
REMARK minimizedAffinity 6.48568583
REMARK minimizedRMSD -1
REMARK  2 active torsions:
REMARK  status: ('A' for Active; 'I' for Inactive)
REMARK    1  A    between atoms: C2'_3  and  C1'_4 
REMARK    2  A    between atoms: C1'_4  and  C1_5 
ROOT
ATOM      1  C1  I4B d   1      -2.622   1.437   3.433  0.00  0.00    -0.075 A 
ATOM      2  C2  I4B d   1      -3.306   1.491   2.244  0.00  0.00     0.003 A 
ATOM      3  C3  I4B d   1      -2.682   1.077   1.043  0.00  0.00     0.002 A 
ATOM      4  C4  I4B d   1      -1.365   0.666   1.068  0.00  0.00    -0.004 A 
ATOM      5  C5  I4B d   1      -0.680   0.590   2.277  0.00  0.00     0.002 A 
ATOM      6  C6  I4B d   1      -1.316   0.966   3.469  0.00  0.00     0.003 A 
ENDROOT
BRANCH   1   7
ATOM      7  C1' I4B d   1      -3.301   1.914   4.677  0.00  0.00     0.060 C 
BRANCH   7   8
ATOM      8  C2' I4B d   1      -4.194   0.797   5.179  0.00  0.00    -0.013 C 
ATOM      9  C4' I4B d   1      -3.414  -0.199   5.996  0.00  0.00     0.013 C 
ATOM     10  C3' I4B d   1      -5.297   1.414   5.986  0.00  0.00     0.013 C 
ENDBRANCH   7   8
ENDBRANCH   1   7
TORSDOF 2
ENDMDL
