MODEL 1
REMARK minimizedAffinity 5.85486031
REMARK minimizedRMSD -1
REMARK  2 active torsions:
REMARK  status: ('A' for Active; 'I' for Inactive)
REMARK    1  A    between atoms: C2'_3  and  C1'_4 
REMARK    2  A    between atoms: C1'_4  and  C1_5 
ROOT
ATOM      1  C1  I4B d   1       0.285   0.536   1.850  0.00  0.00    -0.075 A 
ATOM      2  C2  I4B d   1      -1.001   0.517   1.370  0.00  0.00     0.003 A 
ATOM      3  C3  I4B d   1      -1.966   1.419   1.879  0.00  0.00     0.002 A 
ATOM      4  C4  I4B d   1      -1.618   2.283   2.897  0.00  0.00    -0.004 A 
ATOM      5  C5  I4B d   1      -0.308   2.317   3.367  0.00  0.00     0.002 A 
ATOM      6  C6  I4B d   1       0.653   1.447   2.832  0.00  0.00     0.003 A 
ENDROOT
BRANCH   1   7
ATOM      7  C1' I4B d   1       1.270  -0.453   1.313  0.00  0.00     0.060 C 
BRANCH   7   8
ATOM      8  C2' I4B d   1       2.625   0.223   1.252  0.00  0.00    -0.013 C 
ATOM      9  C4' I4B d   1       3.731  -0.740   1.594  0.00  0.00     0.013 C 
ATOM     10  C3' I4B d   1       2.801   0.783  -0.128  0.00  0.00     0.013 C 
ENDBRANCH   7   8
ENDBRANCH   1   7
TORSDOF 2
ENDMDL
