MODEL 1
REMARK minimizedAffinity 1.64750969
REMARK minimizedRMSD -1
REMARK  2 active torsions:
REMARK  status: ('A' for Active; 'I' for Inactive)
REMARK    1  A    between atoms: C2'_3  and  C1'_4 
REMARK    2  A    between atoms: C1'_4  and  C1_5 
ROOT
ATOM      1  C1  I4B d   1      -4.151   1.306   3.954  0.00  0.00    -0.075 A 
ATOM      2  C2  I4B d   1      -4.108   1.175   5.320  0.00  0.00     0.003 A 
ATOM      3  C3  I4B d   1      -5.013   0.311   5.982  0.00  0.00     0.002 A 
ATOM      4  C4  I4B d   1      -5.971  -0.360   5.251  0.00  0.00    -0.004 A 
ATOM      5  C5  I4B d   1      -6.000  -0.243   3.864  0.00  0.00     0.002 A 
ATOM      6  C6  I4B d   1      -5.076   0.585   3.210  0.00  0.00     0.003 A 
ENDROOT
BRANCH   1   7
ATOM      7  C1' I4B d   1      -3.202   2.252   3.290  0.00  0.00     0.060 C 
BRANCH   7   8
ATOM      8  C2' I4B d   1      -2.049   1.443   2.734  0.00  0.00    -0.013 C 
ATOM      9  C4' I4B d   1      -2.243   1.154   1.268  0.00  0.00     0.013 C 
ATOM     10  C3' I4B d   1      -0.785   2.214   2.971  0.00  0.00     0.013 C 
ENDBRANCH   7   8
ENDBRANCH   1   7
TORSDOF 2
ENDMDL
