MODEL 1
REMARK minimizedAffinity 3.62733579
REMARK minimizedRMSD -1
REMARK  2 active torsions:
REMARK  status: ('A' for Active; 'I' for Inactive)
REMARK    1  A    between atoms: C2'_3  and  C1'_4 
REMARK    2  A    between atoms: C1'_4  and  C1_5 
ROOT
ATOM      1  C1  I4B d   1       3.609  -0.242   1.991  0.00  0.00    -0.075 A 
ATOM      2  C2  I4B d   1       2.243  -0.278   2.120  0.00  0.00     0.003 A 
ATOM      3  C3  I4B d   1       1.419   0.366   1.165  0.00  0.00     0.002 A 
ATOM      4  C4  I4B d   1       2.001   1.072   0.132  0.00  0.00    -0.004 A 
ATOM      5  C5  I4B d   1       3.385   1.088  -0.011  0.00  0.00     0.002 A 
ATOM      6  C6  I4B d   1       4.194   0.417   0.917  0.00  0.00     0.003 A 
ENDROOT
BRANCH   1   7
ATOM      7  C1' I4B d   1       4.450  -0.905   3.035  0.00  0.00     0.060 C 
BRANCH   7   8
ATOM      8  C2' I4B d   1       5.823  -0.265   3.005  0.00  0.00    -0.013 C 
ATOM      9  C4' I4B d   1       5.987   0.617   1.795  0.00  0.00     0.013 C 
ATOM     10  C3' I4B d   1       5.996   0.518   4.273  0.00  0.00     0.013 C 
ENDBRANCH   7   8
ENDBRANCH   1   7
TORSDOF 2
ENDMDL
