MODEL 1
REMARK minimizedAffinity 13.4081793
REMARK minimizedRMSD -1
REMARK  2 active torsions:
REMARK  status: ('A' for Active; 'I' for Inactive)
REMARK    1  A    between atoms: C2'_3  and  C1'_4 
REMARK    2  A    between atoms: C1'_4  and  C1_5 
ROOT
ATOM      1  C1  I4B d   1      -3.321  -1.772   3.556  0.00  0.00    -0.075 A 
ATOM      2  C2  I4B d   1      -4.005  -2.961   3.530  0.00  0.00     0.003 A 
ATOM      3  C3  I4B d   1      -4.386  -3.592   4.739  0.00  0.00     0.002 A 
ATOM      4  C4  I4B d   1      -4.019  -3.028   5.944  0.00  0.00    -0.004 A 
ATOM      5  C5  I4B d   1      -3.346  -1.810   5.969  0.00  0.00     0.002 A 
ATOM      6  C6  I4B d   1      -3.005  -1.171   4.768  0.00  0.00     0.003 A 
ENDROOT
BRANCH   1   7
ATOM      7  C1' I4B d   1      -2.906  -1.150   2.260  0.00  0.00     0.060 C 
BRANCH   7   8
ATOM      8  C2' I4B d   1      -3.722  -1.787   1.154  0.00  0.00    -0.013 C 
ATOM      9  C4' I4B d   1      -4.315  -0.745   0.243  0.00  0.00     0.013 C 
ATOM     10  C3' I4B d   1      -2.826  -2.721   0.397  0.00  0.00     0.013 C 
ENDBRANCH   7   8
ENDBRANCH   1   7
TORSDOF 2
ENDMDL
