MODEL 1
REMARK minimizedAffinity 2.40785742
REMARK minimizedRMSD -1
REMARK  2 active torsions:
REMARK  status: ('A' for Active; 'I' for Inactive)
REMARK    1  A    between atoms: C2'_3  and  C1'_4 
REMARK    2  A    between atoms: C1'_4  and  C1_5 
ROOT
ATOM      1  C1  I4B d   1      -4.265  -4.597   3.772  0.00  0.00    -0.075 A 
ATOM      2  C2  I4B d   1      -5.589  -4.628   3.413  0.00  0.00     0.003 A 
ATOM      3  C3  I4B d   1      -6.000  -5.349   2.266  0.00  0.00     0.002 A 
ATOM      4  C4  I4B d   1      -5.053  -5.979   1.484  0.00  0.00    -0.004 A 
ATOM      5  C5  I4B d   1      -3.714  -5.966   1.862  0.00  0.00     0.002 A 
ATOM      6  C6  I4B d   1      -3.318  -5.281   3.020  0.00  0.00     0.003 A 
ENDROOT
BRANCH   1   7
ATOM      7  C1' I4B d   1      -3.861  -3.798   4.971  0.00  0.00     0.060 C 
BRANCH   7   8
ATOM      8  C2' I4B d   1      -3.021  -2.632   4.493  0.00  0.00    -0.013 C 
ATOM      9  C4' I4B d   1      -3.510  -2.114   3.166  0.00  0.00     0.013 C 
ATOM     10  C3' I4B d   1      -3.073  -1.563   5.543  0.00  0.00     0.013 C 
ENDBRANCH   7   8
ENDBRANCH   1   7
TORSDOF 2
ENDMDL
