MODEL 1
REMARK minimizedAffinity 11.8912029
REMARK minimizedRMSD -1
REMARK  2 active torsions:
REMARK  status: ('A' for Active; 'I' for Inactive)
REMARK    1  A    between atoms: C2'_3  and  C1'_4 
REMARK    2  A    between atoms: C1'_4  and  C1_5 
ROOT
ATOM      1  C1  I4B d   1      -3.328   2.966   5.888  0.00  0.00    -0.075 A 
ATOM      2  C2  I4B d   1      -4.424   3.791   5.840  0.00  0.00     0.003 A 
ATOM      3  C3  I4B d   1      -5.730   3.245   5.886  0.00  0.00     0.002 A 
ATOM      4  C4  I4B d   1      -5.893   1.875   5.928  0.00  0.00    -0.004 A 
ATOM      5  C5  I4B d   1      -4.781   1.041   6.000  0.00  0.00     0.002 A 
ATOM      6  C6  I4B d   1      -3.490   1.590   5.992  0.00  0.00     0.003 A 
ENDROOT
BRANCH   1   7
ATOM      7  C1' I4B d   1      -1.964   3.574   5.805  0.00  0.00     0.060 C 
BRANCH   7   8
ATOM      8  C2' I4B d   1      -1.957   4.546   4.643  0.00  0.00    -0.013 C 
ATOM      9  C4' I4B d   1      -2.047   5.971   5.124  0.00  0.00     0.013 C 
ATOM     10  C3' I4B d   1      -0.700   4.318   3.856  0.00  0.00     0.013 C 
ENDBRANCH   7   8
ENDBRANCH   1   7
TORSDOF 2
ENDMDL
