MODEL 1
REMARK minimizedAffinity 8.71369267
REMARK minimizedRMSD -1
REMARK  2 active torsions:
REMARK  status: ('A' for Active; 'I' for Inactive)
REMARK    1  A    between atoms: C2'_3  and  C1'_4 
REMARK    2  A    between atoms: C1'_4  and  C1_5 
ROOT
ATOM      1  C1  I4B d   1      -4.544   0.618   5.948  0.00  0.00    -0.075 A 
ATOM      2  C2  I4B d   1      -5.733   1.305   5.956  0.00  0.00     0.003 A 
ATOM      3  C3  I4B d   1      -5.739   2.720   5.941  0.00  0.00     0.002 A 
ATOM      4  C4  I4B d   1      -4.542   3.405   5.967  0.00  0.00    -0.004 A 
ATOM      5  C5  I4B d   1      -3.337   2.708   5.936  0.00  0.00     0.002 A 
ATOM      6  C6  I4B d   1      -3.338   1.306   5.913  0.00  0.00     0.003 A 
ENDROOT
BRANCH   1   7
ATOM      7  C1' I4B d   1      -4.575  -0.876   5.998  0.00  0.00     0.060 C 
BRANCH   7   8
ATOM      8  C2' I4B d   1      -3.325  -1.392   5.313  0.00  0.00    -0.013 C 
ATOM      9  C4' I4B d   1      -2.081  -0.885   5.995  0.00  0.00     0.013 C 
ATOM     10  C3' I4B d   1      -3.376  -2.890   5.323  0.00  0.00     0.013 C 
ENDBRANCH   7   8
ENDBRANCH   1   7
TORSDOF 2
ENDMDL
