MODEL 1
REMARK minimizedAffinity 8.45446205
REMARK minimizedRMSD -1
REMARK  2 active torsions:
REMARK  status: ('A' for Active; 'I' for Inactive)
REMARK    1  A    between atoms: C2'_3  and  C1'_4 
REMARK    2  A    between atoms: C1'_4  and  C1_5 
ROOT
ATOM      1  C1  I4B d   1       3.117   0.156  -5.106  0.00  0.00    -0.075 A 
ATOM      2  C2  I4B d   1       3.615  -0.126  -3.858  0.00  0.00     0.003 A 
ATOM      3  C3  I4B d   1       3.009  -1.124  -3.058  0.00  0.00     0.002 A 
ATOM      4  C4  I4B d   1       1.884  -1.776  -3.520  0.00  0.00    -0.004 A 
ATOM      5  C5  I4B d   1       1.394  -1.505  -4.795  0.00  0.00     0.002 A 
ATOM      6  C6  I4B d   1       2.022  -0.542  -5.598  0.00  0.00     0.003 A 
ENDROOT
BRANCH   1   7
ATOM      7  C1' I4B d   1       3.761   1.239  -5.911  0.00  0.00     0.060 C 
BRANCH   7   8
ATOM      8  C2' I4B d   1       2.789   2.398  -5.997  0.00  0.00    -0.013 C 
ATOM      9  C4' I4B d   1       1.808   2.373  -4.855  0.00  0.00     0.013 C 
ATOM     10  C3' I4B d   1       3.584   3.670  -6.000  0.00  0.00     0.013 C 
ENDBRANCH   7   8
ENDBRANCH   1   7
TORSDOF 2
ENDMDL
