MODEL 1
REMARK minimizedAffinity 7.86388206
REMARK minimizedRMSD -1
REMARK  2 active torsions:
REMARK  status: ('A' for Active; 'I' for Inactive)
REMARK    1  A    between atoms: C2'_3  and  C1'_4 
REMARK    2  A    between atoms: C1'_4  and  C1_5 
ROOT
ATOM      1  C1  I4B d   1       4.548   2.091   0.741  0.00  0.00    -0.075 A 
ATOM      2  C2  I4B d   1       3.283   1.938   0.232  0.00  0.00     0.003 A 
ATOM      3  C3  I4B d   1       2.538   3.071  -0.178  0.00  0.00     0.002 A 
ATOM      4  C4  I4B d   1       3.074   4.332  -0.014  0.00  0.00    -0.004 A 
ATOM      5  C5  I4B d   1       4.366   4.483   0.481  0.00  0.00     0.002 A 
ATOM      6  C6  I4B d   1       5.113   3.355   0.849  0.00  0.00     0.003 A 
ENDROOT
BRANCH   1   7
ATOM      7  C1' I4B d   1       5.294   0.876   1.194  0.00  0.00     0.060 C 
BRANCH   7   8
ATOM      8  C2' I4B d   1       4.857   0.561   2.610  0.00  0.00    -0.013 C 
ATOM      9  C4' I4B d   1       3.617  -0.292   2.622  0.00  0.00     0.013 C 
ATOM     10  C3' I4B d   1       5.995  -0.128   3.303  0.00  0.00     0.013 C 
ENDBRANCH   7   8
ENDBRANCH   1   7
TORSDOF 2
ENDMDL
