MODEL 1
REMARK minimizedAffinity 4.6015234
REMARK minimizedRMSD -1
REMARK  2 active torsions:
REMARK  status: ('A' for Active; 'I' for Inactive)
REMARK    1  A    between atoms: C2'_3  and  C1'_4 
REMARK    2  A    between atoms: C1'_4  and  C1_5 
ROOT
ATOM      1  C1  I4B d   1      -4.884   3.622   5.918  0.00  0.00    -0.075 A 
ATOM      2  C2  I4B d   1      -5.189   4.959   5.986  0.00  0.00     0.003 A 
ATOM      3  C3  I4B d   1      -4.158   5.928   5.943  0.00  0.00     0.002 A 
ATOM      4  C4  I4B d   1      -2.841   5.518   5.882  0.00  0.00    -0.004 A 
ATOM      5  C5  I4B d   1      -2.536   4.163   5.789  0.00  0.00     0.002 A 
ATOM      6  C6  I4B d   1      -3.564   3.210   5.795  0.00  0.00     0.003 A 
ENDROOT
BRANCH   1   7
ATOM      7  C1' I4B d   1      -5.995   2.625   5.999  0.00  0.00     0.060 C 
BRANCH   7   8
ATOM      8  C2' I4B d   1      -5.609   1.425   5.158  0.00  0.00    -0.013 C 
ATOM      9  C4' I4B d   1      -5.410   1.812   3.716  0.00  0.00     0.013 C 
ATOM     10  C3' I4B d   1      -4.357   0.837   5.738  0.00  0.00     0.013 C 
ENDBRANCH   7   8
ENDBRANCH   1   7
TORSDOF 2
ENDMDL
