MODEL 1
REMARK minimizedAffinity 7.40097094
REMARK minimizedRMSD -1
REMARK  2 active torsions:
REMARK  status: ('A' for Active; 'I' for Inactive)
REMARK    1  A    between atoms: C2'_3  and  C1'_4 
REMARK    2  A    between atoms: C1'_4  and  C1_5 
ROOT
ATOM      1  C1  I4B d   1      -5.260   2.075   4.135  0.00  0.00    -0.075 A 
ATOM      2  C2  I4B d   1      -5.316   0.709   4.016  0.00  0.00     0.003 A 
ATOM      3  C3  I4B d   1      -5.487   0.111   2.744  0.00  0.00     0.002 A 
ATOM      4  C4  I4B d   1      -5.648   0.912   1.632  0.00  0.00    -0.004 A 
ATOM      5  C5  I4B d   1      -5.569   2.296   1.751  0.00  0.00     0.002 A 
ATOM      6  C6  I4B d   1      -5.361   2.882   3.009  0.00  0.00     0.003 A 
ENDROOT
BRANCH   1   7
ATOM      7  C1' I4B d   1      -5.112   2.675   5.497  0.00  0.00     0.060 C 
BRANCH   7   8
ATOM      8  C2' I4B d   1      -4.621   4.099   5.330  0.00  0.00    -0.013 C 
ATOM      9  C4' I4B d   1      -5.574   5.081   5.958  0.00  0.00     0.013 C 
ATOM     10  C3' I4B d   1      -3.258   4.195   5.948  0.00  0.00     0.013 C 
ENDBRANCH   7   8
ENDBRANCH   1   7
TORSDOF 2
ENDMDL
