MODEL 1
REMARK minimizedAffinity 10.3963547
REMARK minimizedRMSD -1
REMARK  2 active torsions:
REMARK  status: ('A' for Active; 'I' for Inactive)
REMARK    1  A    between atoms: C2'_3  and  C1'_4 
REMARK    2  A    between atoms: C1'_4  and  C1_5 
ROOT
ATOM      1  C1  I4B d   1      -3.279   4.348   5.946  0.00  0.00    -0.075 A 
ATOM      2  C2  I4B d   1      -3.689   5.659   5.957  0.00  0.00     0.003 A 
ATOM      3  C3  I4B d   1      -5.068   5.974   5.994  0.00  0.00     0.002 A 
ATOM      4  C4  I4B d   1      -5.999   4.956   5.967  0.00  0.00    -0.004 A 
ATOM      5  C5  I4B d   1      -5.583   3.628   5.979  0.00  0.00     0.002 A 
ATOM      6  C6  I4B d   1      -4.214   3.322   5.981  0.00  0.00     0.003 A 
ENDROOT
BRANCH   1   7
ATOM      7  C1' I4B d   1      -1.815   4.051   5.874  0.00  0.00     0.060 C 
BRANCH   7   8
ATOM      8  C2' I4B d   1      -1.252   4.768   4.664  0.00  0.00    -0.013 C 
ATOM      9  C4' I4B d   1      -0.073   4.027   4.091  0.00  0.00     0.013 C 
ATOM     10  C3' I4B d   1      -2.352   4.901   3.652  0.00  0.00     0.013 C 
ENDBRANCH   7   8
ENDBRANCH   1   7
TORSDOF 2
ENDMDL
