MODEL 1
REMARK minimizedAffinity 13.113492
REMARK minimizedRMSD -1
REMARK  2 active torsions:
REMARK  status: ('A' for Active; 'I' for Inactive)
REMARK    1  A    between atoms: C2'_3  and  C1'_4 
REMARK    2  A    between atoms: C1'_4  and  C1_5 
ROOT
ATOM      1  C1  I4B d   1      -3.097  -1.935   3.585  0.00  0.00    -0.075 A 
ATOM      2  C2  I4B d   1      -2.766  -1.326   4.770  0.00  0.00     0.003 A 
ATOM      3  C3  I4B d   1      -3.203  -1.876   6.000  0.00  0.00     0.002 A 
ATOM      4  C4  I4B d   1      -4.005  -2.999   5.996  0.00  0.00    -0.004 A 
ATOM      5  C5  I4B d   1      -4.320  -3.628   4.794  0.00  0.00     0.002 A 
ATOM      6  C6  I4B d   1      -3.853  -3.100   3.582  0.00  0.00     0.003 A 
ENDROOT
BRANCH   1   7
ATOM      7  C1' I4B d   1      -2.646  -1.309   2.303  0.00  0.00     0.060 C 
BRANCH   7   8
ATOM      8  C2' I4B d   1      -3.578  -1.775   1.203  0.00  0.00    -0.013 C 
ATOM      9  C4' I4B d   1      -4.010  -0.627   0.331  0.00  0.00     0.013 C 
ATOM     10  C3' I4B d   1      -2.862  -2.823   0.404  0.00  0.00     0.013 C 
ENDBRANCH   7   8
ENDBRANCH   1   7
TORSDOF 2
ENDMDL
