MODEL 1
REMARK minimizedAffinity 16.6130219
REMARK minimizedRMSD -1
REMARK  1 active torsions:
REMARK  status: ('A' for Active; 'I' for Inactive)
REMARK    1  A    between atoms: C1_2  and  C2_3 
ROOT
ATOM      1  C2  UNL d   1      -0.620  -1.616   1.459  0.00  0.00    -0.076 A 
ATOM      2  C3  UNL d   1      -0.719  -0.358   2.078  0.00  0.00     0.004 A 
ATOM      3  C4  UNL d   1      -1.870   0.417   1.949  0.00  0.00    -0.003 A 
ATOM      4  C5  UNL d   1      -2.942  -0.054   1.199  0.00  0.00     0.000 A 
ATOM      5  C6  UNL d   1      -2.869  -1.307   0.593  0.00  0.00     0.000 A 
ATOM      6  C7  UNL d   1      -1.721  -2.108   0.726  0.00  0.00    -0.073 A 
ATOM      7  C8  UNL d   1      -1.694  -3.450   0.046  0.00  0.00     0.078 C 
ENDROOT
BRANCH   1   8
ATOM      8  C1  UNL d   1       0.664  -2.400   1.612  0.00  0.00     0.053 C 
ATOM      9  C   UNL d   1       1.638  -1.741   2.576  0.00  0.00     0.018 C 
ENDBRANCH   1   8
TORSDOF 1
ENDMDL
