MODEL 1
REMARK minimizedAffinity 23.8910294
REMARK minimizedRMSD -1
REMARK  1 active torsions:
REMARK  status: ('A' for Active; 'I' for Inactive)
REMARK    1  A    between atoms: C1_2  and  C2_3 
ROOT
ATOM      1  C2  UNL d   1      -0.037  -1.692   1.509  0.00  0.00    -0.076 A 
ATOM      2  C3  UNL d   1      -1.110  -2.596   1.432  0.00  0.00     0.004 A 
ATOM      3  C4  UNL d   1      -2.338  -2.209   0.899  0.00  0.00    -0.003 A 
ATOM      4  C5  UNL d   1      -2.513  -0.911   0.432  0.00  0.00     0.000 A 
ATOM      5  C6  UNL d   1      -1.454  -0.005   0.484  0.00  0.00     0.000 A 
ATOM      6  C7  UNL d   1      -0.204  -0.384   1.004  0.00  0.00    -0.073 A 
ATOM      7  C8  UNL d   1       0.902   0.635   1.041  0.00  0.00     0.078 C 
ENDROOT
BRANCH   1   8
ATOM      8  C1  UNL d   1       1.263  -2.160   2.122  0.00  0.00     0.053 C 
ATOM      9  C   UNL d   1       1.112  -2.542   3.586  0.00  0.00     0.018 C 
ENDBRANCH   1   8
TORSDOF 1
ENDMDL
