MODEL 1
REMARK minimizedAffinity 16.3753262
REMARK minimizedRMSD -1
REMARK  1 active torsions:
REMARK  status: ('A' for Active; 'I' for Inactive)
REMARK    1  A    between atoms: C1_2  and  C2_3 
ROOT
ATOM      1  C2  UNL d   1       2.943   4.356  -2.815  0.00  0.00    -0.076 A 
ATOM      2  C3  UNL d   1       2.335   5.533  -3.285  0.00  0.00     0.004 A 
ATOM      3  C4  UNL d   1       0.979   5.561  -3.607  0.00  0.00    -0.003 A 
ATOM      4  C5  UNL d   1       0.210   4.412  -3.464  0.00  0.00     0.000 A 
ATOM      5  C6  UNL d   1       0.792   3.240  -2.983  0.00  0.00     0.000 A 
ATOM      6  C7  UNL d   1       2.154   3.199  -2.638  0.00  0.00    -0.073 A 
ATOM      7  C8  UNL d   1       2.732   1.907  -2.130  0.00  0.00     0.078 C 
ENDROOT
BRANCH   1   8
ATOM      8  C1  UNL d   1       4.424   4.379  -2.507  0.00  0.00     0.053 C 
ATOM      9  C   UNL d   1       4.870   5.695  -1.890  0.00  0.00     0.018 C 
ENDBRANCH   1   8
TORSDOF 1
ENDMDL
