MODEL 1
REMARK minimizedAffinity 16.4021702
REMARK minimizedRMSD -1
REMARK  1 active torsions:
REMARK  status: ('A' for Active; 'I' for Inactive)
REMARK    1  A    between atoms: C1_2  and  C2_3 
ROOT
ATOM      1  C2  UNL d   1       4.524   3.374  -2.178  0.00  0.00    -0.076 A 
ATOM      2  C3  UNL d   1       3.838   2.994  -1.011  0.00  0.00     0.004 A 
ATOM      3  C4  UNL d   1       2.592   2.373  -1.082  0.00  0.00    -0.003 A 
ATOM      4  C5  UNL d   1       2.013   2.121  -2.320  0.00  0.00     0.000 A 
ATOM      5  C6  UNL d   1       2.687   2.475  -3.488  0.00  0.00     0.000 A 
ATOM      6  C7  UNL d   1       3.951   3.088  -3.435  0.00  0.00    -0.073 A 
ATOM      7  C8  UNL d   1       4.630   3.454  -4.726  0.00  0.00     0.078 C 
ENDROOT
BRANCH   1   8
ATOM      8  C1  UNL d   1       5.859   4.070  -2.038  0.00  0.00     0.053 C 
ATOM      9  C   UNL d   1       5.721   5.507  -1.562  0.00  0.00     0.018 C 
ENDBRANCH   1   8
TORSDOF 1
ENDMDL
