MODEL 1
REMARK minimizedAffinity 9.49730682
REMARK minimizedRMSD -1
REMARK  1 active torsions:
REMARK  status: ('A' for Active; 'I' for Inactive)
REMARK    1  A    between atoms: C1_2  and  C2_3 
ROOT
ATOM      1  C2  UNL d   1      -0.532  -1.716   2.101  0.00  0.00    -0.076 A 
ATOM      2  C3  UNL d   1      -0.136  -0.382   2.300  0.00  0.00     0.004 A 
ATOM      3  C4  UNL d   1      -1.005   0.673   2.027  0.00  0.00    -0.003 A 
ATOM      4  C5  UNL d   1      -2.286   0.411   1.551  0.00  0.00     0.000 A 
ATOM      5  C6  UNL d   1      -2.701  -0.907   1.365  0.00  0.00     0.000 A 
ATOM      6  C7  UNL d   1      -1.843  -1.983   1.651  0.00  0.00    -0.073 A 
ATOM      7  C8  UNL d   1      -2.342  -3.384   1.426  0.00  0.00     0.078 C 
ENDROOT
BRANCH   1   8
ATOM      8  C1  UNL d   1       0.463  -2.817   2.388  0.00  0.00     0.053 C 
ATOM      9  C   UNL d   1       1.329  -3.149   1.183  0.00  0.00     0.018 C 
ENDBRANCH   1   8
TORSDOF 1
ENDMDL
