MODEL 1
REMARK minimizedAffinity 11.101799
REMARK minimizedRMSD -1
REMARK  1 active torsions:
REMARK  status: ('A' for Active; 'I' for Inactive)
REMARK    1  A    between atoms: C1_2  and  C2_3 
ROOT
ATOM      1  C2  UNL d   1       3.726   4.433  -2.734  0.00  0.00    -0.076 A 
ATOM      2  C3  UNL d   1       3.722   3.656  -3.906  0.00  0.00     0.004 A 
ATOM      3  C4  UNL d   1       4.836   3.615  -4.743  0.00  0.00    -0.003 A 
ATOM      4  C5  UNL d   1       5.972   4.350  -4.421  0.00  0.00     0.000 A 
ATOM      5  C6  UNL d   1       5.999   5.112  -3.254  0.00  0.00     0.000 A 
ATOM      6  C7  UNL d   1       4.891   5.151  -2.391  0.00  0.00    -0.073 A 
ATOM      7  C8  UNL d   1       4.973   5.994  -1.148  0.00  0.00     0.078 C 
ENDROOT
BRANCH   1   8
ATOM      8  C1  UNL d   1       2.479   4.459  -1.879  0.00  0.00     0.053 C 
ATOM      9  C   UNL d   1       1.283   5.048  -2.611  0.00  0.00     0.018 C 
ENDBRANCH   1   8
TORSDOF 1
ENDMDL
