MODEL 1
REMARK minimizedAffinity 15.5369549
REMARK minimizedRMSD -1
REMARK  1 active torsions:
REMARK  status: ('A' for Active; 'I' for Inactive)
REMARK    1  A    between atoms: C1_2  and  C2_3 
ROOT
ATOM      1  C2  UNL d   1      -2.050  -2.291   1.523  0.00  0.00    -0.076 A 
ATOM      2  C3  UNL d   1      -2.873  -1.222   1.918  0.00  0.00     0.004 A 
ATOM      3  C4  UNL d   1      -2.328  -0.063   2.470  0.00  0.00    -0.003 A 
ATOM      4  C5  UNL d   1      -0.952   0.045   2.634  0.00  0.00     0.000 A 
ATOM      5  C6  UNL d   1      -0.119  -0.999   2.231  0.00  0.00     0.000 A 
ATOM      6  C7  UNL d   1      -0.651  -2.167   1.659  0.00  0.00    -0.073 A 
ATOM      7  C8  UNL d   1       0.293  -3.264   1.248  0.00  0.00     0.078 C 
ENDROOT
BRANCH   1   8
ATOM      8  C1  UNL d   1      -2.699  -3.534   0.957  0.00  0.00     0.053 C 
ATOM      9  C   UNL d   1      -3.888  -3.998   1.783  0.00  0.00     0.018 C 
ENDBRANCH   1   8
TORSDOF 1
ENDMDL
