MODEL 1
REMARK minimizedAffinity 13.2298679
REMARK minimizedRMSD -1
REMARK  1 active torsions:
REMARK  status: ('A' for Active; 'I' for Inactive)
REMARK    1  A    between atoms: C1_2  and  C2_3 
ROOT
ATOM      1  C2  UNL d   1       3.225   4.622  -1.887  0.00  0.00    -0.076 A 
ATOM      2  C3  UNL d   1       3.832   3.392  -2.194  0.00  0.00     0.004 A 
ATOM      3  C4  UNL d   1       3.064   2.259  -2.459  0.00  0.00    -0.003 A 
ATOM      4  C5  UNL d   1       1.676   2.339  -2.420  0.00  0.00     0.000 A 
ATOM      5  C6  UNL d   1       1.057   3.555  -2.134  0.00  0.00     0.000 A 
ATOM      6  C7  UNL d   1       1.817   4.710  -1.881  0.00  0.00    -0.073 A 
ATOM      7  C8  UNL d   1       1.097   5.994  -1.572  0.00  0.00     0.078 C 
ENDROOT
BRANCH   1   8
ATOM      8  C1  UNL d   1       4.110   5.810  -1.582  0.00  0.00     0.053 C 
ATOM      9  C   UNL d   1       5.523   5.401  -1.196  0.00  0.00     0.018 C 
ENDBRANCH   1   8
TORSDOF 1
ENDMDL
