MODEL 1
REMARK minimizedAffinity 8.38983345
REMARK minimizedRMSD -1
REMARK  1 active torsions:
REMARK  status: ('A' for Active; 'I' for Inactive)
REMARK    1  A    between atoms: C1_2  and  C2_3 
ROOT
ATOM      1  C2  UNL d   1      -5.954   1.669  -1.567  0.00  0.00    -0.076 A 
ATOM      2  C3  UNL d   1      -5.974   1.662  -2.972  0.00  0.00     0.004 A 
ATOM      3  C4  UNL d   1      -5.997   0.464  -3.684  0.00  0.00    -0.003 A 
ATOM      4  C5  UNL d   1      -6.000  -0.748  -3.001  0.00  0.00     0.000 A 
ATOM      5  C6  UNL d   1      -5.997  -0.760  -1.607  0.00  0.00     0.000 A 
ATOM      6  C7  UNL d   1      -5.991   0.440  -0.874  0.00  0.00    -0.073 A 
ATOM      7  C8  UNL d   1      -5.982   0.368   0.628  0.00  0.00     0.078 C 
ENDROOT
BRANCH   1   8
ATOM      8  C1  UNL d   1      -5.902   2.999  -0.850  0.00  0.00     0.053 C 
ATOM      9  C   UNL d   1      -4.929   3.973  -1.497  0.00  0.00     0.018 C 
ENDBRANCH   1   8
TORSDOF 1
ENDMDL
