MODEL 1
REMARK minimizedAffinity 3.04880524
REMARK minimizedRMSD -1
REMARK  1 active torsions:
REMARK  status: ('A' for Active; 'I' for Inactive)
REMARK    1  A    between atoms: C1_2  and  C2_3 
ROOT
ATOM      1  C2  UNL d   1      -4.404   1.115   3.068  0.00  0.00    -0.076 A 
ATOM      2  C3  UNL d   1      -3.404   0.687   3.958  0.00  0.00     0.004 A 
ATOM      3  C4  UNL d   1      -2.296  -0.026   3.504  0.00  0.00    -0.003 A 
ATOM      4  C5  UNL d   1      -2.169  -0.321   2.151  0.00  0.00     0.000 A 
ATOM      5  C6  UNL d   1      -3.142   0.112   1.251  0.00  0.00     0.000 A 
ATOM      6  C7  UNL d   1      -4.257   0.845   1.690  0.00  0.00    -0.073 A 
ATOM      7  C8  UNL d   1      -5.279   1.282   0.677  0.00  0.00     0.078 C 
ENDROOT
BRANCH   1   8
ATOM      8  C1  UNL d   1      -5.597   1.861   3.622  0.00  0.00     0.053 C 
ATOM      9  C   UNL d   1      -5.471   2.135   5.113  0.00  0.00     0.018 C 
ENDBRANCH   1   8
TORSDOF 1
ENDMDL
