MODEL 1
REMARK minimizedAffinity 17.6026707
REMARK minimizedRMSD -1
REMARK  1 active torsions:
REMARK  status: ('A' for Active; 'I' for Inactive)
REMARK    1  A    between atoms: C1_2  and  C2_3 
ROOT
ATOM      1  C2  UNL d   1       1.154   2.574  -2.025  0.00  0.00    -0.076 A 
ATOM      2  C3  UNL d   1       0.559   2.394  -0.765  0.00  0.00     0.004 A 
ATOM      3  C4  UNL d   1       1.337   2.188   0.373  0.00  0.00    -0.003 A 
ATOM      4  C5  UNL d   1       2.723   2.160   0.269  0.00  0.00     0.000 A 
ATOM      5  C6  UNL d   1       3.331   2.355  -0.970  0.00  0.00     0.000 A 
ATOM      6  C7  UNL d   1       2.562   2.580  -2.125  0.00  0.00    -0.073 A 
ATOM      7  C8  UNL d   1       3.270   2.777  -3.437  0.00  0.00     0.078 C 
ENDROOT
BRANCH   1   8
ATOM      8  C1  UNL d   1       0.258   2.766  -3.228  0.00  0.00     0.053 C 
ATOM      9  C   UNL d   1      -0.074   4.229  -3.480  0.00  0.00     0.018 C 
ENDBRANCH   1   8
TORSDOF 1
ENDMDL
