MODEL 1
REMARK minimizedAffinity 16.1708488
REMARK minimizedRMSD -1
REMARK  1 active torsions:
REMARK  status: ('A' for Active; 'I' for Inactive)
REMARK    1  A    between atoms: C1_2  and  C2_3 
ROOT
ATOM      1  C2  UNL d   1      -1.006  -2.675   1.966  0.00  0.00    -0.076 A 
ATOM      2  C3  UNL d   1      -0.185  -3.766   1.632  0.00  0.00     0.004 A 
ATOM      3  C4  UNL d   1       1.086  -3.904   2.187  0.00  0.00    -0.003 A 
ATOM      4  C5  UNL d   1       1.556  -2.954   3.087  0.00  0.00     0.000 A 
ATOM      5  C6  UNL d   1       0.748  -1.875   3.444  0.00  0.00     0.000 A 
ATOM      6  C7  UNL d   1      -0.542  -1.729   2.905  0.00  0.00    -0.073 A 
ATOM      7  C8  UNL d   1      -1.368  -0.543   3.320  0.00  0.00     0.078 C 
ENDROOT
BRANCH   1   8
ATOM      8  C1  UNL d   1      -2.364  -2.563   1.311  0.00  0.00     0.053 C 
ATOM      9  C   UNL d   1      -3.237  -3.782   1.568  0.00  0.00     0.018 C 
ENDBRANCH   1   8
TORSDOF 1
ENDMDL
