MODEL 1
REMARK minimizedAffinity 6.72292519
REMARK minimizedRMSD -1
REMARK  1 active torsions:
REMARK  status: ('A' for Active; 'I' for Inactive)
REMARK    1  A    between atoms: C1_2  and  C2_3 
ROOT
ATOM      1  C2  UNL d   1       4.746   0.871  -3.520  0.00  0.00    -0.076 A 
ATOM      2  C3  UNL d   1       3.546   0.161  -3.341  0.00  0.00     0.004 A 
ATOM      3  C4  UNL d   1       2.370   0.818  -2.982  0.00  0.00    -0.003 A 
ATOM      4  C5  UNL d   1       2.375   2.197  -2.797  0.00  0.00     0.000 A 
ATOM      5  C6  UNL d   1       3.553   2.919  -2.988  0.00  0.00     0.000 A 
ATOM      6  C7  UNL d   1       4.743   2.274  -3.366  0.00  0.00    -0.073 A 
ATOM      7  C8  UNL d   1       5.985   3.101  -3.552  0.00  0.00     0.078 C 
ENDROOT
BRANCH   1   8
ATOM      8  C1  UNL d   1       5.995   0.101  -3.882  0.00  0.00     0.053 C 
ATOM      9  C   UNL d   1       5.999  -0.354  -5.334  0.00  0.00     0.018 C 
ENDBRANCH   1   8
TORSDOF 1
ENDMDL
