MODEL 1
REMARK minimizedAffinity 3.59128141
REMARK minimizedRMSD -1
REMARK  1 active torsions:
REMARK  status: ('A' for Active; 'I' for Inactive)
REMARK    1  A    between atoms: C1_2  and  C2_3 
ROOT
ATOM      1  C2  UNL d   1       0.144  -2.098   1.345  0.00  0.00    -0.076 A 
ATOM      2  C3  UNL d   1      -1.102  -1.971   0.708  0.00  0.00     0.004 A 
ATOM      3  C4  UNL d   1      -2.080  -1.113   1.208  0.00  0.00    -0.003 A 
ATOM      4  C5  UNL d   1      -1.827  -0.367   2.354  0.00  0.00     0.000 A 
ATOM      5  C6  UNL d   1      -0.590  -0.467   2.989  0.00  0.00     0.000 A 
ATOM      6  C7  UNL d   1       0.413  -1.315   2.489  0.00  0.00    -0.073 A 
ATOM      7  C8  UNL d   1       1.727  -1.388   3.217  0.00  0.00     0.078 C 
ENDROOT
BRANCH   1   8
ATOM      8  C1  UNL d   1       1.156  -3.064   0.772  0.00  0.00     0.053 C 
ATOM      9  C   UNL d   1       0.860  -3.428  -0.674  0.00  0.00     0.018 C 
ENDBRANCH   1   8
TORSDOF 1
ENDMDL
