MODEL 1
REMARK minimizedAffinity -1.456622
REMARK minimizedRMSD -1
REMARK  1 active torsions:
REMARK  status: ('A' for Active; 'I' for Inactive)
REMARK    1  A    between atoms: C1_2  and  C2_3 
ROOT
ATOM      1  C2  UNL d   1       0.189  -1.014   0.713  0.00  0.00    -0.076 A 
ATOM      2  C3  UNL d   1       1.553  -0.809   0.982  0.00  0.00     0.004 A 
ATOM      3  C4  UNL d   1       2.289   0.143   0.278  0.00  0.00    -0.003 A 
ATOM      4  C5  UNL d   1       1.671   0.906  -0.707  0.00  0.00     0.000 A 
ATOM      5  C6  UNL d   1       0.314   0.729  -0.975  0.00  0.00     0.000 A 
ATOM      6  C7  UNL d   1      -0.445  -0.215  -0.263  0.00  0.00    -0.073 A 
ATOM      7  C8  UNL d   1      -1.904  -0.368  -0.597  0.00  0.00     0.078 C 
ENDROOT
BRANCH   1   8
ATOM      8  C1  UNL d   1      -0.551  -2.079   1.490  0.00  0.00     0.053 C 
ATOM      9  C   UNL d   1       0.004  -2.268   2.893  0.00  0.00     0.018 C 
ENDBRANCH   1   8
TORSDOF 1
ENDMDL
