MODEL 1
REMARK minimizedAffinity -4.5836606
REMARK minimizedRMSD -1
REMARK  0 active torsions:
REMARK  status: ('A' for Active; 'I' for Inactive)
ROOT
ATOM      1  C1  DEN d   1      -0.534  -0.499   0.059  0.00  0.00     0.130 A 
ATOM      2  C2  DEN d   1       0.394  -0.752  -1.040  0.00  0.00    -0.031 A 
ATOM      3  C3  DEN d   1       0.907   0.549  -1.514  0.00  0.00     0.027 A 
ATOM      4  C4  DEN d   1       0.363   2.919  -0.653  0.00  0.00     0.027 A 
ATOM      5  C5  DEN d   1      -0.379   3.640   0.257  0.00  0.00    -0.003 A 
ATOM      6  C6  DEN d   1      -1.242   3.039   1.134  0.00  0.00     0.001 A 
ATOM      7  C7  DEN d   1      -1.352   1.674   1.152  0.00  0.00     0.017 A 
ATOM      8  C8  DEN d   1      -0.613   0.941   0.232  0.00  0.00    -0.094 A 
ATOM      9  C9  DEN d   1       0.263   1.565  -0.639  0.00  0.00    -0.072 A 
ENDROOT
TORSDOF 0
ENDMDL
