MODEL 1
REMARK minimizedAffinity -4.63160229
REMARK minimizedRMSD -1
REMARK  0 active torsions:
REMARK  status: ('A' for Active; 'I' for Inactive)
ROOT
ATOM      1  C1  DEN d   1       1.006  -0.676  -0.388  0.00  0.00     0.130 A 
ATOM      2  C2  DEN d   1      -0.039  -1.402   0.329  0.00  0.00    -0.031 A 
ATOM      3  C3  DEN d   1      -0.980  -0.412   0.890  0.00  0.00     0.027 A 
ATOM      4  C4  DEN d   1      -0.925   2.161   0.713  0.00  0.00     0.027 A 
ATOM      5  C5  DEN d   1      -0.224   3.237   0.215  0.00  0.00    -0.003 A 
ATOM      6  C6  DEN d   1       0.944   3.087  -0.485  0.00  0.00     0.001 A 
ATOM      7  C7  DEN d   1       1.423   1.831  -0.744  0.00  0.00     0.017 A 
ATOM      8  C8  DEN d   1       0.726   0.741  -0.239  0.00  0.00    -0.094 A 
ATOM      9  C9  DEN d   1      -0.459   0.912   0.456  0.00  0.00    -0.072 A 
ENDROOT
TORSDOF 0
ENDMDL
