MODEL 1
REMARK minimizedAffinity -0.570944667
REMARK minimizedRMSD -1
REMARK  0 active torsions:
REMARK  status: ('A' for Active; 'I' for Inactive)
ROOT
ATOM      1  C1  DEN d   1       0.734  -0.552   0.441  0.00  0.00     0.130 A 
ATOM      2  C2  DEN d   1       2.028  -0.225  -0.151  0.00  0.00    -0.031 A 
ATOM      3  C3  DEN d   1       2.017   1.206  -0.513  0.00  0.00     0.027 A 
ATOM      4  C4  DEN d   1       0.132   2.941  -0.212  0.00  0.00     0.027 A 
ATOM      5  C5  DEN d   1      -1.157   3.132   0.233  0.00  0.00    -0.003 A 
ATOM      6  C6  DEN d   1      -1.912   2.110   0.744  0.00  0.00     0.001 A 
ATOM      7  C7  DEN d   1      -1.368   0.858   0.863  0.00  0.00     0.017 A 
ATOM      8  C8  DEN d   1      -0.071   0.656   0.409  0.00  0.00    -0.094 A 
ATOM      9  C9  DEN d   1       0.680   1.705  -0.092  0.00  0.00    -0.072 A 
ENDROOT
TORSDOF 0
ENDMDL
