MODEL 1
REMARK minimizedAffinity -3.91693044
REMARK minimizedRMSD -1
REMARK  0 active torsions:
REMARK  status: ('A' for Active; 'I' for Inactive)
ROOT
ATOM      1  C1  DEN d   1      -1.325   1.319   0.568  0.00  0.00     0.130 A 
ATOM      2  C2  DEN d   1      -0.807   2.683   0.603  0.00  0.00    -0.031 A 
ATOM      3  C3  DEN d   1       0.666   2.614   0.531  0.00  0.00     0.027 A 
ATOM      4  C4  DEN d   1       2.187   0.538   0.365  0.00  0.00     0.027 A 
ATOM      5  C5  DEN d   1       2.206  -0.839   0.316  0.00  0.00    -0.003 A 
ATOM      6  C6  DEN d   1       1.061  -1.587   0.381  0.00  0.00     0.001 A 
ATOM      7  C7  DEN d   1      -0.156  -0.962   0.453  0.00  0.00     0.017 A 
ATOM      8  C8  DEN d   1      -0.182   0.425   0.511  0.00  0.00    -0.094 A 
ATOM      9  C9  DEN d   1       0.985   1.165   0.432  0.00  0.00    -0.072 A 
ENDROOT
TORSDOF 0
ENDMDL
