MODEL 1
REMARK minimizedAffinity -2.51410842
REMARK minimizedRMSD -1
REMARK  0 active torsions:
REMARK  status: ('A' for Active; 'I' for Inactive)
ROOT
ATOM      1  C1  DEN d   1      -1.624   0.472   0.799  0.00  0.00     0.130 A 
ATOM      2  C2  DEN d   1      -1.523   1.910   1.035  0.00  0.00    -0.031 A 
ATOM      3  C3  DEN d   1      -0.172   2.345   0.629  0.00  0.00     0.027 A 
ATOM      4  C4  DEN d   1       1.762   0.942  -0.343  0.00  0.00     0.027 A 
ATOM      5  C5  DEN d   1       2.153  -0.325  -0.714  0.00  0.00    -0.003 A 
ATOM      6  C6  DEN d   1       1.331  -1.413  -0.576  0.00  0.00     0.001 A 
ATOM      7  C7  DEN d   1       0.059  -1.245  -0.096  0.00  0.00     0.017 A 
ATOM      8  C8  DEN d   1      -0.340   0.028   0.287  0.00  0.00    -0.094 A 
ATOM      9  C9  DEN d   1       0.501   1.117   0.128  0.00  0.00    -0.072 A 
ENDROOT
TORSDOF 0
ENDMDL
