MODEL 1
REMARK minimizedAffinity -3.82723069
REMARK minimizedRMSD -1
REMARK  0 active torsions:
REMARK  status: ('A' for Active; 'I' for Inactive)
ROOT
ATOM      1  C1  DEN d   1       0.829  -0.656  -1.073  0.00  0.00     0.130 A 
ATOM      2  C2  DEN d   1       0.234  -1.888  -0.560  0.00  0.00    -0.031 A 
ATOM      3  C3  DEN d   1      -0.783  -1.519   0.445  0.00  0.00     0.027 A 
ATOM      4  C4  DEN d   1      -1.494   0.826   1.250  0.00  0.00     0.027 A 
ATOM      5  C5  DEN d   1      -1.264   2.177   1.113  0.00  0.00    -0.003 A 
ATOM      6  C6  DEN d   1      -0.305   2.673   0.270  0.00  0.00     0.001 A 
ATOM      7  C7  DEN d   1       0.430   1.813  -0.503  0.00  0.00     0.017 A 
ATOM      8  C8  DEN d   1       0.209   0.449  -0.365  0.00  0.00    -0.094 A 
ATOM      9  C9  DEN d   1      -0.773  -0.032   0.484  0.00  0.00    -0.072 A 
ENDROOT
TORSDOF 0
ENDMDL
