MODEL 1
REMARK minimizedAffinity -2.29842329
REMARK minimizedRMSD -1
REMARK  0 active torsions:
REMARK  status: ('A' for Active; 'I' for Inactive)
ROOT
ATOM      1  C1  DEN d   1      -1.991  -5.948  -1.204  0.00  0.00     0.130 A 
ATOM      2  C2  DEN d   1      -2.963  -5.138  -0.474  0.00  0.00    -0.031 A 
ATOM      3  C3  DEN d   1      -2.747  -3.724  -0.843  0.00  0.00     0.027 A 
ATOM      4  C4  DEN d   1      -1.015  -2.717  -2.466  0.00  0.00     0.027 A 
ATOM      5  C5  DEN d   1       0.032  -3.008  -3.313  0.00  0.00    -0.003 A 
ATOM      6  C6  DEN d   1       0.496  -4.285  -3.488  0.00  0.00     0.001 A 
ATOM      7  C7  DEN d   1      -0.117  -5.325  -2.842  0.00  0.00     0.017 A 
ATOM      8  C8  DEN d   1      -1.169  -5.039  -1.981  0.00  0.00    -0.094 A 
ATOM      9  C9  DEN d   1      -1.631  -3.743  -1.827  0.00  0.00    -0.072 A 
ENDROOT
TORSDOF 0
ENDMDL
