MODEL 1
REMARK minimizedAffinity 13.6760988
REMARK minimizedRMSD -1
REMARK  0 active torsions:
REMARK  status: ('A' for Active; 'I' for Inactive)
ROOT
ATOM      1  C1  DEN d   1      -2.873  -0.946   0.912  0.00  0.00     0.130 A 
ATOM      2  C2  DEN d   1      -1.509  -0.446   1.060  0.00  0.00    -0.031 A 
ATOM      3  C3  DEN d   1      -1.400   0.198   2.384  0.00  0.00     0.027 A 
ATOM      4  C4  DEN d   1      -3.200   0.463   4.212  0.00  0.00     0.027 A 
ATOM      5  C5  DEN d   1      -4.513   0.210   4.539  0.00  0.00    -0.003 A 
ATOM      6  C6  DEN d   1      -5.375  -0.411   3.674  0.00  0.00     0.001 A 
ATOM      7  C7  DEN d   1      -4.920  -0.841   2.455  0.00  0.00     0.017 A 
ATOM      8  C8  DEN d   1      -3.598  -0.582   2.116  0.00  0.00    -0.094 A 
ATOM      9  C9  DEN d   1      -2.740   0.036   3.009  0.00  0.00    -0.072 A 
ENDROOT
TORSDOF 0
ENDMDL
