MODEL 1
REMARK minimizedAffinity 0.0168340076
REMARK minimizedRMSD -1
REMARK  0 active torsions:
REMARK  status: ('A' for Active; 'I' for Inactive)
ROOT
ATOM      1  C1  DEN d   1       1.922   3.584  -4.881  0.00  0.00     0.130 A 
ATOM      2  C2  DEN d   1       1.879   4.542  -3.780  0.00  0.00    -0.031 A 
ATOM      3  C3  DEN d   1       3.264   4.775  -3.323  0.00  0.00     0.027 A 
ATOM      4  C4  DEN d   1       5.459   3.753  -4.213  0.00  0.00     0.027 A 
ATOM      5  C5  DEN d   1       5.999   2.880  -5.131  0.00  0.00    -0.003 A 
ATOM      6  C6  DEN d   1       5.222   2.160  -6.000  0.00  0.00     0.001 A 
ATOM      7  C7  DEN d   1       3.864   2.335  -6.000  0.00  0.00     0.017 A 
ATOM      8  C8  DEN d   1       3.311   3.208  -5.072  0.00  0.00    -0.094 A 
ATOM      9  C9  DEN d   1       4.114   3.935  -4.210  0.00  0.00    -0.072 A 
ENDROOT
TORSDOF 0
ENDMDL
