MODEL 1
REMARK minimizedAffinity -3.65286136
REMARK minimizedRMSD -1
REMARK  0 active torsions:
REMARK  status: ('A' for Active; 'I' for Inactive)
ROOT
ATOM      1  C1  DEN d   1       0.979  -0.024  -1.092  0.00  0.00     0.130 A 
ATOM      2  C2  DEN d   1       0.322  -1.260  -0.676  0.00  0.00    -0.031 A 
ATOM      3  C3  DEN d   1      -0.767  -0.906   0.257  0.00  0.00     0.027 A 
ATOM      4  C4  DEN d   1      -1.499   1.424   1.088  0.00  0.00     0.027 A 
ATOM      5  C5  DEN d   1      -1.234   2.774   1.020  0.00  0.00    -0.003 A 
ATOM      6  C6  DEN d   1      -0.200   3.279   0.277  0.00  0.00     0.001 A 
ATOM      7  C7  DEN d   1       0.579   2.432  -0.466  0.00  0.00     0.017 A 
ATOM      8  C8  DEN d   1       0.323   1.068  -0.397  0.00  0.00    -0.094 A 
ATOM      9  C9  DEN d   1      -0.734   0.579   0.351  0.00  0.00    -0.072 A 
ENDROOT
TORSDOF 0
ENDMDL
