MODEL 1
REMARK minimizedAffinity -4.50721312
REMARK minimizedRMSD -1
REMARK  0 active torsions:
REMARK  status: ('A' for Active; 'I' for Inactive)
ROOT
ATOM      1  C1  DEN d   1      -1.216  -3.044  -0.433  0.00  0.00     0.130 A 
ATOM      2  C2  DEN d   1      -0.297  -3.487  -1.478  0.00  0.00    -0.031 A 
ATOM      3  C3  DEN d   1       0.591  -2.356  -1.814  0.00  0.00     0.027 A 
ATOM      4  C4  DEN d   1       0.635   0.023  -0.819  0.00  0.00     0.027 A 
ATOM      5  C5  DEN d   1       0.038   0.873   0.086  0.00  0.00    -0.003 A 
ATOM      6  C6  DEN d   1      -1.031   0.490   0.851  0.00  0.00     0.001 A 
ATOM      7  C7  DEN d   1      -1.509  -0.790   0.757  0.00  0.00     0.017 A 
ATOM      8  C8  DEN d   1      -0.918  -1.650  -0.158  0.00  0.00    -0.094 A 
ATOM      9  C9  DEN d   1       0.171  -1.248  -0.914  0.00  0.00    -0.072 A 
ENDROOT
TORSDOF 0
ENDMDL
