MODEL 1
REMARK minimizedAffinity -2.98897028
REMARK minimizedRMSD -1
REMARK  0 active torsions:
REMARK  status: ('A' for Active; 'I' for Inactive)
ROOT
ATOM      1  C1  DEN d   1      -2.565  -3.996  -0.667  0.00  0.00     0.130 A 
ATOM      2  C2  DEN d   1      -2.815  -4.634  -1.957  0.00  0.00    -0.031 A 
ATOM      3  C3  DEN d   1      -1.706  -4.279  -2.865  0.00  0.00     0.027 A 
ATOM      4  C4  DEN d   1       0.367  -2.816  -2.400  0.00  0.00     0.027 A 
ATOM      5  C5  DEN d   1       1.009  -2.048  -1.454  0.00  0.00    -0.003 A 
ATOM      6  C6  DEN d   1       0.493  -1.849  -0.201  0.00  0.00     0.001 A 
ATOM      7  C7  DEN d   1      -0.679  -2.463   0.155  0.00  0.00     0.017 A 
ATOM      8  C8  DEN d   1      -1.336  -3.233  -0.795  0.00  0.00    -0.094 A 
ATOM      9  C9  DEN d   1      -0.792  -3.432  -2.053  0.00  0.00    -0.072 A 
ENDROOT
TORSDOF 0
ENDMDL
