MODEL 1
REMARK minimizedAffinity -2.83452868
REMARK minimizedRMSD -1
REMARK  0 active torsions:
REMARK  status: ('A' for Active; 'I' for Inactive)
ROOT
ATOM      1  C1  DEN d   1      -0.979  -1.474  -0.050  0.00  0.00     0.130 A 
ATOM      2  C2  DEN d   1       0.038  -2.521  -0.001  0.00  0.00    -0.031 A 
ATOM      3  C3  DEN d   1       1.363  -1.874  -0.080  0.00  0.00     0.027 A 
ATOM      4  C4  DEN d   1       1.935   0.634  -0.267  0.00  0.00     0.027 A 
ATOM      5  C5  DEN d   1       1.406   1.903  -0.354  0.00  0.00    -0.003 A 
ATOM      6  C6  DEN d   1       0.056   2.131  -0.380  0.00  0.00     0.001 A 
ATOM      7  C7  DEN d   1      -0.813   1.077  -0.273  0.00  0.00     0.017 A 
ATOM      8  C8  DEN d   1      -0.287  -0.206  -0.192  0.00  0.00    -0.094 A 
ATOM      9  C9  DEN d   1       1.082  -0.415  -0.155  0.00  0.00    -0.072 A 
ENDROOT
TORSDOF 0
ENDMDL
