MODEL 1
REMARK minimizedAffinity -3.91219568
REMARK minimizedRMSD -1
REMARK  0 active torsions:
REMARK  status: ('A' for Active; 'I' for Inactive)
ROOT
ATOM      1  C1  DEN d   1      -0.957  -2.189  -2.639  0.00  0.00     0.130 A 
ATOM      2  C2  DEN d   1      -0.868  -3.646  -2.596  0.00  0.00    -0.031 A 
ATOM      3  C3  DEN d   1      -0.072  -4.020  -1.410  0.00  0.00     0.027 A 
ATOM      4  C4  DEN d   1       1.021  -2.493   0.358  0.00  0.00     0.027 A 
ATOM      5  C5  DEN d   1       1.229  -1.185   0.737  0.00  0.00    -0.003 A 
ATOM      6  C6  DEN d   1       0.755  -0.128   0.006  0.00  0.00     0.001 A 
ATOM      7  C7  DEN d   1       0.011  -0.362  -1.120  0.00  0.00     0.017 A 
ATOM      8  C8  DEN d   1      -0.196  -1.677  -1.513  0.00  0.00    -0.094 A 
ATOM      9  C9  DEN d   1       0.280  -2.732  -0.753  0.00  0.00    -0.072 A 
ENDROOT
TORSDOF 0
ENDMDL
