MODEL 1
REMARK minimizedAffinity -3.61593795
REMARK minimizedRMSD -1
REMARK  0 active torsions:
REMARK  status: ('A' for Active; 'I' for Inactive)
ROOT
ATOM      1  C1  DEN d   1      -1.432  -1.012   0.076  0.00  0.00     0.130 A 
ATOM      2  C2  DEN d   1       0.007  -1.256   0.029  0.00  0.00    -0.031 A 
ATOM      3  C3  DEN d   1       0.694  -0.006   0.411  0.00  0.00     0.027 A 
ATOM      4  C4  DEN d   1      -0.325   2.270   1.071  0.00  0.00     0.027 A 
ATOM      5  C5  DEN d   1      -1.502   2.965   1.244  0.00  0.00    -0.003 A 
ATOM      6  C6  DEN d   1      -2.726   2.398   1.009  0.00  0.00     0.001 A 
ATOM      7  C7  DEN d   1      -2.804   1.083   0.631  0.00  0.00     0.017 A 
ATOM      8  C8  DEN d   1      -1.622   0.378   0.447  0.00  0.00    -0.094 A 
ATOM      9  C9  DEN d   1      -0.395   0.966   0.701  0.00  0.00    -0.072 A 
ENDROOT
TORSDOF 0
ENDMDL
