MODEL 1
REMARK minimizedAffinity -4.47400999
REMARK minimizedRMSD -1
REMARK  0 active torsions:
REMARK  status: ('A' for Active; 'I' for Inactive)
ROOT
ATOM      1  C1  DEN d   1       1.141  -1.361  -0.052  0.00  0.00     0.130 A 
ATOM      2  C2  DEN d   1       0.084  -2.292  -0.438  0.00  0.00    -0.031 A 
ATOM      3  C3  DEN d   1      -1.158  -1.516  -0.634  0.00  0.00     0.027 A 
ATOM      4  C4  DEN d   1      -1.542   1.022  -0.383  0.00  0.00     0.027 A 
ATOM      5  C5  DEN d   1      -0.946   2.221  -0.061  0.00  0.00    -0.003 A 
ATOM      6  C6  DEN d   1       0.368   2.305   0.317  0.00  0.00     0.001 A 
ATOM      7  C7  DEN d   1       1.142   1.175   0.338  0.00  0.00     0.017 A 
ATOM      8  C8  DEN d   1       0.546  -0.039   0.022  0.00  0.00    -0.094 A 
ATOM      9  C9  DEN d   1      -0.781  -0.101  -0.369  0.00  0.00    -0.072 A 
ENDROOT
TORSDOF 0
ENDMDL
