MODEL 1
REMARK minimizedAffinity -0.349971056
REMARK minimizedRMSD -1
REMARK  0 active torsions:
REMARK  status: ('A' for Active; 'I' for Inactive)
ROOT
ATOM      1  C1  DEN d   1       0.684  -0.890   0.515  0.00  0.00     0.130 A 
ATOM      2  C2  DEN d   1      -0.455   0.024   0.496  0.00  0.00    -0.031 A 
ATOM      3  C3  DEN d   1      -1.417  -0.466  -0.511  0.00  0.00     0.027 A 
ATOM      4  C4  DEN d   1      -1.257  -2.544  -2.031  0.00  0.00     0.027 A 
ATOM      5  C5  DEN d   1      -0.472  -3.620  -2.383  0.00  0.00    -0.003 A 
ATOM      6  C6  DEN d   1       0.758  -3.840  -1.822  0.00  0.00     0.001 A 
ATOM      7  C7  DEN d   1       1.220  -2.997  -0.846  0.00  0.00     0.017 A 
ATOM      8  C8  DEN d   1       0.438  -1.906  -0.491  0.00  0.00    -0.094 A 
ATOM      9  C9  DEN d   1      -0.809  -1.708  -1.061  0.00  0.00    -0.072 A 
ENDROOT
TORSDOF 0
ENDMDL
