MODEL 1
REMARK minimizedAffinity -3.59542966
REMARK minimizedRMSD -1
REMARK  0 active torsions:
REMARK  status: ('A' for Active; 'I' for Inactive)
ROOT
ATOM      1  C1  DEN d   1       2.586   0.865  -0.379  0.00  0.00     0.130 A 
ATOM      2  C2  DEN d   1       2.267   2.283  -0.512  0.00  0.00    -0.031 A 
ATOM      3  C3  DEN d   1       0.813   2.445  -0.309  0.00  0.00     0.027 A 
ATOM      4  C4  DEN d   1      -0.964   0.647   0.201  0.00  0.00     0.027 A 
ATOM      5  C5  DEN d   1      -1.174  -0.700   0.395  0.00  0.00    -0.003 A 
ATOM      6  C6  DEN d   1      -0.160  -1.617   0.312  0.00  0.00     0.001 A 
ATOM      7  C7  DEN d   1       1.120  -1.192   0.072  0.00  0.00     0.017 A 
ATOM      8  C8  DEN d   1       1.339   0.164  -0.132  0.00  0.00    -0.094 A 
ATOM      9  C9  DEN d   1       0.302   1.076  -0.032  0.00  0.00    -0.072 A 
ENDROOT
TORSDOF 0
ENDMDL
