MODEL 1
REMARK minimizedAffinity 15.423912
REMARK minimizedRMSD -1
REMARK  0 active torsions:
REMARK  status: ('A' for Active; 'I' for Inactive)
ROOT
ATOM      1  C4' PXY d   1       0.726  -1.338  -4.123  0.00  0.00     0.077 C 
ATOM      2  C1' PXY d   1      -2.782  -5.674  -5.641  0.00  0.00     0.077 C 
ATOM      3  C1  PXY d   1      -1.872  -4.531  -5.236  0.00  0.00    -0.082 A 
ATOM      4  C2  PXY d   1      -0.838  -4.217  -5.999  0.00  0.00     0.003 A 
ATOM      5  C3  PXY d   1       0.014  -3.208  -5.631  0.00  0.00     0.003 A 
ATOM      6  C4  PXY d   1      -0.225  -2.478  -4.498  0.00  0.00    -0.082 A 
ATOM      7  C5  PXY d   1      -1.284  -2.785  -3.720  0.00  0.00     0.003 A 
ATOM      8  C6  PXY d   1      -2.113  -3.840  -4.089  0.00  0.00     0.003 A 
ENDROOT
TORSDOF 0
ENDMDL
