MODEL 1
REMARK minimizedAffinity 11.8897839
REMARK minimizedRMSD -1
REMARK  0 active torsions:
REMARK  status: ('A' for Active; 'I' for Inactive)
ROOT
ATOM      1  C4' PXY d   1       1.192  -2.261   3.445  0.00  0.00     0.077 C 
ATOM      2  C1' PXY d   1      -1.398   2.888   3.003  0.00  0.00     0.077 C 
ATOM      3  C1  PXY d   1      -0.730   1.531   3.117  0.00  0.00    -0.082 A 
ATOM      4  C2  PXY d   1       0.396   1.412   3.802  0.00  0.00     0.003 A 
ATOM      5  C3  PXY d   1       1.030   0.199   3.888  0.00  0.00     0.003 A 
ATOM      6  C4  PXY d   1       0.478  -0.913   3.311  0.00  0.00    -0.082 A 
ATOM      7  C5  PXY d   1      -0.676  -0.802   2.620  0.00  0.00     0.003 A 
ATOM      8  C6  PXY d   1      -1.282   0.446   2.510  0.00  0.00     0.003 A 
ENDROOT
TORSDOF 0
ENDMDL
