MODEL 1
REMARK minimizedAffinity 5.21136332
REMARK minimizedRMSD -1
REMARK  0 active torsions:
REMARK  status: ('A' for Active; 'I' for Inactive)
ROOT
ATOM      1  C4' PXY d   1       0.787   1.160   5.619  0.00  0.00     0.077 C 
ATOM      2  C1' PXY d   1      -0.071  -1.437   0.527  0.00  0.00     0.077 C 
ATOM      3  C1  PXY d   1       0.156  -0.768   1.868  0.00  0.00    -0.082 A 
ATOM      4  C2  PXY d   1      -0.374   0.421   2.103  0.00  0.00     0.003 A 
ATOM      5  C3  PXY d   1      -0.152   1.055   3.299  0.00  0.00     0.003 A 
ATOM      6  C4  PXY d   1       0.576   0.442   4.283  0.00  0.00    -0.082 A 
ATOM      7  C5  PXY d   1       1.111  -0.776   4.054  0.00  0.00     0.003 A 
ATOM      8  C6  PXY d   1       0.908  -1.384   2.819  0.00  0.00     0.003 A 
ENDROOT
TORSDOF 0
ENDMDL
