MODEL 1
REMARK minimizedAffinity 9.87896538
REMARK minimizedRMSD -1
REMARK  0 active torsions:
REMARK  status: ('A' for Active; 'I' for Inactive)
ROOT
ATOM      1  C4' PXY d   1       3.590  -0.002  -6.000  0.00  0.00     0.077 C 
ATOM      2  C1' PXY d   1      -1.271  -1.821  -3.454  0.00  0.00     0.077 C 
ATOM      3  C1  PXY d   1       0.011  -1.354  -4.116  0.00  0.00    -0.082 A 
ATOM      4  C2  PXY d   1       0.117  -0.099  -4.522  0.00  0.00     0.003 A 
ATOM      5  C3  PXY d   1       1.256   0.333  -5.151  0.00  0.00     0.003 A 
ATOM      6  C4  PXY d   1       2.318  -0.515  -5.319  0.00  0.00    -0.082 A 
ATOM      7  C5  PXY d   1       2.222  -1.794  -4.898  0.00  0.00     0.003 A 
ATOM      8  C6  PXY d   1       1.041  -2.223  -4.299  0.00  0.00     0.003 A 
ENDROOT
TORSDOF 0
ENDMDL
