MODEL 1
REMARK minimizedAffinity 0.303062528
REMARK minimizedRMSD -1
REMARK  0 active torsions:
REMARK  status: ('A' for Active; 'I' for Inactive)
ROOT
ATOM      1  C4' PXY d   1      -2.181  -4.998  -5.177  0.00  0.00     0.077 C 
ATOM      2  C1' PXY d   1       0.619  -0.105  -3.903  0.00  0.00     0.077 C 
ATOM      3  C1  PXY d   1      -0.119  -1.389  -4.224  0.00  0.00    -0.082 A 
ATOM      4  C2  PXY d   1       0.209  -2.079  -5.305  0.00  0.00     0.003 A 
ATOM      5  C3  PXY d   1      -0.469  -3.226  -5.628  0.00  0.00     0.003 A 
ATOM      6  C4  PXY d   1      -1.457  -3.701  -4.808  0.00  0.00    -0.082 A 
ATOM      7  C5  PXY d   1      -1.790  -3.009  -3.698  0.00  0.00     0.003 A 
ATOM      8  C6  PXY d   1      -1.118  -1.825  -3.409  0.00  0.00     0.003 A 
ENDROOT
TORSDOF 0
ENDMDL
