MODEL 1
REMARK minimizedAffinity 12.3157377
REMARK minimizedRMSD -1
REMARK  0 active torsions:
REMARK  status: ('A' for Active; 'I' for Inactive)
ROOT
ATOM      1  C4' PXY d   1       2.059   0.522   3.956  0.00  0.00     0.077 C 
ATOM      2  C1' PXY d   1      -1.985  -1.499   0.353  0.00  0.00     0.077 C 
ATOM      3  C1  PXY d   1      -0.928  -0.957   1.296  0.00  0.00    -0.082 A 
ATOM      4  C2  PXY d   1       0.159  -1.670   1.538  0.00  0.00     0.003 A 
ATOM      5  C3  PXY d   1       1.110  -1.209   2.413  0.00  0.00     0.003 A 
ATOM      6  C4  PXY d   1       0.971   0.018   3.004  0.00  0.00    -0.082 A 
ATOM      7  C5  PXY d   1      -0.131   0.756   2.753  0.00  0.00     0.003 A 
ATOM      8  C6  PXY d   1      -1.104   0.253   1.894  0.00  0.00     0.003 A 
ENDROOT
TORSDOF 0
ENDMDL
