MODEL 1
REMARK minimizedAffinity 6.84350395
REMARK minimizedRMSD -1
REMARK  0 active torsions:
REMARK  status: ('A' for Active; 'I' for Inactive)
ROOT
ATOM      1  C4' PXY d   1       2.544   0.287   3.704  0.00  0.00     0.077 C 
ATOM      2  C1' PXY d   1      -2.926  -0.495   2.005  0.00  0.00     0.077 C 
ATOM      3  C1  PXY d   1      -1.489  -0.302   2.447  0.00  0.00    -0.082 A 
ATOM      4  C2  PXY d   1      -1.196   0.640   3.330  0.00  0.00     0.003 A 
ATOM      5  C3  PXY d   1       0.102   0.849   3.717  0.00  0.00     0.003 A 
ATOM      6  C4  PXY d   1       1.105   0.051   3.235  0.00  0.00    -0.082 A 
ATOM      7  C5  PXY d   1       0.814  -0.919   2.343  0.00  0.00     0.003 A 
ATOM      8  C6  PXY d   1      -0.505  -1.088   1.932  0.00  0.00     0.003 A 
ENDROOT
TORSDOF 0
ENDMDL
