MODEL 1
REMARK minimizedAffinity 3.15267515
REMARK minimizedRMSD -1
REMARK  0 active torsions:
REMARK  status: ('A' for Active; 'I' for Inactive)
ROOT
ATOM      1  C4' PXY d   1      -0.792   2.694   2.126  0.00  0.00     0.077 C 
ATOM      2  C1' PXY d   1       1.137  -2.301   4.303  0.00  0.00     0.077 C 
ATOM      3  C1  PXY d   1       0.627  -0.997   3.721  0.00  0.00    -0.082 A 
ATOM      4  C2  PXY d   1       1.128   0.150   4.150  0.00  0.00     0.003 A 
ATOM      5  C3  PXY d   1       0.656   1.339   3.658  0.00  0.00     0.003 A 
ATOM      6  C4  PXY d   1      -0.301   1.353   2.678  0.00  0.00    -0.082 A 
ATOM      7  C5  PXY d   1      -0.809   0.186   2.228  0.00  0.00     0.003 A 
ATOM      8  C6  PXY d   1      -0.346  -1.009   2.770  0.00  0.00     0.003 A 
ENDROOT
TORSDOF 0
ENDMDL
