MODEL 1
REMARK minimizedAffinity 6.43337727
REMARK minimizedRMSD -1
REMARK  0 active torsions:
REMARK  status: ('A' for Active; 'I' for Inactive)
ROOT
ATOM      1  C4' PXY d   1       1.767   0.519  -4.331  0.00  0.00     0.077 C 
ATOM      2  C1' PXY d   1      -2.112  -3.092  -2.023  0.00  0.00     0.077 C 
ATOM      3  C1  PXY d   1      -1.093  -2.153  -2.638  0.00  0.00    -0.082 A 
ATOM      4  C2  PXY d   1      -0.461  -1.280  -1.871  0.00  0.00     0.003 A 
ATOM      5  C3  PXY d   1       0.441  -0.403  -2.416  0.00  0.00     0.003 A 
ATOM      6  C4  PXY d   1       0.737  -0.455  -3.752  0.00  0.00    -0.082 A 
ATOM      7  C5  PXY d   1       0.104  -1.350  -4.539  0.00  0.00     0.003 A 
ATOM      8  C6  PXY d   1      -0.837  -2.204  -3.974  0.00  0.00     0.003 A 
ENDROOT
TORSDOF 0
ENDMDL
