MODEL 1
REMARK minimizedAffinity 5.35092449
REMARK minimizedRMSD -1
REMARK  0 active torsions:
REMARK  status: ('A' for Active; 'I' for Inactive)
ROOT
ATOM      1  C4' PXY d   1       2.898  -3.130   5.999  0.00  0.00     0.077 C 
ATOM      2  C1' PXY d   1      -0.165   0.203   2.404  0.00  0.00     0.077 C 
ATOM      3  C1  PXY d   1       0.629  -0.679   3.347  0.00  0.00    -0.082 A 
ATOM      4  C2  PXY d   1       1.594  -0.151   4.081  0.00  0.00     0.003 A 
ATOM      5  C3  PXY d   1       2.343  -0.940   4.915  0.00  0.00     0.003 A 
ATOM      6  C4  PXY d   1       2.065  -2.275   5.040  0.00  0.00    -0.082 A 
ATOM      7  C5  PXY d   1       1.074  -2.820   4.302  0.00  0.00     0.003 A 
ATOM      8  C6  PXY d   1       0.353  -2.009   3.431  0.00  0.00     0.003 A 
ENDROOT
TORSDOF 0
ENDMDL
