MODEL 1
REMARK minimizedAffinity 15.6080618
REMARK minimizedRMSD -1
REMARK  0 active torsions:
REMARK  status: ('A' for Active; 'I' for Inactive)
ROOT
ATOM      1  C4' PXY d   1      -1.267  -2.636  -1.118  0.00  0.00     0.077 C 
ATOM      2  C1' PXY d   1       0.362  -0.005  -6.000  0.00  0.00     0.077 C 
ATOM      3  C1  PXY d   1      -0.077  -0.693  -4.723  0.00  0.00    -0.082 A 
ATOM      4  C2  PXY d   1       0.751  -0.752  -3.693  0.00  0.00     0.003 A 
ATOM      5  C3  PXY d   1       0.382  -1.398  -2.541  0.00  0.00     0.003 A 
ATOM      6  C4  PXY d   1      -0.869  -1.943  -2.424  0.00  0.00    -0.082 A 
ATOM      7  C5  PXY d   1      -1.724  -1.878  -3.466  0.00  0.00     0.003 A 
ATOM      8  C6  PXY d   1      -1.315  -1.253  -4.641  0.00  0.00     0.003 A 
ENDROOT
TORSDOF 0
ENDMDL
