MODEL 1
REMARK minimizedAffinity 5.73056269
REMARK minimizedRMSD -1
REMARK  0 active torsions:
REMARK  status: ('A' for Active; 'I' for Inactive)
ROOT
ATOM      1  C4' PXY d   1       1.957  -2.888   4.479  0.00  0.00     0.077 C 
ATOM      2  C1' PXY d   1      -0.874   1.636   2.258  0.00  0.00     0.077 C 
ATOM      3  C1  PXY d   1      -0.120   0.456   2.838  0.00  0.00    -0.082 A 
ATOM      4  C2  PXY d   1      -0.673  -0.746   2.820  0.00  0.00     0.003 A 
ATOM      5  C3  PXY d   1      -0.019  -1.819   3.370  0.00  0.00     0.003 A 
ATOM      6  C4  PXY d   1       1.237  -1.669   3.895  0.00  0.00    -0.082 A 
ATOM      7  C5  PXY d   1       1.812  -0.448   3.908  0.00  0.00     0.003 A 
ATOM      8  C6  PXY d   1       1.114   0.635   3.382  0.00  0.00     0.003 A 
ENDROOT
TORSDOF 0
ENDMDL
