MODEL 1
REMARK minimizedAffinity -3.63589334
REMARK minimizedRMSD -1
REMARK  1 active torsions:
REMARK  status: ('A' for Active; 'I' for Inactive)
REMARK    1  A    between atoms: C1_2  and  C2_3 
ROOT
ATOM      1  C2  UNL d   1       1.382  -0.751  -0.129  0.00  0.00    -0.077 A 
ATOM      2  C3  UNL d   1       1.121   0.473   0.504  0.00  0.00     0.002 A 
ATOM      3  C4  UNL d   1      -0.155   1.036   0.455  0.00  0.00     0.002 A 
ATOM      4  C5  UNL d   1      -1.182   0.381  -0.223  0.00  0.00    -0.004 A 
ATOM      5  C6  UNL d   1      -0.932  -0.835  -0.858  0.00  0.00     0.002 A 
ATOM      6  C7  UNL d   1       0.344  -1.399  -0.810  0.00  0.00     0.002 A 
ENDROOT
BRANCH   1   7
ATOM      7  C1  UNL d   1       2.746  -1.383  -0.035  0.00  0.00     0.055 C 
ATOM      8  C   UNL d   1       3.225  -1.871  -1.394  0.00  0.00     0.019 C 
ENDBRANCH   1   7
TORSDOF 1
ENDMDL
