MODEL 1
REMARK minimizedAffinity -4.68009186
REMARK minimizedRMSD -1
REMARK  1 active torsions:
REMARK  status: ('A' for Active; 'I' for Inactive)
REMARK    1  A    between atoms: C1_2  and  C2_3 
ROOT
ATOM      1  C2  UNL d   1       0.268  -0.118  -0.105  0.00  0.00    -0.077 A 
ATOM      2  C3  UNL d   1       0.396  -1.477  -0.423  0.00  0.00     0.002 A 
ATOM      3  C4  UNL d   1       1.507  -2.203   0.011  0.00  0.00     0.002 A 
ATOM      4  C5  UNL d   1       2.496  -1.579   0.769  0.00  0.00    -0.004 A 
ATOM      5  C6  UNL d   1       2.379  -0.227   1.088  0.00  0.00     0.002 A 
ATOM      6  C7  UNL d   1       1.270   0.500   0.654  0.00  0.00     0.002 A 
ENDROOT
BRANCH   1   7
ATOM      7  C1  UNL d   1      -0.954   0.654  -0.530  0.00  0.00     0.055 C 
ATOM      8  C   UNL d   1      -2.008   0.670   0.567  0.00  0.00     0.019 C 
ENDBRANCH   1   7
TORSDOF 1
ENDMDL
