MODEL 1
REMARK minimizedAffinity -0.601429045
REMARK minimizedRMSD -1
REMARK  1 active torsions:
REMARK  status: ('A' for Active; 'I' for Inactive)
REMARK    1  A    between atoms: C1_2  and  C2_3 
ROOT
ATOM      1  C2  UNL d   1      -1.441   1.010  -0.150  0.00  0.00    -0.077 A 
ATOM      2  C3  UNL d   1      -0.943  -0.300  -0.171  0.00  0.00     0.002 A 
ATOM      3  C4  UNL d   1       0.432  -0.534  -0.115  0.00  0.00     0.002 A 
ATOM      4  C5  UNL d   1       1.320   0.537  -0.032  0.00  0.00    -0.004 A 
ATOM      5  C6  UNL d   1       0.835   1.844  -0.013  0.00  0.00     0.002 A 
ATOM      6  C7  UNL d   1      -0.540   2.079  -0.071  0.00  0.00     0.002 A 
ENDROOT
BRANCH   1   7
ATOM      7  C1  UNL d   1      -2.926   1.263  -0.161  0.00  0.00     0.055 C 
ATOM      8  C   UNL d   1      -3.503   1.238   1.247  0.00  0.00     0.019 C 
ENDBRANCH   1   7
TORSDOF 1
ENDMDL
