MODEL 1
REMARK minimizedAffinity -5.46589518
REMARK minimizedRMSD -1
REMARK  1 active torsions:
REMARK  status: ('A' for Active; 'I' for Inactive)
REMARK    1  A    between atoms: C1_2  and  C2_3 
ROOT
ATOM      1  C2  UNL d   1       0.062   0.255  -0.330  0.00  0.00    -0.077 A 
ATOM      2  C3  UNL d   1       1.102   0.775   0.454  0.00  0.00     0.002 A 
ATOM      3  C4  UNL d   1       2.195  -0.023   0.795  0.00  0.00     0.002 A 
ATOM      4  C5  UNL d   1       2.262  -1.343   0.353  0.00  0.00    -0.004 A 
ATOM      5  C6  UNL d   1       1.233  -1.869  -0.426  0.00  0.00     0.002 A 
ATOM      6  C7  UNL d   1       0.138  -1.074  -0.767  0.00  0.00     0.002 A 
ENDROOT
BRANCH   1   7
ATOM      7  C1  UNL d   1      -1.095   1.128  -0.740  0.00  0.00     0.055 C 
ATOM      8  C   UNL d   1      -2.282   0.950   0.195  0.00  0.00     0.019 C 
ENDBRANCH   1   7
TORSDOF 1
ENDMDL
