MODEL 1
REMARK minimizedAffinity 5.08813524
REMARK minimizedRMSD -1
REMARK  0 active torsions:
REMARK  status: ('A' for Active; 'I' for Inactive)
ROOT
ATOM      1  C   UNL d   1      -2.746  -5.201   0.221  0.00  0.00     0.020 A 
ATOM      2  C1  UNL d   1      -1.397  -5.066   0.546  0.00  0.00     0.020 A 
ATOM      3  C2  UNL d   1      -0.775  -3.820   0.446  0.00  0.00     0.034 A 
ATOM      4  C3  UNL d   1      -1.503  -2.703   0.020  0.00  0.00     0.017 A 
ATOM      5  C4  UNL d   1      -2.857  -2.838  -0.306  0.00  0.00     0.017 A 
ATOM      6  C5  UNL d   1      -3.475  -4.089  -0.204  0.00  0.00     0.034 A 
ATOM      7 Cl   UNL d   1      -3.820  -1.506  -0.840  0.00  0.00    -0.070 Cl
ATOM      8 Cl1  UNL d   1      -0.670  -1.192  -0.080  0.00  0.00    -0.070 Cl
ENDROOT
TORSDOF 0
ENDMDL
