MODEL 1
REMARK minimizedAffinity 2.38267016
REMARK minimizedRMSD -1
REMARK  0 active torsions:
REMARK  status: ('A' for Active; 'I' for Inactive)
ROOT
ATOM      1  C   UNL d   1       1.542  -0.427  -3.157  0.00  0.00     0.020 A 
ATOM      2  C1  UNL d   1       1.738  -1.807  -3.200  0.00  0.00     0.020 A 
ATOM      3  C2  UNL d   1       1.157  -2.625  -2.228  0.00  0.00     0.034 A 
ATOM      4  C3  UNL d   1       0.379  -2.064  -1.209  0.00  0.00     0.017 A 
ATOM      5  C4  UNL d   1       0.182  -0.679  -1.167  0.00  0.00     0.017 A 
ATOM      6  C5  UNL d   1       0.766   0.135  -2.143  0.00  0.00     0.034 A 
ATOM      7 Cl   UNL d   1      -0.766   0.086   0.059  0.00  0.00    -0.070 Cl
ATOM      8 Cl1  UNL d   1      -0.309  -3.136  -0.041  0.00  0.00    -0.070 Cl
ENDROOT
TORSDOF 0
ENDMDL
