MODEL 1
REMARK minimizedAffinity 3.95095301
REMARK minimizedRMSD -1
REMARK  0 active torsions:
REMARK  status: ('A' for Active; 'I' for Inactive)
ROOT
ATOM      1  C   UNL d   1       4.680   6.000  -1.135  0.00  0.00     0.020 A 
ATOM      2  C1  UNL d   1       4.169   4.993  -1.954  0.00  0.00     0.020 A 
ATOM      3  C2  UNL d   1       3.447   3.937  -1.393  0.00  0.00     0.034 A 
ATOM      4  C3  UNL d   1       3.234   3.886  -0.011  0.00  0.00     0.017 A 
ATOM      5  C4  UNL d   1       3.747   4.897   0.809  0.00  0.00     0.017 A 
ATOM      6  C5  UNL d   1       4.470   5.952   0.243  0.00  0.00     0.034 A 
ATOM      7 Cl   UNL d   1       3.525   4.902   2.524  0.00  0.00    -0.070 Cl
ATOM      8 Cl1  UNL d   1       2.331   2.551   0.614  0.00  0.00    -0.070 Cl
ENDROOT
TORSDOF 0
ENDMDL
