MODEL 1
REMARK minimizedAffinity 2.26209807
REMARK minimizedRMSD -1
REMARK  0 active torsions:
REMARK  status: ('A' for Active; 'I' for Inactive)
ROOT
ATOM      1  C   UNL d   1       0.003  -0.480  -0.375  0.00  0.00     0.020 A 
ATOM      2  C1  UNL d   1      -0.117  -1.870  -0.372  0.00  0.00     0.020 A 
ATOM      3  C2  UNL d   1       0.451  -2.621  -1.403  0.00  0.00     0.034 A 
ATOM      4  C3  UNL d   1       1.141  -1.984  -2.441  0.00  0.00     0.017 A 
ATOM      5  C4  UNL d   1       1.261  -0.590  -2.443  0.00  0.00     0.017 A 
ATOM      6  C5  UNL d   1       0.690   0.158  -1.408  0.00  0.00     0.034 A 
ATOM      7 Cl   UNL d   1       2.098   0.267  -3.689  0.00  0.00    -0.070 Cl
ATOM      8 Cl1  UNL d   1       1.819  -2.976  -3.683  0.00  0.00    -0.070 Cl
ENDROOT
TORSDOF 0
ENDMDL
