MODEL 1
REMARK minimizedAffinity 3.54609656
REMARK minimizedRMSD -1
REMARK  0 active torsions:
REMARK  status: ('A' for Active; 'I' for Inactive)
ROOT
ATOM      1  C   UNL d   1       5.575  -1.873   5.001  0.00  0.00     0.020 A 
ATOM      2  C1  UNL d   1       5.994  -0.995   6.000  0.00  0.00     0.020 A 
ATOM      3  C2  UNL d   1       5.822   0.381   5.836  0.00  0.00     0.034 A 
ATOM      4  C3  UNL d   1       5.232   0.883   4.671  0.00  0.00     0.017 A 
ATOM      5  C4  UNL d   1       4.812   0.001   3.669  0.00  0.00     0.017 A 
ATOM      6  C5  UNL d   1       4.986  -1.376   3.838  0.00  0.00     0.034 A 
ATOM      7 Cl   UNL d   1       4.075   0.545   2.203  0.00  0.00    -0.070 Cl
ATOM      8 Cl1  UNL d   1       5.051   2.596   4.535  0.00  0.00    -0.070 Cl
ENDROOT
TORSDOF 0
ENDMDL
