MODEL 1
REMARK minimizedAffinity 9.07187939
REMARK minimizedRMSD -1
REMARK  0 active torsions:
REMARK  status: ('A' for Active; 'I' for Inactive)
ROOT
ATOM      1  C   UNL d   1       4.121   5.959  -1.524  0.00  0.00     0.020 A 
ATOM      2  C1  UNL d   1       4.198   4.732  -2.182  0.00  0.00     0.020 A 
ATOM      3  C2  UNL d   1       4.215   3.545  -1.447  0.00  0.00     0.034 A 
ATOM      4  C3  UNL d   1       4.155   3.582  -0.049  0.00  0.00     0.017 A 
ATOM      5  C4  UNL d   1       4.078   4.814   0.611  0.00  0.00     0.017 A 
ATOM      6  C5  UNL d   1       4.061   6.000  -0.130  0.00  0.00     0.034 A 
ATOM      7 Cl   UNL d   1       4.000   4.941   2.333  0.00  0.00    -0.070 Cl
ATOM      8 Cl1  UNL d   1       4.180   2.076   0.797  0.00  0.00    -0.070 Cl
ENDROOT
TORSDOF 0
ENDMDL
