MODEL 1
REMARK minimizedAffinity 1.76282704
REMARK minimizedRMSD -1
REMARK  0 active torsions:
REMARK  status: ('A' for Active; 'I' for Inactive)
ROOT
ATOM      1  C   UNL d   1       6.000  -3.003   6.000  0.00  0.00     0.020 A 
ATOM      2  C1  UNL d   1       5.677  -3.783   4.891  0.00  0.00     0.020 A 
ATOM      3  C2  UNL d   1       5.231  -3.176   3.715  0.00  0.00     0.034 A 
ATOM      4  C3  UNL d   1       5.105  -1.784   3.646  0.00  0.00     0.017 A 
ATOM      5  C4  UNL d   1       5.429  -1.001   4.761  0.00  0.00     0.017 A 
ATOM      6  C5  UNL d   1       5.875  -1.614   5.935  0.00  0.00     0.034 A 
ATOM      7 Cl   UNL d   1       5.299   0.723   4.752  0.00  0.00    -0.070 Cl
ATOM      8 Cl1  UNL d   1       4.547  -1.100   2.161  0.00  0.00    -0.070 Cl
ENDROOT
TORSDOF 0
ENDMDL
