MODEL 1
REMARK minimizedAffinity 6.24072886
REMARK minimizedRMSD -1
REMARK  0 active torsions:
REMARK  status: ('A' for Active; 'I' for Inactive)
ROOT
ATOM      1  C   UNL d   1       5.536   5.932   4.590  0.00  0.00     0.020 A 
ATOM      2  C1  UNL d   1       6.000   5.996   3.276  0.00  0.00     0.020 A 
ATOM      3  C2  UNL d   1       5.328   5.306   2.265  0.00  0.00     0.034 A 
ATOM      4  C3  UNL d   1       4.190   4.549   2.565  0.00  0.00     0.017 A 
ATOM      5  C4  UNL d   1       3.725   4.486   3.884  0.00  0.00     0.017 A 
ATOM      6  C5  UNL d   1       4.401   5.179   4.892  0.00  0.00     0.034 A 
ATOM      7 Cl   UNL d   1       2.327   3.573   4.331  0.00  0.00    -0.070 Cl
ATOM      8 Cl1  UNL d   1       3.409   3.722   1.264  0.00  0.00    -0.070 Cl
ENDROOT
TORSDOF 0
ENDMDL
