MODEL 1
REMARK minimizedAffinity 10.4753265
REMARK minimizedRMSD -1
REMARK  0 active torsions:
REMARK  status: ('A' for Active; 'I' for Inactive)
ROOT
ATOM      1  C   UNL d   1      -0.002   2.333  -0.413  0.00  0.00     0.020 A 
ATOM      2  C1  UNL d   1       1.292   1.816  -0.469  0.00  0.00     0.020 A 
ATOM      3  C2  UNL d   1       1.489   0.437  -0.568  0.00  0.00     0.034 A 
ATOM      4  C3  UNL d   1       0.391  -0.430  -0.611  0.00  0.00     0.017 A 
ATOM      5  C4  UNL d   1      -0.907   0.090  -0.555  0.00  0.00     0.017 A 
ATOM      6  C5  UNL d   1      -1.099   1.471  -0.456  0.00  0.00     0.034 A 
ATOM      7 Cl   UNL d   1      -2.311  -0.917  -0.603  0.00  0.00    -0.070 Cl
ATOM      8 Cl1  UNL d   1       0.709  -2.124  -0.734  0.00  0.00    -0.070 Cl
ENDROOT
TORSDOF 0
ENDMDL
