MODEL 1
REMARK minimizedAffinity -3.80043554
REMARK minimizedRMSD -1
REMARK  0 active torsions:
REMARK  status: ('A' for Active; 'I' for Inactive)
ROOT
ATOM      1  C   UNL d   1       2.245   0.661  -4.380  0.00  0.00     0.020 A 
ATOM      2  C1  UNL d   1       2.925  -0.546  -4.536  0.00  0.00     0.020 A 
ATOM      3  C2  UNL d   1       2.761  -1.566  -3.597  0.00  0.00     0.034 A 
ATOM      4  C3  UNL d   1       1.914  -1.382  -2.498  0.00  0.00     0.017 A 
ATOM      5  C4  UNL d   1       1.232  -0.170  -2.342  0.00  0.00     0.017 A 
ATOM      6  C5  UNL d   1       1.400   0.849  -3.285  0.00  0.00     0.034 A 
ATOM      7 Cl   UNL d   1       0.170   0.131  -1.012  0.00  0.00    -0.070 Cl
ATOM      8 Cl1  UNL d   1       1.758  -2.687  -1.376  0.00  0.00    -0.070 Cl
ENDROOT
TORSDOF 0
ENDMDL
