MODEL 1
REMARK minimizedAffinity 2.00109911
REMARK minimizedRMSD -1
REMARK  0 active torsions:
REMARK  status: ('A' for Active; 'I' for Inactive)
ROOT
ATOM      1  C   UNL d   1      -2.876  -4.472  -0.983  0.00  0.00     0.020 A 
ATOM      2  C1  UNL d   1      -3.202  -3.151  -1.286  0.00  0.00     0.020 A 
ATOM      3  C2  UNL d   1      -2.251  -2.142  -1.116  0.00  0.00     0.034 A 
ATOM      4  C3  UNL d   1      -0.971  -2.452  -0.643  0.00  0.00     0.017 A 
ATOM      5  C4  UNL d   1      -0.646  -3.779  -0.340  0.00  0.00     0.017 A 
ATOM      6  C5  UNL d   1      -1.601  -4.786  -0.511  0.00  0.00     0.034 A 
ATOM      7 Cl   UNL d   1       0.913  -4.240   0.248  0.00  0.00    -0.070 Cl
ATOM      8 Cl1  UNL d   1       0.154  -1.154  -0.458  0.00  0.00    -0.070 Cl
ENDROOT
TORSDOF 0
ENDMDL
