MODEL 1
REMARK minimizedAffinity -2.99532032
REMARK minimizedRMSD -1
REMARK  0 active torsions:
REMARK  status: ('A' for Active; 'I' for Inactive)
ROOT
ATOM      1  C   UNL d   1       5.333  -0.128   3.189  0.00  0.00     0.020 A 
ATOM      2  C1  UNL d   1       5.400   0.284   4.519  0.00  0.00     0.020 A 
ATOM      3  C2  UNL d   1       5.601   1.632   4.823  0.00  0.00     0.034 A 
ATOM      4  C3  UNL d   1       5.734   2.573   3.796  0.00  0.00     0.017 A 
ATOM      5  C4  UNL d   1       5.666   2.159   2.461  0.00  0.00     0.017 A 
ATOM      6  C5  UNL d   1       5.465   0.808   2.162  0.00  0.00     0.034 A 
ATOM      7 Cl   UNL d   1       5.821   3.261   1.139  0.00  0.00    -0.070 Cl
ATOM      8 Cl1  UNL d   1       5.979   4.224   4.245  0.00  0.00    -0.070 Cl
ENDROOT
TORSDOF 0
ENDMDL
