MODEL 1
REMARK minimizedAffinity 1.9383831
REMARK minimizedRMSD -1
REMARK  0 active torsions:
REMARK  status: ('A' for Active; 'I' for Inactive)
ROOT
ATOM      1  C   UNL d   1       5.380  -1.006   4.849  0.00  0.00     0.020 A 
ATOM      2  C1  UNL d   1       5.815  -0.349   6.000  0.00  0.00     0.020 A 
ATOM      3  C2  UNL d   1       6.000   1.035   5.986  0.00  0.00     0.034 A 
ATOM      4  C3  UNL d   1       5.750   1.767   4.820  0.00  0.00     0.017 A 
ATOM      5  C4  UNL d   1       5.313   1.107   3.666  0.00  0.00     0.017 A 
ATOM      6  C5  UNL d   1       5.130  -0.279   3.685  0.00  0.00     0.034 A 
ATOM      7 Cl   UNL d   1       4.984   1.943   2.189  0.00  0.00    -0.070 Cl
ATOM      8 Cl1  UNL d   1       5.999   3.476   4.875  0.00  0.00    -0.070 Cl
ENDROOT
TORSDOF 0
ENDMDL
