MODEL 1
REMARK minimizedAffinity 2.27533555
REMARK minimizedRMSD -1
REMARK  0 active torsions:
REMARK  status: ('A' for Active; 'I' for Inactive)
ROOT
ATOM      1  C   UNL d   1       0.745  -2.384  -0.392  0.00  0.00     0.020 A 
ATOM      2  C1  UNL d   1       0.301  -1.065  -0.491  0.00  0.00     0.020 A 
ATOM      3  C2  UNL d   1      -1.039  -0.799  -0.780  0.00  0.00     0.034 A 
ATOM      4  C3  UNL d   1      -1.940  -1.853  -0.970  0.00  0.00     0.017 A 
ATOM      5  C4  UNL d   1      -1.494  -3.176  -0.871  0.00  0.00     0.017 A 
ATOM      6  C5  UNL d   1      -0.151  -3.436  -0.582  0.00  0.00     0.034 A 
ATOM      7 Cl   UNL d   1      -2.547  -4.528  -1.093  0.00  0.00    -0.070 Cl
ATOM      8 Cl1  UNL d   1      -3.583  -1.451  -1.324  0.00  0.00    -0.070 Cl
ENDROOT
TORSDOF 0
ENDMDL
