MODEL 1
REMARK minimizedAffinity 2.67209148
REMARK minimizedRMSD -1
REMARK  0 active torsions:
REMARK  status: ('A' for Active; 'I' for Inactive)
ROOT
ATOM      1  C   UNL d   1      -3.107  -5.295  -0.714  0.00  0.00     0.020 A 
ATOM      2  C1  UNL d   1      -1.797  -5.546  -0.305  0.00  0.00     0.020 A 
ATOM      3  C2  UNL d   1      -0.899  -4.488  -0.153  0.00  0.00     0.034 A 
ATOM      4  C3  UNL d   1      -1.309  -3.174  -0.408  0.00  0.00     0.017 A 
ATOM      5  C4  UNL d   1      -2.623  -2.923  -0.818  0.00  0.00     0.017 A 
ATOM      6  C5  UNL d   1      -3.519  -3.987  -0.969  0.00  0.00     0.034 A 
ATOM      7 Cl   UNL d   1      -3.202  -1.329  -1.152  0.00  0.00    -0.070 Cl
ATOM      8 Cl1  UNL d   1      -0.145  -1.914  -0.198  0.00  0.00    -0.070 Cl
ENDROOT
TORSDOF 0
ENDMDL
