MODEL 1
REMARK minimizedAffinity 5.25944567
REMARK minimizedRMSD -1
REMARK  0 active torsions:
REMARK  status: ('A' for Active; 'I' for Inactive)
ROOT
ATOM      1  C   UNL d   1       3.881   5.074   3.217  0.00  0.00     0.020 A 
ATOM      2  C1  UNL d   1       4.770   5.997   2.669  0.00  0.00     0.020 A 
ATOM      3  C2  UNL d   1       5.015   5.999   1.294  0.00  0.00     0.034 A 
ATOM      4  C3  UNL d   1       4.370   5.076   0.463  0.00  0.00     0.017 A 
ATOM      5  C4  UNL d   1       3.477   4.150   1.014  0.00  0.00     0.017 A 
ATOM      6  C5  UNL d   1       3.236   4.152   2.391  0.00  0.00     0.034 A 
ATOM      7 Cl   UNL d   1       2.643   2.981   0.052  0.00  0.00    -0.070 Cl
ATOM      8 Cl1  UNL d   1       4.720   5.136  -1.228  0.00  0.00    -0.070 Cl
ENDROOT
TORSDOF 0
ENDMDL
