MODEL 1
REMARK minimizedAffinity 2.98092866
REMARK minimizedRMSD -1
REMARK  0 active torsions:
REMARK  status: ('A' for Active; 'I' for Inactive)
ROOT
ATOM      1  C   UNL d   1       1.520   0.803  -0.071  0.00  0.00     0.020 A 
ATOM      2  C1  UNL d   1       0.477   1.226  -0.895  0.00  0.00     0.020 A 
ATOM      3  C2  UNL d   1      -0.787   0.644  -0.775  0.00  0.00     0.034 A 
ATOM      4  C3  UNL d   1      -1.012  -0.363   0.171  0.00  0.00     0.017 A 
ATOM      5  C4  UNL d   1       0.036  -0.786   0.997  0.00  0.00     0.017 A 
ATOM      6  C5  UNL d   1       1.300  -0.201   0.873  0.00  0.00     0.034 A 
ATOM      7 Cl   UNL d   1      -0.165  -2.024   2.187  0.00  0.00    -0.070 Cl
ATOM      8 Cl1  UNL d   1      -2.600  -1.037   0.265  0.00  0.00    -0.070 Cl
ENDROOT
TORSDOF 0
ENDMDL
