MODEL 1
REMARK minimizedAffinity 6.56783628
REMARK minimizedRMSD -1
REMARK  0 active torsions:
REMARK  status: ('A' for Active; 'I' for Inactive)
ROOT
ATOM      1  C   UNL d   1       5.368   5.941   2.999  0.00  0.00     0.020 A 
ATOM      2  C1  UNL d   1       4.859   4.872   3.736  0.00  0.00     0.020 A 
ATOM      3  C2  UNL d   1       4.140   3.862   3.094  0.00  0.00     0.034 A 
ATOM      4  C3  UNL d   1       3.927   3.918   1.712  0.00  0.00     0.017 A 
ATOM      5  C4  UNL d   1       4.439   4.991   0.973  0.00  0.00     0.017 A 
ATOM      6  C5  UNL d   1       5.158   6.000   1.621  0.00  0.00     0.034 A 
ATOM      7 Cl   UNL d   1       4.217   5.129  -0.735  0.00  0.00    -0.070 Cl
ATOM      8 Cl1  UNL d   1       3.029   2.634   0.984  0.00  0.00    -0.070 Cl
ENDROOT
TORSDOF 0
ENDMDL
