MODEL 1
REMARK minimizedAffinity 3.73147225
REMARK minimizedRMSD -1
REMARK  0 active torsions:
REMARK  status: ('A' for Active; 'I' for Inactive)
ROOT
ATOM      1  C   UNL d   1       5.875   5.849   4.332  0.00  0.00     0.020 A 
ATOM      2  C1  UNL d   1       5.133   5.727   3.157  0.00  0.00     0.020 A 
ATOM      3  C2  UNL d   1       4.516   4.515   2.844  0.00  0.00     0.034 A 
ATOM      4  C3  UNL d   1       4.639   3.419   3.706  0.00  0.00     0.017 A 
ATOM      5  C4  UNL d   1       5.384   3.542   4.885  0.00  0.00     0.017 A 
ATOM      6  C5  UNL d   1       6.000   4.759   5.193  0.00  0.00     0.034 A 
ATOM      7 Cl   UNL d   1       5.581   2.235   5.998  0.00  0.00    -0.070 Cl
ATOM      8 Cl1  UNL d   1       3.849   1.950   3.256  0.00  0.00    -0.070 Cl
ENDROOT
TORSDOF 0
ENDMDL
