MODEL 1
REMARK minimizedAffinity -2.46776223
REMARK minimizedRMSD -1
REMARK  0 active torsions:
REMARK  status: ('A' for Active; 'I' for Inactive)
ROOT
ATOM      1  C1  DEN d   1       0.502  -2.049   2.464  0.00  0.00     0.130 A 
ATOM      2  C2  DEN d   1       1.664  -2.837   2.060  0.00  0.00    -0.031 A 
ATOM      3  C3  DEN d   1       1.996  -2.479   0.667  0.00  0.00     0.027 A 
ATOM      4  C4  DEN d   1       0.835  -0.787  -0.896  0.00  0.00     0.027 A 
ATOM      5  C5  DEN d   1      -0.201   0.114  -1.003  0.00  0.00    -0.003 A 
ATOM      6  C6  DEN d   1      -1.089   0.331   0.018  0.00  0.00     0.001 A 
ATOM      7  C7  DEN d   1      -0.930  -0.330   1.208  0.00  0.00     0.017 A 
ATOM      8  C8  DEN d   1       0.108  -1.245   1.320  0.00  0.00    -0.094 A 
ATOM      9  C9  DEN d   1       1.002  -1.441   0.281  0.00  0.00    -0.072 A 
ENDROOT
TORSDOF 0
ENDMDL
