MODEL 1
REMARK minimizedAffinity -6.5928092
REMARK minimizedRMSD -1
REMARK  0 active torsions:
REMARK  status: ('A' for Active; 'I' for Inactive)
ROOT
ATOM      1  C1  DEN d   1       0.337  -0.518  -1.026  0.00  0.00     0.130 A 
ATOM      2  C2  DEN d   1      -0.921   0.085  -0.595  0.00  0.00    -0.031 A 
ATOM      3  C3  DEN d   1      -0.951   0.073   0.882  0.00  0.00     0.027 A 
ATOM      4  C4  DEN d   1       0.823  -0.811   2.533  0.00  0.00     0.027 A 
ATOM      5  C5  DEN d   1       2.053  -1.421   2.638  0.00  0.00    -0.003 A 
ATOM      6  C6  DEN d   1       2.776  -1.801   1.539  0.00  0.00     0.001 A 
ATOM      7  C7  DEN d   1       2.295  -1.533   0.285  0.00  0.00     0.017 A 
ATOM      8  C8  DEN d   1       1.052  -0.925   0.170  0.00  0.00    -0.094 A 
ATOM      9  C9  DEN d   1       0.342  -0.537   1.294  0.00  0.00    -0.072 A 
ENDROOT
TORSDOF 0
ENDMDL
