MODEL 1
REMARK minimizedAffinity -5.52426052
REMARK minimizedRMSD -1
REMARK  0 active torsions:
REMARK  status: ('A' for Active; 'I' for Inactive)
ROOT
ATOM      1  C1  DEN d   1      -0.945  -0.217   0.206  0.00  0.00     0.130 A 
ATOM      2  C2  DEN d   1      -0.682  -0.016  -1.217  0.00  0.00    -0.031 A 
ATOM      3  C3  DEN d   1       0.681  -0.506  -1.503  0.00  0.00     0.027 A 
ATOM      4  C4  DEN d   1       2.399  -1.555   0.109  0.00  0.00     0.027 A 
ATOM      5  C5  DEN d   1       2.635  -1.921   1.416  0.00  0.00    -0.003 A 
ATOM      6  C6  DEN d   1       1.714  -1.715   2.409  0.00  0.00     0.001 A 
ATOM      7  C7  DEN d   1       0.496  -1.169   2.103  0.00  0.00     0.017 A 
ATOM      8  C8  DEN d   1       0.254  -0.790   0.789  0.00  0.00    -0.094 A 
ATOM      9  C9  DEN d   1       1.193  -1.018  -0.203  0.00  0.00    -0.072 A 
ENDROOT
TORSDOF 0
ENDMDL
