MODEL 1
REMARK minimizedAffinity -5.54182005
REMARK minimizedRMSD -1
REMARK  0 active torsions:
REMARK  status: ('A' for Active; 'I' for Inactive)
ROOT
ATOM      1  C1  DEN d   1       2.722  -1.581   1.003  0.00  0.00     0.130 A 
ATOM      2  C2  DEN d   1       2.458  -1.239   2.398  0.00  0.00    -0.031 A 
ATOM      3  C3  DEN d   1       1.085  -0.701   2.485  0.00  0.00     0.027 A 
ATOM      4  C4  DEN d   1      -0.649  -0.371   0.604  0.00  0.00     0.027 A 
ATOM      5  C5  DEN d   1      -0.879  -0.505  -0.747  0.00  0.00    -0.003 A 
ATOM      6  C6  DEN d   1       0.079  -0.971  -1.608  0.00  0.00     0.001 A 
ATOM      7  C7  DEN d   1       1.298  -1.363  -1.120  0.00  0.00     0.017 A 
ATOM      8  C8  DEN d   1       1.539  -1.224   0.241  0.00  0.00    -0.094 A 
ATOM      9  C9  DEN d   1       0.553  -0.762   1.096  0.00  0.00    -0.072 A 
ENDROOT
TORSDOF 0
ENDMDL
