MODEL 1
REMARK minimizedAffinity -2.77992535
REMARK minimizedRMSD -1
REMARK  0 active torsions:
REMARK  status: ('A' for Active; 'I' for Inactive)
ROOT
ATOM      1  C1  DEN d   1       1.973   0.272   1.475  0.00  0.00     0.130 A 
ATOM      2  C2  DEN d   1       1.466  -0.196   2.762  0.00  0.00    -0.031 A 
ATOM      3  C3  DEN d   1       0.051  -0.580   2.583  0.00  0.00     0.027 A 
ATOM      4  C4  DEN d   1      -1.394  -0.498   0.448  0.00  0.00     0.027 A 
ATOM      5  C5  DEN d   1      -1.405  -0.162  -0.888  0.00  0.00    -0.003 A 
ATOM      6  C6  DEN d   1      -0.310   0.370  -1.516  0.00  0.00     0.001 A 
ATOM      7  C7  DEN d   1       0.857   0.539  -0.819  0.00  0.00     0.017 A 
ATOM      8  C8  DEN d   1       0.874   0.210   0.530  0.00  0.00    -0.094 A 
ATOM      9  C9  DEN d   1      -0.240  -0.338   1.144  0.00  0.00    -0.072 A 
ENDROOT
TORSDOF 0
ENDMDL
