MODEL 1
REMARK minimizedAffinity -2.54488683
REMARK minimizedRMSD -1
REMARK  0 active torsions:
REMARK  status: ('A' for Active; 'I' for Inactive)
ROOT
ATOM      1  C1  DEN d   1       0.417  -0.301  -1.064  0.00  0.00     0.130 A 
ATOM      2  C2  DEN d   1      -0.881   0.310  -0.790  0.00  0.00    -0.031 A 
ATOM      3  C3  DEN d   1      -1.185   0.112   0.641  0.00  0.00     0.027 A 
ATOM      4  C4  DEN d   1       0.221  -1.071   2.451  0.00  0.00     0.027 A 
ATOM      5  C5  DEN d   1       1.391  -1.757   2.693  0.00  0.00    -0.003 A 
ATOM      6  C6  DEN d   1       2.295  -2.033   1.702  0.00  0.00     0.001 A 
ATOM      7  C7  DEN d   1       2.065  -1.581   0.429  0.00  0.00     0.017 A 
ATOM      8  C8  DEN d   1       0.884  -0.896   0.175  0.00  0.00    -0.094 A 
ATOM      9  C9  DEN d   1      -0.011  -0.616   1.194  0.00  0.00    -0.072 A 
ENDROOT
TORSDOF 0
ENDMDL
