MODEL 1
REMARK minimizedAffinity -2.05394006
REMARK minimizedRMSD -1
REMARK  1 active torsions:
REMARK  status: ('A' for Active; 'I' for Inactive)
REMARK    1  A    between atoms: C1_2  and  C2_3 
ROOT
ATOM      1  C2  UNL d   1      -0.129  -0.891   1.465  0.00  0.00    -0.081 A 
ATOM      2  C3  UNL d   1       0.991  -1.729   1.513  0.00  0.00     0.006 A 
ATOM      3  C4  UNL d   1       2.022  -1.588   0.581  0.00  0.00     0.002 A 
ATOM      4  C5  UNL d   1       1.953  -0.602  -0.410  0.00  0.00    -0.080 A 
ATOM      5  C6  UNL d   1       3.067  -0.421  -1.398  0.00  0.00     0.076 C 
ATOM      6  C7  UNL d   1       0.826   0.223  -0.469  0.00  0.00     0.002 A 
ATOM      7  C8  UNL d   1      -0.206   0.083   0.462  0.00  0.00     0.006 A 
ENDROOT
BRANCH   1   8
ATOM      8  C1  UNL d   1      -1.212  -0.997   2.508  0.00  0.00     0.054 C 
ATOM      9  C   UNL d   1      -0.746  -1.809   3.708  0.00  0.00     0.018 C 
ENDBRANCH   1   8
TORSDOF 1
ENDMDL
