MODEL 1
REMARK minimizedAffinity -1.57350123
REMARK minimizedRMSD -1
REMARK  1 active torsions:
REMARK  status: ('A' for Active; 'I' for Inactive)
REMARK    1  A    between atoms: C1_2  and  C2_3 
ROOT
ATOM      1  C2  UNL d   1      -0.096   0.722  -0.619  0.00  0.00    -0.081 A 
ATOM      2  C3  UNL d   1       1.230   0.375  -0.907  0.00  0.00     0.006 A 
ATOM      3  C4  UNL d   1       1.908  -0.552  -0.112  0.00  0.00     0.002 A 
ATOM      4  C5  UNL d   1       1.269  -1.153   0.979  0.00  0.00    -0.080 A 
ATOM      5  C6  UNL d   1       1.976  -2.173   1.822  0.00  0.00     0.076 C 
ATOM      6  C7  UNL d   1      -0.049  -0.793   1.277  0.00  0.00     0.002 A 
ATOM      7  C8  UNL d   1      -0.727   0.134   0.483  0.00  0.00     0.006 A 
ENDROOT
BRANCH   1   8
ATOM      8  C1  UNL d   1      -0.850   1.673  -1.512  0.00  0.00     0.054 C 
ATOM      9  C   UNL d   1      -1.885   0.939  -2.353  0.00  0.00     0.018 C 
ENDBRANCH   1   8
TORSDOF 1
ENDMDL
