MODEL 1
REMARK minimizedAffinity -4.20810699
REMARK minimizedRMSD -1
REMARK  1 active torsions:
REMARK  status: ('A' for Active; 'I' for Inactive)
REMARK    1  A    between atoms: C1_2  and  C2_3 
ROOT
ATOM      1  C2  UNL d   1      -0.747   0.479   0.050  0.00  0.00    -0.081 A 
ATOM      2  C3  UNL d   1      -1.053  -0.728   0.690  0.00  0.00     0.006 A 
ATOM      3  C4  UNL d   1      -0.058  -1.683   0.916  0.00  0.00     0.002 A 
ATOM      4  C5  UNL d   1       1.259  -1.443   0.513  0.00  0.00    -0.080 A 
ATOM      5  C6  UNL d   1       2.343  -2.446   0.776  0.00  0.00     0.076 C 
ATOM      6  C7  UNL d   1       1.562  -0.244  -0.143  0.00  0.00     0.002 A 
ATOM      7  C8  UNL d   1       0.568   0.710  -0.369  0.00  0.00     0.006 A 
ENDROOT
BRANCH   1   8
ATOM      8  C1  UNL d   1      -1.804   1.537  -0.136  0.00  0.00     0.054 C 
ATOM      9  C   UNL d   1      -1.882   1.992  -1.587  0.00  0.00     0.018 C 
ENDBRANCH   1   8
TORSDOF 1
ENDMDL
