MODEL 1
REMARK minimizedAffinity -2.37063026
REMARK minimizedRMSD -1
REMARK  1 active torsions:
REMARK  status: ('A' for Active; 'I' for Inactive)
REMARK    1  A    between atoms: C1_2  and  C2_3 
ROOT
ATOM      1  C2  UNL d   1      -0.165   1.673  -1.126  0.00  0.00    -0.081 A 
ATOM      2  C3  UNL d   1       1.233   1.740  -1.120  0.00  0.00     0.006 A 
ATOM      3  C4  UNL d   1       1.987   0.755  -0.478  0.00  0.00     0.002 A 
ATOM      4  C5  UNL d   1       1.356  -0.317   0.162  0.00  0.00    -0.080 A 
ATOM      5  C6  UNL d   1       2.154  -1.398   0.829  0.00  0.00     0.076 C 
ATOM      6  C7  UNL d   1      -0.042  -0.376   0.170  0.00  0.00     0.002 A 
ATOM      7  C8  UNL d   1      -0.796   0.609  -0.471  0.00  0.00     0.006 A 
ENDROOT
BRANCH   1   8
ATOM      8  C1  UNL d   1      -0.979   2.699  -1.873  0.00  0.00     0.054 C 
ATOM      9  C   UNL d   1      -1.976   2.036  -2.813  0.00  0.00     0.018 C 
ENDBRANCH   1   8
TORSDOF 1
ENDMDL
