MODEL 1
REMARK minimizedAffinity -6.26929665
REMARK minimizedRMSD -1
REMARK  1 active torsions:
REMARK  status: ('A' for Active; 'I' for Inactive)
REMARK    1  A    between atoms: C1_2  and  C2_3 
ROOT
ATOM      1  C2  UNL d   1      -1.238   0.750  -0.477  0.00  0.00    -0.081 A 
ATOM      2  C3  UNL d   1       0.097   0.887  -0.877  0.00  0.00     0.006 A 
ATOM      3  C4  UNL d   1       1.018  -0.134  -0.633  0.00  0.00     0.002 A 
ATOM      4  C5  UNL d   1       0.619  -1.311   0.009  0.00  0.00    -0.080 A 
ATOM      5  C6  UNL d   1       1.591  -2.428   0.250  0.00  0.00     0.076 C 
ATOM      6  C7  UNL d   1      -0.710  -1.441   0.424  0.00  0.00     0.002 A 
ATOM      7  C8  UNL d   1      -1.632  -0.420   0.181  0.00  0.00     0.006 A 
ENDROOT
BRANCH   1   8
ATOM      8  C1  UNL d   1      -2.248   1.822  -0.797  0.00  0.00     0.054 C 
ATOM      9  C   UNL d   1      -2.575   1.848  -2.283  0.00  0.00     0.018 C 
ENDBRANCH   1   8
TORSDOF 1
ENDMDL
