MODEL 1
REMARK minimizedAffinity 5.31754303
REMARK minimizedRMSD -1
REMARK  1 active torsions:
REMARK  status: ('A' for Active; 'I' for Inactive)
REMARK    1  A    between atoms: C1_2  and  C2_3 
ROOT
ATOM      1  C2  UNL d   1      -4.032  -4.785   1.251  0.00  0.00    -0.081 A 
ATOM      2  C3  UNL d   1      -5.345  -5.269   1.230  0.00  0.00     0.006 A 
ATOM      3  C4  UNL d   1      -5.940  -5.651   0.025  0.00  0.00     0.002 A 
ATOM      4  C5  UNL d   1      -5.231  -5.561  -1.177  0.00  0.00    -0.080 A 
ATOM      5  C6  UNL d   1      -5.848  -5.996  -2.473  0.00  0.00     0.076 C 
ATOM      6  C7  UNL d   1      -3.924  -5.060  -1.159  0.00  0.00     0.002 A 
ATOM      7  C8  UNL d   1      -3.329  -4.678   0.046  0.00  0.00     0.006 A 
ENDROOT
BRANCH   1   8
ATOM      8  C1  UNL d   1      -3.364  -4.434   2.556  0.00  0.00     0.054 C 
ATOM      9  C   UNL d   1      -3.923  -5.264   3.703  0.00  0.00     0.018 C 
ENDBRANCH   1   8
TORSDOF 1
ENDMDL
