MODEL 1
REMARK minimizedAffinity 6.82594538
REMARK minimizedRMSD -1
REMARK  1 active torsions:
REMARK  status: ('A' for Active; 'I' for Inactive)
REMARK    1  A    between atoms: C1_2  and  C2_3 
ROOT
ATOM      1  C2  UNL d   1      -1.991  -4.993  -4.223  0.00  0.00    -0.081 A 
ATOM      2  C3  UNL d   1      -1.909  -5.723  -5.415  0.00  0.00     0.006 A 
ATOM      3  C4  UNL d   1      -0.668  -5.988  -6.000  0.00  0.00     0.002 A 
ATOM      4  C5  UNL d   1       0.511  -5.534  -5.399  0.00  0.00    -0.080 A 
ATOM      5  C6  UNL d   1       1.851  -5.836  -6.000  0.00  0.00     0.076 C 
ATOM      6  C7  UNL d   1       0.428  -4.789  -4.217  0.00  0.00     0.002 A 
ATOM      7  C8  UNL d   1      -0.813  -4.524  -3.633  0.00  0.00     0.006 A 
ENDROOT
BRANCH   1   8
ATOM      8  C1  UNL d   1      -3.323  -4.762  -3.556  0.00  0.00     0.054 C 
ATOM      9  C   UNL d   1      -3.321  -5.278  -2.124  0.00  0.00     0.018 C 
ENDBRANCH   1   8
TORSDOF 1
ENDMDL
