MODEL 1
REMARK minimizedAffinity 3.28003192
REMARK minimizedRMSD -1
REMARK  1 active torsions:
REMARK  status: ('A' for Active; 'I' for Inactive)
REMARK    1  A    between atoms: N_2  and  C1_3 
ROOT
ATOM      1  C1  UNL d   1       1.662  -1.640   4.597  0.00  0.00     0.143 A 
ATOM      2  C2  UNL d   1       1.653  -1.005   3.351  0.00  0.00    -0.057 A 
ATOM      3  C3  UNL d   1       0.453  -0.752   2.674  0.00  0.00     0.033 A 
ATOM      4  C4  UNL d   1      -0.760  -1.158   3.221  0.00  0.00    -0.042 A 
ATOM      5  C5  UNL d   1      -0.772  -1.813   4.447  0.00  0.00     0.033 A 
ATOM      6  C6  UNL d   1       0.429  -2.056   5.121  0.00  0.00    -0.057 A 
ENDROOT
BRANCH   1   7
ATOM      7  N   UNL d   1       2.828  -2.007   5.274  0.00  0.00    -0.732 N 
ATOM      8  C   UNL d   1       3.600  -1.022   6.000  0.00  0.00     0.284 C 
ATOM      9  H3  UNL d   1       2.733  -2.898   5.756  0.00  0.00     0.395 HD
ENDBRANCH   1   7
TORSDOF 1
ENDMDL
