MODEL 1
REMARK minimizedAffinity 6.76053047
REMARK minimizedRMSD -1
REMARK  1 active torsions:
REMARK  status: ('A' for Active; 'I' for Inactive)
REMARK    1  A    between atoms: N_2  and  C1_3 
ROOT
ATOM      1  C1  UNL d   1      -0.401  -0.369   0.390  0.00  0.00     0.143 A 
ATOM      2  C2  UNL d   1      -1.602  -0.087  -0.269  0.00  0.00    -0.057 A 
ATOM      3  C3  UNL d   1      -2.768   0.216   0.445  0.00  0.00     0.033 A 
ATOM      4  C4  UNL d   1      -2.759   0.214   1.836  0.00  0.00    -0.042 A 
ATOM      5  C5  UNL d   1      -1.582  -0.088   2.512  0.00  0.00     0.033 A 
ATOM      6  C6  UNL d   1      -0.420  -0.383   1.793  0.00  0.00    -0.057 A 
ENDROOT
BRANCH   1   7
ATOM      7  N   UNL d   1       0.767  -0.774  -0.262  0.00  0.00    -0.732 N 
ATOM      8  C   UNL d   1       1.959   0.045  -0.216  0.00  0.00     0.284 C 
ATOM      9  H3  UNL d   1       0.944  -1.771  -0.158  0.00  0.00     0.395 HD
ENDBRANCH   1   7
TORSDOF 1
ENDMDL
