MODEL 1
REMARK minimizedAffinity 5.33877087
REMARK minimizedRMSD -1
REMARK  1 active torsions:
REMARK  status: ('A' for Active; 'I' for Inactive)
REMARK    1  A    between atoms: N_2  and  C1_3 
ROOT
ATOM      1  C1  UNL d   1      -0.616  -0.689   3.029  0.00  0.00     0.143 A 
ATOM      2  C2  UNL d   1      -1.987  -0.410   3.060  0.00  0.00    -0.057 A 
ATOM      3  C3  UNL d   1      -2.656   0.070   1.928  0.00  0.00     0.033 A 
ATOM      4  C4  UNL d   1      -1.958   0.306   0.748  0.00  0.00    -0.042 A 
ATOM      5  C5  UNL d   1      -0.590   0.059   0.702  0.00  0.00     0.033 A 
ATOM      6  C6  UNL d   1       0.071  -0.426   1.834  0.00  0.00    -0.057 A 
ENDROOT
BRANCH   1   7
ATOM      7  N   UNL d   1       0.124  -1.074   4.150  0.00  0.00    -0.732 N 
ATOM      8  C   UNL d   1       1.569  -1.139   4.091  0.00  0.00     0.284 C 
ATOM      9  H3  UNL d   1      -0.239  -0.674   5.012  0.00  0.00     0.395 HD
ENDBRANCH   1   7
TORSDOF 1
ENDMDL
