MODEL 1
REMARK minimizedAffinity 0.476500034
REMARK minimizedRMSD -1
REMARK  1 active torsions:
REMARK  status: ('A' for Active; 'I' for Inactive)
REMARK    1  A    between atoms: N_2  and  C1_3 
ROOT
ATOM      1  C1  UNL d   1      -1.523   0.166   1.331  0.00  0.00     0.143 A 
ATOM      2  C2  UNL d   1      -2.231  -0.123   2.503  0.00  0.00    -0.057 A 
ATOM      3  C3  UNL d   1      -1.583  -0.627   3.637  0.00  0.00     0.033 A 
ATOM      4  C4  UNL d   1      -0.215  -0.879   3.609  0.00  0.00    -0.042 A 
ATOM      5  C5  UNL d   1       0.504  -0.623   2.447  0.00  0.00     0.033 A 
ATOM      6  C6  UNL d   1      -0.148  -0.113   1.320  0.00  0.00    -0.057 A 
ENDROOT
BRANCH   1   7
ATOM      7  N   UNL d   1      -2.126   0.576   0.140  0.00  0.00    -0.732 N 
ATOM      8  C   UNL d   1      -1.427   0.452  -1.121  0.00  0.00     0.284 C 
ATOM      9  H3  UNL d   1      -3.111   0.322   0.095  0.00  0.00     0.395 HD
ENDBRANCH   1   7
TORSDOF 1
ENDMDL
