MODEL 1
REMARK minimizedAffinity 1.55011153
REMARK minimizedRMSD -1
REMARK  1 active torsions:
REMARK  status: ('A' for Active; 'I' for Inactive)
REMARK    1  A    between atoms: N_2  and  C1_3 
ROOT
ATOM      1  C1  UNL d   1      -1.475  -0.561   3.079  0.00  0.00     0.143 A 
ATOM      2  C2  UNL d   1      -0.101  -0.724   3.284  0.00  0.00    -0.057 A 
ATOM      3  C3  UNL d   1       0.827  -0.383   2.292  0.00  0.00     0.033 A 
ATOM      4  C4  UNL d   1       0.393   0.100   1.062  0.00  0.00    -0.042 A 
ATOM      5  C5  UNL d   1      -0.970   0.247   0.827  0.00  0.00     0.033 A 
ATOM      6  C6  UNL d   1      -1.891  -0.089   1.824  0.00  0.00    -0.057 A 
ENDROOT
BRANCH   1   7
ATOM      7  N   UNL d   1      -2.452  -0.974   3.989  0.00  0.00    -0.732 N 
ATOM      8  C   UNL d   1      -3.691  -1.559   3.525  0.00  0.00     0.284 C 
ATOM      9  H3  UNL d   1      -2.053  -1.435   4.804  0.00  0.00     0.395 HD
ENDBRANCH   1   7
TORSDOF 1
ENDMDL
