MODEL 1
REMARK minimizedAffinity -0.671837091
REMARK minimizedRMSD -1
REMARK  1 active torsions:
REMARK  status: ('A' for Active; 'I' for Inactive)
REMARK    1  A    between atoms: N_2  and  C1_3 
ROOT
ATOM      1  C1  UNL d   1      -0.933  -0.607   2.874  0.00  0.00     0.143 A 
ATOM      2  C2  UNL d   1      -2.271  -0.503   2.478  0.00  0.00    -0.057 A 
ATOM      3  C3  UNL d   1      -3.287  -1.174   3.168  0.00  0.00     0.033 A 
ATOM      4  C4  UNL d   1      -2.979  -1.988   4.253  0.00  0.00    -0.042 A 
ATOM      5  C5  UNL d   1      -1.653  -2.126   4.650  0.00  0.00     0.033 A 
ATOM      6  C6  UNL d   1      -0.644  -1.447   3.960  0.00  0.00    -0.057 A 
ENDROOT
BRANCH   1   7
ATOM      7  N   UNL d   1       0.133  -0.043   2.169  0.00  0.00    -0.732 N 
ATOM      8  C   UNL d   1       0.195  -0.138   0.726  0.00  0.00     0.284 C 
ATOM      9  H3  UNL d   1       0.405   0.865   2.538  0.00  0.00     0.395 HD
ENDBRANCH   1   7
TORSDOF 1
ENDMDL
