MODEL 1
REMARK minimizedAffinity -4.48953056
REMARK minimizedRMSD -1
REMARK  1 active torsions:
REMARK  status: ('A' for Active; 'I' for Inactive)
REMARK    1  A    between atoms: C1_2  and  C2_3 
ROOT
ATOM      1  C2  UNL d   1       0.210  -0.709  -0.158  0.00  0.00    -0.081 A 
ATOM      2  C3  UNL d   1       0.583  -0.415   1.159  0.00  0.00     0.006 A 
ATOM      3  C4  UNL d   1       0.007   0.664   1.834  0.00  0.00     0.002 A 
ATOM      4  C5  UNL d   1      -0.958   1.460   1.208  0.00  0.00    -0.080 A 
ATOM      5  C6  UNL d   1      -1.606   2.602   1.932  0.00  0.00     0.076 C 
ATOM      6  C7  UNL d   1      -1.318   1.178  -0.114  0.00  0.00     0.002 A 
ATOM      7  C8  UNL d   1      -0.741   0.100  -0.790  0.00  0.00     0.006 A 
ENDROOT
BRANCH   1   8
ATOM      8  C1  UNL d   1       0.782  -1.910  -0.867  0.00  0.00     0.054 C 
ATOM      9  C   UNL d   1      -0.292  -2.952  -1.145  0.00  0.00     0.018 C 
ENDBRANCH   1   8
TORSDOF 1
ENDMDL
