MODEL 1
REMARK minimizedAffinity -2.80355787
REMARK minimizedRMSD -1
REMARK  1 active torsions:
REMARK  status: ('A' for Active; 'I' for Inactive)
REMARK    1  A    between atoms: C1_2  and  C2_3 
ROOT
ATOM      1  C2  UNL d   1       0.391  -1.002  -0.163  0.00  0.00    -0.081 A 
ATOM      2  C3  UNL d   1       0.747  -0.749   1.167  0.00  0.00     0.006 A 
ATOM      3  C4  UNL d   1       0.250   0.375   1.832  0.00  0.00     0.002 A 
ATOM      4  C5  UNL d   1      -0.617   1.259   1.181  0.00  0.00    -0.080 A 
ATOM      5  C6  UNL d   1      -1.182   2.452   1.892  0.00  0.00     0.076 C 
ATOM      6  C7  UNL d   1      -0.959   1.016  -0.154  0.00  0.00     0.002 A 
ATOM      7  C8  UNL d   1      -0.461  -0.107  -0.819  0.00  0.00     0.006 A 
ENDROOT
BRANCH   1   8
ATOM      8  C1  UNL d   1       0.874  -2.247  -0.862  0.00  0.00     0.054 C 
ATOM      9  C   UNL d   1      -0.278  -3.197  -1.158  0.00  0.00     0.018 C 
ENDBRANCH   1   8
TORSDOF 1
ENDMDL
