MODEL 1
REMARK minimizedAffinity -4.04209518
REMARK minimizedRMSD -1
REMARK  1 active torsions:
REMARK  status: ('A' for Active; 'I' for Inactive)
REMARK    1  A    between atoms: C1_2  and  C2_3 
ROOT
ATOM      1  C2  UNL d   1       0.397   0.577   0.980  0.00  0.00    -0.081 A 
ATOM      2  C3  UNL d   1      -0.543   0.918  -0.000  0.00  0.00     0.006 A 
ATOM      3  C4  UNL d   1      -1.279   2.101   0.106  0.00  0.00     0.002 A 
ATOM      4  C5  UNL d   1      -1.082   2.964   1.188  0.00  0.00    -0.080 A 
ATOM      5  C6  UNL d   1      -1.844   4.252   1.298  0.00  0.00     0.076 C 
ATOM      6  C7  UNL d   1      -0.156   2.615   2.177  0.00  0.00     0.002 A 
ATOM      7  C8  UNL d   1       0.580   1.432   2.072  0.00  0.00     0.006 A 
ENDROOT
BRANCH   1   8
ATOM      8  C1  UNL d   1       1.239  -0.666   0.835  0.00  0.00     0.054 C 
ATOM      9  C   UNL d   1       2.223  -0.805   1.988  0.00  0.00     0.018 C 
ENDBRANCH   1   8
TORSDOF 1
ENDMDL
