MODEL 1
REMARK minimizedAffinity 1.85400879
REMARK minimizedRMSD -1
REMARK  3 active torsions:
REMARK  status: ('A' for Active; 'I' for Inactive)
REMARK    1  A    between atoms: C3'_2  and  C2'_3 
REMARK    2  A    between atoms: C2'_3  and  C1'_4 
REMARK    3  A    between atoms: C1'_4  and  C1_5 
ROOT
ATOM      1  C1  N4B d   1      -4.007   4.912   3.836  0.00  0.00    -0.075 A 
ATOM      2  C2  N4B d   1      -3.665   5.827   4.856  0.00  0.00     0.002 A 
ATOM      3  C3  N4B d   1      -4.501   6.000   5.932  0.00  0.00     0.002 A 
ATOM      4  C4  N4B d   1      -5.688   5.285   6.000  0.00  0.00    -0.004 A 
ATOM      5  C5  N4B d   1      -5.998   4.384   5.023  0.00  0.00     0.002 A 
ATOM      6  C6  N4B d   1      -5.165   4.198   3.938  0.00  0.00     0.002 A 
ENDROOT
BRANCH   1   7
ATOM      7  C1' N4B d   1      -3.167   4.753   2.599  0.00  0.00     0.057 C 
BRANCH   7   8
ATOM      8  C2' N4B d   1      -3.019   3.268   2.282  0.00  0.00     0.009 C 
BRANCH   8   9
ATOM      9  C3' N4B d   1      -1.603   2.916   1.857  0.00  0.00     0.004 C 
ATOM     10  C4' N4B d   1      -1.457   1.477   1.459  0.00  0.00     0.003 C 
ENDBRANCH   8   9
ENDBRANCH   7   8
ENDBRANCH   1   7
TORSDOF 3
ENDMDL
