MODEL 1
REMARK minimizedAffinity 8.13507652
REMARK minimizedRMSD -1
REMARK  3 active torsions:
REMARK  status: ('A' for Active; 'I' for Inactive)
REMARK    1  A    between atoms: C3'_2  and  C2'_3 
REMARK    2  A    between atoms: C2'_3  and  C1'_4 
REMARK    3  A    between atoms: C1'_4  and  C1_5 
ROOT
ATOM      1  C1  N4B d   1      -2.903  -1.903  -5.934  0.00  0.00    -0.075 A 
ATOM      2  C2  N4B d   1      -4.314  -1.955  -5.939  0.00  0.00     0.002 A 
ATOM      3  C3  N4B d   1      -4.956  -3.169  -5.959  0.00  0.00     0.002 A 
ATOM      4  C4  N4B d   1      -4.211  -4.338  -5.993  0.00  0.00    -0.004 A 
ATOM      5  C5  N4B d   1      -2.849  -4.279  -5.962  0.00  0.00     0.002 A 
ATOM      6  C6  N4B d   1      -2.190  -3.066  -5.938  0.00  0.00     0.002 A 
ENDROOT
BRANCH   1   7
ATOM      7  C1' N4B d   1      -2.157  -0.598  -5.999  0.00  0.00     0.057 C 
BRANCH   7   8
ATOM      8  C2' N4B d   1      -0.657  -0.876  -5.943  0.00  0.00     0.009 C 
BRANCH   8   9
ATOM      9  C3' N4B d   1       0.121   0.312  -5.404  0.00  0.00     0.004 C 
ATOM     10  C4' N4B d   1       1.242  -0.092  -4.494  0.00  0.00     0.003 C 
ENDBRANCH   8   9
ENDBRANCH   7   8
ENDBRANCH   1   7
TORSDOF 3
ENDMDL
