MODEL 1
REMARK minimizedAffinity 8.43159962
REMARK minimizedRMSD -1
REMARK  3 active torsions:
REMARK  status: ('A' for Active; 'I' for Inactive)
REMARK    1  A    between atoms: C3'_2  and  C2'_3 
REMARK    2  A    between atoms: C2'_3  and  C1'_4 
REMARK    3  A    between atoms: C1'_4  and  C1_5 
ROOT
ATOM      1  C1  N4B d   1      -4.745   4.390   3.555  0.00  0.00    -0.075 A 
ATOM      2  C2  N4B d   1      -4.933   3.419   4.563  0.00  0.00     0.002 A 
ATOM      3  C3  N4B d   1      -5.540   3.764   5.745  0.00  0.00     0.002 A 
ATOM      4  C4  N4B d   1      -5.950   5.074   5.948  0.00  0.00    -0.004 A 
ATOM      5  C5  N4B d   1      -5.788   6.000   4.960  0.00  0.00     0.002 A 
ATOM      6  C6  N4B d   1      -5.183   5.665   3.765  0.00  0.00     0.002 A 
ENDROOT
BRANCH   1   7
ATOM      7  C1' N4B d   1      -4.009   4.079   2.280  0.00  0.00     0.057 C 
BRANCH   7   8
ATOM      8  C2' N4B d   1      -2.995   2.971   2.545  0.00  0.00     0.009 C 
BRANCH   8   9
ATOM      9  C3' N4B d   1      -3.080   1.864   1.508  0.00  0.00     0.004 C 
ATOM     10  C4' N4B d   1      -1.899   0.940   1.547  0.00  0.00     0.003 C 
ENDBRANCH   8   9
ENDBRANCH   7   8
ENDBRANCH   1   7
TORSDOF 3
ENDMDL
