MODEL 1
REMARK minimizedAffinity 20.8699799
REMARK minimizedRMSD -1
REMARK  3 active torsions:
REMARK  status: ('A' for Active; 'I' for Inactive)
REMARK    1  A    between atoms: C3'_2  and  C2'_3 
REMARK    2  A    between atoms: C2'_3  and  C1'_4 
REMARK    3  A    between atoms: C1'_4  and  C1_5 
ROOT
ATOM      1  C1  N4B d   1       3.844   4.153  -4.219  0.00  0.00    -0.075 A 
ATOM      2  C2  N4B d   1       3.749   3.077  -5.129  0.00  0.00     0.002 A 
ATOM      3  C3  N4B d   1       4.781   2.820  -5.999  0.00  0.00     0.002 A 
ATOM      4  C4  N4B d   1       5.903   3.634  -5.990  0.00  0.00    -0.004 A 
ATOM      5  C5  N4B d   1       5.998   4.656  -5.092  0.00  0.00     0.002 A 
ATOM      6  C6  N4B d   1       4.971   4.923  -4.209  0.00  0.00     0.002 A 
ENDROOT
BRANCH   1   7
ATOM      7  C1' N4B d   1       2.706   4.525  -3.308  0.00  0.00     0.057 C 
BRANCH   7   8
ATOM      8  C2' N4B d   1       2.947   3.914  -1.931  0.00  0.00     0.009 C 
BRANCH   8   9
ATOM      9  C3' N4B d   1       1.949   2.814  -1.616  0.00  0.00     0.004 C 
ATOM     10  C4' N4B d   1       2.549   1.442  -1.703  0.00  0.00     0.003 C 
ENDBRANCH   8   9
ENDBRANCH   7   8
ENDBRANCH   1   7
TORSDOF 3
ENDMDL
