MODEL 1
REMARK minimizedAffinity -2.34589791
REMARK minimizedRMSD -1
REMARK  3 active torsions:
REMARK  status: ('A' for Active; 'I' for Inactive)
REMARK    1  A    between atoms: C3'_2  and  C2'_3 
REMARK    2  A    between atoms: C2'_3  and  C1'_4 
REMARK    3  A    between atoms: C1'_4  and  C1_5 
ROOT
ATOM      1  C1  N4B d   1      -2.174   1.285   2.527  0.00  0.00    -0.075 A 
ATOM      2  C2  N4B d   1      -1.705   2.499   3.076  0.00  0.00     0.002 A 
ATOM      3  C3  N4B d   1      -0.526   2.524   3.779  0.00  0.00     0.002 A 
ATOM      4  C4  N4B d   1       0.189   1.350   3.962  0.00  0.00    -0.004 A 
ATOM      5  C5  N4B d   1      -0.258   0.186   3.407  0.00  0.00     0.002 A 
ATOM      6  C6  N4B d   1      -1.439   0.147   2.695  0.00  0.00     0.002 A 
ENDROOT
BRANCH   1   7
ATOM      7  C1' N4B d   1      -3.501   1.191   1.825  0.00  0.00     0.057 C 
BRANCH   7   8
ATOM      8  C2' N4B d   1      -3.398   0.170   0.695  0.00  0.00     0.009 C 
BRANCH   8   9
ATOM      9  C3' N4B d   1      -4.525  -0.847   0.744  0.00  0.00     0.004 C 
ATOM     10  C4' N4B d   1      -4.207  -2.104  -0.009  0.00  0.00     0.003 C 
ENDBRANCH   8   9
ENDBRANCH   7   8
ENDBRANCH   1   7
TORSDOF 3
ENDMDL
