MODEL 1
REMARK minimizedAffinity 4.79791546
REMARK minimizedRMSD -1
REMARK  3 active torsions:
REMARK  status: ('A' for Active; 'I' for Inactive)
REMARK    1  A    between atoms: C3'_2  and  C2'_3 
REMARK    2  A    between atoms: C2'_3  and  C1'_4 
REMARK    3  A    between atoms: C1'_4  and  C1_5 
ROOT
ATOM      1  C1  N4B d   1       1.620  -1.133  -4.973  0.00  0.00    -0.075 A 
ATOM      2  C2  N4B d   1       2.798  -0.737  -5.642  0.00  0.00     0.002 A 
ATOM      3  C3  N4B d   1       3.742   0.014  -4.984  0.00  0.00     0.002 A 
ATOM      4  C4  N4B d   1       3.521   0.394  -3.669  0.00  0.00    -0.004 A 
ATOM      5  C5  N4B d   1       2.391  -0.014  -3.022  0.00  0.00     0.002 A 
ATOM      6  C6  N4B d   1       1.436  -0.772  -3.669  0.00  0.00     0.002 A 
ENDROOT
BRANCH   1   7
ATOM      7  C1' N4B d   1       0.520  -1.882  -5.676  0.00  0.00     0.057 C 
BRANCH   7   8
ATOM      8  C2' N4B d   1      -0.789  -1.115  -5.516  0.00  0.00     0.009 C 
BRANCH   8   9
ATOM      9  C3' N4B d   1      -1.983  -1.923  -5.996  0.00  0.00     0.004 C 
ATOM     10  C4' N4B d   1      -3.256  -1.131  -6.000  0.00  0.00     0.003 C 
ENDBRANCH   8   9
ENDBRANCH   7   8
ENDBRANCH   1   7
TORSDOF 3
ENDMDL
