MODEL 1
REMARK minimizedAffinity -4.83878994
REMARK minimizedRMSD -1
REMARK  0 active torsions:
REMARK  status: ('A' for Active; 'I' for Inactive)
ROOT
ATOM      1  C   UNL d   1       2.405   2.791   0.927  0.00  0.00     0.124 A 
ATOM      2  C1  UNL d   1       1.302   2.931   1.758  0.00  0.00     0.062 A 
ATOM      3  C2  UNL d   1       0.241   2.035   1.671  0.00  0.00     0.162 A 
ATOM      4  C3  UNL d   1       0.277   0.989   0.749  0.00  0.00    -0.034 A 
ATOM      5  C4  UNL d   1       1.389   0.855  -0.085  0.00  0.00     0.162 A 
ATOM      6  C5  UNL d   1       2.448   1.753   0.007  0.00  0.00     0.062 A 
ATOM      7  F   UNL d   1       3.512   1.616  -0.797  0.00  0.00    -0.097 F 
ATOM      8  F1  UNL d   1       1.457  -0.140  -0.982  0.00  0.00    -0.096 F 
ATOM      9  I   UNL d   1      -1.307  -0.353   0.615  0.00  0.00    -0.060 I 
ATOM     10  F2  UNL d   1      -0.812   2.195   2.486  0.00  0.00    -0.096 F 
ATOM     11  F3  UNL d   1       1.258   3.934   2.648  0.00  0.00    -0.097 F 
ATOM     12  F4  UNL d   1       3.424   3.655   1.013  0.00  0.00    -0.092 F 
ENDROOT
TORSDOF 0
ENDMDL
