MODEL 1
REMARK minimizedAffinity -3.4061904
REMARK minimizedRMSD -1
REMARK  0 active torsions:
REMARK  status: ('A' for Active; 'I' for Inactive)
ROOT
ATOM      1  C   UNL d   1      -1.597  -1.331   0.897  0.00  0.00     0.124 A 
ATOM      2  C1  UNL d   1      -2.788  -0.992   0.270  0.00  0.00     0.062 A 
ATOM      3  C2  UNL d   1      -2.776  -0.213  -0.883  0.00  0.00     0.162 A 
ATOM      4  C3  UNL d   1      -1.567   0.232  -1.418  0.00  0.00    -0.034 A 
ATOM      5  C4  UNL d   1      -0.373  -0.111  -0.782  0.00  0.00     0.162 A 
ATOM      6  C5  UNL d   1      -0.391  -0.890   0.371  0.00  0.00     0.062 A 
ATOM      7  F   UNL d   1       0.761  -1.216   0.975  0.00  0.00    -0.097 F 
ATOM      8  F1  UNL d   1       0.807   0.300  -1.269  0.00  0.00    -0.096 F 
ATOM      9  I   UNL d   1      -1.544   1.397  -3.143  0.00  0.00    -0.060 I 
ATOM     10  F2  UNL d   1      -3.942   0.098  -1.468  0.00  0.00    -0.096 F 
ATOM     11  F3  UNL d   1      -3.955  -1.416   0.777  0.00  0.00    -0.097 F 
ATOM     12  F4  UNL d   1      -1.612  -2.080   2.007  0.00  0.00    -0.092 F 
ENDROOT
TORSDOF 0
ENDMDL
