MODEL 1
REMARK minimizedAffinity -1.43285763
REMARK minimizedRMSD -1
REMARK  0 active torsions:
REMARK  status: ('A' for Active; 'I' for Inactive)
ROOT
ATOM      1  C   UNL d   1      -0.425  -0.649   0.026  0.00  0.00     0.124 A 
ATOM      2  C1  UNL d   1       0.775  -0.590   0.720  0.00  0.00     0.062 A 
ATOM      3  C2  UNL d   1       1.349   0.642   1.022  0.00  0.00     0.162 A 
ATOM      4  C3  UNL d   1       0.722   1.825   0.632  0.00  0.00    -0.034 A 
ATOM      5  C4  UNL d   1      -0.485   1.758  -0.067  0.00  0.00     0.162 A 
ATOM      6  C5  UNL d   1      -1.054   0.524  -0.367  0.00  0.00     0.062 A 
ATOM      7  F   UNL d   1      -2.214   0.469  -1.038  0.00  0.00    -0.097 F 
ATOM      8  F1  UNL d   1      -1.114   2.876  -0.458  0.00  0.00    -0.096 F 
ATOM      9  I   UNL d   1       1.576   3.669   1.082  0.00  0.00    -0.060 I 
ATOM     10  F2  UNL d   1       2.510   0.669   1.694  0.00  0.00    -0.096 F 
ATOM     11  F3  UNL d   1       1.385  -1.722   1.099  0.00  0.00    -0.097 F 
ATOM     12  F4  UNL d   1      -0.974  -1.835  -0.265  0.00  0.00    -0.092 F 
ENDROOT
TORSDOF 0
ENDMDL
