MODEL 1
REMARK minimizedAffinity 2.24514699
REMARK minimizedRMSD -1
REMARK  0 active torsions:
REMARK  status: ('A' for Active; 'I' for Inactive)
ROOT
ATOM      1  C   UNL d   1      -0.862   0.701   0.905  0.00  0.00     0.124 A 
ATOM      2  C1  UNL d   1       0.176   0.192   0.137  0.00  0.00     0.062 A 
ATOM      3  C2  UNL d   1      -0.098  -0.533  -1.019  0.00  0.00     0.162 A 
ATOM      4  C3  UNL d   1      -1.418  -0.752  -1.415  0.00  0.00    -0.034 A 
ATOM      5  C4  UNL d   1      -2.457  -0.238  -0.637  0.00  0.00     0.162 A 
ATOM      6  C5  UNL d   1      -2.177   0.485   0.518  0.00  0.00     0.062 A 
ATOM      7  F   UNL d   1      -3.181   0.976   1.258  0.00  0.00    -0.097 F 
ATOM      8  F1  UNL d   1      -3.736  -0.431  -0.989  0.00  0.00    -0.096 F 
ATOM      9  I   UNL d   1      -1.832  -1.836  -3.143  0.00  0.00    -0.060 I 
ATOM     10  F2  UNL d   1       0.925  -1.012  -1.742  0.00  0.00    -0.096 F 
ATOM     11  F3  UNL d   1       1.447   0.398   0.510  0.00  0.00    -0.097 F 
ATOM     12  F4  UNL d   1      -0.595   1.397   2.018  0.00  0.00    -0.092 F 
ENDROOT
TORSDOF 0
ENDMDL
