MODEL 1
REMARK minimizedAffinity -3.66448879
REMARK minimizedRMSD -1
REMARK  0 active torsions:
REMARK  status: ('A' for Active; 'I' for Inactive)
ROOT
ATOM      1  C   UNL d   1       1.645  -0.490   0.564  0.00  0.00     0.124 A 
ATOM      2  C1  UNL d   1       0.871  -1.406   1.264  0.00  0.00     0.062 A 
ATOM      3  C2  UNL d   1      -0.512  -1.416   1.109  0.00  0.00     0.162 A 
ATOM      4  C3  UNL d   1      -1.131  -0.509   0.249  0.00  0.00    -0.034 A 
ATOM      5  C4  UNL d   1      -0.346   0.409  -0.451  0.00  0.00     0.162 A 
ATOM      6  C5  UNL d   1       1.036   0.416  -0.293  0.00  0.00     0.062 A 
ATOM      7  F   UNL d   1       1.782   1.301  -0.970  0.00  0.00    -0.097 F 
ATOM      8  F1  UNL d   1      -0.908   1.295  -1.286  0.00  0.00    -0.096 F 
ATOM      9  I   UNL d   1      -3.199  -0.522   0.014  0.00  0.00    -0.060 I 
ATOM     10  F2  UNL d   1      -1.235  -2.312   1.798  0.00  0.00    -0.096 F 
ATOM     11  F3  UNL d   1       1.457  -2.281   2.093  0.00  0.00    -0.097 F 
ATOM     12  F4  UNL d   1       2.975  -0.481   0.716  0.00  0.00    -0.092 F 
ENDROOT
TORSDOF 0
ENDMDL
