MODEL 1
REMARK minimizedAffinity 7.33357716
REMARK minimizedRMSD -1
REMARK  0 active torsions:
REMARK  status: ('A' for Active; 'I' for Inactive)
ROOT
ATOM      1  C   UNL d   1      -1.255  -1.287   2.273  0.00  0.00     0.124 A 
ATOM      2  C1  UNL d   1       0.083  -1.512   1.981  0.00  0.00     0.062 A 
ATOM      3  C2  UNL d   1       0.606  -1.128   0.750  0.00  0.00     0.162 A 
ATOM      4  C3  UNL d   1      -0.210  -0.513  -0.200  0.00  0.00    -0.034 A 
ATOM      5  C4  UNL d   1      -1.555  -0.291   0.100  0.00  0.00     0.162 A 
ATOM      6  C5  UNL d   1      -2.073  -0.677   1.332  0.00  0.00     0.062 A 
ATOM      7  F   UNL d   1      -3.366  -0.459   1.611  0.00  0.00    -0.097 F 
ATOM      8  F1  UNL d   1      -2.367   0.298  -0.790  0.00  0.00    -0.096 F 
ATOM      9  I   UNL d   1       0.568   0.063  -2.042  0.00  0.00    -0.060 I 
ATOM     10  F2  UNL d   1       1.903  -1.357   0.496  0.00  0.00    -0.096 F 
ATOM     11  F3  UNL d   1       0.875  -2.102   2.888  0.00  0.00    -0.097 F 
ATOM     12  F4  UNL d   1      -1.756  -1.659   3.458  0.00  0.00    -0.092 F 
ENDROOT
TORSDOF 0
ENDMDL
