MODEL 1
REMARK minimizedAffinity 0.0963674337
REMARK minimizedRMSD -1
REMARK  0 active torsions:
REMARK  status: ('A' for Active; 'I' for Inactive)
ROOT
ATOM      1  C   UNL d   1      -1.239  -1.725   0.914  0.00  0.00     0.124 A 
ATOM      2  C1  UNL d   1      -2.100  -1.423  -0.132  0.00  0.00     0.062 A 
ATOM      3  C2  UNL d   1      -1.623  -0.775  -1.267  0.00  0.00     0.162 A 
ATOM      4  C3  UNL d   1      -0.276  -0.424  -1.364  0.00  0.00    -0.034 A 
ATOM      5  C4  UNL d   1       0.584  -0.730  -0.308  0.00  0.00     0.162 A 
ATOM      6  C5  UNL d   1       0.102  -1.378   0.825  0.00  0.00     0.062 A 
ATOM      7  F   UNL d   1       0.936  -1.669   1.834  0.00  0.00    -0.097 F 
ATOM      8  F1  UNL d   1       1.884  -0.408  -0.367  0.00  0.00    -0.096 F 
ATOM      9  I   UNL d   1       0.441   0.545  -3.060  0.00  0.00    -0.060 I 
ATOM     10  F2  UNL d   1      -2.478  -0.495  -2.262  0.00  0.00    -0.096 F 
ATOM     11  F3  UNL d   1      -3.397  -1.756  -0.048  0.00  0.00    -0.097 F 
ATOM     12  F4  UNL d   1      -1.701  -2.348   2.005  0.00  0.00    -0.092 F 
ENDROOT
TORSDOF 0
ENDMDL
