MODEL 1
REMARK minimizedAffinity -5.5759964
REMARK minimizedRMSD -1
REMARK  0 active torsions:
REMARK  status: ('A' for Active; 'I' for Inactive)
ROOT
ATOM      1  C   UNL d   1       1.870   1.072   0.556  0.00  0.00     0.124 A 
ATOM      2  C1  UNL d   1       1.023   2.030   0.017  0.00  0.00     0.062 A 
ATOM      3  C2  UNL d   1      -0.287   1.698  -0.317  0.00  0.00     0.162 A 
ATOM      4  C3  UNL d   1      -0.758   0.401  -0.111  0.00  0.00    -0.034 A 
ATOM      5  C4  UNL d   1       0.100  -0.557   0.431  0.00  0.00     0.162 A 
ATOM      6  C5  UNL d   1       1.408  -0.220   0.763  0.00  0.00     0.062 A 
ATOM      7  F   UNL d   1       2.226  -1.147   1.284  0.00  0.00    -0.097 F 
ATOM      8  F1  UNL d   1      -0.320  -1.813   0.642  0.00  0.00    -0.096 F 
ATOM      9  I   UNL d   1      -2.716  -0.100  -0.609  0.00  0.00    -0.060 I 
ATOM     10  F2  UNL d   1      -1.084   2.643  -0.836  0.00  0.00    -0.096 F 
ATOM     11  F3  UNL d   1       1.467   3.279  -0.184  0.00  0.00    -0.097 F 
ATOM     12  F4  UNL d   1       3.130   1.394   0.876  0.00  0.00    -0.092 F 
ENDROOT
TORSDOF 0
ENDMDL
