MODEL 1
REMARK minimizedAffinity -4.46944666
REMARK minimizedRMSD -1
REMARK  0 active torsions:
REMARK  status: ('A' for Active; 'I' for Inactive)
ROOT
ATOM      1  C   UNL d   1      -1.409  -0.964   0.797  0.00  0.00     0.124 A 
ATOM      2  C1  UNL d   1      -2.503  -0.860  -0.051  0.00  0.00     0.062 A 
ATOM      3  C2  UNL d   1      -2.354  -0.315  -1.323  0.00  0.00     0.162 A 
ATOM      4  C3  UNL d   1      -1.105   0.130  -1.756  0.00  0.00    -0.034 A 
ATOM      5  C4  UNL d   1      -0.009   0.024  -0.897  0.00  0.00     0.162 A 
ATOM      6  C5  UNL d   1      -0.164  -0.522   0.374  0.00  0.00     0.062 A 
ATOM      7  F   UNL d   1       0.894  -0.621   1.191  0.00  0.00    -0.097 F 
ATOM      8  F1  UNL d   1       1.206   0.443  -1.280  0.00  0.00    -0.096 F 
ATOM      9  I   UNL d   1      -0.877   0.946  -3.657  0.00  0.00    -0.060 I 
ATOM     10  F2  UNL d   1      -3.428  -0.228  -2.121  0.00  0.00    -0.096 F 
ATOM     11  F3  UNL d   1      -3.708  -1.286   0.356  0.00  0.00    -0.097 F 
ATOM     12  F4  UNL d   1      -1.556  -1.488   2.020  0.00  0.00    -0.092 F 
ENDROOT
TORSDOF 0
ENDMDL
