MODEL 1
REMARK minimizedAffinity -5.01400375
REMARK minimizedRMSD -1
REMARK  0 active torsions:
REMARK  status: ('A' for Active; 'I' for Inactive)
ROOT
ATOM      1  C   UNL d   1      -1.080  -0.682   0.901  0.00  0.00     0.124 A 
ATOM      2  C1  UNL d   1      -2.199  -0.529   0.094  0.00  0.00     0.062 A 
ATOM      3  C2  UNL d   1      -2.081   0.064  -1.160  0.00  0.00     0.162 A 
ATOM      4  C3  UNL d   1      -0.839   0.508  -1.615  0.00  0.00    -0.034 A 
ATOM      5  C4  UNL d   1       0.281   0.351  -0.796  0.00  0.00     0.162 A 
ATOM      6  C5  UNL d   1       0.158  -0.242   0.456  0.00  0.00     0.062 A 
ATOM      7  F   UNL d   1       1.240  -0.389   1.235  0.00  0.00    -0.097 F 
ATOM      8  F1  UNL d   1       1.490   0.767  -1.203  0.00  0.00    -0.096 F 
ATOM      9  I   UNL d   1      -0.659   1.395  -3.489  0.00  0.00    -0.060 I 
ATOM     10  F2  UNL d   1      -3.179   0.198  -1.919  0.00  0.00    -0.096 F 
ATOM     11  F3  UNL d   1      -3.396  -0.953   0.523  0.00  0.00    -0.097 F 
ATOM     12  F4  UNL d   1      -1.196  -1.252   2.108  0.00  0.00    -0.092 F 
ENDROOT
TORSDOF 0
ENDMDL
