MODEL 1
REMARK minimizedAffinity 0.707405329
REMARK minimizedRMSD -1
REMARK  0 active torsions:
REMARK  status: ('A' for Active; 'I' for Inactive)
ROOT
ATOM      1  C   UNL d   1      -1.351  -1.098   0.239  0.00  0.00     0.124 A 
ATOM      2  C1  UNL d   1      -1.454   0.176  -0.302  0.00  0.00     0.062 A 
ATOM      3  C2  UNL d   1      -0.434   1.103  -0.107  0.00  0.00     0.162 A 
ATOM      4  C3  UNL d   1       0.698   0.759   0.632  0.00  0.00    -0.034 A 
ATOM      5  C4  UNL d   1       0.794  -0.524   1.173  0.00  0.00     0.162 A 
ATOM      6  C5  UNL d   1      -0.228  -1.447   0.975  0.00  0.00     0.062 A 
ATOM      7  F   UNL d   1      -0.128  -2.678   1.498  0.00  0.00    -0.097 F 
ATOM      8  F1  UNL d   1       1.868  -0.888   1.889  0.00  0.00    -0.096 F 
ATOM      9  I   UNL d   1       2.225   2.143   0.926  0.00  0.00    -0.060 I 
ATOM     10  F2  UNL d   1      -0.559   2.327  -0.641  0.00  0.00    -0.096 F 
ATOM     11  F3  UNL d   1      -2.538   0.516  -1.014  0.00  0.00    -0.097 F 
ATOM     12  F4  UNL d   1      -2.334  -1.988   0.050  0.00  0.00    -0.092 F 
ENDROOT
TORSDOF 0
ENDMDL
