MODEL 1
REMARK minimizedAffinity 1.05612338
REMARK minimizedRMSD -1
REMARK  0 active torsions:
REMARK  status: ('A' for Active; 'I' for Inactive)
ROOT
ATOM      1  C   UNL d   1       0.210   2.376  -0.011  0.00  0.00     0.124 A 
ATOM      2  C1  UNL d   1       0.858   1.259   0.497  0.00  0.00     0.062 A 
ATOM      3  C2  UNL d   1       0.349  -0.014   0.260  0.00  0.00     0.162 A 
ATOM      4  C3  UNL d   1      -0.816  -0.178  -0.491  0.00  0.00    -0.034 A 
ATOM      5  C4  UNL d   1      -1.462   0.951  -0.998  0.00  0.00     0.162 A 
ATOM      6  C5  UNL d   1      -0.949   2.221  -0.758  0.00  0.00     0.062 A 
ATOM      7  F   UNL d   1      -1.576   3.299  -1.250  0.00  0.00    -0.097 F 
ATOM      8  F1  UNL d   1      -2.583   0.830  -1.725  0.00  0.00    -0.096 F 
ATOM      9  I   UNL d   1      -1.581  -2.080  -0.848  0.00  0.00    -0.060 I 
ATOM     10  F2  UNL d   1       0.995  -1.076   0.763  0.00  0.00    -0.096 F 
ATOM     11  F3  UNL d   1       1.978   1.406   1.220  0.00  0.00    -0.097 F 
ATOM     12  F4  UNL d   1       0.702   3.600   0.220  0.00  0.00    -0.092 F 
ENDROOT
TORSDOF 0
ENDMDL
