MODEL 1
REMARK minimizedAffinity -3.17109156
REMARK minimizedRMSD -1
REMARK  0 active torsions:
REMARK  status: ('A' for Active; 'I' for Inactive)
ROOT
ATOM      1  C   UNL d   1      -2.837  -0.056  -0.499  0.00  0.00     0.124 A 
ATOM      2  C1  UNL d   1      -2.481   0.734   0.585  0.00  0.00     0.062 A 
ATOM      3  C2  UNL d   1      -1.142   1.027   0.829  0.00  0.00     0.162 A 
ATOM      4  C3  UNL d   1      -0.148   0.530  -0.015  0.00  0.00    -0.034 A 
ATOM      5  C4  UNL d   1      -0.514  -0.264  -1.103  0.00  0.00     0.162 A 
ATOM      6  C5  UNL d   1      -1.853  -0.554  -1.342  0.00  0.00     0.062 A 
ATOM      7  F   UNL d   1      -2.195  -1.318  -2.390  0.00  0.00    -0.097 F 
ATOM      8  F1  UNL d   1       0.416  -0.758  -1.935  0.00  0.00    -0.096 F 
ATOM      9  I   UNL d   1       1.854   0.966   0.345  0.00  0.00    -0.060 I 
ATOM     10  F2  UNL d   1      -0.827   1.793   1.884  0.00  0.00    -0.096 F 
ATOM     11  F3  UNL d   1      -3.429   1.215   1.402  0.00  0.00    -0.097 F 
ATOM     12  F4  UNL d   1      -4.125  -0.338  -0.730  0.00  0.00    -0.092 F 
ENDROOT
TORSDOF 0
ENDMDL
