MODEL 1
REMARK minimizedAffinity -1.01220822
REMARK minimizedRMSD -1
REMARK  0 active torsions:
REMARK  status: ('A' for Active; 'I' for Inactive)
ROOT
ATOM      1  C   UNL d   1      -2.271  -0.985  -0.714  0.00  0.00     0.124 A 
ATOM      2  C1  UNL d   1      -1.874  -0.490   0.520  0.00  0.00     0.062 A 
ATOM      3  C2  UNL d   1      -0.647   0.153   0.655  0.00  0.00     0.162 A 
ATOM      4  C3  UNL d   1       0.193   0.305  -0.448  0.00  0.00    -0.034 A 
ATOM      5  C4  UNL d   1      -0.213  -0.196  -1.687  0.00  0.00     0.162 A 
ATOM      6  C5  UNL d   1      -1.440  -0.838  -1.816  0.00  0.00     0.062 A 
ATOM      7  F   UNL d   1      -1.822  -1.315  -3.009  0.00  0.00    -0.097 F 
ATOM      8  F1  UNL d   1       0.570  -0.067  -2.768  0.00  0.00    -0.096 F 
ATOM      9  I   UNL d   1       2.029   1.265  -0.251  0.00  0.00    -0.060 I 
ATOM     10  F2  UNL d   1      -0.289   0.622   1.860  0.00  0.00    -0.096 F 
ATOM     11  F3  UNL d   1      -2.674  -0.631   1.587  0.00  0.00    -0.097 F 
ATOM     12  F4  UNL d   1      -3.452  -1.603  -0.841  0.00  0.00    -0.092 F 
ENDROOT
TORSDOF 0
ENDMDL
