MODEL 1
REMARK minimizedAffinity -2.31635952
REMARK minimizedRMSD -1
REMARK  0 active torsions:
REMARK  status: ('A' for Active; 'I' for Inactive)
ROOT
ATOM      1  C   UNL d   1       0.639  -0.377   1.764  0.00  0.00     0.124 A 
ATOM      2  C1  UNL d   1       0.207   0.724   2.489  0.00  0.00     0.062 A 
ATOM      3  C2  UNL d   1       0.821   1.961   2.317  0.00  0.00     0.162 A 
ATOM      4  C3  UNL d   1       1.874   2.104   1.413  0.00  0.00    -0.034 A 
ATOM      5  C4  UNL d   1       2.304   0.991   0.688  0.00  0.00     0.162 A 
ATOM      6  C5  UNL d   1       1.686  -0.243   0.864  0.00  0.00     0.062 A 
ATOM      7  F   UNL d   1       2.105  -1.306   0.162  0.00  0.00    -0.097 F 
ATOM      8  F1  UNL d   1       3.314   1.093  -0.189  0.00  0.00    -0.096 F 
ATOM      9  I   UNL d   1       2.796   3.951   1.152  0.00  0.00    -0.060 I 
ATOM     10  F2  UNL d   1       0.383   3.009   3.031  0.00  0.00    -0.096 F 
ATOM     11  F3  UNL d   1      -0.805   0.597   3.360  0.00  0.00    -0.097 F 
ATOM     12  F4  UNL d   1       0.046  -1.566   1.933  0.00  0.00    -0.092 F 
ENDROOT
TORSDOF 0
ENDMDL
