MODEL 1
REMARK minimizedAffinity 2.26144624
REMARK minimizedRMSD -1
REMARK  0 active torsions:
REMARK  status: ('A' for Active; 'I' for Inactive)
ROOT
ATOM      1  C   UNL d   1      -2.186   0.376  -2.559  0.00  0.00     0.124 A 
ATOM      2  C1  UNL d   1      -2.261  -1.009  -2.511  0.00  0.00     0.062 A 
ATOM      3  C2  UNL d   1      -1.751  -1.700  -1.417  0.00  0.00     0.162 A 
ATOM      4  C3  UNL d   1      -1.162  -1.008  -0.359  0.00  0.00    -0.034 A 
ATOM      5  C4  UNL d   1      -1.089   0.385  -0.414  0.00  0.00     0.162 A 
ATOM      6  C5  UNL d   1      -1.600   1.072  -1.511  0.00  0.00     0.062 A 
ATOM      7  F   UNL d   1      -1.526   2.410  -1.555  0.00  0.00    -0.097 F 
ATOM      8  F1  UNL d   1      -0.529   1.082   0.585  0.00  0.00    -0.096 F 
ATOM      9  I   UNL d   1      -0.398  -2.038   1.280  0.00  0.00    -0.060 I 
ATOM     10  F2  UNL d   1      -1.838  -3.039  -1.397  0.00  0.00    -0.096 F 
ATOM     11  F3  UNL d   1      -2.826  -1.683  -3.523  0.00  0.00    -0.097 F 
ATOM     12  F4  UNL d   1      -2.676   1.039  -3.614  0.00  0.00    -0.092 F 
ENDROOT
TORSDOF 0
ENDMDL
