MODEL 1
REMARK minimizedAffinity -1.71771896
REMARK minimizedRMSD -1
REMARK  1 active torsions:
REMARK  status: ('A' for Active; 'I' for Inactive)
REMARK    1  A    between atoms: N_2  and  C1_3 
ROOT
ATOM      1  C1  UNL d   1      -0.690  -0.818  -5.133  0.00  0.00     0.143 A 
ATOM      2  C2  UNL d   1      -0.002   0.385  -5.324  0.00  0.00    -0.057 A 
ATOM      3  C3  UNL d   1       0.905   0.862  -4.370  0.00  0.00     0.033 A 
ATOM      4  C4  UNL d   1       1.120   0.156  -3.191  0.00  0.00    -0.042 A 
ATOM      5  C5  UNL d   1       0.429  -1.030  -2.968  0.00  0.00     0.033 A 
ATOM      6  C6  UNL d   1      -0.471  -1.504  -3.928  0.00  0.00    -0.057 A 
ENDROOT
BRANCH   1   7
ATOM      7  N   UNL d   1      -1.677  -1.296  -5.998  0.00  0.00    -0.732 N 
ATOM      8  C   UNL d   1      -2.104  -2.677  -5.939  0.00  0.00     0.284 C 
ATOM      9  H3  UNL d   1      -2.437  -0.631  -6.125  0.00  0.00     0.395 HD
ENDBRANCH   1   7
TORSDOF 1
ENDMDL
