MODEL 1
REMARK minimizedAffinity -5.45069361
REMARK minimizedRMSD -1
REMARK  1 active torsions:
REMARK  status: ('A' for Active; 'I' for Inactive)
REMARK    1  A    between atoms: N_2  and  C1_3 
ROOT
ATOM      1  C1  UNL d   1      -0.255   0.161   0.157  0.00  0.00     0.143 A 
ATOM      2  C2  UNL d   1      -1.621   0.231   0.451  0.00  0.00    -0.057 A 
ATOM      3  C3  UNL d   1      -2.079   0.815   1.638  0.00  0.00     0.033 A 
ATOM      4  C4  UNL d   1      -1.174   1.316   2.568  0.00  0.00    -0.042 A 
ATOM      5  C5  UNL d   1       0.190   1.235   2.308  0.00  0.00     0.033 A 
ATOM      6  C6  UNL d   1       0.641   0.656   1.118  0.00  0.00    -0.057 A 
ENDROOT
BRANCH   1   7
ATOM      7  N   UNL d   1       0.268  -0.495  -0.960  0.00  0.00    -0.732 N 
ATOM      8  C   UNL d   1       0.703   0.254  -2.119  0.00  0.00     0.284 C 
ATOM      9  H3  UNL d   1       0.885  -1.263  -0.706  0.00  0.00     0.395 HD
ENDBRANCH   1   7
TORSDOF 1
ENDMDL
