MODEL 1
REMARK minimizedAffinity -4.14279175
REMARK minimizedRMSD -1
REMARK  1 active torsions:
REMARK  status: ('A' for Active; 'I' for Inactive)
REMARK    1  A    between atoms: N_2  and  C1_3 
ROOT
ATOM      1  C1  UNL d   1       0.004  -0.091   0.771  0.00  0.00     0.143 A 
ATOM      2  C2  UNL d   1      -1.198   0.450   1.239  0.00  0.00    -0.057 A 
ATOM      3  C3  UNL d   1      -1.376   0.760   2.593  0.00  0.00     0.033 A 
ATOM      4  C4  UNL d   1      -0.362   0.507   3.510  0.00  0.00    -0.042 A 
ATOM      5  C5  UNL d   1       0.833  -0.053   3.071  0.00  0.00     0.033 A 
ATOM      6  C6  UNL d   1       1.007  -0.354   1.717  0.00  0.00    -0.057 A 
ENDROOT
BRANCH   1   7
ATOM      7  N   UNL d   1       0.207  -0.512  -0.545  0.00  0.00    -0.732 N 
ATOM      8  C   UNL d   1       1.198  -1.522  -0.852  0.00  0.00     0.284 C 
ATOM      9  H3  UNL d   1      -0.665  -0.616  -1.059  0.00  0.00     0.395 HD
ENDBRANCH   1   7
TORSDOF 1
ENDMDL
