MODEL 1
REMARK minimizedAffinity -3.85855937
REMARK minimizedRMSD -1
REMARK  1 active torsions:
REMARK  status: ('A' for Active; 'I' for Inactive)
REMARK    1  A    between atoms: N_2  and  C1_3 
ROOT
ATOM      1  C1  UNL d   1      -0.785   0.583   1.334  0.00  0.00     0.143 A 
ATOM      2  C2  UNL d   1       0.580   0.356   1.131  0.00  0.00    -0.057 A 
ATOM      3  C3  UNL d   1       1.033  -0.456   0.084  0.00  0.00     0.033 A 
ATOM      4  C4  UNL d   1       0.124  -1.079  -0.764  0.00  0.00    -0.042 A 
ATOM      5  C5  UNL d   1      -1.239  -0.887  -0.566  0.00  0.00     0.033 A 
ATOM      6  C6  UNL d   1      -1.685  -0.071   0.477  0.00  0.00    -0.057 A 
ENDROOT
BRANCH   1   7
ATOM      7  N   UNL d   1      -1.302   1.300   2.416  0.00  0.00    -0.732 N 
ATOM      8  C   UNL d   1      -0.452   1.673   3.526  0.00  0.00     0.284 C 
ATOM      9  H3  UNL d   1      -1.951   2.028   2.126  0.00  0.00     0.395 HD
ENDBRANCH   1   7
TORSDOF 1
ENDMDL
