MODEL 1
REMARK minimizedAffinity -5.25207424
REMARK minimizedRMSD -1
REMARK  1 active torsions:
REMARK  status: ('A' for Active; 'I' for Inactive)
REMARK    1  A    between atoms: N_2  and  C1_3 
ROOT
ATOM      1  C1  UNL d   1       0.115  -0.237   0.089  0.00  0.00     0.143 A 
ATOM      2  C2  UNL d   1       0.860   0.366   1.107  0.00  0.00    -0.057 A 
ATOM      3  C3  UNL d   1       0.236   1.071   2.144  0.00  0.00     0.033 A 
ATOM      4  C4  UNL d   1      -1.147   1.210   2.164  0.00  0.00    -0.042 A 
ATOM      5  C5  UNL d   1      -1.907   0.640   1.148  0.00  0.00     0.033 A 
ATOM      6  C6  UNL d   1      -1.279  -0.069   0.120  0.00  0.00    -0.057 A 
ENDROOT
BRANCH   1   7
ATOM      7  N   UNL d   1       0.682  -0.868  -1.021  0.00  0.00    -0.732 N 
ATOM      8  C   UNL d   1       0.599  -0.264  -2.334  0.00  0.00     0.284 C 
ATOM      9  H3  UNL d   1       1.586  -1.284  -0.812  0.00  0.00     0.395 HD
ENDBRANCH   1   7
TORSDOF 1
ENDMDL
