MODEL 1
REMARK minimizedAffinity 0.133852422
REMARK minimizedRMSD -1
REMARK  1 active torsions:
REMARK  status: ('A' for Active; 'I' for Inactive)
REMARK    1  A    between atoms: N_2  and  C1_3 
ROOT
ATOM      1  C1  UNL d   1       3.475   1.412   0.077  0.00  0.00     0.143 A 
ATOM      2  C2  UNL d   1       2.463   2.376   0.115  0.00  0.00    -0.057 A 
ATOM      3  C3  UNL d   1       1.113   2.017   0.013  0.00  0.00     0.033 A 
ATOM      4  C4  UNL d   1       0.754   0.684  -0.160  0.00  0.00    -0.042 A 
ATOM      5  C5  UNL d   1       1.745  -0.289  -0.226  0.00  0.00     0.033 A 
ATOM      6  C6  UNL d   1       3.090   0.076  -0.116  0.00  0.00    -0.057 A 
ENDROOT
BRANCH   1   7
ATOM      7  N   UNL d   1       4.839   1.716   0.075  0.00  0.00    -0.732 N 
ATOM      8  C   UNL d   1       5.418   2.501  -0.994  0.00  0.00     0.284 C 
ATOM      9  H3  UNL d   1       5.185   1.955   1.001  0.00  0.00     0.395 HD
ENDBRANCH   1   7
TORSDOF 1
ENDMDL
