MODEL 1
REMARK minimizedAffinity 3.33545566
REMARK minimizedRMSD -1
REMARK  1 active torsions:
REMARK  status: ('A' for Active; 'I' for Inactive)
REMARK    1  A    between atoms: N_2  and  C1_3 
ROOT
ATOM      1  C1  UNL d   1       2.549   0.250  -0.017  0.00  0.00     0.143 A 
ATOM      2  C2  UNL d   1       1.171   0.490  -0.027  0.00  0.00    -0.057 A 
ATOM      3  C3  UNL d   1       0.652   1.757   0.264  0.00  0.00     0.033 A 
ATOM      4  C4  UNL d   1       1.504   2.804   0.599  0.00  0.00    -0.042 A 
ATOM      5  C5  UNL d   1       2.876   2.583   0.639  0.00  0.00     0.033 A 
ATOM      6  C6  UNL d   1       3.389   1.317   0.342  0.00  0.00    -0.057 A 
ENDROOT
BRANCH   1   7
ATOM      7  N   UNL d   1       3.121  -1.011  -0.200  0.00  0.00    -0.732 N 
ATOM      8  C   UNL d   1       2.463  -2.199   0.300  0.00  0.00     0.284 C 
ATOM      9  H3  UNL d   1       3.531  -1.121  -1.125  0.00  0.00     0.395 HD
ENDBRANCH   1   7
TORSDOF 1
ENDMDL
