MODEL 1
REMARK minimizedAffinity 2.57276583
REMARK minimizedRMSD -1
REMARK  1 active torsions:
REMARK  status: ('A' for Active; 'I' for Inactive)
REMARK    1  A    between atoms: N_2  and  C1_3 
ROOT
ATOM      1  C1  UNL d   1       1.366   0.939  -0.077  0.00  0.00     0.143 A 
ATOM      2  C2  UNL d   1       2.431   1.826   0.113  0.00  0.00    -0.057 A 
ATOM      3  C3  UNL d   1       3.748   1.366   0.229  0.00  0.00     0.033 A 
ATOM      4  C4  UNL d   1       4.021   0.002   0.186  0.00  0.00    -0.042 A 
ATOM      5  C5  UNL d   1       2.975  -0.899   0.023  0.00  0.00     0.033 A 
ATOM      6  C6  UNL d   1       1.663  -0.433  -0.099  0.00  0.00    -0.057 A 
ENDROOT
BRANCH   1   7
ATOM      7  N   UNL d   1       0.025   1.328  -0.101  0.00  0.00    -0.732 N 
ATOM      8  C   UNL d   1      -0.719   1.486   1.130  0.00  0.00     0.284 C 
ATOM      9  H3  UNL d   1      -0.158   2.052  -0.793  0.00  0.00     0.395 HD
ENDBRANCH   1   7
TORSDOF 1
ENDMDL
