MODEL 1
REMARK minimizedAffinity 1.44193304
REMARK minimizedRMSD -1
REMARK  1 active torsions:
REMARK  status: ('A' for Active; 'I' for Inactive)
REMARK    1  A    between atoms: N_2  and  C1_3 
ROOT
ATOM      1  C1  UNL d   1       2.880  -0.587   0.579  0.00  0.00     0.143 A 
ATOM      2  C2  UNL d   1       4.159  -0.020   0.537  0.00  0.00    -0.057 A 
ATOM      3  C3  UNL d   1       4.338   1.368   0.544  0.00  0.00     0.033 A 
ATOM      4  C4  UNL d   1       3.237   2.218   0.563  0.00  0.00    -0.042 A 
ATOM      5  C5  UNL d   1       1.956   1.677   0.579  0.00  0.00     0.033 A 
ATOM      6  C6  UNL d   1       1.783   0.290   0.579  0.00  0.00    -0.057 A 
ENDROOT
BRANCH   1   7
ATOM      7  N   UNL d   1       2.633  -1.958   0.475  0.00  0.00    -0.732 N 
ATOM      8  C   UNL d   1       1.927  -2.495  -0.668  0.00  0.00     0.284 C 
ATOM      9  H3  UNL d   1       3.427  -2.519   0.775  0.00  0.00     0.395 HD
ENDBRANCH   1   7
TORSDOF 1
ENDMDL
