MODEL 1
REMARK minimizedAffinity -1.47388065
REMARK minimizedRMSD -1
REMARK  1 active torsions:
REMARK  status: ('A' for Active; 'I' for Inactive)
REMARK    1  A    between atoms: N_2  and  C1_3 
ROOT
ATOM      1  C1  UNL d   1       1.368   1.235   0.784  0.00  0.00     0.143 A 
ATOM      2  C2  UNL d   1       2.087   0.049   0.601  0.00  0.00    -0.057 A 
ATOM      3  C3  UNL d   1       3.358   0.053   0.013  0.00  0.00     0.033 A 
ATOM      4  C4  UNL d   1       3.922   1.245  -0.429  0.00  0.00    -0.042 A 
ATOM      5  C5  UNL d   1       3.216   2.433  -0.279  0.00  0.00     0.033 A 
ATOM      6  C6  UNL d   1       1.950   2.423   0.314  0.00  0.00    -0.057 A 
ENDROOT
BRANCH   1   7
ATOM      7  N   UNL d   1       0.060   1.285   1.271  0.00  0.00    -0.732 N 
ATOM      8  C   UNL d   1      -0.247   0.824   2.609  0.00  0.00     0.284 C 
ATOM      9  H3  UNL d   1      -0.421   2.141   1.006  0.00  0.00     0.395 HD
ENDBRANCH   1   7
TORSDOF 1
ENDMDL
