MODEL 1
REMARK minimizedAffinity 0.844211817
REMARK minimizedRMSD -1
REMARK  0 active torsions:
REMARK  status: ('A' for Active; 'I' for Inactive)
ROOT
ATOM      1  C1  BNZ d   1       2.618   0.554   0.374  0.00  0.00     0.000 A 
ATOM      2  C2  BNZ d   1       3.364   1.605  -0.088  0.00  0.00     0.000 A 
ATOM      3  C3  BNZ d   1       3.936   1.565  -1.329  0.00  0.00     0.000 A 
ATOM      4  C4  BNZ d   1       3.794   0.461  -2.089  0.00  0.00     0.000 A 
ATOM      5  C5  BNZ d   1       3.052  -0.611  -1.634  0.00  0.00     0.000 A 
ATOM      6  C6  BNZ d   1       2.445  -0.552  -0.400  0.00  0.00     0.000 A 
ENDROOT
TORSDOF 0
ENDMDL
