MODEL 1
REMARK minimizedAffinity 1.16848791
REMARK minimizedRMSD -1
REMARK  0 active torsions:
REMARK  status: ('A' for Active; 'I' for Inactive)
ROOT
ATOM      1  C1  BNZ d   1       2.465   4.830   4.142  0.00  0.00     0.000 A 
ATOM      2  C2  BNZ d   1       3.141   6.000   4.366  0.00  0.00     0.000 A 
ATOM      3  C3  BNZ d   1       4.350   5.998   5.003  0.00  0.00     0.000 A 
ATOM      4  C4  BNZ d   1       4.862   4.833   5.450  0.00  0.00     0.000 A 
ATOM      5  C5  BNZ d   1       4.188   3.647   5.240  0.00  0.00     0.000 A 
ATOM      6  C6  BNZ d   1       2.990   3.648   4.564  0.00  0.00     0.000 A 
ENDROOT
TORSDOF 0
ENDMDL
