MODEL 1
REMARK minimizedAffinity 1.77584875
REMARK minimizedRMSD -1
REMARK  0 active torsions:
REMARK  status: ('A' for Active; 'I' for Inactive)
ROOT
ATOM      1  C1  BNZ d   1      -4.445   4.903   0.292  0.00  0.00     0.000 A 
ATOM      2  C2  BNZ d   1      -3.155   4.562  -0.016  0.00  0.00     0.000 A 
ATOM      3  C3  BNZ d   1      -2.146   4.758   0.884  0.00  0.00     0.000 A 
ATOM      4  C4  BNZ d   1      -2.420   5.329   2.074  0.00  0.00     0.000 A 
ATOM      5  C5  BNZ d   1      -3.714   5.687   2.396  0.00  0.00     0.000 A 
ATOM      6  C6  BNZ d   1      -4.734   5.453   1.503  0.00  0.00     0.000 A 
ENDROOT
TORSDOF 0
ENDMDL
