MODEL 1
REMARK minimizedAffinity -4.95782948
REMARK minimizedRMSD -1
REMARK  0 active torsions:
REMARK  status: ('A' for Active; 'I' for Inactive)
ROOT
ATOM      1  C1  BNZ d   1       3.012   1.185   0.248  0.00  0.00     0.000 A 
ATOM      2  C2  BNZ d   1       4.022   2.068  -0.027  0.00  0.00     0.000 A 
ATOM      3  C3  BNZ d   1       5.331   1.702   0.115  0.00  0.00     0.000 A 
ATOM      4  C4  BNZ d   1       5.628   0.468   0.570  0.00  0.00     0.000 A 
ATOM      5  C5  BNZ d   1       4.621  -0.431   0.861  0.00  0.00     0.000 A 
ATOM      6  C6  BNZ d   1       3.306  -0.072   0.680  0.00  0.00     0.000 A 
ENDROOT
TORSDOF 0
ENDMDL
