MODEL 1
REMARK minimizedAffinity 7.92057991
REMARK minimizedRMSD -1
REMARK  0 active torsions:
REMARK  status: ('A' for Active; 'I' for Inactive)
ROOT
ATOM      1  C1  BNZ d   1       2.681  -0.621   0.114  0.00  0.00     0.000 A 
ATOM      2  C2  BNZ d   1       2.230   0.653  -0.105  0.00  0.00     0.000 A 
ATOM      3  C3  BNZ d   1       3.076   1.722  -0.002  0.00  0.00     0.000 A 
ATOM      4  C4  BNZ d   1       4.359   1.520   0.359  0.00  0.00     0.000 A 
ATOM      5  C5  BNZ d   1       4.827   0.242   0.592  0.00  0.00     0.000 A 
ATOM      6  C6  BNZ d   1       3.983  -0.835   0.450  0.00  0.00     0.000 A 
ENDROOT
TORSDOF 0
ENDMDL
