MODEL 1
REMARK minimizedAffinity -2.65684319
REMARK minimizedRMSD -1
REMARK  0 active torsions:
REMARK  status: ('A' for Active; 'I' for Inactive)
ROOT
ATOM      1  C1  BNZ d   1      -0.275  -4.795   5.966  0.00  0.00     0.000 A 
ATOM      2  C2  BNZ d   1      -0.256  -3.689   5.160  0.00  0.00     0.000 A 
ATOM      3  C3  BNZ d   1      -0.814  -3.721   3.912  0.00  0.00     0.000 A 
ATOM      4  C4  BNZ d   1      -1.353  -4.870   3.457  0.00  0.00     0.000 A 
ATOM      5  C5  BNZ d   1      -1.372  -5.998   4.254  0.00  0.00     0.000 A 
ATOM      6  C6  BNZ d   1      -0.845  -5.950   5.524  0.00  0.00     0.000 A 
ENDROOT
TORSDOF 0
ENDMDL
