MODEL 1
REMARK minimizedAffinity 2.73304415
REMARK minimizedRMSD -1
REMARK  0 active torsions:
REMARK  status: ('A' for Active; 'I' for Inactive)
ROOT
ATOM      1  C1  BNZ d   1       2.991   0.767   1.167  0.00  0.00     0.000 A 
ATOM      2  C2  BNZ d   1       3.749   1.724   0.547  0.00  0.00     0.000 A 
ATOM      3  C3  BNZ d   1       3.762   1.832  -0.816  0.00  0.00     0.000 A 
ATOM      4  C4  BNZ d   1       3.050   0.959  -1.557  0.00  0.00     0.000 A 
ATOM      5  C5  BNZ d   1       2.288  -0.018  -0.946  0.00  0.00     0.000 A 
ATOM      6  C6  BNZ d   1       2.247  -0.099   0.427  0.00  0.00     0.000 A 
ENDROOT
TORSDOF 0
ENDMDL
