MODEL 1
REMARK minimizedAffinity -4.15813541
REMARK minimizedRMSD -1
REMARK  0 active torsions:
REMARK  status: ('A' for Active; 'I' for Inactive)
ROOT
ATOM      1  C1  BNZ d   1       2.658  -1.494  -0.621  0.00  0.00     0.000 A 
ATOM      2  C2  BNZ d   1       1.358  -1.865  -0.404  0.00  0.00     0.000 A 
ATOM      3  C3  BNZ d   1       0.387  -0.926  -0.197  0.00  0.00     0.000 A 
ATOM      4  C4  BNZ d   1       0.723   0.380  -0.167  0.00  0.00     0.000 A 
ATOM      5  C5  BNZ d   1       2.031   0.770  -0.375  0.00  0.00     0.000 A 
ATOM      6  C6  BNZ d   1       2.999  -0.176  -0.622  0.00  0.00     0.000 A 
ENDROOT
TORSDOF 0
ENDMDL
