MODEL 1
REMARK minimizedAffinity -1.91848636
REMARK minimizedRMSD -1
REMARK  2 active torsions:
REMARK  status: ('A' for Active; 'I' for Inactive)
REMARK    1  A    between atoms: C1_2  and  C2_3 
REMARK    2  A    between atoms: C2_3  and  C3_4 
ROOT
ATOM      1  C3  UNL d   1      -5.080   1.888  -5.850  0.00  0.00    -0.075 A 
ATOM      2  C4  UNL d   1      -3.715   2.095  -5.608  0.00  0.00     0.002 A 
ATOM      3  C5  UNL d   1      -3.203   3.388  -5.497  0.00  0.00     0.002 A 
ATOM      4  C6  UNL d   1      -4.046   4.488  -5.635  0.00  0.00    -0.004 A 
ATOM      5  C7  UNL d   1      -5.402   4.295  -5.892  0.00  0.00     0.002 A 
ATOM      6  C8  UNL d   1      -5.917   3.002  -5.999  0.00  0.00     0.002 A 
ENDROOT
BRANCH   1   7
ATOM      7  C2  UNL d   1      -5.646   0.491  -5.942  0.00  0.00     0.056 C 
BRANCH   7   8
ATOM      8  C1  UNL d   1      -4.581  -0.610  -5.998  0.00  0.00     0.007 C 
ATOM      9  C   UNL d   1      -4.309  -1.252  -4.644  0.00  0.00     0.009 C 
ENDBRANCH   7   8
ENDBRANCH   1   7
TORSDOF 2
ENDMDL
