MODEL 1
REMARK minimizedAffinity -3.61649942
REMARK minimizedRMSD -1
REMARK  2 active torsions:
REMARK  status: ('A' for Active; 'I' for Inactive)
REMARK    1  A    between atoms: C1_2  and  C2_3 
REMARK    2  A    between atoms: C2_3  and  C3_4 
ROOT
ATOM      1  C3  UNL d   1       0.637   0.298   0.200  0.00  0.00    -0.075 A 
ATOM      2  C4  UNL d   1       0.203  -0.471  -0.889  0.00  0.00     0.002 A 
ATOM      3  C5  UNL d   1       0.930  -0.487  -2.080  0.00  0.00     0.002 A 
ATOM      4  C6  UNL d   1       2.091   0.274  -2.200  0.00  0.00    -0.004 A 
ATOM      5  C7  UNL d   1       2.522   1.055  -1.130  0.00  0.00     0.002 A 
ATOM      6  C8  UNL d   1       1.799   1.068   0.064  0.00  0.00     0.002 A 
ENDROOT
BRANCH   1   7
ATOM      7  C2  UNL d   1      -0.129   0.296   1.501  0.00  0.00     0.056 C 
BRANCH   7   8
ATOM      8  C1  UNL d   1      -1.580  -0.180   1.370  0.00  0.00     0.007 C 
ATOM      9  C   UNL d   1      -2.569   0.693   2.132  0.00  0.00     0.009 C 
ENDBRANCH   7   8
ENDBRANCH   1   7
TORSDOF 2
ENDMDL
