MODEL 1
REMARK minimizedAffinity -3.4142561
REMARK minimizedRMSD -1
REMARK  2 active torsions:
REMARK  status: ('A' for Active; 'I' for Inactive)
REMARK    1  A    between atoms: C1_2  and  C2_3 
REMARK    2  A    between atoms: C2_3  and  C3_4 
ROOT
ATOM      1  C3  UNL d   1       0.360  -0.462  -0.306  0.00  0.00    -0.075 A 
ATOM      2  C4  UNL d   1       1.102  -1.535  -0.820  0.00  0.00     0.002 A 
ATOM      3  C5  UNL d   1       2.179  -1.305  -1.677  0.00  0.00     0.002 A 
ATOM      4  C6  UNL d   1       2.520  -0.004  -2.038  0.00  0.00    -0.004 A 
ATOM      5  C7  UNL d   1       1.780   1.069  -1.547  0.00  0.00     0.002 A 
ATOM      6  C8  UNL d   1       0.704   0.842  -0.686  0.00  0.00     0.002 A 
ENDROOT
BRANCH   1   7
ATOM      7  C2  UNL d   1      -0.788  -0.702   0.645  0.00  0.00     0.056 C 
BRANCH   7   8
ATOM      8  C1  UNL d   1      -0.664   0.049   1.975  0.00  0.00     0.007 C 
ATOM      9  C   UNL d   1      -2.009   0.446   2.569  0.00  0.00     0.009 C 
ENDBRANCH   7   8
ENDBRANCH   1   7
TORSDOF 2
ENDMDL
