MODEL 1
REMARK minimizedAffinity -4.63120031
REMARK minimizedRMSD -1
REMARK  2 active torsions:
REMARK  status: ('A' for Active; 'I' for Inactive)
REMARK    1  A    between atoms: C1_2  and  C2_3 
REMARK    2  A    between atoms: C2_3  and  C3_4 
ROOT
ATOM      1  C3  UNL d   1      -0.006  -0.020  -0.055  0.00  0.00    -0.075 A 
ATOM      2  C4  UNL d   1       0.368  -0.744  -1.196  0.00  0.00     0.002 A 
ATOM      3  C5  UNL d   1       1.310  -0.226  -2.086  0.00  0.00     0.002 A 
ATOM      4  C6  UNL d   1       1.880   1.024  -1.852  0.00  0.00    -0.004 A 
ATOM      5  C7  UNL d   1       1.503   1.759  -0.730  0.00  0.00     0.002 A 
ATOM      6  C8  UNL d   1       0.564   1.241   0.164  0.00  0.00     0.002 A 
ENDROOT
BRANCH   1   7
ATOM      7  C2  UNL d   1      -1.003  -0.588   0.927  0.00  0.00     0.056 C 
BRANCH   7   8
ATOM      8  C1  UNL d   1      -1.662   0.463   1.826  0.00  0.00     0.007 C 
ATOM      9  C   UNL d   1      -3.165   0.578   1.614  0.00  0.00     0.009 C 
ENDBRANCH   7   8
ENDBRANCH   1   7
TORSDOF 2
ENDMDL
