MODEL 1
REMARK minimizedAffinity -4.29800797
REMARK minimizedRMSD -1
REMARK  2 active torsions:
REMARK  status: ('A' for Active; 'I' for Inactive)
REMARK    1  A    between atoms: C1_2  and  C2_3 
REMARK    2  A    between atoms: C2_3  and  C3_4 
ROOT
ATOM      1  C3  UNL d   1       0.266   0.584   0.097  0.00  0.00    -0.075 A 
ATOM      2  C4  UNL d   1       0.160  -0.579  -0.680  0.00  0.00     0.002 A 
ATOM      3  C5  UNL d   1       1.024  -0.796  -1.753  0.00  0.00     0.002 A 
ATOM      4  C6  UNL d   1       1.997   0.150  -2.069  0.00  0.00    -0.004 A 
ATOM      5  C7  UNL d   1       2.101   1.317  -1.315  0.00  0.00     0.002 A 
ATOM      6  C8  UNL d   1       1.240   1.534  -0.237  0.00  0.00     0.002 A 
ENDROOT
BRANCH   1   7
ATOM      7  C2  UNL d   1      -0.648   0.810   1.278  0.00  0.00     0.056 C 
BRANCH   7   8
ATOM      8  C1  UNL d   1      -2.085   0.326   1.057  0.00  0.00     0.007 C 
ATOM      9  C   UNL d   1      -3.113   1.109   1.863  0.00  0.00     0.009 C 
ENDBRANCH   7   8
ENDBRANCH   1   7
TORSDOF 2
ENDMDL
