MODEL 1
REMARK minimizedAffinity -4.62164831
REMARK minimizedRMSD -1
REMARK  2 active torsions:
REMARK  status: ('A' for Active; 'I' for Inactive)
REMARK    1  A    between atoms: C1_2  and  C2_3 
REMARK    2  A    between atoms: C2_3  and  C3_4 
ROOT
ATOM      1  C3  UNL d   1       1.064   0.121  -1.460  0.00  0.00    -0.075 A 
ATOM      2  C4  UNL d   1       1.441   1.209  -0.661  0.00  0.00     0.002 A 
ATOM      3  C5  UNL d   1       0.838   1.420   0.580  0.00  0.00     0.002 A 
ATOM      4  C6  UNL d   1      -0.154   0.553   1.031  0.00  0.00    -0.004 A 
ATOM      5  C7  UNL d   1      -0.548  -0.523   0.238  0.00  0.00     0.002 A 
ATOM      6  C8  UNL d   1       0.056  -0.738  -1.001  0.00  0.00     0.002 A 
ENDROOT
BRANCH   1   7
ATOM      7  C2  UNL d   1       1.733  -0.129  -2.791  0.00  0.00     0.056 C 
BRANCH   7   8
ATOM      8  C1  UNL d   1       2.673  -1.339  -2.798  0.00  0.00     0.007 C 
ATOM      9  C   UNL d   1       2.068  -2.574  -2.145  0.00  0.00     0.009 C 
ENDBRANCH   7   8
ENDBRANCH   1   7
TORSDOF 2
ENDMDL
