MODEL 1
REMARK minimizedAffinity -3.28542304
REMARK minimizedRMSD -1
REMARK  2 active torsions:
REMARK  status: ('A' for Active; 'I' for Inactive)
REMARK    1  A    between atoms: C1_2  and  C2_3 
REMARK    2  A    between atoms: C2_3  and  C3_4 
ROOT
ATOM      1  C3  UNL d   1       0.021  -0.758  -0.567  0.00  0.00    -0.075 A 
ATOM      2  C4  UNL d   1       1.078   0.160  -0.645  0.00  0.00     0.002 A 
ATOM      3  C5  UNL d   1       1.686   0.438  -1.870  0.00  0.00     0.002 A 
ATOM      4  C6  UNL d   1       1.252  -0.204  -3.028  0.00  0.00    -0.004 A 
ATOM      5  C7  UNL d   1       0.213  -1.130  -2.960  0.00  0.00     0.002 A 
ATOM      6  C8  UNL d   1      -0.400  -1.407  -1.736  0.00  0.00     0.002 A 
ENDROOT
BRANCH   1   7
ATOM      7  C2  UNL d   1      -0.661  -1.041   0.750  0.00  0.00     0.056 C 
BRANCH   7   8
ATOM      8  C1  UNL d   1      -1.009   0.215   1.555  0.00  0.00     0.007 C 
ATOM      9  C   UNL d   1      -2.496   0.544   1.541  0.00  0.00     0.009 C 
ENDBRANCH   7   8
ENDBRANCH   1   7
TORSDOF 2
ENDMDL
