MODEL 1
REMARK minimizedAffinity -2.16343284
REMARK minimizedRMSD -1
REMARK  2 active torsions:
REMARK  status: ('A' for Active; 'I' for Inactive)
REMARK    1  A    between atoms: C1_2  and  C2_3 
REMARK    2  A    between atoms: C2_3  and  C3_4 
ROOT
ATOM      1  C3  UNL d   1      -0.895  -0.058   0.979  0.00  0.00    -0.075 A 
ATOM      2  C4  UNL d   1      -0.194   0.644  -0.013  0.00  0.00     0.002 A 
ATOM      3  C5  UNL d   1       0.553  -0.042  -0.971  0.00  0.00     0.002 A 
ATOM      4  C6  UNL d   1       0.618  -1.433  -0.944  0.00  0.00    -0.004 A 
ATOM      5  C7  UNL d   1      -0.061  -2.139   0.047  0.00  0.00     0.002 A 
ATOM      6  C8  UNL d   1      -0.813  -1.456   1.004  0.00  0.00     0.002 A 
ENDROOT
BRANCH   1   7
ATOM      7  C2  UNL d   1      -1.729   0.677   2.001  0.00  0.00     0.056 C 
BRANCH   7   8
ATOM      8  C1  UNL d   1      -3.239   0.477   1.833  0.00  0.00     0.007 C 
ATOM      9  C   UNL d   1      -4.011   1.786   1.735  0.00  0.00     0.009 C 
ENDBRANCH   7   8
ENDBRANCH   1   7
TORSDOF 2
ENDMDL
