MODEL 1
REMARK minimizedAffinity -5.40497255
REMARK minimizedRMSD -1
REMARK  2 active torsions:
REMARK  status: ('A' for Active; 'I' for Inactive)
REMARK    1  A    between atoms: C1_2  and  C2_3 
REMARK    2  A    between atoms: C2_3  and  C3_4 
ROOT
ATOM      1  C3  UNL d   1       0.077   0.051  -0.024  0.00  0.00    -0.075 A 
ATOM      2  C4  UNL d   1       0.507   1.320  -0.438  0.00  0.00     0.002 A 
ATOM      3  C5  UNL d   1       1.269   1.466  -1.597  0.00  0.00     0.002 A 
ATOM      4  C6  UNL d   1       1.620   0.348  -2.350  0.00  0.00    -0.004 A 
ATOM      5  C7  UNL d   1       1.212  -0.919  -1.939  0.00  0.00     0.002 A 
ATOM      6  C8  UNL d   1       0.445  -1.068  -0.782  0.00  0.00     0.002 A 
ENDROOT
BRANCH   1   7
ATOM      7  C2  UNL d   1      -0.773  -0.111   1.214  0.00  0.00     0.056 C 
BRANCH   7   8
ATOM      8  C1  UNL d   1      -2.278   0.033   0.960  0.00  0.00     0.007 C 
ATOM      9  C   UNL d   1      -2.939   1.078   1.848  0.00  0.00     0.009 C 
ENDBRANCH   7   8
ENDBRANCH   1   7
TORSDOF 2
ENDMDL
