MODEL 1
REMARK minimizedAffinity -3.73304462
REMARK minimizedRMSD -1
REMARK  2 active torsions:
REMARK  status: ('A' for Active; 'I' for Inactive)
REMARK    1  A    between atoms: C1_2  and  C2_3 
REMARK    2  A    between atoms: C2_3  and  C3_4 
ROOT
ATOM      1  C3  UNL d   1       0.250  -0.174  -1.288  0.00  0.00    -0.075 A 
ATOM      2  C4  UNL d   1       0.152  -1.567  -1.165  0.00  0.00     0.002 A 
ATOM      3  C5  UNL d   1      -0.188  -2.148   0.057  0.00  0.00     0.002 A 
ATOM      4  C6  UNL d   1      -0.425  -1.346   1.171  0.00  0.00    -0.004 A 
ATOM      5  C7  UNL d   1      -0.314   0.039   1.064  0.00  0.00     0.002 A 
ATOM      6  C8  UNL d   1       0.022   0.623  -0.158  0.00  0.00     0.002 A 
ENDROOT
BRANCH   1   7
ATOM      7  C2  UNL d   1       0.589   0.463  -2.615  0.00  0.00     0.056 C 
BRANCH   7   8
ATOM      8  C1  UNL d   1       2.046   0.266  -3.047  0.00  0.00     0.007 C 
ATOM      9  C   UNL d   1       3.048   0.598  -1.949  0.00  0.00     0.009 C 
ENDBRANCH   7   8
ENDBRANCH   1   7
TORSDOF 2
ENDMDL
