MODEL 1
REMARK minimizedAffinity -4.89923143
REMARK minimizedRMSD -1
REMARK  0 active torsions:
REMARK  status: ('A' for Active; 'I' for Inactive)
ROOT
ATOM      1  C2' OXE d   1      -1.864   1.649  -0.533  0.00  0.00     0.078 C 
ATOM      2  C1' OXE d   1      -1.569   0.358   1.942  0.00  0.00     0.078 C 
ATOM      3  C1  OXE d   1      -0.402   0.325   0.989  0.00  0.00    -0.078 A 
ATOM      4  C2  OXE d   1      -0.571   0.920  -0.239  0.00  0.00    -0.078 A 
ATOM      5  C3  OXE d   1       0.493   0.966  -1.135  0.00  0.00     0.003 A 
ATOM      6  C4  OXE d   1       1.682   0.280  -0.860  0.00  0.00    -0.002 A 
ATOM      7  C5  OXE d   1       1.861  -0.365   0.368  0.00  0.00    -0.002 A 
ATOM      8  C6  OXE d   1       0.847  -0.316   1.319  0.00  0.00     0.003 A 
ENDROOT
TORSDOF 0
ENDMDL
