MODEL 1
REMARK minimizedAffinity -5.20254374
REMARK minimizedRMSD -1
REMARK  0 active torsions:
REMARK  status: ('A' for Active; 'I' for Inactive)
ROOT
ATOM      1  C2' OXE d   1       2.900  -0.341  -0.901  0.00  0.00     0.078 C 
ATOM      2  C1' OXE d   1       1.593   2.137  -1.090  0.00  0.00     0.078 C 
ATOM      3  C1  OXE d   1       0.785   0.948  -0.634  0.00  0.00    -0.078 A 
ATOM      4  C2  OXE d   1       1.421  -0.269  -0.589  0.00  0.00    -0.078 A 
ATOM      5  C3  OXE d   1       0.736  -1.388  -0.122  0.00  0.00     0.003 A 
ATOM      6  C4  OXE d   1      -0.635  -1.315   0.155  0.00  0.00    -0.002 A 
ATOM      7  C5  OXE d   1      -1.311  -0.093   0.077  0.00  0.00    -0.002 A 
ATOM      8  C6  OXE d   1      -0.608   1.054  -0.274  0.00  0.00     0.003 A 
ENDROOT
TORSDOF 0
ENDMDL
