MODEL 1
REMARK minimizedAffinity 2.36916113
REMARK minimizedRMSD -1
REMARK  0 active torsions:
REMARK  status: ('A' for Active; 'I' for Inactive)
ROOT
ATOM      1  C2' OXE d   1       2.994   0.562  -0.431  0.00  0.00     0.078 C 
ATOM      2  C1' OXE d   1       2.217  -1.768  -1.790  0.00  0.00     0.078 C 
ATOM      3  C1  OXE d   1       1.165  -1.032  -0.999  0.00  0.00    -0.078 A 
ATOM      4  C2  OXE d   1       1.565   0.081  -0.299  0.00  0.00    -0.078 A 
ATOM      5  C3  OXE d   1       0.623   0.829   0.403  0.00  0.00     0.003 A 
ATOM      6  C4  OXE d   1      -0.694   0.372   0.528  0.00  0.00    -0.002 A 
ATOM      7  C5  OXE d   1      -1.113  -0.781  -0.144  0.00  0.00    -0.002 A 
ATOM      8  C6  OXE d   1      -0.208  -1.469  -0.945  0.00  0.00     0.003 A 
ENDROOT
TORSDOF 0
ENDMDL
