MODEL 1
REMARK minimizedAffinity -3.52149248
REMARK minimizedRMSD -1
REMARK  0 active torsions:
REMARK  status: ('A' for Active; 'I' for Inactive)
ROOT
ATOM      1  C2' OXE d   1       0.356  -2.099   0.048  0.00  0.00     0.078 C 
ATOM      2  C1' OXE d   1      -0.821   0.449   0.024  0.00  0.00     0.078 C 
ATOM      3  C1  OXE d   1       0.429   0.244  -0.795  0.00  0.00    -0.078 A 
ATOM      4  C2  OXE d   1       1.025  -0.993  -0.740  0.00  0.00    -0.078 A 
ATOM      5  C3  OXE d   1       2.149  -1.252  -1.520  0.00  0.00     0.003 A 
ATOM      6  C4  OXE d   1       2.766  -0.221  -2.238  0.00  0.00    -0.002 A 
ATOM      7  C5  OXE d   1       2.198   1.057  -2.275  0.00  0.00    -0.002 A 
ATOM      8  C6  OXE d   1       1.009   1.294  -1.595  0.00  0.00     0.003 A 
ENDROOT
TORSDOF 0
ENDMDL
