MODEL 1
REMARK minimizedAffinity -2.85446525
REMARK minimizedRMSD -1
REMARK  0 active torsions:
REMARK  status: ('A' for Active; 'I' for Inactive)
ROOT
ATOM      1  C2' OXE d   1       1.577   1.787  -0.729  0.00  0.00     0.078 C 
ATOM      2  C1' OXE d   1       3.378  -0.334  -0.362  0.00  0.00     0.078 C 
ATOM      3  C1  OXE d   1       1.904  -0.657  -0.381  0.00  0.00    -0.078 A 
ATOM      4  C2  OXE d   1       1.029   0.393  -0.514  0.00  0.00    -0.078 A 
ATOM      5  C3  OXE d   1      -0.339   0.145  -0.593  0.00  0.00     0.003 A 
ATOM      6  C4  OXE d   1      -0.838  -1.146  -0.384  0.00  0.00    -0.002 A 
ATOM      7  C5  OXE d   1       0.035  -2.225  -0.206  0.00  0.00    -0.002 A 
ATOM      8  C6  OXE d   1       1.407  -2.004  -0.245  0.00  0.00     0.003 A 
ENDROOT
TORSDOF 0
ENDMDL
