MODEL 1
REMARK minimizedAffinity -4.65598154
REMARK minimizedRMSD -1
REMARK  0 active torsions:
REMARK  status: ('A' for Active; 'I' for Inactive)
ROOT
ATOM      1  C2' OXE d   1       3.184  -0.038  -1.168  0.00  0.00     0.078 C 
ATOM      2  C1' OXE d   1       1.501   1.471  -2.833  0.00  0.00     0.078 C 
ATOM      3  C1  OXE d   1       0.888   0.819  -1.618  0.00  0.00    -0.078 A 
ATOM      4  C2  OXE d   1       1.710   0.044  -0.835  0.00  0.00    -0.078 A 
ATOM      5  C3  OXE d   1       1.209  -0.534   0.327  0.00  0.00     0.003 A 
ATOM      6  C4  OXE d   1      -0.158  -0.462   0.623  0.00  0.00    -0.002 A 
ATOM      7  C5  OXE d   1      -1.020   0.289  -0.184  0.00  0.00    -0.002 A 
ATOM      8  C6  OXE d   1      -0.506   0.969  -1.282  0.00  0.00     0.003 A 
ENDROOT
TORSDOF 0
ENDMDL
