MODEL 1
REMARK minimizedAffinity -5.70255947
REMARK minimizedRMSD -1
REMARK  0 active torsions:
REMARK  status: ('A' for Active; 'I' for Inactive)
ROOT
ATOM      1  C2' OXE d   1       0.708  -1.969   0.431  0.00  0.00     0.078 C 
ATOM      2  C1' OXE d   1      -0.587   0.498   0.094  0.00  0.00     0.078 C 
ATOM      3  C1  OXE d   1       0.686   0.260  -0.680  0.00  0.00    -0.078 A 
ATOM      4  C2  OXE d   1       1.338  -0.932  -0.474  0.00  0.00    -0.078 A 
ATOM      5  C3  OXE d   1       2.486  -1.225  -1.203  0.00  0.00     0.003 A 
ATOM      6  C4  OXE d   1       3.067  -0.256  -2.030  0.00  0.00    -0.002 A 
ATOM      7  C5  OXE d   1       2.441   0.980  -2.224  0.00  0.00    -0.002 A 
ATOM      8  C6  OXE d   1       1.230   1.237  -1.591  0.00  0.00     0.003 A 
ENDROOT
TORSDOF 0
ENDMDL
