MODEL 1
REMARK minimizedAffinity -4.43104267
REMARK minimizedRMSD -1
REMARK  0 active torsions:
REMARK  status: ('A' for Active; 'I' for Inactive)
ROOT
ATOM      1  C2' OXE d   1      -0.811   0.137  -0.027  0.00  0.00     0.078 C 
ATOM      2  C1' OXE d   1      -0.684   2.295  -1.819  0.00  0.00     0.078 C 
ATOM      3  C1  OXE d   1       0.363   1.215  -1.941  0.00  0.00    -0.078 A 
ATOM      4  C2  OXE d   1       0.321   0.187  -1.031  0.00  0.00    -0.078 A 
ATOM      5  C3  OXE d   1       1.229  -0.862  -1.133  0.00  0.00     0.003 A 
ATOM      6  C4  OXE d   1       2.279  -0.803  -2.058  0.00  0.00    -0.002 A 
ATOM      7  C5  OXE d   1       2.364   0.255  -2.969  0.00  0.00    -0.002 A 
ATOM      8  C6  OXE d   1       1.392   1.249  -2.952  0.00  0.00     0.003 A 
ENDROOT
TORSDOF 0
ENDMDL
