MODEL 1
REMARK minimizedAffinity -5.30819559
REMARK minimizedRMSD -1
REMARK  0 active torsions:
REMARK  status: ('A' for Active; 'I' for Inactive)
ROOT
ATOM      1  C2' OXE d   1      -0.359  -2.442  -0.352  0.00  0.00     0.078 C 
ATOM      2  C1' OXE d   1      -0.923   0.242   0.246  0.00  0.00     0.078 C 
ATOM      3  C1  OXE d   1       0.423  -0.077  -0.355  0.00  0.00    -0.078 A 
ATOM      4  C2  OXE d   1       0.708  -1.399  -0.601  0.00  0.00    -0.078 A 
ATOM      5  C3  OXE d   1       1.914  -1.743  -1.206  0.00  0.00     0.003 A 
ATOM      6  C4  OXE d   1       2.899  -0.773  -1.425  0.00  0.00    -0.002 A 
ATOM      7  C5  OXE d   1       2.645   0.574  -1.145  0.00  0.00    -0.002 A 
ATOM      8  C6  OXE d   1       1.398   0.943  -0.650  0.00  0.00     0.003 A 
ENDROOT
TORSDOF 0
ENDMDL
