MODEL 1
REMARK minimizedAffinity -2.57429457
REMARK minimizedRMSD -1
REMARK  0 active torsions:
REMARK  status: ('A' for Active; 'I' for Inactive)
ROOT
ATOM      1  C2' OXE d   1      -0.857   0.309   0.402  0.00  0.00     0.078 C 
ATOM      2  C1' OXE d   1       0.689   1.877  -1.338  0.00  0.00     0.078 C 
ATOM      3  C1  OXE d   1       1.242   0.538  -0.919  0.00  0.00    -0.078 A 
ATOM      4  C2  OXE d   1       0.500  -0.203  -0.031  0.00  0.00    -0.078 A 
ATOM      5  C3  OXE d   1       0.937  -1.469   0.346  0.00  0.00     0.003 A 
ATOM      6  C4  OXE d   1       2.198  -1.931  -0.051  0.00  0.00    -0.002 A 
ATOM      7  C5  OXE d   1       2.988  -1.175  -0.924  0.00  0.00    -0.002 A 
ATOM      8  C6  OXE d   1       2.507   0.040  -1.400  0.00  0.00     0.003 A 
ENDROOT
TORSDOF 0
ENDMDL
