MODEL 1
REMARK minimizedAffinity -4.82463074
REMARK minimizedRMSD -1
REMARK  0 active torsions:
REMARK  status: ('A' for Active; 'I' for Inactive)
ROOT
ATOM      1  C2' OXE d   1      -0.751   0.452   0.529  0.00  0.00     0.078 C 
ATOM      2  C1' OXE d   1      -0.314  -2.293   0.131  0.00  0.00     0.078 C 
ATOM      3  C1  OXE d   1       0.797  -1.342  -0.240  0.00  0.00    -0.078 A 
ATOM      4  C2  OXE d   1       0.557   0.002  -0.086  0.00  0.00    -0.078 A 
ATOM      5  C3  OXE d   1       1.567   0.919  -0.362  0.00  0.00     0.003 A 
ATOM      6  C4  OXE d   1       2.770   0.495  -0.940  0.00  0.00    -0.002 A 
ATOM      7  C5  OXE d   1       3.020  -0.867  -1.143  0.00  0.00    -0.002 A 
ATOM      8  C6  OXE d   1       2.062  -1.799  -0.760  0.00  0.00     0.003 A 
ENDROOT
TORSDOF 0
ENDMDL
