MODEL 1
REMARK minimizedAffinity -1.53560698
REMARK minimizedRMSD -1
REMARK  0 active torsions:
REMARK  status: ('A' for Active; 'I' for Inactive)
ROOT
ATOM      1  C2' OXE d   1      -1.306   0.562  -0.066  0.00  0.00     0.078 C 
ATOM      2  C1' OXE d   1       0.415   1.963  -1.786  0.00  0.00     0.078 C 
ATOM      3  C1  OXE d   1       0.777   0.542  -1.432  0.00  0.00    -0.078 A 
ATOM      4  C2  OXE d   1      -0.046  -0.120  -0.553  0.00  0.00    -0.078 A 
ATOM      5  C3  OXE d   1       0.213  -1.451  -0.236  0.00  0.00     0.003 A 
ATOM      6  C4  OXE d   1       1.386  -2.071  -0.683  0.00  0.00    -0.002 A 
ATOM      7  C5  OXE d   1       2.258  -1.401  -1.547  0.00  0.00    -0.002 A 
ATOM      8  C6  OXE d   1       1.947  -0.112  -1.965  0.00  0.00     0.003 A 
ENDROOT
TORSDOF 0
ENDMDL
