MODEL 1
REMARK minimizedAffinity 1.59453249
REMARK minimizedRMSD -1
REMARK  0 active torsions:
REMARK  status: ('A' for Active; 'I' for Inactive)
ROOT
ATOM      1  C2' OXE d   1       0.621   1.862  -1.315  0.00  0.00     0.078 C 
ATOM      2  C1' OXE d   1       2.024  -0.569  -1.309  0.00  0.00     0.078 C 
ATOM      3  C1  OXE d   1       0.641  -0.554  -0.708  0.00  0.00    -0.078 A 
ATOM      4  C2  OXE d   1      -0.020   0.651  -0.673  0.00  0.00    -0.078 A 
ATOM      5  C3  OXE d   1      -1.320   0.710  -0.179  0.00  0.00     0.003 A 
ATOM      6  C4  OXE d   1      -1.901  -0.413   0.422  0.00  0.00    -0.002 A 
ATOM      7  C5  OXE d   1      -1.230  -1.640   0.433  0.00  0.00    -0.002 A 
ATOM      8  C6  OXE d   1       0.022  -1.737  -0.165  0.00  0.00     0.003 A 
ENDROOT
TORSDOF 0
ENDMDL
