MODEL 1
REMARK minimizedAffinity -2.43012238
REMARK minimizedRMSD -1
REMARK  0 active torsions:
REMARK  status: ('A' for Active; 'I' for Inactive)
ROOT
ATOM      1  C2' OXE d   1      -2.134   0.834   3.305  0.00  0.00     0.078 C 
ATOM      2  C1' OXE d   1      -2.624   3.206   1.886  0.00  0.00     0.078 C 
ATOM      3  C1  OXE d   1      -1.865   2.109   1.182  0.00  0.00    -0.078 A 
ATOM      4  C2  OXE d   1      -1.589   0.970   1.900  0.00  0.00    -0.078 A 
ATOM      5  C3  OXE d   1      -0.939  -0.095   1.281  0.00  0.00     0.003 A 
ATOM      6  C4  OXE d   1      -0.430   0.043  -0.016  0.00  0.00    -0.002 A 
ATOM      7  C5  OXE d   1      -0.666   1.210  -0.751  0.00  0.00    -0.002 A 
ATOM      8  C6  OXE d   1      -1.416   2.233  -0.183  0.00  0.00     0.003 A 
ENDROOT
TORSDOF 0
ENDMDL
