MODEL 1
REMARK minimizedAffinity -0.656102002
REMARK minimizedRMSD -1
REMARK  0 active torsions:
REMARK  status: ('A' for Active; 'I' for Inactive)
ROOT
ATOM      1  C2' OXE d   1      -0.072  -3.470   0.382  0.00  0.00     0.078 C 
ATOM      2  C1' OXE d   1       1.953  -2.370  -1.221  0.00  0.00     0.078 C 
ATOM      3  C1  OXE d   1       0.775  -1.493  -0.875  0.00  0.00    -0.078 A 
ATOM      4  C2  OXE d   1      -0.233  -2.054  -0.129  0.00  0.00    -0.078 A 
ATOM      5  C3  OXE d   1      -1.316  -1.273   0.264  0.00  0.00     0.003 A 
ATOM      6  C4  OXE d   1      -1.462   0.032  -0.221  0.00  0.00    -0.002 A 
ATOM      7  C5  OXE d   1      -0.466   0.610  -1.015  0.00  0.00    -0.002 A 
ATOM      8  C6  OXE d   1       0.677  -0.123  -1.316  0.00  0.00     0.003 A 
ENDROOT
TORSDOF 0
ENDMDL
