MODEL 1
REMARK minimizedAffinity 6.41897631
REMARK minimizedRMSD -1
REMARK  0 active torsions:
REMARK  status: ('A' for Active; 'I' for Inactive)
ROOT
ATOM      1  C   UNL d   1       2.568  -1.806  -1.483  0.00  0.00     0.023 A 
ATOM      2  C1  UNL d   1       1.244  -1.716  -1.912  0.00  0.00     0.003 A 
ATOM      3  C2  UNL d   1       0.607  -0.474  -1.958  0.00  0.00     0.048 A 
ATOM      4  C3  UNL d   1       1.301   0.674  -1.575  0.00  0.00     0.023 A 
ATOM      5  C4  UNL d   1       2.626   0.588  -1.146  0.00  0.00     0.048 A 
ATOM      6  C5  UNL d   1       3.259  -0.656  -1.100  0.00  0.00     0.003 A 
ATOM      7  I   UNL d   1       0.355   2.523  -1.643  0.00  0.00    -0.146 I 
ENDROOT
TORSDOF 0
ENDMDL
