MODEL 1
REMARK minimizedAffinity 6.78159952
REMARK minimizedRMSD -1
REMARK  0 active torsions:
REMARK  status: ('A' for Active; 'I' for Inactive)
ROOT
ATOM      1  C   UNL d   1      -0.632   1.760  -0.557  0.00  0.00     0.023 A 
ATOM      2  C1  UNL d   1       0.696   2.072  -0.851  0.00  0.00     0.003 A 
ATOM      3  C2  UNL d   1       1.628   1.050  -1.046  0.00  0.00     0.048 A 
ATOM      4  C3  UNL d   1       1.226  -0.281  -0.946  0.00  0.00     0.023 A 
ATOM      5  C4  UNL d   1      -0.101  -0.598  -0.652  0.00  0.00     0.048 A 
ATOM      6  C5  UNL d   1      -1.030   0.426  -0.457  0.00  0.00     0.003 A 
ATOM      7  I   UNL d   1       2.611  -1.803  -1.235  0.00  0.00    -0.146 I 
ENDROOT
TORSDOF 0
ENDMDL
