MODEL 1
REMARK minimizedAffinity 7.64161015
REMARK minimizedRMSD -1
REMARK  0 active torsions:
REMARK  status: ('A' for Active; 'I' for Inactive)
ROOT
ATOM      1  C   UNL d   1       2.515   1.604  -3.569  0.00  0.00     0.023 A 
ATOM      2  C1  UNL d   1       2.502   0.348  -2.961  0.00  0.00     0.003 A 
ATOM      3  C2  UNL d   1       1.559   0.059  -1.972  0.00  0.00     0.048 A 
ATOM      4  C3  UNL d   1       0.631   1.030  -1.598  0.00  0.00     0.023 A 
ATOM      5  C4  UNL d   1       0.639   2.287  -2.204  0.00  0.00     0.048 A 
ATOM      6  C5  UNL d   1       1.585   2.572  -3.191  0.00  0.00     0.003 A 
ATOM      7  I   UNL d   1      -0.774   0.602  -0.127  0.00  0.00    -0.146 I 
ENDROOT
TORSDOF 0
ENDMDL
