MODEL 1
REMARK minimizedAffinity 9.86237335
REMARK minimizedRMSD -1
REMARK  0 active torsions:
REMARK  status: ('A' for Active; 'I' for Inactive)
ROOT
ATOM      1  C   UNL d   1       2.019  -0.723  -1.875  0.00  0.00     0.023 A 
ATOM      2  C1  UNL d   1       0.747  -1.290  -1.801  0.00  0.00     0.003 A 
ATOM      3  C2  UNL d   1       0.511  -2.371  -0.950  0.00  0.00     0.048 A 
ATOM      4  C3  UNL d   1       1.552  -2.880  -0.174  0.00  0.00     0.023 A 
ATOM      5  C4  UNL d   1       2.827  -2.316  -0.244  0.00  0.00     0.048 A 
ATOM      6  C5  UNL d   1       3.058  -1.235  -1.097  0.00  0.00     0.003 A 
ATOM      7  I   UNL d   1       1.204  -4.490   1.093  0.00  0.00    -0.146 I 
ENDROOT
TORSDOF 0
ENDMDL
