MODEL 1
REMARK minimizedAffinity 3.57924175
REMARK minimizedRMSD -1
REMARK  0 active torsions:
REMARK  status: ('A' for Active; 'I' for Inactive)
ROOT
ATOM      1  C   UNL d   1       2.011  -2.166  -0.168  0.00  0.00     0.023 A 
ATOM      2  C1  UNL d   1       0.870  -1.847  -0.906  0.00  0.00     0.003 A 
ATOM      3  C2  UNL d   1       0.881  -0.752  -1.772  0.00  0.00     0.048 A 
ATOM      4  C3  UNL d   1       2.036   0.019  -1.897  0.00  0.00     0.023 A 
ATOM      5  C4  UNL d   1       3.180  -0.296  -1.162  0.00  0.00     0.048 A 
ATOM      6  C5  UNL d   1       3.164  -1.391  -0.296  0.00  0.00     0.003 A 
ATOM      7  I   UNL d   1       2.054   1.649  -3.186  0.00  0.00    -0.146 I 
ENDROOT
TORSDOF 0
ENDMDL
