MODEL 1
REMARK minimizedAffinity -2.77019
REMARK minimizedRMSD -1
REMARK  0 active torsions:
REMARK  status: ('A' for Active; 'I' for Inactive)
ROOT
ATOM      1  C   UNL d   1       2.745  -1.832  -1.533  0.00  0.00     0.023 A 
ATOM      2  C1  UNL d   1       2.856  -0.674  -2.304  0.00  0.00     0.003 A 
ATOM      3  C2  UNL d   1       1.946   0.371  -2.132  0.00  0.00     0.048 A 
ATOM      4  C3  UNL d   1       0.928   0.252  -1.186  0.00  0.00     0.023 A 
ATOM      5  C4  UNL d   1       0.814  -0.903  -0.412  0.00  0.00     0.048 A 
ATOM      6  C5  UNL d   1       1.725  -1.946  -0.588  0.00  0.00     0.003 A 
ATOM      7  I   UNL d   1      -0.427   1.807  -0.927  0.00  0.00    -0.146 I 
ENDROOT
TORSDOF 0
ENDMDL
