MODEL 1
REMARK minimizedAffinity 3.08586478
REMARK minimizedRMSD -1
REMARK  0 active torsions:
REMARK  status: ('A' for Active; 'I' for Inactive)
ROOT
ATOM      1  C   UNL d   1       2.589   0.739  -2.854  0.00  0.00     0.023 A 
ATOM      2  C1  UNL d   1       2.184  -0.268  -1.977  0.00  0.00     0.003 A 
ATOM      3  C2  UNL d   1       0.998  -0.131  -1.253  0.00  0.00     0.048 A 
ATOM      4  C3  UNL d   1       0.220   1.016  -1.412  0.00  0.00     0.023 A 
ATOM      5  C4  UNL d   1       0.620   2.026  -2.289  0.00  0.00     0.048 A 
ATOM      6  C5  UNL d   1       1.808   1.884  -3.009  0.00  0.00     0.003 A 
ATOM      7  I   UNL d   1      -1.546   1.223  -0.336  0.00  0.00    -0.146 I 
ENDROOT
TORSDOF 0
ENDMDL
