MODEL 1
REMARK minimizedAffinity 4.32344484
REMARK minimizedRMSD -1
REMARK  0 active torsions:
REMARK  status: ('A' for Active; 'I' for Inactive)
ROOT
ATOM      1  C   UNL d   1       2.877   0.824  -1.264  0.00  0.00     0.023 A 
ATOM      2  C1  UNL d   1       3.103  -0.509  -0.918  0.00  0.00     0.003 A 
ATOM      3  C2  UNL d   1       2.616  -1.535  -1.730  0.00  0.00     0.048 A 
ATOM      4  C3  UNL d   1       1.905  -1.222  -2.887  0.00  0.00     0.023 A 
ATOM      5  C4  UNL d   1       1.676   0.110  -3.238  0.00  0.00     0.048 A 
ATOM      6  C5  UNL d   1       2.164   1.132  -2.423  0.00  0.00     0.003 A 
ATOM      7  I   UNL d   1       1.179  -2.748  -4.098  0.00  0.00    -0.146 I 
ENDROOT
TORSDOF 0
ENDMDL
