MODEL 1
REMARK minimizedAffinity 10.1592541
REMARK minimizedRMSD -1
REMARK  0 active torsions:
REMARK  status: ('A' for Active; 'I' for Inactive)
ROOT
ATOM      1  C   UNL d   1       0.096   2.656   1.623  0.00  0.00     0.023 A 
ATOM      2  C1  UNL d   1       1.441   2.288   1.580  0.00  0.00     0.003 A 
ATOM      3  C2  UNL d   1       1.989   1.775   0.402  0.00  0.00     0.048 A 
ATOM      4  C3  UNL d   1       1.186   1.634  -0.729  0.00  0.00     0.023 A 
ATOM      5  C4  UNL d   1      -0.160   2.002  -0.692  0.00  0.00     0.048 A 
ATOM      6  C5  UNL d   1      -0.703   2.513   0.488  0.00  0.00     0.003 A 
ATOM      7  I   UNL d   1       1.999   0.871  -2.484  0.00  0.00    -0.146 I 
ENDROOT
TORSDOF 0
ENDMDL
