MODEL 1
REMARK minimizedAffinity 0.228065461
REMARK minimizedRMSD -1
REMARK  0 active torsions:
REMARK  status: ('A' for Active; 'I' for Inactive)
ROOT
ATOM      1  C   UNL d   1       1.008   2.552  -2.565  0.00  0.00     0.023 A 
ATOM      2  C1  UNL d   1       0.326   1.985  -1.488  0.00  0.00     0.003 A 
ATOM      3  C2  UNL d   1       0.605   0.675  -1.095  0.00  0.00     0.048 A 
ATOM      4  C3  UNL d   1       1.569  -0.063  -1.781  0.00  0.00     0.023 A 
ATOM      5  C4  UNL d   1       2.255   0.501  -2.859  0.00  0.00     0.048 A 
ATOM      6  C5  UNL d   1       1.971   1.811  -3.249  0.00  0.00     0.003 A 
ATOM      7  I   UNL d   1       1.987  -2.013  -1.197  0.00  0.00    -0.146 I 
ENDROOT
TORSDOF 0
ENDMDL
