MODEL 1
REMARK minimizedAffinity 5.57722521
REMARK minimizedRMSD -1
REMARK  0 active torsions:
REMARK  status: ('A' for Active; 'I' for Inactive)
ROOT
ATOM      1  C   UNL d   1       2.500  -2.376  -0.725  0.00  0.00     0.023 A 
ATOM      2  C1  UNL d   1       1.119  -2.281  -0.553  0.00  0.00     0.003 A 
ATOM      3  C2  UNL d   1       0.482  -1.045  -0.678  0.00  0.00     0.048 A 
ATOM      4  C3  UNL d   1       1.231   0.092  -0.976  0.00  0.00     0.023 A 
ATOM      5  C4  UNL d   1       2.613   0.002  -1.150  0.00  0.00     0.048 A 
ATOM      6  C5  UNL d   1       3.246  -1.235  -1.023  0.00  0.00     0.003 A 
ATOM      7  I   UNL d   1       0.284   1.933  -1.163  0.00  0.00    -0.146 I 
ENDROOT
TORSDOF 0
ENDMDL
