MODEL 1
REMARK minimizedAffinity -1.74705315
REMARK minimizedRMSD -1
REMARK  0 active torsions:
REMARK  status: ('A' for Active; 'I' for Inactive)
ROOT
ATOM      1  C   UNL d   1       4.211  -5.989   3.749  0.00  0.00     0.023 A 
ATOM      2  C1  UNL d   1       5.506  -5.969   4.267  0.00  0.00     0.003 A 
ATOM      3  C2  UNL d   1       5.984  -4.826   4.912  0.00  0.00     0.048 A 
ATOM      4  C3  UNL d   1       5.160  -3.707   5.036  0.00  0.00     0.023 A 
ATOM      5  C4  UNL d   1       3.864  -3.723   4.520  0.00  0.00     0.048 A 
ATOM      6  C5  UNL d   1       3.391  -4.868   3.876  0.00  0.00     0.003 A 
ATOM      7  I   UNL d   1       5.869  -2.005   5.996  0.00  0.00    -0.146 I 
ENDROOT
TORSDOF 0
ENDMDL
