MODEL 1
REMARK minimizedAffinity 1.50665998
REMARK minimizedRMSD -1
REMARK  0 active torsions:
REMARK  status: ('A' for Active; 'I' for Inactive)
ROOT
ATOM      1  C   UNL d   1       2.005  -2.955  -0.571  0.00  0.00     0.023 A 
ATOM      2  C1  UNL d   1       0.753  -2.592  -1.068  0.00  0.00     0.003 A 
ATOM      3  C2  UNL d   1       0.569  -1.337  -1.650  0.00  0.00     0.048 A 
ATOM      4  C3  UNL d   1       1.641  -0.449  -1.733  0.00  0.00     0.023 A 
ATOM      5  C4  UNL d   1       2.896  -0.808  -1.238  0.00  0.00     0.048 A 
ATOM      6  C5  UNL d   1       3.075  -2.064  -0.655  0.00  0.00     0.003 A 
ATOM      7  I   UNL d   1       1.369   1.420  -2.600  0.00  0.00    -0.146 I 
ENDROOT
TORSDOF 0
ENDMDL
