MODEL 1
REMARK minimizedAffinity 5.31512117
REMARK minimizedRMSD -1
REMARK  0 active torsions:
REMARK  status: ('A' for Active; 'I' for Inactive)
ROOT
ATOM      1  C   UNL d   1       1.105   2.405  -2.990  0.00  0.00     0.023 A 
ATOM      2  C1  UNL d   1       1.977   1.451  -3.514  0.00  0.00     0.003 A 
ATOM      3  C2  UNL d   1       2.154   0.230  -2.859  0.00  0.00     0.048 A 
ATOM      4  C3  UNL d   1       1.455  -0.030  -1.681  0.00  0.00     0.023 A 
ATOM      5  C4  UNL d   1       0.581   0.922  -1.153  0.00  0.00     0.048 A 
ATOM      6  C5  UNL d   1       0.408   2.141  -1.811  0.00  0.00     0.003 A 
ATOM      7  I   UNL d   1       1.716  -1.846  -0.704  0.00  0.00    -0.146 I 
ENDROOT
TORSDOF 0
ENDMDL
