MODEL 1
REMARK minimizedAffinity 11.7409534
REMARK minimizedRMSD -1
REMARK  0 active torsions:
REMARK  status: ('A' for Active; 'I' for Inactive)
ROOT
ATOM      1  C   UNL d   1       0.633   2.377  -2.632  0.00  0.00     0.023 A 
ATOM      2  C1  UNL d   1       1.601   1.736  -3.407  0.00  0.00     0.003 A 
ATOM      3  C2  UNL d   1       2.087   0.485  -3.024  0.00  0.00     0.048 A 
ATOM      4  C3  UNL d   1       1.601  -0.121  -1.866  0.00  0.00     0.023 A 
ATOM      5  C4  UNL d   1       0.632   0.516  -1.088  0.00  0.00     0.048 A 
ATOM      6  C5  UNL d   1       0.149   1.768  -1.475  0.00  0.00     0.003 A 
ATOM      7  I   UNL d   1       2.322  -1.984  -1.293  0.00  0.00    -0.146 I 
ENDROOT
TORSDOF 0
ENDMDL
