MODEL 1
REMARK minimizedAffinity 4.90989542
REMARK minimizedRMSD -1
REMARK  0 active torsions:
REMARK  status: ('A' for Active; 'I' for Inactive)
ROOT
ATOM      1  C   UNL d   1      -0.005   2.690   1.759  0.00  0.00     0.023 A 
ATOM      2  C1  UNL d   1       1.376   2.502   1.696  0.00  0.00     0.003 A 
ATOM      3  C2  UNL d   1       1.943   1.839   0.606  0.00  0.00     0.048 A 
ATOM      4  C3  UNL d   1       1.124   1.368  -0.419  0.00  0.00     0.023 A 
ATOM      5  C4  UNL d   1      -0.258   1.554  -0.361  0.00  0.00     0.048 A 
ATOM      6  C5  UNL d   1      -0.821   2.217   0.731  0.00  0.00     0.003 A 
ATOM      7  I   UNL d   1       1.965   0.381  -2.043  0.00  0.00    -0.146 I 
ENDROOT
TORSDOF 0
ENDMDL
