MODEL 1
REMARK minimizedAffinity -0.192847133
REMARK minimizedRMSD -1
REMARK  0 active torsions:
REMARK  status: ('A' for Active; 'I' for Inactive)
ROOT
ATOM      1  C   UNL d   1       2.178   0.189  -1.903  0.00  0.00     0.023 A 
ATOM      2  C1  UNL d   1       0.895  -0.164  -1.485  0.00  0.00     0.003 A 
ATOM      3  C2  UNL d   1       0.713  -1.251  -0.628  0.00  0.00     0.048 A 
ATOM      4  C3  UNL d   1       1.819  -1.979  -0.190  0.00  0.00     0.023 A 
ATOM      5  C4  UNL d   1       3.105  -1.629  -0.605  0.00  0.00     0.048 A 
ATOM      6  C5  UNL d   1       3.282  -0.542  -1.463  0.00  0.00     0.003 A 
ATOM      7  I   UNL d   1       1.551  -3.597   1.087  0.00  0.00    -0.146 I 
ENDROOT
TORSDOF 0
ENDMDL
