MODEL 1
REMARK minimizedAffinity 6.91226959
REMARK minimizedRMSD -1
REMARK  0 active torsions:
REMARK  status: ('A' for Active; 'I' for Inactive)
ROOT
ATOM      1  C   UNL d   1       3.002  -0.223  -2.518  0.00  0.00     0.023 A 
ATOM      2  C1  UNL d   1       2.655   1.127  -2.568  0.00  0.00     0.003 A 
ATOM      3  C2  UNL d   1       1.710   1.640  -1.676  0.00  0.00     0.048 A 
ATOM      4  C3  UNL d   1       1.118   0.797  -0.736  0.00  0.00     0.023 A 
ATOM      5  C4  UNL d   1       1.464  -0.555  -0.682  0.00  0.00     0.048 A 
ATOM      6  C5  UNL d   1       2.408  -1.063  -1.576  0.00  0.00     0.003 A 
ATOM      7  I   UNL d   1      -0.287   1.558   0.593  0.00  0.00    -0.146 I 
ENDROOT
TORSDOF 0
ENDMDL
