MODEL 1
REMARK minimizedAffinity -3.87343574
REMARK minimizedRMSD -1
REMARK  1 active torsions:
REMARK  status: ('A' for Active; 'I' for Inactive)
REMARK    1  A    between atoms: C1_2  and  C2_3 
ROOT
ATOM      1  C2  UNL d   1      -0.798  -3.308  -0.215  0.00  0.00    -0.073 A 
ATOM      2  C3  UNL d   1       0.314  -3.377  -1.063  0.00  0.00    -0.002 A 
ATOM      3  C4  UNL d   1       1.099  -2.246  -1.289  0.00  0.00     0.004 A 
ATOM      4  C5  UNL d   1       0.785  -1.038  -0.667  0.00  0.00    -0.004 A 
ATOM      5  C6  UNL d   1      -0.314  -0.952   0.193  0.00  0.00    -0.075 A 
ATOM      6  C7  UNL d   1      -0.666   0.341   0.869  0.00  0.00     0.076 C 
ATOM      7  C8  UNL d   1      -1.099  -2.092   0.414  0.00  0.00     0.001 A 
ENDROOT
BRANCH   1   8
ATOM      8  C1  UNL d   1      -1.644  -4.529   0.038  0.00  0.00     0.053 C 
ATOM      9  C   UNL d   1      -3.108  -4.285  -0.292  0.00  0.00     0.018 C 
ENDBRANCH   1   8
TORSDOF 1
ENDMDL
