MODEL 1
REMARK minimizedAffinity 3.48247027
REMARK minimizedRMSD -1
REMARK  1 active torsions:
REMARK  status: ('A' for Active; 'I' for Inactive)
REMARK    1  A    between atoms: C1_2  and  C2_3 
ROOT
ATOM      1  C2  UNL d   1      -1.326  -3.278  -2.975  0.00  0.00    -0.073 A 
ATOM      2  C3  UNL d   1      -2.500  -3.877  -2.505  0.00  0.00    -0.002 A 
ATOM      3  C4  UNL d   1      -3.182  -3.332  -1.416  0.00  0.00     0.004 A 
ATOM      4  C5  UNL d   1      -2.703  -2.181  -0.792  0.00  0.00    -0.004 A 
ATOM      5  C6  UNL d   1      -1.538  -1.561  -1.254  0.00  0.00    -0.075 A 
ATOM      6  C7  UNL d   1      -1.008  -0.323  -0.592  0.00  0.00     0.076 C 
ATOM      7  C8  UNL d   1      -0.857  -2.115  -2.346  0.00  0.00     0.001 A 
ENDROOT
BRANCH   1   8
ATOM      8  C1  UNL d   1      -0.589  -3.858  -4.154  0.00  0.00     0.053 C 
ATOM      9  C   UNL d   1      -1.098  -3.302  -5.474  0.00  0.00     0.018 C 
ENDBRANCH   1   8
TORSDOF 1
ENDMDL
