MODEL 1
REMARK minimizedAffinity -5.0333066
REMARK minimizedRMSD -1
REMARK  1 active torsions:
REMARK  status: ('A' for Active; 'I' for Inactive)
REMARK    1  A    between atoms: C1_2  and  C2_3 
ROOT
ATOM      1  C2  UNL d   1      -0.305  -0.465  -0.513  0.00  0.00    -0.073 A 
ATOM      2  C3  UNL d   1      -0.435  -0.521   0.879  0.00  0.00    -0.002 A 
ATOM      3  C4  UNL d   1      -0.511  -1.752   1.531  0.00  0.00     0.004 A 
ATOM      4  C5  UNL d   1      -0.452  -2.939   0.800  0.00  0.00    -0.004 A 
ATOM      5  C6  UNL d   1      -0.310  -2.904  -0.591  0.00  0.00    -0.075 A 
ATOM      6  C7  UNL d   1      -0.246  -4.171  -1.392  0.00  0.00     0.076 C 
ATOM      7  C8  UNL d   1      -0.237  -1.663  -1.239  0.00  0.00     0.001 A 
ENDROOT
BRANCH   1   8
ATOM      8  C1  UNL d   1      -0.216   0.862  -1.221  0.00  0.00     0.053 C 
ATOM      9  C   UNL d   1       0.019   2.010  -0.253  0.00  0.00     0.018 C 
ENDBRANCH   1   8
TORSDOF 1
ENDMDL
