MODEL 1
REMARK minimizedAffinity -5.43151283
REMARK minimizedRMSD -1
REMARK  1 active torsions:
REMARK  status: ('A' for Active; 'I' for Inactive)
REMARK    1  A    between atoms: C1_2  and  C2_3 
ROOT
ATOM      1  C2  UNL d   1      -0.112   0.028  -0.194  0.00  0.00    -0.073 A 
ATOM      2  C3  UNL d   1      -0.519  -0.530   1.023  0.00  0.00    -0.002 A 
ATOM      3  C4  UNL d   1      -0.609  -1.915   1.168  0.00  0.00     0.004 A 
ATOM      4  C5  UNL d   1      -0.287  -2.755   0.102  0.00  0.00    -0.004 A 
ATOM      5  C6  UNL d   1       0.134  -2.216  -1.118  0.00  0.00    -0.075 A 
ATOM      6  C7  UNL d   1       0.483  -3.106  -2.275  0.00  0.00     0.076 C 
ATOM      7  C8  UNL d   1       0.219  -0.825  -1.257  0.00  0.00     0.001 A 
ENDROOT
BRANCH   1   8
ATOM      8  C1  UNL d   1      -0.007   1.523  -0.354  0.00  0.00     0.053 C 
ATOM      9  C   UNL d   1       1.254   2.078   0.289  0.00  0.00     0.018 C 
ENDBRANCH   1   8
TORSDOF 1
ENDMDL
