MODEL 1
REMARK minimizedAffinity -5.98861361
REMARK minimizedRMSD -1
REMARK  1 active torsions:
REMARK  status: ('A' for Active; 'I' for Inactive)
REMARK    1  A    between atoms: C1_2  and  C2_3 
ROOT
ATOM      1  C2  UNL d   1      -0.168  -1.270   0.253  0.00  0.00    -0.073 A 
ATOM      2  C3  UNL d   1      -0.425  -2.522   0.823  0.00  0.00    -0.002 A 
ATOM      3  C4  UNL d   1      -0.237  -3.687   0.078  0.00  0.00     0.004 A 
ATOM      4  C5  UNL d   1       0.217  -3.613  -1.239  0.00  0.00    -0.004 A 
ATOM      5  C6  UNL d   1       0.491  -2.371  -1.822  0.00  0.00    -0.075 A 
ATOM      6  C7  UNL d   1       0.977  -2.274  -3.238  0.00  0.00     0.076 C 
ATOM      7  C8  UNL d   1       0.296  -1.206  -1.069  0.00  0.00     0.001 A 
ENDROOT
BRANCH   1   8
ATOM      8  C1  UNL d   1      -0.364  -0.009   1.055  0.00  0.00     0.053 C 
ATOM      9  C   UNL d   1       0.061   1.230   0.283  0.00  0.00     0.018 C 
ENDBRANCH   1   8
TORSDOF 1
ENDMDL
