MODEL 1
REMARK minimizedAffinity -1.95811784
REMARK minimizedRMSD -1
REMARK  1 active torsions:
REMARK  status: ('A' for Active; 'I' for Inactive)
REMARK    1  A    between atoms: C1_2  and  C2_3 
ROOT
ATOM      1  C2  UNL d   1       0.350   1.937   0.211  0.00  0.00    -0.073 A 
ATOM      2  C3  UNL d   1       0.394   1.678  -1.164  0.00  0.00    -0.002 A 
ATOM      3  C4  UNL d   1       0.014   0.429  -1.658  0.00  0.00     0.004 A 
ATOM      4  C5  UNL d   1      -0.420  -0.569  -0.786  0.00  0.00    -0.004 A 
ATOM      5  C6  UNL d   1      -0.483  -0.325   0.590  0.00  0.00    -0.075 A 
ATOM      6  C7  UNL d   1      -0.945  -1.389   1.542  0.00  0.00     0.076 C 
ATOM      7  C8  UNL d   1      -0.097   0.930   1.079  0.00  0.00     0.001 A 
ENDROOT
BRANCH   1   8
ATOM      8  C1  UNL d   1       0.753   3.285   0.749  0.00  0.00     0.053 C 
ATOM      9  C   UNL d   1       2.230   3.338   1.107  0.00  0.00     0.018 C 
ENDBRANCH   1   8
TORSDOF 1
ENDMDL
