MODEL 1
REMARK minimizedAffinity -6.01909685
REMARK minimizedRMSD -1
REMARK  1 active torsions:
REMARK  status: ('A' for Active; 'I' for Inactive)
REMARK    1  A    between atoms: C1_2  and  C2_3 
ROOT
ATOM      1  C2  UNL d   1       0.238  -0.294  -0.994  0.00  0.00    -0.073 A 
ATOM      2  C3  UNL d   1       0.314  -0.764  -2.310  0.00  0.00    -0.002 A 
ATOM      3  C4  UNL d   1       0.455  -2.129  -2.565  0.00  0.00     0.004 A 
ATOM      4  C5  UNL d   1       0.514  -3.037  -1.508  0.00  0.00    -0.004 A 
ATOM      5  C6  UNL d   1       0.428  -2.589  -0.186  0.00  0.00    -0.075 A 
ATOM      6  C7  UNL d   1       0.493  -3.553   0.962  0.00  0.00     0.076 C 
ATOM      7  C8  UNL d   1       0.289  -1.216   0.061  0.00  0.00     0.001 A 
ENDROOT
BRANCH   1   8
ATOM      8  C1  UNL d   1       0.079   1.178  -0.714  0.00  0.00     0.053 C 
ATOM      9  C   UNL d   1       1.342   1.786  -0.127  0.00  0.00     0.018 C 
ENDBRANCH   1   8
TORSDOF 1
ENDMDL
