MODEL 1
REMARK minimizedAffinity -5.09674692
REMARK minimizedRMSD -1
REMARK  1 active torsions:
REMARK  status: ('A' for Active; 'I' for Inactive)
REMARK    1  A    between atoms: C1_2  and  C2_3 
ROOT
ATOM      1  C2  UNL d   1       0.279  -1.007  -0.214  0.00  0.00    -0.073 A 
ATOM      2  C3  UNL d   1       0.743  -2.040   0.609  0.00  0.00    -0.002 A 
ATOM      3  C4  UNL d   1       0.729  -3.361   0.158  0.00  0.00     0.004 A 
ATOM      4  C5  UNL d   1       0.259  -3.661  -1.120  0.00  0.00    -0.004 A 
ATOM      5  C6  UNL d   1      -0.197  -2.642  -1.962  0.00  0.00    -0.075 A 
ATOM      6  C7  UNL d   1      -0.708  -2.949  -3.339  0.00  0.00     0.076 C 
ATOM      7  C8  UNL d   1      -0.182  -1.318  -1.501  0.00  0.00     0.001 A 
ENDROOT
BRANCH   1   8
ATOM      8  C1  UNL d   1       0.299   0.421   0.266  0.00  0.00     0.053 C 
ATOM      9  C   UNL d   1      -0.091   1.397  -0.833  0.00  0.00     0.018 C 
ENDBRANCH   1   8
TORSDOF 1
ENDMDL
