MODEL 1
REMARK minimizedAffinity -4.01741791
REMARK minimizedRMSD -1
REMARK  1 active torsions:
REMARK  status: ('A' for Active; 'I' for Inactive)
REMARK    1  A    between atoms: C1_2  and  C2_3 
ROOT
ATOM      1  C2  UNL d   1       1.695   2.386  -0.321  0.00  0.00    -0.073 A 
ATOM      2  C3  UNL d   1       2.413   1.748  -1.339  0.00  0.00    -0.002 A 
ATOM      3  C4  UNL d   1       1.900   0.606  -1.955  0.00  0.00     0.004 A 
ATOM      4  C5  UNL d   1       0.662   0.094  -1.564  0.00  0.00    -0.004 A 
ATOM      5  C6  UNL d   1      -0.076   0.725  -0.557  0.00  0.00    -0.075 A 
ATOM      6  C7  UNL d   1      -1.408   0.186  -0.125  0.00  0.00     0.076 C 
ATOM      7  C8  UNL d   1       0.448   1.870   0.058  0.00  0.00     0.001 A 
ENDROOT
BRANCH   1   8
ATOM      8  C1  UNL d   1       2.243   3.623   0.342  0.00  0.00     0.053 C 
ATOM      9  C   UNL d   1       1.813   3.728   1.797  0.00  0.00     0.018 C 
ENDBRANCH   1   8
TORSDOF 1
ENDMDL
