MODEL 1
REMARK minimizedAffinity -5.71341181
REMARK minimizedRMSD -1
REMARK  1 active torsions:
REMARK  status: ('A' for Active; 'I' for Inactive)
REMARK    1  A    between atoms: C1_2  and  C2_3 
ROOT
ATOM      1  C2  UNL d   1       0.553   0.321   0.056  0.00  0.00    -0.073 A 
ATOM      2  C3  UNL d   1      -0.609   0.525   0.808  0.00  0.00    -0.002 A 
ATOM      3  C4  UNL d   1      -1.379  -0.561   1.225  0.00  0.00     0.004 A 
ATOM      4  C5  UNL d   1      -0.992  -1.861   0.901  0.00  0.00    -0.004 A 
ATOM      5  C6  UNL d   1       0.173  -2.087   0.161  0.00  0.00    -0.075 A 
ATOM      6  C7  UNL d   1       0.602  -3.479  -0.197  0.00  0.00     0.076 C 
ATOM      7  C8  UNL d   1       0.939  -0.990  -0.257  0.00  0.00     0.001 A 
ENDROOT
BRANCH   1   8
ATOM      8  C1  UNL d   1       1.391   1.491  -0.392  0.00  0.00     0.053 C 
ATOM      9  C   UNL d   1       1.132   2.732   0.448  0.00  0.00     0.018 C 
ENDBRANCH   1   8
TORSDOF 1
ENDMDL
