MODEL 1
REMARK minimizedAffinity -5.05864382
REMARK minimizedRMSD -1
REMARK  1 active torsions:
REMARK  status: ('A' for Active; 'I' for Inactive)
REMARK    1  A    between atoms: C1_2  and  C2_3 
ROOT
ATOM      1  C2  UNL d   1       0.102  -0.947  -0.460  0.00  0.00    -0.073 A 
ATOM      2  C3  UNL d   1       0.493  -0.777  -1.793  0.00  0.00    -0.002 A 
ATOM      3  C4  UNL d   1       0.624  -1.882  -2.635  0.00  0.00     0.004 A 
ATOM      4  C5  UNL d   1       0.360  -3.165  -2.157  0.00  0.00    -0.004 A 
ATOM      5  C6  UNL d   1      -0.043  -3.354  -0.831  0.00  0.00    -0.075 A 
ATOM      6  C7  UNL d   1      -0.328  -4.729  -0.300  0.00  0.00     0.076 C 
ATOM      7  C8  UNL d   1      -0.170  -2.240   0.010  0.00  0.00     0.001 A 
ENDROOT
BRANCH   1   8
ATOM      8  C1  UNL d   1      -0.047   0.243   0.452  0.00  0.00     0.053 C 
ATOM      9  C   UNL d   1      -0.046   1.554  -0.318  0.00  0.00     0.018 C 
ENDBRANCH   1   8
TORSDOF 1
ENDMDL
