MODEL 1
REMARK minimizedAffinity -3.5904305
REMARK minimizedRMSD -1
REMARK  1 active torsions:
REMARK  status: ('A' for Active; 'I' for Inactive)
REMARK    1  A    between atoms: C1_2  and  C2_3 
ROOT
ATOM      1  C2  UNL d   1       0.298  -2.095  -0.925  0.00  0.00    -0.073 A 
ATOM      2  C3  UNL d   1      -0.586  -2.643   0.011  0.00  0.00    -0.002 A 
ATOM      3  C4  UNL d   1      -1.207  -1.825   0.956  0.00  0.00     0.004 A 
ATOM      4  C5  UNL d   1      -0.957  -0.453   0.971  0.00  0.00    -0.004 A 
ATOM      5  C6  UNL d   1      -0.086   0.115   0.035  0.00  0.00    -0.075 A 
ATOM      6  C7  UNL d   1       0.196   1.588   0.039  0.00  0.00     0.076 C 
ATOM      7  C8  UNL d   1       0.536  -0.713  -0.909  0.00  0.00     0.001 A 
ENDROOT
BRANCH   1   8
ATOM      8  C1  UNL d   1       0.966  -2.973  -1.952  0.00  0.00     0.053 C 
ATOM      9  C   UNL d   1       0.531  -2.627  -3.367  0.00  0.00     0.018 C 
ENDBRANCH   1   8
TORSDOF 1
ENDMDL
