MODEL 1
REMARK minimizedAffinity -5.53999567
REMARK minimizedRMSD -1
REMARK  1 active torsions:
REMARK  status: ('A' for Active; 'I' for Inactive)
REMARK    1  A    between atoms: C1_2  and  C2_3 
ROOT
ATOM      1  C2  UNL d   1      -0.285  -2.134  -0.674  0.00  0.00    -0.073 A 
ATOM      2  C3  UNL d   1      -1.065  -2.191   0.487  0.00  0.00    -0.002 A 
ATOM      3  C4  UNL d   1      -1.256  -1.049   1.265  0.00  0.00     0.004 A 
ATOM      4  C5  UNL d   1      -0.675   0.162   0.888  0.00  0.00    -0.004 A 
ATOM      5  C6  UNL d   1       0.098   0.242  -0.275  0.00  0.00    -0.075 A 
ATOM      6  C7  UNL d   1       0.731   1.537  -0.693  0.00  0.00     0.076 C 
ATOM      7  C8  UNL d   1       0.287  -0.910  -1.050  0.00  0.00     0.001 A 
ENDROOT
BRANCH   1   8
ATOM      8  C1  UNL d   1      -0.081  -3.364  -1.520  0.00  0.00     0.053 C 
ATOM      9  C   UNL d   1       0.115  -3.020  -2.988  0.00  0.00     0.018 C 
ENDBRANCH   1   8
TORSDOF 1
ENDMDL
