MODEL 1
REMARK minimizedAffinity 6.53024864
REMARK minimizedRMSD -1
REMARK  1 active torsions:
REMARK  status: ('A' for Active; 'I' for Inactive)
REMARK    1  A    between atoms: C3_4  and  O_7 
ROOT
ATOM      1  C   UNL d   1      -5.596  -1.795   5.859  0.00  0.00    -0.033 A 
ATOM      2  C1  UNL d   1      -5.999  -0.466   6.000  0.00  0.00     0.039 A 
ATOM      3  C2  UNL d   1      -5.761   0.450   4.973  0.00  0.00    -0.080 A 
ATOM      4  C3  UNL d   1      -5.121   0.024   3.812  0.00  0.00     0.150 A 
ATOM      5  C4  UNL d   1      -4.720  -1.299   3.664  0.00  0.00    -0.007 A 
ATOM      6  C5  UNL d   1      -4.958  -2.212   4.690  0.00  0.00     0.039 A 
ENDROOT
BRANCH   4   7
ATOM      7  O   UNL d   1      -4.863   0.883   2.785  0.00  0.00    -0.526 OA
ATOM      8  H5  UNL d   1      -5.170   1.769   3.040  0.00  0.00     0.418 HD
ENDBRANCH   4   7
TORSDOF 1
ENDMDL
