MODEL 1
REMARK minimizedAffinity -0.107725263
REMARK minimizedRMSD -1
REMARK  1 active torsions:
REMARK  status: ('A' for Active; 'I' for Inactive)
REMARK    1  A    between atoms: C3_4  and  O_7 
ROOT
ATOM      1  C   UNL d   1      -1.201   2.052   0.150  0.00  0.00    -0.033 A 
ATOM      2  C1  UNL d   1      -0.911   3.246   0.813  0.00  0.00     0.039 A 
ATOM      3  C2  UNL d   1      -0.106   4.209   0.200  0.00  0.00    -0.080 A 
ATOM      4  C3  UNL d   1       0.400   3.966  -1.074  0.00  0.00     0.150 A 
ATOM      5  C4  UNL d   1       0.111   2.780  -1.742  0.00  0.00    -0.007 A 
ATOM      6  C5  UNL d   1      -0.691   1.819  -1.128  0.00  0.00     0.039 A 
ENDROOT
BRANCH   4   7
ATOM      7  O   UNL d   1       1.193   4.873  -1.711  0.00  0.00    -0.526 OA
ATOM      8  H5  UNL d   1       1.330   5.631  -1.118  0.00  0.00     0.418 HD
ENDBRANCH   4   7
TORSDOF 1
ENDMDL
