MODEL 1
REMARK minimizedAffinity -0.066638045
REMARK minimizedRMSD -1
REMARK  1 active torsions:
REMARK  status: ('A' for Active; 'I' for Inactive)
REMARK    1  A    between atoms: C3_4  and  O_7 
ROOT
ATOM      1  C   UNL d   1       0.583   5.035   0.228  0.00  0.00    -0.033 A 
ATOM      2  C1  UNL d   1      -0.711   4.895   0.734  0.00  0.00     0.039 A 
ATOM      3  C2  UNL d   1      -0.995   3.893   1.663  0.00  0.00    -0.080 A 
ATOM      4  C3  UNL d   1       0.023   3.039   2.080  0.00  0.00     0.150 A 
ATOM      5  C4  UNL d   1       1.315   3.175   1.583  0.00  0.00    -0.007 A 
ATOM      6  C5  UNL d   1       1.597   4.176   0.654  0.00  0.00     0.039 A 
ENDROOT
BRANCH   4   7
ATOM      7  O   UNL d   1      -0.206   2.043   2.981  0.00  0.00    -0.526 OA
ATOM      8  H5  UNL d   1      -1.150   2.050   3.215  0.00  0.00     0.418 HD
ENDBRANCH   4   7
TORSDOF 1
ENDMDL
