MODEL 1
REMARK minimizedAffinity 1.09025443
REMARK minimizedRMSD -1
REMARK  1 active torsions:
REMARK  status: ('A' for Active; 'I' for Inactive)
REMARK    1  A    between atoms: C3_4  and  O_7 
ROOT
ATOM      1  C   UNL d   1      -4.163   3.444  -5.435  0.00  0.00    -0.033 A 
ATOM      2  C1  UNL d   1      -3.540   2.626  -4.490  0.00  0.00     0.039 A 
ATOM      3  C2  UNL d   1      -4.145   2.399  -3.253  0.00  0.00    -0.080 A 
ATOM      4  C3  UNL d   1      -5.372   2.995  -2.973  0.00  0.00     0.150 A 
ATOM      5  C4  UNL d   1      -6.000   3.808  -3.911  0.00  0.00    -0.007 A 
ATOM      6  C5  UNL d   1      -5.393   4.034  -5.145  0.00  0.00     0.039 A 
ENDROOT
BRANCH   4   7
ATOM      7  O   UNL d   1      -5.999   2.807  -1.777  0.00  0.00    -0.526 OA
ATOM      8  H5  UNL d   1      -5.435   2.246  -1.218  0.00  0.00     0.418 HD
ENDBRANCH   4   7
TORSDOF 1
ENDMDL
