MODEL 1
REMARK minimizedAffinity 4.48990726
REMARK minimizedRMSD -1
REMARK  1 active torsions:
REMARK  status: ('A' for Active; 'I' for Inactive)
REMARK    1  A    between atoms: C3_4  and  O_7 
ROOT
ATOM      1  C   UNL d   1       0.078  -4.328  -1.742  0.00  0.00    -0.033 A 
ATOM      2  C1  UNL d   1      -0.347  -3.497  -2.781  0.00  0.00     0.039 A 
ATOM      3  C2  UNL d   1      -0.043  -2.135  -2.755  0.00  0.00    -0.080 A 
ATOM      4  C3  UNL d   1       0.685  -1.616  -1.688  0.00  0.00     0.150 A 
ATOM      5  C4  UNL d   1       1.115  -2.439  -0.653  0.00  0.00    -0.007 A 
ATOM      6  C5  UNL d   1       0.811  -3.799  -0.679  0.00  0.00     0.039 A 
ENDROOT
BRANCH   4   7
ATOM      7  O   UNL d   1       1.001  -0.292  -1.618  0.00  0.00    -0.526 OA
ATOM      8  H5  UNL d   1       0.614   0.158  -2.387  0.00  0.00     0.418 HD
ENDBRANCH   4   7
TORSDOF 1
ENDMDL
