MODEL 1
REMARK minimizedAffinity 5.257411
REMARK minimizedRMSD -1
REMARK  1 active torsions:
REMARK  status: ('A' for Active; 'I' for Inactive)
REMARK    1  A    between atoms: C3_4  and  O_7 
ROOT
ATOM      1  C   UNL d   1      -0.437   2.686   3.305  0.00  0.00    -0.033 A 
ATOM      2  C1  UNL d   1       0.905   2.408   3.035  0.00  0.00     0.039 A 
ATOM      3  C2  UNL d   1       1.318   2.156   1.726  0.00  0.00    -0.080 A 
ATOM      4  C3  UNL d   1       0.381   2.186   0.696  0.00  0.00     0.150 A 
ATOM      5  C4  UNL d   1      -0.956   2.467   0.957  0.00  0.00    -0.007 A 
ATOM      6  C5  UNL d   1      -1.367   2.717   2.265  0.00  0.00     0.039 A 
ENDROOT
BRANCH   4   7
ATOM      7  O   UNL d   1       0.736   1.943  -0.598  0.00  0.00    -0.526 OA
ATOM      8  H5  UNL d   1       1.685   1.736  -0.622  0.00  0.00     0.418 HD
ENDBRANCH   4   7
TORSDOF 1
ENDMDL
