MODEL 1
REMARK minimizedAffinity -0.118759431
REMARK minimizedRMSD -1
REMARK  1 active torsions:
REMARK  status: ('A' for Active; 'I' for Inactive)
REMARK    1  A    between atoms: C3_4  and  O_7 
ROOT
ATOM      1  C   UNL d   1       0.947   3.352  -0.148  0.00  0.00    -0.033 A 
ATOM      2  C1  UNL d   1       1.033   4.220  -1.239  0.00  0.00     0.039 A 
ATOM      3  C2  UNL d   1      -0.129   4.724  -1.826  0.00  0.00    -0.080 A 
ATOM      4  C3  UNL d   1      -1.369   4.354  -1.313  0.00  0.00     0.150 A 
ATOM      5  C4  UNL d   1      -1.463   3.493  -0.225  0.00  0.00    -0.007 A 
ATOM      6  C5  UNL d   1      -0.301   2.990   0.360  0.00  0.00     0.039 A 
ENDROOT
BRANCH   4   7
ATOM      7  O   UNL d   1      -2.531   4.817  -1.855  0.00  0.00    -0.526 OA
ATOM      8  H5  UNL d   1      -2.313   5.379  -2.618  0.00  0.00     0.418 HD
ENDBRANCH   4   7
TORSDOF 1
ENDMDL
