MODEL 1
REMARK minimizedAffinity 3.19701767
REMARK minimizedRMSD -1
REMARK  1 active torsions:
REMARK  status: ('A' for Active; 'I' for Inactive)
REMARK    1  A    between atoms: C3_4  and  O_7 
ROOT
ATOM      1  C   UNL d   1      -1.024   3.578   1.139  0.00  0.00    -0.033 A 
ATOM      2  C1  UNL d   1      -1.049   4.904   0.703  0.00  0.00     0.039 A 
ATOM      3  C2  UNL d   1       0.025   5.423  -0.022  0.00  0.00    -0.080 A 
ATOM      4  C3  UNL d   1       1.117   4.606  -0.305  0.00  0.00     0.150 A 
ATOM      5  C4  UNL d   1       1.147   3.283   0.123  0.00  0.00    -0.007 A 
ATOM      6  C5  UNL d   1       0.074   2.767   0.848  0.00  0.00     0.039 A 
ENDROOT
BRANCH   4   7
ATOM      7  O   UNL d   1       2.191   5.070  -1.006  0.00  0.00    -0.526 OA
ATOM      8  H5  UNL d   1       2.043   6.008  -1.211  0.00  0.00     0.418 HD
ENDBRANCH   4   7
TORSDOF 1
ENDMDL
