MODEL 1
REMARK minimizedAffinity 0.78358072
REMARK minimizedRMSD -1
REMARK  1 active torsions:
REMARK  status: ('A' for Active; 'I' for Inactive)
REMARK    1  A    between atoms: C3_4  and  O_7 
ROOT
ATOM      1  C   UNL d   1      -4.559   4.281  -3.745  0.00  0.00    -0.033 A 
ATOM      2  C1  UNL d   1      -5.504   4.500  -2.741  0.00  0.00     0.039 A 
ATOM      3  C2  UNL d   1      -6.000   3.425  -2.000  0.00  0.00    -0.080 A 
ATOM      4  C3  UNL d   1      -5.542   2.139  -2.271  0.00  0.00     0.150 A 
ATOM      5  C4  UNL d   1      -4.597   1.915  -3.267  0.00  0.00    -0.007 A 
ATOM      6  C5  UNL d   1      -4.104   2.989  -4.007  0.00  0.00     0.039 A 
ENDROOT
BRANCH   4   7
ATOM      7  O   UNL d   1      -6.000   1.058  -1.578  0.00  0.00    -0.526 OA
ATOM      8  H5  UNL d   1      -6.669   1.362  -0.942  0.00  0.00     0.418 HD
ENDBRANCH   4   7
TORSDOF 1
ENDMDL
