MODEL 1
REMARK minimizedAffinity -0.0175103117
REMARK minimizedRMSD -1
REMARK  1 active torsions:
REMARK  status: ('A' for Active; 'I' for Inactive)
REMARK    1  A    between atoms: C3_4  and  O_7 
ROOT
ATOM      1  C   UNL d   1      -4.118   4.158  -5.932  0.00  0.00    -0.033 A 
ATOM      2  C1  UNL d   1      -3.335   3.820  -4.827  0.00  0.00     0.039 A 
ATOM      3  C2  UNL d   1      -3.883   3.075  -3.782  0.00  0.00    -0.080 A 
ATOM      4  C3  UNL d   1      -5.214   2.674  -3.853  0.00  0.00     0.150 A 
ATOM      5  C4  UNL d   1      -6.000   3.004  -4.953  0.00  0.00    -0.007 A 
ATOM      6  C5  UNL d   1      -5.451   3.749  -5.996  0.00  0.00     0.039 A 
ENDROOT
BRANCH   4   7
ATOM      7  O   UNL d   1      -5.795   1.949  -2.855  0.00  0.00    -0.526 OA
ATOM      8  H5  UNL d   1      -5.141   1.820  -2.148  0.00  0.00     0.418 HD
ENDBRANCH   4   7
TORSDOF 1
ENDMDL
