MODEL 1
REMARK minimizedAffinity -0.262366414
REMARK minimizedRMSD -1
REMARK  0 active torsions:
REMARK  status: ('A' for Active; 'I' for Inactive)
ROOT
ATOM      1  C   UNL d   1      -0.625  -0.239  -0.193  0.00  0.00     0.124 A 
ATOM      2  C1  UNL d   1      -1.131  -0.556   1.060  0.00  0.00     0.062 A 
ATOM      3  C2  UNL d   1      -0.513  -1.530   1.839  0.00  0.00     0.162 A 
ATOM      4  C3  UNL d   1       0.619  -2.194   1.367  0.00  0.00    -0.034 A 
ATOM      5  C4  UNL d   1       1.122  -1.871   0.105  0.00  0.00     0.162 A 
ATOM      6  C5  UNL d   1       0.500  -0.897  -0.670  0.00  0.00     0.062 A 
ATOM      7  F   UNL d   1       0.990  -0.593  -1.880  0.00  0.00    -0.097 F 
ATOM      8  F1  UNL d   1       2.209  -2.490  -0.379  0.00  0.00    -0.096 F 
ATOM      9  I   UNL d   1       1.547  -3.651   2.528  0.00  0.00    -0.060 I 
ATOM     10  F2  UNL d   1      -1.023  -1.815   3.046  0.00  0.00    -0.096 F 
ATOM     11  F3  UNL d   1      -2.219   0.078   1.522  0.00  0.00    -0.097 F 
ATOM     12  F4  UNL d   1      -1.222   0.698  -0.941  0.00  0.00    -0.092 F 
ENDROOT
TORSDOF 0
ENDMDL
