MODEL 1
REMARK minimizedAffinity 5.80147982
REMARK minimizedRMSD -1
REMARK  0 active torsions:
REMARK  status: ('A' for Active; 'I' for Inactive)
ROOT
ATOM      1  C   UNL d   1      -1.550  -0.137   1.548  0.00  0.00     0.124 A 
ATOM      2  C1  UNL d   1      -0.620  -0.017   0.524  0.00  0.00     0.062 A 
ATOM      3  C2  UNL d   1       0.371  -0.980   0.363  0.00  0.00     0.162 A 
ATOM      4  C3  UNL d   1       0.437  -2.074   1.226  0.00  0.00    -0.034 A 
ATOM      5  C4  UNL d   1      -0.501  -2.188   2.253  0.00  0.00     0.162 A 
ATOM      6  C5  UNL d   1      -1.490  -1.222   2.411  0.00  0.00     0.062 A 
ATOM      7  F   UNL d   1      -2.388  -1.340   3.400  0.00  0.00    -0.097 F 
ATOM      8  F1  UNL d   1      -0.467  -3.227   3.101  0.00  0.00    -0.096 F 
ATOM      9  I   UNL d   1       1.918  -3.517   0.987  0.00  0.00    -0.060 I 
ATOM     10  F2  UNL d   1       1.257  -0.839  -0.635  0.00  0.00    -0.096 F 
ATOM     11  F3  UNL d   1      -0.675   1.031  -0.310  0.00  0.00    -0.097 F 
ATOM     12  F4  UNL d   1      -2.502   0.792   1.701  0.00  0.00    -0.092 F 
ENDROOT
TORSDOF 0
ENDMDL
