MODEL 1
REMARK minimizedAffinity 9.69816303
REMARK minimizedRMSD -1
REMARK  0 active torsions:
REMARK  status: ('A' for Active; 'I' for Inactive)
ROOT
ATOM      1  C   UNL d   1      -1.309  -0.628   1.452  0.00  0.00     0.124 A 
ATOM      2  C1  UNL d   1      -0.908  -0.611   0.123  0.00  0.00     0.062 A 
ATOM      3  C2  UNL d   1       0.204  -1.343  -0.282  0.00  0.00     0.162 A 
ATOM      4  C3  UNL d   1       0.924  -2.099   0.644  0.00  0.00    -0.034 A 
ATOM      5  C4  UNL d   1       0.515  -2.111   1.978  0.00  0.00     0.162 A 
ATOM      6  C5  UNL d   1      -0.598  -1.378   2.378  0.00  0.00     0.062 A 
ATOM      7  F   UNL d   1      -0.984  -1.395   3.662  0.00  0.00    -0.097 F 
ATOM      8  F1  UNL d   1       1.184  -2.828   2.894  0.00  0.00    -0.096 F 
ATOM      9  I   UNL d   1       2.588  -3.195   0.042  0.00  0.00    -0.060 I 
ATOM     10  F2  UNL d   1       0.569  -1.308  -1.572  0.00  0.00    -0.096 F 
ATOM     11  F3  UNL d   1      -1.593   0.114  -0.773  0.00  0.00    -0.097 F 
ATOM     12  F4  UNL d   1      -2.379   0.078   1.839  0.00  0.00    -0.092 F 
ENDROOT
TORSDOF 0
ENDMDL
