MODEL 1
REMARK minimizedAffinity 7.10370207
REMARK minimizedRMSD -1
REMARK  0 active torsions:
REMARK  status: ('A' for Active; 'I' for Inactive)
ROOT
ATOM      1  C   UNL d   1      -1.600  -0.374   1.152  0.00  0.00     0.124 A 
ATOM      2  C1  UNL d   1      -1.084  -0.382  -0.136  0.00  0.00     0.062 A 
ATOM      3  C2  UNL d   1       0.112  -1.042  -0.407  0.00  0.00     0.162 A 
ATOM      4  C3  UNL d   1       0.799  -1.700   0.613  0.00  0.00    -0.034 A 
ATOM      5  C4  UNL d   1       0.273  -1.688   1.906  0.00  0.00     0.162 A 
ATOM      6  C5  UNL d   1      -0.922  -1.027   2.171  0.00  0.00     0.062 A 
ATOM      7  F   UNL d   1      -1.420  -1.021   3.417  0.00  0.00    -0.097 F 
ATOM      8  F1  UNL d   1       0.908  -2.311   2.910  0.00  0.00    -0.096 F 
ATOM      9  I   UNL d   1       2.586  -2.688   0.212  0.00  0.00    -0.060 I 
ATOM     10  F2  UNL d   1       0.588  -1.033  -1.661  0.00  0.00    -0.096 F 
ATOM     11  F3  UNL d   1      -1.737   0.248  -1.123  0.00  0.00    -0.097 F 
ATOM     12  F4  UNL d   1      -2.750   0.262   1.410  0.00  0.00    -0.092 F 
ENDROOT
TORSDOF 0
ENDMDL
