MODEL 1
REMARK minimizedAffinity -4.68327475
REMARK minimizedRMSD -1
REMARK  0 active torsions:
REMARK  status: ('A' for Active; 'I' for Inactive)
ROOT
ATOM      1  C   UNL d   1      -0.762  -0.345   1.405  0.00  0.00     0.124 A 
ATOM      2  C1  UNL d   1       0.001  -0.874   2.436  0.00  0.00     0.062 A 
ATOM      3  C2  UNL d   1       1.073  -1.716   2.153  0.00  0.00     0.162 A 
ATOM      4  C3  UNL d   1       1.388  -2.034   0.832  0.00  0.00    -0.034 A 
ATOM      5  C4  UNL d   1       0.615  -1.499  -0.200  0.00  0.00     0.162 A 
ATOM      6  C5  UNL d   1      -0.455  -0.658   0.088  0.00  0.00     0.062 A 
ATOM      7  F   UNL d   1      -1.192  -0.148  -0.909  0.00  0.00    -0.097 F 
ATOM      8  F1  UNL d   1       0.891  -1.783  -1.481  0.00  0.00    -0.096 F 
ATOM      9  I   UNL d   1       2.990  -3.292   0.404  0.00  0.00    -0.060 I 
ATOM     10  F2  UNL d   1       1.794  -2.213   3.169  0.00  0.00    -0.096 F 
ATOM     11  F3  UNL d   1      -0.294  -0.575   3.709  0.00  0.00    -0.097 F 
ATOM     12  F4  UNL d   1      -1.794   0.463   1.680  0.00  0.00    -0.092 F 
ENDROOT
TORSDOF 0
ENDMDL
