MODEL 1
REMARK minimizedAffinity 9.26817513
REMARK minimizedRMSD -1
REMARK  0 active torsions:
REMARK  status: ('A' for Active; 'I' for Inactive)
ROOT
ATOM      1  C   UNL d   1      -0.973  -0.225   1.706  0.00  0.00     0.124 A 
ATOM      2  C1  UNL d   1      -0.330  -0.994   2.666  0.00  0.00     0.062 A 
ATOM      3  C2  UNL d   1       0.698  -1.857   2.297  0.00  0.00     0.162 A 
ATOM      4  C3  UNL d   1       1.090  -1.955   0.962  0.00  0.00    -0.034 A 
ATOM      5  C4  UNL d   1       0.438  -1.179   0.002  0.00  0.00     0.162 A 
ATOM      6  C5  UNL d   1      -0.589  -0.318   0.376  0.00  0.00     0.062 A 
ATOM      7  F   UNL d   1      -1.209   0.425  -0.553  0.00  0.00    -0.097 F 
ATOM      8  F1  UNL d   1       0.790  -1.248  -1.290  0.00  0.00    -0.096 F 
ATOM      9  I   UNL d   1       2.627  -3.244   0.407  0.00  0.00    -0.060 I 
ATOM     10  F2  UNL d   1       1.301  -2.589   3.245  0.00  0.00    -0.096 F 
ATOM     11  F3  UNL d   1      -0.701  -0.907   3.951  0.00  0.00    -0.097 F 
ATOM     12  F4  UNL d   1      -1.963   0.604   2.063  0.00  0.00    -0.092 F 
ENDROOT
TORSDOF 0
ENDMDL
