MODEL 1
REMARK minimizedAffinity -4.39448214
REMARK minimizedRMSD -1
REMARK  0 active torsions:
REMARK  status: ('A' for Active; 'I' for Inactive)
ROOT
ATOM      1  O1  BZF d   1      -1.615   1.101  -0.473  0.00  0.00    -0.204 OA
ATOM      2  C2  BZF d   1      -0.666   0.943  -1.464  0.00  0.00     0.174 A 
ATOM      3  C3  BZF d   1       0.510   0.541  -0.940  0.00  0.00    -0.012 A 
ATOM      4  C3A BZF d   1       0.256   0.352   0.455  0.00  0.00    -0.107 A 
ATOM      5  C4  BZF d   1       1.030  -0.056   1.503  0.00  0.00     0.055 A 
ATOM      6  C5  BZF d   1       0.498  -0.062   2.754  0.00  0.00    -0.016 A 
ATOM      7  C6  BZF d   1      -0.800   0.338   2.993  0.00  0.00     0.022 A 
ATOM      8  C7  BZF d   1      -1.608   0.747   1.984  0.00  0.00     0.029 A 
ATOM      9  C7A BZF d   1      -1.084   0.723   0.715  0.00  0.00     0.058 A 
ENDROOT
TORSDOF 0
ENDMDL
