MODEL 1
REMARK minimizedAffinity -4.3344655
REMARK minimizedRMSD -1
REMARK  0 active torsions:
REMARK  status: ('A' for Active; 'I' for Inactive)
ROOT
ATOM      1  O1  BZF d   1      -2.241   0.141   0.565  0.00  0.00    -0.204 OA
ATOM      2  C2  BZF d   1      -2.826  -0.091   1.795  0.00  0.00     0.174 A 
ATOM      3  C3  BZF d   1      -1.887  -0.219   2.754  0.00  0.00    -0.012 A 
ATOM      4  C3A BZF d   1      -0.641   0.034   2.098  0.00  0.00    -0.107 A 
ATOM      5  C4  BZF d   1       0.656   0.069   2.525  0.00  0.00     0.055 A 
ATOM      6  C5  BZF d   1       1.646   0.273   1.617  0.00  0.00    -0.016 A 
ATOM      7  C6  BZF d   1       1.376   0.442   0.275  0.00  0.00     0.022 A 
ATOM      8  C7  BZF d   1       0.105   0.420  -0.196  0.00  0.00     0.029 A 
ATOM      9  C7A BZF d   1      -0.900   0.246   0.724  0.00  0.00     0.058 A 
ENDROOT
TORSDOF 0
ENDMDL
