MODEL 1
REMARK minimizedAffinity -4.79946995
REMARK minimizedRMSD -1
REMARK  0 active torsions:
REMARK  status: ('A' for Active; 'I' for Inactive)
ROOT
ATOM      1  O1  BZF d   1      -1.377   0.396  -0.436  0.00  0.00    -0.204 OA
ATOM      2  C2  BZF d   1      -0.085   0.336  -0.923  0.00  0.00     0.174 A 
ATOM      3  C3  BZF d   1       0.774  -0.040   0.046  0.00  0.00    -0.012 A 
ATOM      4  C3A BZF d   1      -0.043  -0.316   1.187  0.00  0.00    -0.107 A 
ATOM      5  C4  BZF d   1       0.229  -0.746   2.455  0.00  0.00     0.055 A 
ATOM      6  C5  BZF d   1      -0.787  -0.844   3.351  0.00  0.00    -0.016 A 
ATOM      7  C6  BZF d   1      -2.085  -0.517   3.016  0.00  0.00     0.022 A 
ATOM      8  C7  BZF d   1      -2.404  -0.091   1.770  0.00  0.00     0.029 A 
ATOM      9  C7A BZF d   1      -1.385  -0.022   0.852  0.00  0.00     0.058 A 
ENDROOT
TORSDOF 0
ENDMDL
