MODEL 1
REMARK minimizedAffinity -4.3956809
REMARK minimizedRMSD -1
REMARK  0 active torsions:
REMARK  status: ('A' for Active; 'I' for Inactive)
ROOT
ATOM      1  O1  BZF d   1       3.627  -1.424  -3.538  0.00  0.00    -0.204 OA
ATOM      2  C2  BZF d   1       4.353  -0.360  -3.037  0.00  0.00     0.174 A 
ATOM      3  C3  BZF d   1       3.543   0.519  -2.411  0.00  0.00    -0.012 A 
ATOM      4  C3A BZF d   1       2.243  -0.076  -2.447  0.00  0.00    -0.107 A 
ATOM      5  C4  BZF d   1       1.021   0.308  -1.974  0.00  0.00     0.055 A 
ATOM      6  C5  BZF d   1      -0.064  -0.466  -2.240  0.00  0.00    -0.016 A 
ATOM      7  C6  BZF d   1       0.036  -1.627  -2.978  0.00  0.00     0.022 A 
ATOM      8  C7  BZF d   1       1.227  -2.052  -3.465  0.00  0.00     0.029 A 
ATOM      9  C7A BZF d   1       2.331  -1.289  -3.170  0.00  0.00     0.058 A 
ENDROOT
TORSDOF 0
ENDMDL
