MODEL 1
REMARK minimizedAffinity -3.10076904
REMARK minimizedRMSD -1
REMARK  0 active torsions:
REMARK  status: ('A' for Active; 'I' for Inactive)
ROOT
ATOM      1  O1  BZF d   1       1.314   0.574   2.211  0.00  0.00    -0.204 OA
ATOM      2  C2  BZF d   1       2.613   0.867   1.843  0.00  0.00     0.174 A 
ATOM      3  C3  BZF d   1       2.793   0.665   0.522  0.00  0.00    -0.012 A 
ATOM      4  C3A BZF d   1       1.504   0.306   0.017  0.00  0.00    -0.107 A 
ATOM      5  C4  BZF d   1       1.036  -0.001  -1.229  0.00  0.00     0.055 A 
ATOM      6  C5  BZF d   1      -0.261  -0.379  -1.373  0.00  0.00    -0.016 A 
ATOM      7  C6  BZF d   1      -1.116  -0.465  -0.293  0.00  0.00     0.022 A 
ATOM      8  C7  BZF d   1      -0.699  -0.165   0.961  0.00  0.00     0.029 A 
ATOM      9  C7A BZF d   1       0.602   0.249   1.105  0.00  0.00     0.058 A 
ENDROOT
TORSDOF 0
ENDMDL
