MODEL 1
REMARK minimizedAffinity -2.95427537
REMARK minimizedRMSD -1
REMARK  0 active torsions:
REMARK  status: ('A' for Active; 'I' for Inactive)
ROOT
ATOM      1  O1  BZF d   1      -0.862  -1.008  -0.582  0.00  0.00    -0.204 OA
ATOM      2  C2  BZF d   1       0.016  -0.488  -1.513  0.00  0.00     0.174 A 
ATOM      3  C3  BZF d   1       0.897   0.348  -0.926  0.00  0.00    -0.012 A 
ATOM      4  C3A BZF d   1       0.606   0.279   0.473  0.00  0.00    -0.107 A 
ATOM      5  C4  BZF d   1       1.150   0.873   1.575  0.00  0.00     0.055 A 
ATOM      6  C5  BZF d   1       0.586   0.651   2.792  0.00  0.00    -0.016 A 
ATOM      7  C6  BZF d   1      -0.524  -0.154   2.941  0.00  0.00     0.022 A 
ATOM      8  C7  BZF d   1      -1.097  -0.768   1.877  0.00  0.00     0.029 A 
ATOM      9  C7A BZF d   1      -0.509  -0.572   0.651  0.00  0.00     0.058 A 
ENDROOT
TORSDOF 0
ENDMDL
