MODEL 1
REMARK minimizedAffinity -4.00314474
REMARK minimizedRMSD -1
REMARK  0 active torsions:
REMARK  status: ('A' for Active; 'I' for Inactive)
ROOT
ATOM      1  O1  BZF d   1      -0.665  -1.488  -0.531  0.00  0.00    -0.204 OA
ATOM      2  C2  BZF d   1       0.014  -0.591  -1.332  0.00  0.00     0.174 A 
ATOM      3  C3  BZF d   1       0.478   0.444  -0.603  0.00  0.00    -0.012 A 
ATOM      4  C3A BZF d   1       0.142   0.131   0.752  0.00  0.00    -0.107 A 
ATOM      5  C4  BZF d   1       0.352   0.767   1.943  0.00  0.00     0.055 A 
ATOM      6  C5  BZF d   1      -0.168   0.230   3.078  0.00  0.00    -0.016 A 
ATOM      7  C6  BZF d   1      -0.905  -0.936   3.059  0.00  0.00     0.022 A 
ATOM      8  C7  BZF d   1      -1.134  -1.605   1.903  0.00  0.00     0.029 A 
ATOM      9  C7A BZF d   1      -0.583  -1.083   0.759  0.00  0.00     0.058 A 
ENDROOT
TORSDOF 0
ENDMDL
