MODEL 1
REMARK minimizedAffinity -3.70447874
REMARK minimizedRMSD -1
REMARK  0 active torsions:
REMARK  status: ('A' for Active; 'I' for Inactive)
ROOT
ATOM      1  O1  BZF d   1      -1.382  -0.079   0.396  0.00  0.00    -0.204 OA
ATOM      2  C2  BZF d   1      -0.813   0.145  -0.843  0.00  0.00     0.174 A 
ATOM      3  C3  BZF d   1       0.390   0.741  -0.716  0.00  0.00    -0.012 A 
ATOM      4  C3A BZF d   1       0.626   0.815   0.693  0.00  0.00    -0.107 A 
ATOM      5  C4  BZF d   1       1.660   1.291   1.448  0.00  0.00     0.055 A 
ATOM      6  C5  BZF d   1       1.548   1.282   2.802  0.00  0.00    -0.016 A 
ATOM      7  C6  BZF d   1       0.416   0.811   3.434  0.00  0.00     0.022 A 
ATOM      8  C7  BZF d   1      -0.634   0.325   2.727  0.00  0.00     0.029 A 
ATOM      9  C7A BZF d   1      -0.510   0.302   1.360  0.00  0.00     0.058 A 
ENDROOT
TORSDOF 0
ENDMDL
