MODEL 1
REMARK minimizedAffinity -2.37721515
REMARK minimizedRMSD -1
REMARK  0 active torsions:
REMARK  status: ('A' for Active; 'I' for Inactive)
ROOT
ATOM      1  O1  BZF d   1      -0.902   0.286  -0.783  0.00  0.00    -0.204 OA
ATOM      2  C2  BZF d   1       0.273   0.119  -1.490  0.00  0.00     0.174 A 
ATOM      3  C3  BZF d   1       1.306  -0.113  -0.655  0.00  0.00    -0.012 A 
ATOM      4  C3A BZF d   1       0.726  -0.180   0.651  0.00  0.00    -0.107 A 
ATOM      5  C4  BZF d   1       1.239  -0.402   1.897  0.00  0.00     0.055 A 
ATOM      6  C5  BZF d   1       0.414  -0.331   2.974  0.00  0.00    -0.016 A 
ATOM      7  C6  BZF d   1      -0.927  -0.035   2.843  0.00  0.00     0.022 A 
ATOM      8  C7  BZF d   1      -1.483   0.188   1.628  0.00  0.00     0.029 A 
ATOM      9  C7A BZF d   1      -0.659   0.084   0.534  0.00  0.00     0.058 A 
ENDROOT
TORSDOF 0
ENDMDL
