MODEL 1
REMARK minimizedAffinity -5.67383575
REMARK minimizedRMSD -1
REMARK  0 active torsions:
REMARK  status: ('A' for Active; 'I' for Inactive)
ROOT
ATOM      1  O1  BZF d   1      -1.057   0.392  -1.072  0.00  0.00    -0.204 OA
ATOM      2  C2  BZF d   1       0.315   0.249  -1.144  0.00  0.00     0.174 A 
ATOM      3  C3  BZF d   1       0.847   0.109   0.087  0.00  0.00    -0.012 A 
ATOM      4  C3A BZF d   1      -0.272   0.076   0.979  0.00  0.00    -0.107 A 
ATOM      5  C4  BZF d   1      -0.390  -0.060   2.332  0.00  0.00     0.055 A 
ATOM      6  C5  BZF d   1      -1.622   0.023   2.899  0.00  0.00    -0.016 A 
ATOM      7  C6  BZF d   1      -2.755   0.247   2.145  0.00  0.00     0.022 A 
ATOM      8  C7  BZF d   1      -2.689   0.383   0.798  0.00  0.00     0.029 A 
ATOM      9  C7A BZF d   1      -1.449   0.267   0.219  0.00  0.00     0.058 A 
ENDROOT
TORSDOF 0
ENDMDL
