MODEL 1
REMARK minimizedAffinity -4.05940866
REMARK minimizedRMSD -1
REMARK  0 active torsions:
REMARK  status: ('A' for Active; 'I' for Inactive)
ROOT
ATOM      1  O1  BZF d   1      -0.877  -0.136  -0.716  0.00  0.00    -0.204 OA
ATOM      2  C2  BZF d   1       0.314   0.281  -1.279  0.00  0.00     0.174 A 
ATOM      3  C3  BZF d   1       1.249   0.480  -0.327  0.00  0.00    -0.012 A 
ATOM      4  C3A BZF d   1       0.629   0.079   0.899  0.00  0.00    -0.107 A 
ATOM      5  C4  BZF d   1       1.056   0.030   2.195  0.00  0.00     0.055 A 
ATOM      6  C5  BZF d   1       0.180  -0.341   3.166  0.00  0.00    -0.016 A 
ATOM      7  C6  BZF d   1      -1.130  -0.663   2.877  0.00  0.00     0.022 A 
ATOM      8  C7  BZF d   1      -1.598  -0.634   1.606  0.00  0.00     0.029 A 
ATOM      9  C7A BZF d   1      -0.707  -0.292   0.619  0.00  0.00     0.058 A 
ENDROOT
TORSDOF 0
ENDMDL
