MODEL 1
REMARK minimizedAffinity -6.10054493
REMARK minimizedRMSD -1
REMARK  0 active torsions:
REMARK  status: ('A' for Active; 'I' for Inactive)
ROOT
ATOM      1  O1  BZF d   1      -1.805   0.744  -0.553  0.00  0.00    -0.204 OA
ATOM      2  C2  BZF d   1      -0.731   0.968  -1.392  0.00  0.00     0.174 A 
ATOM      3  C3  BZF d   1       0.431   0.693  -0.766  0.00  0.00    -0.012 A 
ATOM      4  C3A BZF d   1       0.056   0.182   0.517  0.00  0.00    -0.107 A 
ATOM      5  C4  BZF d   1       0.766  -0.280   1.588  0.00  0.00     0.055 A 
ATOM      6  C5  BZF d   1       0.099  -0.638   2.717  0.00  0.00    -0.016 A 
ATOM      7  C6  BZF d   1      -1.274  -0.541   2.812  0.00  0.00     0.022 A 
ATOM      8  C7  BZF d   1      -2.021  -0.093   1.773  0.00  0.00     0.029 A 
ATOM      9  C7A BZF d   1      -1.354   0.238   0.620  0.00  0.00     0.058 A 
ENDROOT
TORSDOF 0
ENDMDL
