MODEL 1
REMARK minimizedAffinity -6.37469244
REMARK minimizedRMSD -1
REMARK  0 active torsions:
REMARK  status: ('A' for Active; 'I' for Inactive)
ROOT
ATOM      1  O1  BZF d   1      -0.289   0.312  -0.699  0.00  0.00    -0.204 OA
ATOM      2  C2  BZF d   1       1.061   0.582  -0.817  0.00  0.00     0.174 A 
ATOM      3  C3  BZF d   1       1.653   0.597   0.394  0.00  0.00    -0.012 A 
ATOM      4  C3A BZF d   1       0.627   0.228   1.320  0.00  0.00    -0.107 A 
ATOM      5  C4  BZF d   1       0.602   0.053   2.674  0.00  0.00     0.055 A 
ATOM      6  C5  BZF d   1      -0.579  -0.237   3.281  0.00  0.00    -0.016 A 
ATOM      7  C6  BZF d   1      -1.753  -0.354   2.567  0.00  0.00     0.022 A 
ATOM      8  C7  BZF d   1      -1.778  -0.194   1.221  0.00  0.00     0.029 A 
ATOM      9  C7A BZF d   1      -0.580   0.066   0.601  0.00  0.00     0.058 A 
ENDROOT
TORSDOF 0
ENDMDL
