MODEL 1
REMARK minimizedAffinity -4.96127558
REMARK minimizedRMSD -1
REMARK  0 active torsions:
REMARK  status: ('A' for Active; 'I' for Inactive)
ROOT
ATOM      1  O1  BZF d   1      -0.751   0.205  -0.357  0.00  0.00    -0.204 OA
ATOM      2  C2  BZF d   1       0.622   0.357  -0.320  0.00  0.00     0.174 A 
ATOM      3  C3  BZF d   1       1.076   0.299   0.948  0.00  0.00    -0.012 A 
ATOM      4  C3A BZF d   1      -0.075   0.006   1.747  0.00  0.00    -0.107 A 
ATOM      5  C4  BZF d   1      -0.264  -0.189   3.085  0.00  0.00     0.055 A 
ATOM      6  C5  BZF d   1      -1.525  -0.384   3.553  0.00  0.00    -0.016 A 
ATOM      7  C6  BZF d   1      -2.619  -0.385   2.712  0.00  0.00     0.022 A 
ATOM      8  C7  BZF d   1      -2.481  -0.200   1.377  0.00  0.00     0.029 A 
ATOM      9  C7A BZF d   1      -1.204  -0.036   0.897  0.00  0.00     0.058 A 
ENDROOT
TORSDOF 0
ENDMDL
