MODEL 1
REMARK minimizedAffinity -3.06561041
REMARK minimizedRMSD -1
REMARK  0 active torsions:
REMARK  status: ('A' for Active; 'I' for Inactive)
ROOT
ATOM      1  O1  BZF d   1       0.006  -0.919  -0.694  0.00  0.00    -0.204 OA
ATOM      2  C2  BZF d   1       0.028  -0.262  -1.909  0.00  0.00     0.174 A 
ATOM      3  C3  BZF d   1       0.745   0.877  -1.824  0.00  0.00    -0.012 A 
ATOM      4  C3A BZF d   1       1.276   0.889  -0.496  0.00  0.00    -0.107 A 
ATOM      5  C4  BZF d   1       2.083   1.756   0.185  0.00  0.00     0.055 A 
ATOM      6  C5  BZF d   1       2.357   1.514   1.494  0.00  0.00    -0.016 A 
ATOM      7  C6  BZF d   1       1.837   0.420   2.154  0.00  0.00     0.022 A 
ATOM      8  C7  BZF d   1       1.036  -0.471   1.520  0.00  0.00     0.029 A 
ATOM      9  C7A BZF d   1       0.784  -0.247   0.188  0.00  0.00     0.058 A 
ENDROOT
TORSDOF 0
ENDMDL
