MODEL 1
REMARK minimizedAffinity -4.56903887
REMARK minimizedRMSD -1
REMARK  0 active torsions:
REMARK  status: ('A' for Active; 'I' for Inactive)
ROOT
ATOM      1  O1  BZF d   1       0.987   0.589  -0.243  0.00  0.00    -0.204 OA
ATOM      2  C2  BZF d   1      -0.014   0.447  -1.185  0.00  0.00     0.174 A 
ATOM      3  C3  BZF d   1      -1.054  -0.245  -0.678  0.00  0.00    -0.012 A 
ATOM      4  C3A BZF d   1      -0.719  -0.475   0.694  0.00  0.00    -0.107 A 
ATOM      5  C4  BZF d   1      -1.362  -1.098   1.726  0.00  0.00     0.055 A 
ATOM      6  C5  BZF d   1      -0.730  -1.214   2.923  0.00  0.00    -0.016 A 
ATOM      7  C6  BZF d   1       0.545  -0.726   3.123  0.00  0.00     0.022 A 
ATOM      8  C7  BZF d   1       1.220  -0.096   2.131  0.00  0.00     0.029 A 
ATOM      9  C7A BZF d   1       0.572   0.053   0.929  0.00  0.00     0.058 A 
ENDROOT
TORSDOF 0
ENDMDL
