MODEL 1
REMARK minimizedAffinity -0.550671935
REMARK minimizedRMSD -1
REMARK  0 active torsions:
REMARK  status: ('A' for Active; 'I' for Inactive)
ROOT
ATOM      1  O1  BZF d   1      -0.539   1.167   3.968  0.00  0.00    -0.204 OA
ATOM      2  C2  BZF d   1      -1.756   0.573   3.693  0.00  0.00     0.174 A 
ATOM      3  C3  BZF d   1      -1.792   0.123   2.422  0.00  0.00    -0.012 A 
ATOM      4  C3A BZF d   1      -0.485   0.374   1.896  0.00  0.00    -0.107 A 
ATOM      5  C4  BZF d   1       0.102   0.135   0.687  0.00  0.00     0.055 A 
ATOM      6  C5  BZF d   1       1.372   0.569   0.472  0.00  0.00    -0.016 A 
ATOM      7  C6  BZF d   1       2.081   1.249   1.441  0.00  0.00     0.022 A 
ATOM      8  C7  BZF d   1       1.542   1.505   2.658  0.00  0.00     0.029 A 
ATOM      9  C7A BZF d   1       0.271   1.039   2.889  0.00  0.00     0.058 A 
ENDROOT
TORSDOF 0
ENDMDL
