MODEL 1
REMARK minimizedAffinity -4.90977621
REMARK minimizedRMSD -1
REMARK  0 active torsions:
REMARK  status: ('A' for Active; 'I' for Inactive)
ROOT
ATOM      1  O1  BZF d   1      -2.596   0.286   0.586  0.00  0.00    -0.204 OA
ATOM      2  C2  BZF d   1      -3.468   0.350   1.656  0.00  0.00     0.174 A 
ATOM      3  C3  BZF d   1      -2.810   0.174   2.820  0.00  0.00    -0.012 A 
ATOM      4  C3A BZF d   1      -1.428   0.080   2.460  0.00  0.00    -0.107 A 
ATOM      5  C4  BZF d   1      -0.279  -0.084   3.181  0.00  0.00     0.055 A 
ATOM      6  C5  BZF d   1       0.902  -0.210   2.521  0.00  0.00    -0.016 A 
ATOM      7  C6  BZF d   1       0.971  -0.182   1.143  0.00  0.00     0.022 A 
ATOM      8  C7  BZF d   1      -0.141  -0.017   0.386  0.00  0.00     0.029 A 
ATOM      9  C7A BZF d   1      -1.332   0.144   1.051  0.00  0.00     0.058 A 
ENDROOT
TORSDOF 0
ENDMDL
