MODEL 1
REMARK minimizedAffinity 11.2199478
REMARK minimizedRMSD -1
REMARK  0 active torsions:
REMARK  status: ('A' for Active; 'I' for Inactive)
ROOT
ATOM      1  C   UNL d   1       5.998   0.218   2.995  0.00  0.00     0.078 C 
ATOM      2  C1  UNL d   1       5.418   1.244   2.069  0.00  0.00    -0.077 A 
ATOM      3  C2  UNL d   1       6.000   1.502   0.822  0.00  0.00    -0.001 A 
ATOM      4  C3  UNL d   1       5.454   2.467  -0.026  0.00  0.00     0.003 A 
ATOM      5  C4  UNL d   1       4.324   3.183   0.364  0.00  0.00    -0.005 A 
ATOM      6  C5  UNL d   1       3.739   2.935   1.604  0.00  0.00     0.003 A 
ATOM      7  C6  UNL d   1       4.283   1.971   2.453  0.00  0.00    -0.001 A 
ENDROOT
TORSDOF 0
ENDMDL
