MODEL 1
REMARK minimizedAffinity 6.66807795
REMARK minimizedRMSD -1
REMARK  0 active torsions:
REMARK  status: ('A' for Active; 'I' for Inactive)
ROOT
ATOM      1  C   UNL d   1       5.711   0.039   2.800  0.00  0.00     0.078 C 
ATOM      2  C1  UNL d   1       5.271   1.180   1.932  0.00  0.00    -0.077 A 
ATOM      3  C2  UNL d   1       4.141   1.940   2.259  0.00  0.00    -0.001 A 
ATOM      4  C3  UNL d   1       3.737   2.993   1.437  0.00  0.00     0.003 A 
ATOM      5  C4  UNL d   1       4.456   3.295   0.283  0.00  0.00    -0.005 A 
ATOM      6  C5  UNL d   1       5.581   2.543  -0.052  0.00  0.00     0.003 A 
ATOM      7  C6  UNL d   1       5.986   1.489   0.769  0.00  0.00    -0.001 A 
ENDROOT
TORSDOF 0
ENDMDL
