MODEL 1
REMARK minimizedAffinity 4.07209253
REMARK minimizedRMSD -1
REMARK  0 active torsions:
REMARK  status: ('A' for Active; 'I' for Inactive)
ROOT
ATOM      1  C   UNL d   1      -4.644  -5.426   0.510  0.00  0.00     0.078 C 
ATOM      2  C1  UNL d   1      -3.449  -4.521   0.495  0.00  0.00    -0.077 A 
ATOM      3  C2  UNL d   1      -2.151  -5.041   0.417  0.00  0.00    -0.001 A 
ATOM      4  C3  UNL d   1      -1.047  -4.187   0.414  0.00  0.00     0.003 A 
ATOM      5  C4  UNL d   1      -1.229  -2.808   0.490  0.00  0.00    -0.005 A 
ATOM      6  C5  UNL d   1      -2.517  -2.281   0.571  0.00  0.00     0.003 A 
ATOM      7  C6  UNL d   1      -3.622  -3.133   0.574  0.00  0.00    -0.001 A 
ENDROOT
TORSDOF 0
ENDMDL
