MODEL 1
REMARK minimizedAffinity 7.12959003
REMARK minimizedRMSD -1
REMARK  0 active torsions:
REMARK  status: ('A' for Active; 'I' for Inactive)
ROOT
ATOM      1  C   UNL d   1      -1.963  -2.165   3.405  0.00  0.00     0.078 C 
ATOM      2  C1  UNL d   1      -1.802  -2.332   1.924  0.00  0.00    -0.077 A 
ATOM      3  C2  UNL d   1      -1.223  -3.488   1.387  0.00  0.00    -0.001 A 
ATOM      4  C3  UNL d   1      -1.071  -3.625   0.006  0.00  0.00     0.003 A 
ATOM      5  C4  UNL d   1      -1.493  -2.609  -0.849  0.00  0.00    -0.005 A 
ATOM      6  C5  UNL d   1      -2.067  -1.454  -0.324  0.00  0.00     0.003 A 
ATOM      7  C6  UNL d   1      -2.221  -1.315   1.057  0.00  0.00    -0.001 A 
ENDROOT
TORSDOF 0
ENDMDL
