MODEL 1
REMARK minimizedAffinity 7.21427631
REMARK minimizedRMSD -1
REMARK  0 active torsions:
REMARK  status: ('A' for Active; 'I' for Inactive)
ROOT
ATOM      1  C   UNL d   1       2.280  -0.004  -1.590  0.00  0.00     0.078 C 
ATOM      2  C1  UNL d   1       3.578   0.005  -2.341  0.00  0.00    -0.077 A 
ATOM      3  C2  UNL d   1       3.989   1.137  -3.055  0.00  0.00    -0.001 A 
ATOM      4  C3  UNL d   1       5.196   1.129  -3.757  0.00  0.00     0.003 A 
ATOM      5  C4  UNL d   1       6.000  -0.009  -3.753  0.00  0.00    -0.005 A 
ATOM      6  C5  UNL d   1       5.598  -1.141  -3.047  0.00  0.00     0.003 A 
ATOM      7  C6  UNL d   1       4.392  -1.134  -2.344  0.00  0.00    -0.001 A 
ENDROOT
TORSDOF 0
ENDMDL
