MODEL 1
REMARK minimizedAffinity -0.533674836
REMARK minimizedRMSD -1
REMARK  0 active torsions:
REMARK  status: ('A' for Active; 'I' for Inactive)
ROOT
ATOM      1  C   UNL d   1      -4.126   5.971  -2.024  0.00  0.00     0.078 C 
ATOM      2  C1  UNL d   1      -4.545   5.406  -0.700  0.00  0.00    -0.077 A 
ATOM      3  C2  UNL d   1      -3.912   4.277  -0.165  0.00  0.00    -0.001 A 
ATOM      4  C3  UNL d   1      -4.319   3.756   1.064  0.00  0.00     0.003 A 
ATOM      5  C4  UNL d   1      -5.362   4.355   1.767  0.00  0.00    -0.005 A 
ATOM      6  C5  UNL d   1      -6.000   5.477   1.242  0.00  0.00     0.003 A 
ATOM      7  C6  UNL d   1      -5.594   6.000   0.013  0.00  0.00    -0.001 A 
ENDROOT
TORSDOF 0
ENDMDL
