MODEL 1
REMARK minimizedAffinity 13.646987
REMARK minimizedRMSD -1
REMARK  0 active torsions:
REMARK  status: ('A' for Active; 'I' for Inactive)
ROOT
ATOM      1  C   UNL d   1       3.867   2.952   1.145  0.00  0.00     0.078 C 
ATOM      2  C1  UNL d   1       3.155   2.000   0.230  0.00  0.00    -0.077 A 
ATOM      3  C2  UNL d   1       3.452   0.632   0.240  0.00  0.00    -0.001 A 
ATOM      4  C3  UNL d   1       2.788  -0.241  -0.624  0.00  0.00     0.003 A 
ATOM      5  C4  UNL d   1       1.825   0.245  -1.505  0.00  0.00    -0.005 A 
ATOM      6  C5  UNL d   1       1.524   1.606  -1.524  0.00  0.00     0.003 A 
ATOM      7  C6  UNL d   1       2.187   2.480  -0.661  0.00  0.00    -0.001 A 
ENDROOT
TORSDOF 0
ENDMDL
