MODEL 1
REMARK minimizedAffinity 6.07411718
REMARK minimizedRMSD -1
REMARK  0 active torsions:
REMARK  status: ('A' for Active; 'I' for Inactive)
ROOT
ATOM      1  C   UNL d   1      -4.006   5.736  -2.120  0.00  0.00     0.078 C 
ATOM      2  C1  UNL d   1      -4.579   5.206  -0.840  0.00  0.00    -0.077 A 
ATOM      3  C2  UNL d   1      -4.270   3.916  -0.391  0.00  0.00    -0.001 A 
ATOM      4  C3  UNL d   1      -4.818   3.432   0.797  0.00  0.00     0.003 A 
ATOM      5  C4  UNL d   1      -5.681   4.230   1.546  0.00  0.00    -0.005 A 
ATOM      6  C5  UNL d   1      -5.997   5.514   1.106  0.00  0.00     0.003 A 
ATOM      7  C6  UNL d   1      -5.449   6.000  -0.082  0.00  0.00    -0.001 A 
ENDROOT
TORSDOF 0
ENDMDL
