MODEL 1
REMARK minimizedAffinity 14.7088604
REMARK minimizedRMSD -1
REMARK  0 active torsions:
REMARK  status: ('A' for Active; 'I' for Inactive)
ROOT
ATOM      1  C   UNL d   1      -0.368  -4.621   1.336  0.00  0.00     0.078 C 
ATOM      2  C1  UNL d   1      -0.923  -3.447   0.586  0.00  0.00    -0.077 A 
ATOM      3  C2  UNL d   1      -0.448  -3.115  -0.688  0.00  0.00    -0.001 A 
ATOM      4  C3  UNL d   1      -0.967  -2.013  -1.370  0.00  0.00     0.003 A 
ATOM      5  C4  UNL d   1      -1.963  -1.234  -0.786  0.00  0.00    -0.005 A 
ATOM      6  C5  UNL d   1      -2.441  -1.555   0.483  0.00  0.00     0.003 A 
ATOM      7  C6  UNL d   1      -1.923  -2.656   1.167  0.00  0.00    -0.001 A 
ENDROOT
TORSDOF 0
ENDMDL
