MODEL 1
REMARK minimizedAffinity 10.6085577
REMARK minimizedRMSD -1
REMARK  0 active torsions:
REMARK  status: ('A' for Active; 'I' for Inactive)
ROOT
ATOM      1  C   UNL d   1       4.700   6.000   0.644  0.00  0.00     0.078 C 
ATOM      2  C1  UNL d   1       4.767   4.519   0.416  0.00  0.00    -0.077 A 
ATOM      3  C2  UNL d   1       3.870   3.651   1.050  0.00  0.00    -0.001 A 
ATOM      4  C3  UNL d   1       3.950   2.274   0.836  0.00  0.00     0.003 A 
ATOM      5  C4  UNL d   1       4.926   1.753  -0.011  0.00  0.00    -0.005 A 
ATOM      6  C5  UNL d   1       5.824   2.609  -0.645  0.00  0.00     0.003 A 
ATOM      7  C6  UNL d   1       5.746   3.987  -0.432  0.00  0.00    -0.001 A 
ENDROOT
TORSDOF 0
ENDMDL
