MODEL 1
REMARK minimizedAffinity 4.89891768
REMARK minimizedRMSD -1
REMARK  0 active torsions:
REMARK  status: ('A' for Active; 'I' for Inactive)
ROOT
ATOM      1  C   UNL d   1       4.640   5.521   0.280  0.00  0.00     0.078 C 
ATOM      2  C1  UNL d   1       4.520   4.118   0.795  0.00  0.00    -0.077 A 
ATOM      3  C2  UNL d   1       4.164   3.865   2.125  0.00  0.00    -0.001 A 
ATOM      4  C3  UNL d   1       4.065   2.554   2.593  0.00  0.00     0.003 A 
ATOM      5  C4  UNL d   1       4.324   1.485   1.737  0.00  0.00    -0.005 A 
ATOM      6  C5  UNL d   1       4.681   1.726   0.412  0.00  0.00     0.003 A 
ATOM      7  C6  UNL d   1       4.780   3.037  -0.057  0.00  0.00    -0.001 A 
ENDROOT
TORSDOF 0
ENDMDL
