MODEL 1
REMARK minimizedAffinity 17.6368408
REMARK minimizedRMSD -1
REMARK  0 active torsions:
REMARK  status: ('A' for Active; 'I' for Inactive)
ROOT
ATOM      1  C   UNL d   1       5.042   6.000   1.480  0.00  0.00     0.078 C 
ATOM      2  C1  UNL d   1       4.520   4.712   0.916  0.00  0.00    -0.077 A 
ATOM      3  C2  UNL d   1       4.590   4.446  -0.457  0.00  0.00    -0.001 A 
ATOM      4  C3  UNL d   1       4.092   3.247  -0.970  0.00  0.00     0.003 A 
ATOM      5  C4  UNL d   1       3.518   2.306  -0.118  0.00  0.00    -0.005 A 
ATOM      6  C5  UNL d   1       3.442   2.563   1.250  0.00  0.00     0.003 A 
ATOM      7  C6  UNL d   1       3.940   3.761   1.764  0.00  0.00    -0.001 A 
ENDROOT
TORSDOF 0
ENDMDL
