MODEL 1
REMARK minimizedAffinity 9.57402706
REMARK minimizedRMSD -1
REMARK  0 active torsions:
REMARK  status: ('A' for Active; 'I' for Inactive)
ROOT
ATOM      1  C   UNL d   1      -0.399  -4.776   0.382  0.00  0.00     0.078 C 
ATOM      2  C1  UNL d   1      -1.072  -3.459   0.139  0.00  0.00    -0.077 A 
ATOM      3  C2  UNL d   1      -2.020  -2.956   1.038  0.00  0.00    -0.001 A 
ATOM      4  C3  UNL d   1      -2.646  -1.733   0.795  0.00  0.00     0.003 A 
ATOM      5  C4  UNL d   1      -2.332  -1.002  -0.349  0.00  0.00    -0.005 A 
ATOM      6  C5  UNL d   1      -1.391  -1.495  -1.252  0.00  0.00     0.003 A 
ATOM      7  C6  UNL d   1      -0.765  -2.718  -1.010  0.00  0.00    -0.001 A 
ENDROOT
TORSDOF 0
ENDMDL
