MODEL 1
REMARK minimizedAffinity 14.8757153
REMARK minimizedRMSD -1
REMARK  0 active torsions:
REMARK  status: ('A' for Active; 'I' for Inactive)
ROOT
ATOM      1  C   UNL d   1       2.627   2.245   1.828  0.00  0.00     0.078 C 
ATOM      2  C1  UNL d   1       2.994   2.264   3.282  0.00  0.00    -0.077 A 
ATOM      3  C2  UNL d   1       2.962   3.455   4.019  0.00  0.00    -0.001 A 
ATOM      4  C3  UNL d   1       3.316   3.460   5.369  0.00  0.00     0.003 A 
ATOM      5  C4  UNL d   1       3.706   2.277   5.994  0.00  0.00    -0.005 A 
ATOM      6  C5  UNL d   1       3.744   1.088   5.269  0.00  0.00     0.003 A 
ATOM      7  C6  UNL d   1       3.390   1.081   3.918  0.00  0.00    -0.001 A 
ENDROOT
TORSDOF 0
ENDMDL
