MODEL 1
REMARK minimizedAffinity 4.14029694
REMARK minimizedRMSD -1
REMARK  1 active torsions:
REMARK  status: ('A' for Active; 'I' for Inactive)
REMARK    1  A    between atoms: C1_2  and  C2_3 
ROOT
ATOM      1  C2  UNL d   1       2.165   5.275  -5.514  0.00  0.00    -0.073 A 
ATOM      2  C3  UNL d   1       2.065   4.091  -4.776  0.00  0.00    -0.002 A 
ATOM      3  C4  UNL d   1       3.215   3.427  -4.348  0.00  0.00     0.004 A 
ATOM      4  C5  UNL d   1       4.476   3.943  -4.647  0.00  0.00    -0.004 A 
ATOM      5  C6  UNL d   1       4.597   5.132  -5.374  0.00  0.00    -0.075 A 
ATOM      6  C7  UNL d   1       5.946   5.700  -5.706  0.00  0.00     0.076 C 
ATOM      7  C8  UNL d   1       3.437   5.792  -5.802  0.00  0.00     0.001 A 
ENDROOT
BRANCH   1   8
ATOM      8  C1  UNL d   1       0.926   5.999  -5.973  0.00  0.00     0.053 C 
ATOM      9  C   UNL d   1      -0.271   5.699  -5.084  0.00  0.00     0.018 C 
ENDBRANCH   1   8
TORSDOF 1
ENDMDL
