MODEL 1
REMARK minimizedAffinity 3.12963367
REMARK minimizedRMSD -1
REMARK  1 active torsions:
REMARK  status: ('A' for Active; 'I' for Inactive)
REMARK    1  A    between atoms: C1_2  and  C2_3 
ROOT
ATOM      1  C2  UNL d   1      -0.025  -1.310  -2.935  0.00  0.00    -0.073 A 
ATOM      2  C3  UNL d   1      -0.117  -1.010  -4.299  0.00  0.00    -0.002 A 
ATOM      3  C4  UNL d   1      -1.364  -0.926  -4.919  0.00  0.00     0.004 A 
ATOM      4  C5  UNL d   1      -2.530  -1.135  -4.183  0.00  0.00    -0.004 A 
ATOM      5  C6  UNL d   1      -2.460  -1.425  -2.817  0.00  0.00    -0.075 A 
ATOM      6  C7  UNL d   1      -3.704  -1.654  -2.011  0.00  0.00     0.076 C 
ATOM      7  C8  UNL d   1      -1.203  -1.510  -2.201  0.00  0.00     0.001 A 
ENDROOT
BRANCH   1   8
ATOM      8  C1  UNL d   1       1.319  -1.395  -2.259  0.00  0.00     0.053 C 
ATOM      9  C   UNL d   1       1.296  -0.786  -0.866  0.00  0.00     0.018 C 
ENDBRANCH   1   8
TORSDOF 1
ENDMDL
