MODEL 1
REMARK minimizedAffinity 6.59896326
REMARK minimizedRMSD -1
REMARK  1 active torsions:
REMARK  status: ('A' for Active; 'I' for Inactive)
REMARK    1  A    between atoms: C1_2  and  C2_3 
ROOT
ATOM      1  C2  UNL d   1       4.009   3.789  -4.819  0.00  0.00    -0.073 A 
ATOM      2  C3  UNL d   1       4.748   4.908  -5.220  0.00  0.00    -0.002 A 
ATOM      3  C4  UNL d   1       4.110   6.000  -5.811  0.00  0.00     0.004 A 
ATOM      4  C5  UNL d   1       2.728   5.987  -6.000  0.00  0.00    -0.004 A 
ATOM      5  C6  UNL d   1       1.971   4.883  -5.595  0.00  0.00    -0.075 A 
ATOM      6  C7  UNL d   1       0.484   4.852  -5.793  0.00  0.00     0.076 C 
ATOM      7  C8  UNL d   1       2.619   3.789  -5.005  0.00  0.00     0.001 A 
ENDROOT
BRANCH   1   8
ATOM      8  C1  UNL d   1       4.693   2.611  -4.175  0.00  0.00     0.053 C 
ATOM      9  C   UNL d   1       5.865   3.038  -3.305  0.00  0.00     0.018 C 
ENDBRANCH   1   8
TORSDOF 1
ENDMDL
