MODEL 1
REMARK minimizedAffinity 0.442565918
REMARK minimizedRMSD -1
REMARK  1 active torsions:
REMARK  status: ('A' for Active; 'I' for Inactive)
REMARK    1  A    between atoms: C1_2  and  C2_3 
ROOT
ATOM      1  C2  UNL d   1      -2.785   5.970  -2.919  0.00  0.00    -0.073 A 
ATOM      2  C3  UNL d   1      -2.536   5.976  -4.296  0.00  0.00    -0.002 A 
ATOM      3  C4  UNL d   1      -1.226   5.994  -4.776  0.00  0.00     0.004 A 
ATOM      4  C5  UNL d   1      -0.152   6.000  -3.886  0.00  0.00    -0.004 A 
ATOM      5  C6  UNL d   1      -0.380   5.982  -2.506  0.00  0.00    -0.075 A 
ATOM      6  C7  UNL d   1       0.764   5.991  -1.535  0.00  0.00     0.076 C 
ATOM      7  C8  UNL d   1      -1.699   5.966  -2.032  0.00  0.00     0.001 A 
ENDROOT
BRANCH   1   8
ATOM      8  C1  UNL d   1      -4.198   5.943  -2.396  0.00  0.00     0.053 C 
ATOM      9  C   UNL d   1      -4.245   6.000  -0.877  0.00  0.00     0.018 C 
ENDBRANCH   1   8
TORSDOF 1
ENDMDL
