MODEL 1
REMARK minimizedAffinity 7.84577227
REMARK minimizedRMSD -1
REMARK  1 active torsions:
REMARK  status: ('A' for Active; 'I' for Inactive)
REMARK    1  A    between atoms: C1_2  and  C2_3 
ROOT
ATOM      1  C2  UNL d   1       0.510   1.194   0.354  0.00  0.00    -0.073 A 
ATOM      2  C3  UNL d   1      -0.558   0.457  -0.169  0.00  0.00    -0.002 A 
ATOM      3  C4  UNL d   1      -1.300  -0.391   0.656  0.00  0.00     0.004 A 
ATOM      4  C5  UNL d   1      -0.986  -0.504   2.010  0.00  0.00    -0.004 A 
ATOM      5  C6  UNL d   1       0.070   0.234   2.553  0.00  0.00    -0.075 A 
ATOM      6  C7  UNL d   1       0.422   0.122   4.008  0.00  0.00     0.076 C 
ATOM      7  C8  UNL d   1       0.812   1.081   1.719  0.00  0.00     0.001 A 
ENDROOT
BRANCH   1   8
ATOM      8  C1  UNL d   1       1.310   2.115  -0.531  0.00  0.00     0.053 C 
ATOM      9  C   UNL d   1       1.266   3.555  -0.043  0.00  0.00     0.018 C 
ENDBRANCH   1   8
TORSDOF 1
ENDMDL
