MODEL 1
REMARK minimizedAffinity 6.6671195
REMARK minimizedRMSD -1
REMARK  1 active torsions:
REMARK  status: ('A' for Active; 'I' for Inactive)
REMARK    1  A    between atoms: C1_2  and  C2_3 
ROOT
ATOM      1  C2  UNL d   1      -2.225   5.970  -1.551  0.00  0.00    -0.073 A 
ATOM      2  C3  UNL d   1      -3.458   5.971  -2.212  0.00  0.00    -0.002 A 
ATOM      3  C4  UNL d   1      -3.509   5.989  -3.607  0.00  0.00     0.004 A 
ATOM      4  C5  UNL d   1      -2.331   5.999  -4.353  0.00  0.00    -0.004 A 
ATOM      5  C6  UNL d   1      -1.089   5.986  -3.710  0.00  0.00    -0.075 A 
ATOM      6  C7  UNL d   1       0.188   5.998  -4.498  0.00  0.00     0.076 C 
ATOM      7  C8  UNL d   1      -1.045   5.970  -2.309  0.00  0.00     0.001 A 
ENDROOT
BRANCH   1   8
ATOM      8  C1  UNL d   1      -2.164   5.944  -0.045  0.00  0.00     0.053 C 
ATOM      9  C   UNL d   1      -3.549   5.904   0.581  0.00  0.00     0.018 C 
ENDBRANCH   1   8
TORSDOF 1
ENDMDL
