MODEL 1
REMARK minimizedAffinity -2.32322621
REMARK minimizedRMSD -1
REMARK  1 active torsions:
REMARK  status: ('A' for Active; 'I' for Inactive)
REMARK    1  A    between atoms: C1_2  and  C2_3 
ROOT
ATOM      1  C2  UNL d   1      -0.497   5.979  -3.734  0.00  0.00    -0.073 A 
ATOM      2  C3  UNL d   1      -1.705   5.990  -4.440  0.00  0.00    -0.002 A 
ATOM      3  C4  UNL d   1      -2.922   5.996  -3.756  0.00  0.00     0.004 A 
ATOM      4  C5  UNL d   1      -2.942   5.998  -2.362  0.00  0.00    -0.004 A 
ATOM      5  C6  UNL d   1      -1.745   5.999  -1.638  0.00  0.00    -0.075 A 
ATOM      6  C7  UNL d   1      -1.751   5.999  -0.138  0.00  0.00     0.076 C 
ATOM      7  C8  UNL d   1      -0.528   5.991  -2.333  0.00  0.00     0.001 A 
ENDROOT
BRANCH   1   8
ATOM      8  C1  UNL d   1       0.819   5.980  -4.469  0.00  0.00     0.053 C 
ATOM      9  C   UNL d   1       1.022   4.707  -5.275  0.00  0.00     0.018 C 
ENDBRANCH   1   8
TORSDOF 1
ENDMDL
