MODEL 1
REMARK minimizedAffinity 5.03882551
REMARK minimizedRMSD -1
REMARK  1 active torsions:
REMARK  status: ('A' for Active; 'I' for Inactive)
REMARK    1  A    between atoms: C1_2  and  C2_3 
ROOT
ATOM      1  C2  UNL d   1      -2.508  -1.609  -3.359  0.00  0.00    -0.073 A 
ATOM      2  C3  UNL d   1      -2.871  -1.656  -2.008  0.00  0.00    -0.002 A 
ATOM      3  C4  UNL d   1      -4.073  -2.250  -1.621  0.00  0.00     0.004 A 
ATOM      4  C5  UNL d   1      -4.919  -2.810  -2.578  0.00  0.00    -0.004 A 
ATOM      5  C6  UNL d   1      -4.569  -2.783  -3.932  0.00  0.00    -0.075 A 
ATOM      6  C7  UNL d   1      -5.469  -3.379  -4.974  0.00  0.00     0.076 C 
ATOM      7  C8  UNL d   1      -3.361  -2.182  -4.313  0.00  0.00     0.001 A 
ENDROOT
BRANCH   1   8
ATOM      8  C1  UNL d   1      -1.209  -0.973  -3.781  0.00  0.00     0.053 C 
ATOM      9  C   UNL d   1      -0.350  -1.922  -4.602  0.00  0.00     0.018 C 
ENDBRANCH   1   8
TORSDOF 1
ENDMDL
