MODEL 1
REMARK minimizedAffinity 2.12104607
REMARK minimizedRMSD -1
REMARK  1 active torsions:
REMARK  status: ('A' for Active; 'I' for Inactive)
REMARK    1  A    between atoms: C1_2  and  C2_3 
ROOT
ATOM      1  C2  UNL d   1       0.384  -0.115   0.971  0.00  0.00    -0.073 A 
ATOM      2  C3  UNL d   1      -0.064   0.028   2.289  0.00  0.00    -0.002 A 
ATOM      3  C4  UNL d   1       0.120   1.234   2.968  0.00  0.00     0.004 A 
ATOM      4  C5  UNL d   1       0.745   2.308   2.336  0.00  0.00    -0.004 A 
ATOM      5  C6  UNL d   1       1.188   2.188   1.015  0.00  0.00    -0.075 A 
ATOM      6  C7  UNL d   1       1.864   3.333   0.320  0.00  0.00     0.076 C 
ATOM      7  C8  UNL d   1       1.003   0.973   0.340  0.00  0.00     0.001 A 
ENDROOT
BRANCH   1   8
ATOM      8  C1  UNL d   1       0.182  -1.413   0.231  0.00  0.00     0.053 C 
ATOM      9  C   UNL d   1      -0.662  -2.397   1.026  0.00  0.00     0.018 C 
ENDBRANCH   1   8
TORSDOF 1
ENDMDL
