MODEL 1
REMARK minimizedAffinity -0.639723539
REMARK minimizedRMSD -1
REMARK  1 active torsions:
REMARK  status: ('A' for Active; 'I' for Inactive)
REMARK    1  A    between atoms: C1_2  and  C2_3 
ROOT
ATOM      1  C2  UNL d   1      -0.313   5.913  -4.707  0.00  0.00    -0.073 A 
ATOM      2  C3  UNL d   1       0.079   5.929  -3.364  0.00  0.00    -0.002 A 
ATOM      3  C4  UNL d   1      -0.880   5.976  -2.351  0.00  0.00     0.004 A 
ATOM      4  C5  UNL d   1      -2.238   6.000  -2.669  0.00  0.00    -0.004 A 
ATOM      5  C6  UNL d   1      -2.649   5.972  -4.006  0.00  0.00    -0.075 A 
ATOM      6  C7  UNL d   1      -4.106   6.000  -4.366  0.00  0.00     0.076 C 
ATOM      7  C8  UNL d   1      -1.680   5.928  -5.018  0.00  0.00     0.001 A 
ENDROOT
BRANCH   1   8
ATOM      8  C1  UNL d   1       0.718   5.856  -5.805  0.00  0.00     0.053 C 
ATOM      9  C   UNL d   1       2.134   5.977  -5.263  0.00  0.00     0.018 C 
ENDBRANCH   1   8
TORSDOF 1
ENDMDL
