MODEL 1
REMARK minimizedAffinity -0.787139356
REMARK minimizedRMSD -1
REMARK  1 active torsions:
REMARK  status: ('A' for Active; 'I' for Inactive)
REMARK    1  A    between atoms: C1_2  and  C2_3 
ROOT
ATOM      1  C2  UNL d   1       0.025   5.941  -3.875  0.00  0.00    -0.073 A 
ATOM      2  C3  UNL d   1      -1.134   5.973  -4.658  0.00  0.00    -0.002 A 
ATOM      3  C4  UNL d   1      -2.392   5.999  -4.054  0.00  0.00     0.004 A 
ATOM      4  C5  UNL d   1      -2.503   5.999  -2.664  0.00  0.00    -0.004 A 
ATOM      5  C6  UNL d   1      -1.356   5.979  -1.864  0.00  0.00    -0.075 A 
ATOM      6  C7  UNL d   1      -1.458   5.977  -0.367  0.00  0.00     0.076 C 
ATOM      7  C8  UNL d   1      -0.096   5.951  -2.478  0.00  0.00     0.001 A 
ENDROOT
BRANCH   1   8
ATOM      8  C1  UNL d   1       1.386   5.919  -4.523  0.00  0.00     0.053 C 
ATOM      9  C   UNL d   1       1.498   4.829  -5.577  0.00  0.00     0.018 C 
ENDBRANCH   1   8
TORSDOF 1
ENDMDL
