MODEL 1
REMARK minimizedAffinity 4.29749298
REMARK minimizedRMSD -1
REMARK  1 active torsions:
REMARK  status: ('A' for Active; 'I' for Inactive)
REMARK    1  A    between atoms: C1_2  and  C2_3 
ROOT
ATOM      1  C2  UNL d   1       0.439   1.205   1.208  0.00  0.00    -0.073 A 
ATOM      2  C3  UNL d   1      -0.873   0.910   1.598  0.00  0.00    -0.002 A 
ATOM      3  C4  UNL d   1      -1.488  -0.267   1.168  0.00  0.00     0.004 A 
ATOM      4  C5  UNL d   1      -0.797  -1.162   0.350  0.00  0.00    -0.004 A 
ATOM      5  C6  UNL d   1       0.518  -0.890  -0.040  0.00  0.00    -0.075 A 
ATOM      6  C7  UNL d   1       1.274  -1.841  -0.921  0.00  0.00     0.076 C 
ATOM      7  C8  UNL d   1       1.128   0.295   0.394  0.00  0.00     0.001 A 
ENDROOT
BRANCH   1   8
ATOM      8  C1  UNL d   1       1.109   2.471   1.676  0.00  0.00     0.053 C 
ATOM      9  C   UNL d   1       1.121   3.542   0.596  0.00  0.00     0.018 C 
ENDBRANCH   1   8
TORSDOF 1
ENDMDL
