MODEL 1
REMARK minimizedAffinity -3.31071138
REMARK minimizedRMSD -1
REMARK  0 active torsions:
REMARK  status: ('A' for Active; 'I' for Inactive)
ROOT
ATOM      1  C   UNL d   1       1.568   1.972   0.078  0.00  0.00     0.020 A 
ATOM      2  C1  UNL d   1       0.943   1.152   1.017  0.00  0.00     0.020 A 
ATOM      3  C2  UNL d   1       0.651  -0.176   0.700  0.00  0.00     0.034 A 
ATOM      4  C3  UNL d   1       0.984  -0.689  -0.559  0.00  0.00     0.017 A 
ATOM      5  C4  UNL d   1       1.611   0.135  -1.501  0.00  0.00     0.017 A 
ATOM      6  C5  UNL d   1       1.901   1.464  -1.178  0.00  0.00     0.034 A 
ATOM      7 Cl   UNL d   1       2.051  -0.426  -3.075  0.00  0.00    -0.070 Cl
ATOM      8 Cl1  UNL d   1       0.593  -2.340  -0.883  0.00  0.00    -0.070 Cl
ENDROOT
TORSDOF 0
ENDMDL
