MODEL 1
REMARK minimizedAffinity -2.60005546
REMARK minimizedRMSD -1
REMARK  0 active torsions:
REMARK  status: ('A' for Active; 'I' for Inactive)
ROOT
ATOM      1  C   UNL d   1       1.577   1.902  -1.032  0.00  0.00     0.020 A 
ATOM      2  C1  UNL d   1       2.353   0.854  -1.525  0.00  0.00     0.020 A 
ATOM      3  C2  UNL d   1       1.983  -0.468  -1.269  0.00  0.00     0.034 A 
ATOM      4  C3  UNL d   1       0.835  -0.745  -0.518  0.00  0.00     0.017 A 
ATOM      5  C4  UNL d   1       0.057   0.308  -0.024  0.00  0.00     0.017 A 
ATOM      6  C5  UNL d   1       0.431   1.630  -0.283  0.00  0.00     0.034 A 
ATOM      7 Cl   UNL d   1      -1.373   0.044   0.910  0.00  0.00    -0.070 Cl
ATOM      8 Cl1  UNL d   1       0.438  -2.404  -0.241  0.00  0.00    -0.070 Cl
ENDROOT
TORSDOF 0
ENDMDL
