MODEL 1
REMARK minimizedAffinity -4.32151222
REMARK minimizedRMSD -1
REMARK  0 active torsions:
REMARK  status: ('A' for Active; 'I' for Inactive)
ROOT
ATOM      1  C   UNL d   1       0.884   0.087  -2.451  0.00  0.00     0.020 A 
ATOM      2  C1  UNL d   1      -0.066   0.484  -1.512  0.00  0.00     0.020 A 
ATOM      3  C2  UNL d   1       0.331   1.183  -0.370  0.00  0.00     0.034 A 
ATOM      4  C3  UNL d   1       1.681   1.487  -0.164  0.00  0.00     0.017 A 
ATOM      5  C4  UNL d   1       2.635   1.088  -1.108  0.00  0.00     0.017 A 
ATOM      6  C5  UNL d   1       2.232   0.388  -2.250  0.00  0.00     0.034 A 
ATOM      7 Cl   UNL d   1       4.319   1.426  -0.924  0.00  0.00    -0.070 Cl
ATOM      8 Cl1  UNL d   1       2.101   2.354   1.270  0.00  0.00    -0.070 Cl
ENDROOT
TORSDOF 0
ENDMDL
