MODEL 1
REMARK minimizedAffinity 2.41553354
REMARK minimizedRMSD -1
REMARK  0 active torsions:
REMARK  status: ('A' for Active; 'I' for Inactive)
ROOT
ATOM      1  C   UNL d   1      -0.691   0.562   0.385  0.00  0.00     0.020 A 
ATOM      2  C1  UNL d   1      -0.917  -0.681   0.975  0.00  0.00     0.020 A 
ATOM      3  C2  UNL d   1      -0.405  -1.838   0.384  0.00  0.00     0.034 A 
ATOM      4  C3  UNL d   1       0.335  -1.754  -0.801  0.00  0.00     0.017 A 
ATOM      5  C4  UNL d   1       0.561  -0.507  -1.393  0.00  0.00     0.017 A 
ATOM      6  C5  UNL d   1       0.046   0.649  -0.797  0.00  0.00     0.034 A 
ATOM      7 Cl   UNL d   1       1.464  -0.324  -2.855  0.00  0.00    -0.070 Cl
ATOM      8 Cl1  UNL d   1       0.938  -3.226  -1.477  0.00  0.00    -0.070 Cl
ENDROOT
TORSDOF 0
ENDMDL
