MODEL 1
REMARK minimizedAffinity 1.24867165
REMARK minimizedRMSD -1
REMARK  0 active torsions:
REMARK  status: ('A' for Active; 'I' for Inactive)
ROOT
ATOM      1  C   UNL d   1       0.373  -2.069   0.300  0.00  0.00     0.020 A 
ATOM      2  C1  UNL d   1       0.789  -1.385  -0.841  0.00  0.00     0.020 A 
ATOM      3  C2  UNL d   1       0.260  -0.126  -1.132  0.00  0.00     0.034 A 
ATOM      4  C3  UNL d   1      -0.688   0.453  -0.281  0.00  0.00     0.017 A 
ATOM      5  C4  UNL d   1      -1.105  -0.235   0.865  0.00  0.00     0.017 A 
ATOM      6  C5  UNL d   1      -0.572  -1.495   1.151  0.00  0.00     0.034 A 
ATOM      7 Cl   UNL d   1      -2.272   0.415   1.963  0.00  0.00    -0.070 Cl
ATOM      8 Cl1  UNL d   1      -1.300   2.013  -0.702  0.00  0.00    -0.070 Cl
ENDROOT
TORSDOF 0
ENDMDL
