MODEL 1
REMARK minimizedAffinity -0.082801871
REMARK minimizedRMSD -1
REMARK  0 active torsions:
REMARK  status: ('A' for Active; 'I' for Inactive)
ROOT
ATOM      1  C   UNL d   1       1.446   1.562  -1.323  0.00  0.00     0.020 A 
ATOM      2  C1  UNL d   1       1.777   0.581  -2.257  0.00  0.00     0.020 A 
ATOM      3  C2  UNL d   1       1.253  -0.707  -2.132  0.00  0.00     0.034 A 
ATOM      4  C3  UNL d   1       0.395  -1.018  -1.071  0.00  0.00     0.017 A 
ATOM      5  C4  UNL d   1       0.064  -0.033  -0.134  0.00  0.00     0.017 A 
ATOM      6  C5  UNL d   1       0.591   1.255  -0.264  0.00  0.00     0.034 A 
ATOM      7 Cl   UNL d   1      -0.988  -0.342   1.203  0.00  0.00    -0.070 Cl
ATOM      8 Cl1  UNL d   1      -0.216  -2.632  -0.978  0.00  0.00    -0.070 Cl
ENDROOT
TORSDOF 0
ENDMDL
