MODEL 1
REMARK minimizedAffinity -1.47115469
REMARK minimizedRMSD -1
REMARK  0 active torsions:
REMARK  status: ('A' for Active; 'I' for Inactive)
ROOT
ATOM      1  C   UNL d   1       0.198  -2.079  -0.132  0.00  0.00     0.020 A 
ATOM      2  C1  UNL d   1      -0.485  -1.215   0.723  0.00  0.00     0.020 A 
ATOM      3  C2  UNL d   1      -0.239   0.159   0.670  0.00  0.00     0.034 A 
ATOM      4  C3  UNL d   1       0.691   0.673  -0.241  0.00  0.00     0.017 A 
ATOM      5  C4  UNL d   1       1.375  -0.196  -1.099  0.00  0.00     0.017 A 
ATOM      6  C5  UNL d   1       1.126  -1.570  -1.042  0.00  0.00     0.034 A 
ATOM      7 Cl   UNL d   1       2.538   0.364  -2.250  0.00  0.00    -0.070 Cl
ATOM      8 Cl1  UNL d   1       0.944   2.382  -0.253  0.00  0.00    -0.070 Cl
ENDROOT
TORSDOF 0
ENDMDL
