MODEL 1
REMARK minimizedAffinity -3.77364182
REMARK minimizedRMSD -1
REMARK  0 active torsions:
REMARK  status: ('A' for Active; 'I' for Inactive)
ROOT
ATOM      1  C   UNL d   1       1.127   1.603  -0.136  0.00  0.00     0.020 A 
ATOM      2  C1  UNL d   1       0.495   0.738   0.756  0.00  0.00     0.020 A 
ATOM      3  C2  UNL d   1       0.349  -0.613   0.434  0.00  0.00     0.034 A 
ATOM      4  C3  UNL d   1       0.836  -1.103  -0.784  0.00  0.00     0.017 A 
ATOM      5  C4  UNL d   1       1.471  -0.233  -1.678  0.00  0.00     0.017 A 
ATOM      6  C5  UNL d   1       1.614   1.118  -1.350  0.00  0.00     0.034 A 
ATOM      7 Cl   UNL d   1       2.098  -0.764  -3.199  0.00  0.00    -0.070 Cl
ATOM      8 Cl1  UNL d   1       0.622  -2.785  -1.117  0.00  0.00    -0.070 Cl
ENDROOT
TORSDOF 0
ENDMDL
