MODEL 1
REMARK minimizedAffinity -2.08654761
REMARK minimizedRMSD -1
REMARK  0 active torsions:
REMARK  status: ('A' for Active; 'I' for Inactive)
ROOT
ATOM      1  C   UNL d   1      -0.713   1.653   4.256  0.00  0.00     0.020 A 
ATOM      2  C1  UNL d   1       0.513   1.289   3.700  0.00  0.00     0.020 A 
ATOM      3  C2  UNL d   1       0.550   0.530   2.528  0.00  0.00     0.034 A 
ATOM      4  C3  UNL d   1      -0.640   0.133   1.909  0.00  0.00     0.017 A 
ATOM      5  C4  UNL d   1      -1.870   0.498   2.467  0.00  0.00     0.017 A 
ATOM      6  C5  UNL d   1      -1.902   1.259   3.640  0.00  0.00     0.034 A 
ATOM      7 Cl   UNL d   1      -3.380   0.045   1.759  0.00  0.00    -0.070 Cl
ATOM      8 Cl1  UNL d   1      -0.518  -0.804   0.462  0.00  0.00    -0.070 Cl
ENDROOT
TORSDOF 0
ENDMDL
