MODEL 1
REMARK minimizedAffinity -1.71833968
REMARK minimizedRMSD -1
REMARK  0 active torsions:
REMARK  status: ('A' for Active; 'I' for Inactive)
ROOT
ATOM      1  C   UNL d   1       0.907  -1.257  -1.923  0.00  0.00     0.020 A 
ATOM      2  C1  UNL d   1       0.392   0.038  -1.959  0.00  0.00     0.020 A 
ATOM      3  C2  UNL d   1      -0.480   0.470  -0.957  0.00  0.00     0.034 A 
ATOM      4  C3  UNL d   1      -0.839  -0.393   0.084  0.00  0.00     0.017 A 
ATOM      5  C4  UNL d   1      -0.321  -1.693   0.120  0.00  0.00     0.017 A 
ATOM      6  C5  UNL d   1       0.552  -2.121  -0.886  0.00  0.00     0.034 A 
ATOM      7 Cl   UNL d   1      -0.718  -2.815   1.373  0.00  0.00    -0.070 Cl
ATOM      8 Cl1  UNL d   1      -1.922   0.208   1.289  0.00  0.00    -0.070 Cl
ENDROOT
TORSDOF 0
ENDMDL
