MODEL 1
REMARK minimizedAffinity -2.8383193
REMARK minimizedRMSD -1
REMARK  0 active torsions:
REMARK  status: ('A' for Active; 'I' for Inactive)
ROOT
ATOM      1  C   UNL d   1       0.752   1.398   0.278  0.00  0.00     0.020 A 
ATOM      2  C1  UNL d   1       0.226   0.325   0.996  0.00  0.00     0.020 A 
ATOM      3  C2  UNL d   1       0.187  -0.948   0.421  0.00  0.00     0.034 A 
ATOM      4  C3  UNL d   1       0.674  -1.150  -0.875  0.00  0.00     0.017 A 
ATOM      5  C4  UNL d   1       1.202  -0.072  -1.595  0.00  0.00     0.017 A 
ATOM      6  C5  UNL d   1       1.238   1.200  -1.015  0.00  0.00     0.034 A 
ATOM      7 Cl   UNL d   1       1.822  -0.243  -3.199  0.00  0.00    -0.070 Cl
ATOM      8 Cl1  UNL d   1       0.594  -2.750  -1.523  0.00  0.00    -0.070 Cl
ENDROOT
TORSDOF 0
ENDMDL
