MODEL 1
REMARK minimizedAffinity -3.47245121
REMARK minimizedRMSD -1
REMARK  0 active torsions:
REMARK  status: ('A' for Active; 'I' for Inactive)
ROOT
ATOM      1  C   UNL d   1       1.914   0.144  -2.187  0.00  0.00     0.020 A 
ATOM      2  C1  UNL d   1       0.824   0.584  -2.938  0.00  0.00     0.020 A 
ATOM      3  C2  UNL d   1      -0.413   0.783  -2.321  0.00  0.00     0.034 A 
ATOM      4  C3  UNL d   1      -0.564   0.542  -0.951  0.00  0.00     0.017 A 
ATOM      5  C4  UNL d   1       0.530   0.100  -0.199  0.00  0.00     0.017 A 
ATOM      6  C5  UNL d   1       1.767  -0.098  -0.821  0.00  0.00     0.034 A 
ATOM      7 Cl   UNL d   1       0.422  -0.219   1.496  0.00  0.00    -0.070 Cl
ATOM      8 Cl1  UNL d   1      -2.122   0.809  -0.255  0.00  0.00    -0.070 Cl
ENDROOT
TORSDOF 0
ENDMDL
