MODEL 1
REMARK minimizedAffinity -0.665454984
REMARK minimizedRMSD -1
REMARK  0 active torsions:
REMARK  status: ('A' for Active; 'I' for Inactive)
ROOT
ATOM      1  C   UNL d   1       0.412   1.077   0.801  0.00  0.00     0.020 A 
ATOM      2  C1  UNL d   1       0.001  -0.069   1.480  0.00  0.00     0.020 A 
ATOM      3  C2  UNL d   1      -0.117  -1.281   0.796  0.00  0.00     0.034 A 
ATOM      4  C3  UNL d   1       0.175  -1.349  -0.571  0.00  0.00     0.017 A 
ATOM      5  C4  UNL d   1       0.588  -0.198  -1.252  0.00  0.00     0.017 A 
ATOM      6  C5  UNL d   1       0.705   1.013  -0.562  0.00  0.00     0.034 A 
ATOM      7 Cl   UNL d   1       0.966  -0.204  -2.938  0.00  0.00    -0.070 Cl
ATOM      8 Cl1  UNL d   1       0.008  -2.881  -1.353  0.00  0.00    -0.070 Cl
ENDROOT
TORSDOF 0
ENDMDL
