MODEL 1
REMARK minimizedAffinity -4.71969032
REMARK minimizedRMSD -1
REMARK  0 active torsions:
REMARK  status: ('A' for Active; 'I' for Inactive)
ROOT
ATOM      1  C   UNL d   1       0.404  -0.509  -3.138  0.00  0.00     0.020 A 
ATOM      2  C1  UNL d   1       1.665   0.030  -2.885  0.00  0.00     0.020 A 
ATOM      3  C2  UNL d   1       1.955   0.571  -1.631  0.00  0.00     0.034 A 
ATOM      4  C3  UNL d   1       0.983   0.576  -0.625  0.00  0.00     0.017 A 
ATOM      5  C4  UNL d   1      -0.283   0.035  -0.879  0.00  0.00     0.017 A 
ATOM      6  C5  UNL d   1      -0.568  -0.506  -2.136  0.00  0.00     0.034 A 
ATOM      7 Cl   UNL d   1      -1.534   0.005   0.313  0.00  0.00    -0.070 Cl
ATOM      8 Cl1  UNL d   1       1.410   1.261   0.902  0.00  0.00    -0.070 Cl
ENDROOT
TORSDOF 0
ENDMDL
