MODEL 1
REMARK minimizedAffinity -0.624492943
REMARK minimizedRMSD -1
REMARK  0 active torsions:
REMARK  status: ('A' for Active; 'I' for Inactive)
ROOT
ATOM      1  C   UNL d   1       1.953   2.018   3.726  0.00  0.00     0.020 A 
ATOM      2  C1  UNL d   1       2.531   3.200   3.266  0.00  0.00     0.020 A 
ATOM      3  C2  UNL d   1       2.469   3.526   1.909  0.00  0.00     0.034 A 
ATOM      4  C3  UNL d   1       1.828   2.669   1.008  0.00  0.00     0.017 A 
ATOM      5  C4  UNL d   1       1.247   1.482   1.471  0.00  0.00     0.017 A 
ATOM      6  C5  UNL d   1       1.312   1.161   2.830  0.00  0.00     0.034 A 
ATOM      7 Cl   UNL d   1       0.438   0.375   0.419  0.00  0.00    -0.070 Cl
ATOM      8 Cl1  UNL d   1       1.789   3.135  -0.655  0.00  0.00    -0.070 Cl
ENDROOT
TORSDOF 0
ENDMDL
