MODEL 1
REMARK minimizedAffinity -3.21361041
REMARK minimizedRMSD -1
REMARK  0 active torsions:
REMARK  status: ('A' for Active; 'I' for Inactive)
ROOT
ATOM      1  C   UNL d   1      -4.828   0.702  -5.732  0.00  0.00     0.020 A 
ATOM      2  C1  UNL d   1      -5.998   1.447  -5.868  0.00  0.00     0.020 A 
ATOM      3  C2  UNL d   1      -5.934   2.840  -5.947  0.00  0.00     0.034 A 
ATOM      4  C3  UNL d   1      -4.697   3.492  -5.889  0.00  0.00     0.017 A 
ATOM      5  C4  UNL d   1      -3.523   2.743  -5.753  0.00  0.00     0.017 A 
ATOM      6  C5  UNL d   1      -3.593   1.348  -5.674  0.00  0.00     0.034 A 
ATOM      7 Cl   UNL d   1      -1.959   3.476  -5.675  0.00  0.00    -0.070 Cl
ATOM      8 Cl1  UNL d   1      -4.692   5.216  -5.993  0.00  0.00    -0.070 Cl
ENDROOT
TORSDOF 0
ENDMDL
