MODEL 1
REMARK minimizedAffinity 4.75749063
REMARK minimizedRMSD -1
REMARK  0 active torsions:
REMARK  status: ('A' for Active; 'I' for Inactive)
ROOT
ATOM      1  C   UNL d   1      -5.156   1.872  -5.829  0.00  0.00     0.020 A 
ATOM      2  C1  UNL d   1      -5.930   3.025  -5.950  0.00  0.00     0.020 A 
ATOM      3  C2  UNL d   1      -5.314   4.277  -6.000  0.00  0.00     0.034 A 
ATOM      4  C3  UNL d   1      -3.920   4.379  -5.928  0.00  0.00     0.017 A 
ATOM      5  C4  UNL d   1      -3.144   3.221  -5.806  0.00  0.00     0.017 A 
ATOM      6  C5  UNL d   1      -3.766   1.970  -5.757  0.00  0.00     0.034 A 
ATOM      7 Cl   UNL d   1      -1.418   3.267  -5.712  0.00  0.00    -0.070 Cl
ATOM      8 Cl1  UNL d   1      -3.225   5.960  -5.995  0.00  0.00    -0.070 Cl
ENDROOT
TORSDOF 0
ENDMDL
