MODEL 1
REMARK minimizedAffinity 2.36818027
REMARK minimizedRMSD -1
REMARK  1 active torsions:
REMARK  status: ('A' for Active; 'I' for Inactive)
REMARK    1  A    between atoms: C1_2  and  C2_3 
ROOT
ATOM      1  C2  UNL d   1      -0.579  -1.499  -2.548  0.00  0.00    -0.081 A 
ATOM      2  C3  UNL d   1      -0.751  -0.118  -2.390  0.00  0.00     0.006 A 
ATOM      3  C4  UNL d   1      -0.780   0.724  -3.504  0.00  0.00     0.002 A 
ATOM      4  C5  UNL d   1      -0.645   0.200  -4.794  0.00  0.00    -0.080 A 
ATOM      5  C6  UNL d   1      -0.705   1.089  -6.000  0.00  0.00     0.076 C 
ATOM      6  C7  UNL d   1      -0.455  -1.177  -4.951  0.00  0.00     0.002 A 
ATOM      7  C8  UNL d   1      -0.425  -2.020  -3.837  0.00  0.00     0.006 A 
ENDROOT
BRANCH   1   8
ATOM      8  C1  UNL d   1      -0.611  -2.417  -1.353  0.00  0.00     0.054 C 
ATOM      9  C   UNL d   1      -1.518  -1.870  -0.259  0.00  0.00     0.018 C 
ENDBRANCH   1   8
TORSDOF 1
ENDMDL
