MODEL 1
REMARK minimizedAffinity 5.00763321
REMARK minimizedRMSD -1
REMARK  1 active torsions:
REMARK  status: ('A' for Active; 'I' for Inactive)
REMARK    1  A    between atoms: C1_2  and  C2_3 
ROOT
ATOM      1  C2  UNL d   1      -1.334  -0.499  -5.229  0.00  0.00    -0.081 A 
ATOM      2  C3  UNL d   1      -0.218  -0.846  -6.000  0.00  0.00     0.006 A 
ATOM      3  C4  UNL d   1       0.791  -1.650  -5.464  0.00  0.00     0.002 A 
ATOM      4  C5  UNL d   1       0.697  -2.127  -4.152  0.00  0.00    -0.080 A 
ATOM      5  C6  UNL d   1       1.758  -3.016  -3.575  0.00  0.00     0.076 C 
ATOM      6  C7  UNL d   1      -0.410  -1.766  -3.376  0.00  0.00     0.002 A 
ATOM      7  C8  UNL d   1      -1.418  -0.962  -3.911  0.00  0.00     0.006 A 
ENDROOT
BRANCH   1   8
ATOM      8  C1  UNL d   1      -2.455   0.314  -5.825  0.00  0.00     0.054 C 
ATOM      9  C   UNL d   1      -3.794  -0.392  -5.671  0.00  0.00     0.018 C 
ENDBRANCH   1   8
TORSDOF 1
ENDMDL
