MODEL 1
REMARK minimizedAffinity -1.80356598
REMARK minimizedRMSD -1
REMARK  1 active torsions:
REMARK  status: ('A' for Active; 'I' for Inactive)
REMARK    1  A    between atoms: C1_2  and  C2_3 
ROOT
ATOM      1  C2  UNL d   1       1.673   0.669  -4.914  0.00  0.00    -0.081 A 
ATOM      2  C3  UNL d   1       1.028   0.033  -5.982  0.00  0.00     0.006 A 
ATOM      3  C4  UNL d   1      -0.363  -0.089  -5.997  0.00  0.00     0.002 A 
ATOM      4  C5  UNL d   1      -1.133   0.428  -4.950  0.00  0.00    -0.080 A 
ATOM      5  C6  UNL d   1      -2.630   0.330  -4.969  0.00  0.00     0.076 C 
ATOM      6  C7  UNL d   1      -0.488   1.048  -3.874  0.00  0.00     0.002 A 
ATOM      7  C8  UNL d   1       0.903   1.170  -3.858  0.00  0.00     0.006 A 
ENDROOT
BRANCH   1   8
ATOM      8  C1  UNL d   1       3.168   0.860  -4.925  0.00  0.00     0.054 C 
ATOM      9  C   UNL d   1       3.827   0.007  -6.000  0.00  0.00     0.018 C 
ENDBRANCH   1   8
TORSDOF 1
ENDMDL
