MODEL 1
REMARK minimizedAffinity -1.86372888
REMARK minimizedRMSD -1
REMARK  1 active torsions:
REMARK  status: ('A' for Active; 'I' for Inactive)
REMARK    1  A    between atoms: C1_2  and  C2_3 
ROOT
ATOM      1  C2  UNL d   1      -1.142  -1.194  -0.151  0.00  0.00    -0.081 A 
ATOM      2  C3  UNL d   1      -0.768  -1.107   1.196  0.00  0.00     0.006 A 
ATOM      3  C4  UNL d   1      -1.601  -0.475   2.123  0.00  0.00     0.002 A 
ATOM      4  C5  UNL d   1      -2.824   0.073   1.720  0.00  0.00    -0.080 A 
ATOM      5  C6  UNL d   1      -3.741   0.727   2.710  0.00  0.00     0.076 C 
ATOM      6  C7  UNL d   1      -3.189   0.002   0.371  0.00  0.00     0.002 A 
ATOM      7  C8  UNL d   1      -2.356  -0.629  -0.556  0.00  0.00     0.006 A 
ENDROOT
BRANCH   1   8
ATOM      8  C1  UNL d   1      -0.276  -1.931  -1.140  0.00  0.00     0.054 C 
ATOM      9  C   UNL d   1      -0.424  -1.356  -2.541  0.00  0.00     0.018 C 
ENDBRANCH   1   8
TORSDOF 1
ENDMDL
