MODEL 1
REMARK minimizedAffinity 12.1947479
REMARK minimizedRMSD -1
REMARK  0 active torsions:
REMARK  status: ('A' for Active; 'I' for Inactive)
ROOT
ATOM      1  C   UNL d   1       3.540  -2.502   4.895  0.00  0.00    -0.002 A 
ATOM      2  C1  UNL d   1       2.241  -2.946   4.687  0.00  0.00     0.010 A 
ATOM      3  C2  UNL d   1       1.401  -2.286   3.788  0.00  0.00     0.041 A 
ATOM      4  C3  UNL d   1       1.893  -1.164   3.093  0.00  0.00    -0.075 A 
ATOM      5  S   UNL d   1       1.045  -0.200   1.942  0.00  0.00     0.015 SA
ATOM      6  C4  UNL d   1       2.386   0.823   1.699  0.00  0.00     0.022 A 
ATOM      7  C5  UNL d   1       3.463   0.453   2.469  0.00  0.00     0.026 A 
ATOM      8  C6  UNL d   1       3.197  -0.699   3.285  0.00  0.00    -0.082 A 
ATOM      9  C7  UNL d   1       4.024  -1.388   4.204  0.00  0.00     0.045 A 
ENDROOT
TORSDOF 0
ENDMDL
