MODEL 1
REMARK minimizedAffinity 16.6923084
REMARK minimizedRMSD -1
REMARK  0 active torsions:
REMARK  status: ('A' for Active; 'I' for Inactive)
ROOT
ATOM      1  C   UNL d   1       2.396  -1.682   1.194  0.00  0.00    -0.002 A 
ATOM      2  C1  UNL d   1       2.016  -0.870   2.254  0.00  0.00     0.010 A 
ATOM      3  C2  UNL d   1       0.787  -0.207   2.236  0.00  0.00     0.041 A 
ATOM      4  C3  UNL d   1      -0.063  -0.377   1.126  0.00  0.00    -0.075 A 
ATOM      5  S   UNL d   1      -1.615   0.335   0.887  0.00  0.00     0.015 SA
ATOM      6  C4  UNL d   1      -1.811  -0.422  -0.628  0.00  0.00     0.022 A 
ATOM      7  C5  UNL d   1      -0.728  -1.202  -0.959  0.00  0.00     0.026 A 
ATOM      8  C6  UNL d   1       0.297  -1.189   0.047  0.00  0.00    -0.082 A 
ATOM      9  C7  UNL d   1       1.550  -1.847   0.094  0.00  0.00     0.045 A 
ENDROOT
TORSDOF 0
ENDMDL
