MODEL 1
REMARK minimizedAffinity 8.86040306
REMARK minimizedRMSD -1
REMARK  0 active torsions:
REMARK  status: ('A' for Active; 'I' for Inactive)
ROOT
ATOM      1  C   UNL d   1       5.860  -1.895   4.843  0.00  0.00    -0.002 A 
ATOM      2  C1  UNL d   1       5.185  -2.301   5.985  0.00  0.00     0.010 A 
ATOM      3  C2  UNL d   1       3.790  -2.369   6.000  0.00  0.00     0.041 A 
ATOM      4  C3  UNL d   1       3.079  -2.021   4.835  0.00  0.00    -0.075 A 
ATOM      5  S   UNL d   1       1.368  -2.029   4.620  0.00  0.00     0.015 SA
ATOM      6  C4  UNL d   1       1.493  -1.495   3.007  0.00  0.00     0.022 A 
ATOM      7  C5  UNL d   1       2.800  -1.310   2.625  0.00  0.00     0.026 A 
ATOM      8  C6  UNL d   1       3.736  -1.610   3.672  0.00  0.00    -0.082 A 
ATOM      9  C7  UNL d   1       5.150  -1.551   3.689  0.00  0.00     0.045 A 
ENDROOT
TORSDOF 0
ENDMDL
