MODEL 1
REMARK minimizedAffinity 6.73454666
REMARK minimizedRMSD -1
REMARK  0 active torsions:
REMARK  status: ('A' for Active; 'I' for Inactive)
ROOT
ATOM      1  C   UNL d   1       1.623  -1.457   4.085  0.00  0.00    -0.002 A 
ATOM      2  C1  UNL d   1       2.222  -1.313   2.842  0.00  0.00     0.010 A 
ATOM      3  C2  UNL d   1       3.577  -1.602   2.668  0.00  0.00     0.041 A 
ATOM      4  C3  UNL d   1       4.326  -2.046   3.776  0.00  0.00    -0.075 A 
ATOM      5  S   UNL d   1       6.000  -2.460   3.800  0.00  0.00     0.015 SA
ATOM      6  C4  UNL d   1       5.958  -2.840   5.461  0.00  0.00     0.022 A 
ATOM      7  C5  UNL d   1       4.706  -2.660   6.000  0.00  0.00     0.026 A 
ATOM      8  C6  UNL d   1       3.745  -2.200   5.038  0.00  0.00    -0.082 A 
ATOM      9  C7  UNL d   1       2.370  -1.897   5.181  0.00  0.00     0.045 A 
ENDROOT
TORSDOF 0
ENDMDL
