MODEL 1
REMARK minimizedAffinity 14.3799925
REMARK minimizedRMSD -1
REMARK  0 active torsions:
REMARK  status: ('A' for Active; 'I' for Inactive)
ROOT
ATOM      1  C   UNL d   1       2.205  -1.357   3.265  0.00  0.00    -0.002 A 
ATOM      2  C1  UNL d   1       1.874  -2.671   3.566  0.00  0.00     0.010 A 
ATOM      3  C2  UNL d   1       2.700  -3.441   4.387  0.00  0.00     0.041 A 
ATOM      4  C3  UNL d   1       3.875  -2.862   4.907  0.00  0.00    -0.075 A 
ATOM      5  S   UNL d   1       5.037  -3.614   5.935  0.00  0.00     0.015 SA
ATOM      6  C4  UNL d   1       5.999  -2.209   6.000  0.00  0.00     0.022 A 
ATOM      7  C5  UNL d   1       5.463  -1.182   5.260  0.00  0.00     0.026 A 
ATOM      8  C6  UNL d   1       4.229  -1.541   4.619  0.00  0.00    -0.082 A 
ATOM      9  C7  UNL d   1       3.371  -0.787   3.783  0.00  0.00     0.045 A 
ENDROOT
TORSDOF 0
ENDMDL
