MODEL 1
REMARK minimizedAffinity 22.1707268
REMARK minimizedRMSD -1
REMARK  0 active torsions:
REMARK  status: ('A' for Active; 'I' for Inactive)
ROOT
ATOM      1  C   UNL d   1      -0.947  -0.582  -0.366  0.00  0.00    -0.002 A 
ATOM      2  C1  UNL d   1      -0.004  -1.324  -1.062  0.00  0.00     0.010 A 
ATOM      3  C2  UNL d   1       1.347  -1.264  -0.712  0.00  0.00     0.041 A 
ATOM      4  C3  UNL d   1       1.736  -0.440   0.363  0.00  0.00    -0.075 A 
ATOM      5  S   UNL d   1       3.333  -0.211   0.971  0.00  0.00     0.015 SA
ATOM      6  C4  UNL d   1       2.801   0.876   2.170  0.00  0.00     0.022 A 
ATOM      7  C5  UNL d   1       1.441   1.071   2.122  0.00  0.00     0.026 A 
ATOM      8  C6  UNL d   1       0.805   0.315   1.080  0.00  0.00    -0.082 A 
ATOM      9  C7  UNL d   1      -0.557   0.235   0.699  0.00  0.00     0.045 A 
ENDROOT
TORSDOF 0
ENDMDL
