MODEL 1
REMARK minimizedAffinity 17.0243511
REMARK minimizedRMSD -1
REMARK  0 active torsions:
REMARK  status: ('A' for Active; 'I' for Inactive)
ROOT
ATOM      1  C   UNL d   1       1.439  -1.871   4.173  0.00  0.00    -0.002 A 
ATOM      2  C1  UNL d   1       1.933  -1.638   2.897  0.00  0.00     0.010 A 
ATOM      3  C2  UNL d   1       3.300  -1.740   2.636  0.00  0.00     0.041 A 
ATOM      4  C3  UNL d   1       4.171  -2.088   3.687  0.00  0.00    -0.075 A 
ATOM      5  S   UNL d   1       5.883  -2.273   3.600  0.00  0.00     0.015 SA
ATOM      6  C4  UNL d   1       5.999  -2.668   5.254  0.00  0.00     0.022 A 
ATOM      7  C5  UNL d   1       4.771  -2.663   5.873  0.00  0.00     0.026 A 
ATOM      8  C6  UNL d   1       3.697  -2.329   4.980  0.00  0.00    -0.082 A 
ATOM      9  C7  UNL d   1       2.306  -2.215   5.213  0.00  0.00     0.045 A 
ENDROOT
TORSDOF 0
ENDMDL
