MODEL 1
REMARK minimizedAffinity 12.5606461
REMARK minimizedRMSD -1
REMARK  0 active torsions:
REMARK  status: ('A' for Active; 'I' for Inactive)
ROOT
ATOM      1  C   UNL d   1       3.481  -5.967  -5.954  0.00  0.00    -0.002 A 
ATOM      2  C1  UNL d   1       4.834  -5.977  -5.648  0.00  0.00     0.010 A 
ATOM      3  C2  UNL d   1       5.262  -5.985  -4.319  0.00  0.00     0.041 A 
ATOM      4  C3  UNL d   1       4.297  -5.985  -3.293  0.00  0.00    -0.075 A 
ATOM      5  S   UNL d   1       4.587  -5.996  -1.593  0.00  0.00     0.015 SA
ATOM      6  C4  UNL d   1       2.921  -5.988  -1.234  0.00  0.00     0.022 A 
ATOM      7  C5  UNL d   1       2.148  -5.977  -2.370  0.00  0.00     0.026 A 
ATOM      8  C6  UNL d   1       2.928  -5.976  -3.576  0.00  0.00    -0.082 A 
ATOM      9  C7  UNL d   1       2.526  -5.967  -4.934  0.00  0.00     0.045 A 
ENDROOT
TORSDOF 0
ENDMDL
