MODEL 1
REMARK minimizedAffinity 6.64159107
REMARK minimizedRMSD -1
REMARK  0 active torsions:
REMARK  status: ('A' for Active; 'I' for Inactive)
ROOT
ATOM      1  C   UNL d   1       1.951  -0.314   3.150  0.00  0.00    -0.002 A 
ATOM      2  C1  UNL d   1       2.287  -0.524   1.820  0.00  0.00     0.010 A 
ATOM      3  C2  UNL d   1       2.601  -1.805   1.361  0.00  0.00     0.041 A 
ATOM      4  C3  UNL d   1       2.571  -2.881   2.270  0.00  0.00    -0.075 A 
ATOM      5  S   UNL d   1       2.918  -4.536   1.933  0.00  0.00     0.015 SA
ATOM      6  C4  UNL d   1       2.629  -5.002   3.547  0.00  0.00     0.022 A 
ATOM      7  C5  UNL d   1       2.275  -3.934   4.337  0.00  0.00     0.026 A 
ATOM      8  C6  UNL d   1       2.235  -2.694   3.614  0.00  0.00    -0.082 A 
ATOM      9  C7  UNL d   1       1.922  -1.384   4.048  0.00  0.00     0.045 A 
ENDROOT
TORSDOF 0
ENDMDL
