MODEL 1
REMARK minimizedAffinity 3.95738602
REMARK minimizedRMSD -1
REMARK  0 active torsions:
REMARK  status: ('A' for Active; 'I' for Inactive)
ROOT
ATOM      1  C   UNL d   1       0.160   3.283   1.257  0.00  0.00     0.172 C 
ATOM      2  N   UNL d   1      -0.952   4.192   1.106  0.00  0.00    -0.070 N 
ATOM      3  C1  UNL d   1      -0.879   5.467   0.612  0.00  0.00    -0.004 A 
ATOM      4  C2  UNL d   1      -2.150   5.999   0.630  0.00  0.00    -0.047 A 
ATOM      5  C3  UNL d   1      -3.016   5.010   1.153  0.00  0.00    -0.047 A 
ATOM      6  C4  UNL d   1      -2.248   3.901   1.439  0.00  0.00    -0.004 A 
ENDROOT
TORSDOF 0
ENDMDL
