MODEL 1
REMARK minimizedAffinity 1.35669589
REMARK minimizedRMSD -1
REMARK  0 active torsions:
REMARK  status: ('A' for Active; 'I' for Inactive)
ROOT
ATOM      1  C   UNL d   1      -5.568  -2.377  -4.470  0.00  0.00     0.172 C 
ATOM      2  N   UNL d   1      -5.682  -3.786  -4.765  0.00  0.00    -0.070 N 
ATOM      3  C1  UNL d   1      -5.517  -4.806  -3.867  0.00  0.00    -0.004 A 
ATOM      4  C2  UNL d   1      -5.708  -5.995  -4.538  0.00  0.00    -0.047 A 
ATOM      5  C3  UNL d   1      -5.997  -5.678  -5.887  0.00  0.00    -0.047 A 
ATOM      6  C4  UNL d   1      -5.974  -4.304  -6.000  0.00  0.00    -0.004 A 
ENDROOT
TORSDOF 0
ENDMDL
