MODEL 1
REMARK minimizedAffinity 0.535676241
REMARK minimizedRMSD -1
REMARK  0 active torsions:
REMARK  status: ('A' for Active; 'I' for Inactive)
ROOT
ATOM      1  C   UNL d   1       1.110  -2.261   2.397  0.00  0.00     0.172 C 
ATOM      2  N   UNL d   1       1.334  -2.599   3.783  0.00  0.00    -0.070 N 
ATOM      3  C1  UNL d   1       1.015  -1.813   4.858  0.00  0.00    -0.004 A 
ATOM      4  C2  UNL d   1       1.387  -2.489   6.000  0.00  0.00    -0.047 A 
ATOM      5  C3  UNL d   1       1.949  -3.724   5.597  0.00  0.00    -0.047 A 
ATOM      6  C4  UNL d   1       1.904  -3.766   4.220  0.00  0.00    -0.004 A 
ENDROOT
TORSDOF 0
ENDMDL
