MODEL 1
REMARK minimizedAffinity 2.04255319
REMARK minimizedRMSD -1
REMARK  0 active torsions:
REMARK  status: ('A' for Active; 'I' for Inactive)
ROOT
ATOM      1  C   UNL d   1       0.764  -5.235  -1.306  0.00  0.00     0.172 C 
ATOM      2  N   UNL d   1      -0.241  -4.630  -0.465  0.00  0.00    -0.070 N 
ATOM      3  C1  UNL d   1      -1.437  -5.198  -0.115  0.00  0.00    -0.004 A 
ATOM      4  C2  UNL d   1      -2.107  -4.306   0.694  0.00  0.00    -0.047 A 
ATOM      5  C3  UNL d   1      -1.286  -3.162   0.835  0.00  0.00    -0.047 A 
ATOM      6  C4  UNL d   1      -0.137  -3.390   0.107  0.00  0.00    -0.004 A 
ENDROOT
TORSDOF 0
ENDMDL
