MODEL 1
REMARK minimizedAffinity 5.88748598
REMARK minimizedRMSD -1
REMARK  0 active torsions:
REMARK  status: ('A' for Active; 'I' for Inactive)
ROOT
ATOM      1  C   UNL d   1       1.336  -1.858   2.430  0.00  0.00     0.172 C 
ATOM      2  N   UNL d   1       1.525  -2.328   3.782  0.00  0.00    -0.070 N 
ATOM      3  C1  UNL d   1       1.030  -1.731   4.911  0.00  0.00    -0.004 A 
ATOM      4  C2  UNL d   1       1.429  -2.483   5.995  0.00  0.00    -0.047 A 
ATOM      5  C3  UNL d   1       2.192  -3.568   5.501  0.00  0.00    -0.047 A 
ATOM      6  C4  UNL d   1       2.235  -3.447   4.128  0.00  0.00    -0.004 A 
ENDROOT
TORSDOF 0
ENDMDL
