MODEL 1
REMARK minimizedAffinity 7.05065489
REMARK minimizedRMSD -1
REMARK  0 active torsions:
REMARK  status: ('A' for Active; 'I' for Inactive)
ROOT
ATOM      1  C   UNL d   1      -3.913   2.669  -5.999  0.00  0.00     0.172 C 
ATOM      2  N   UNL d   1      -3.835   3.213  -4.664  0.00  0.00    -0.070 N 
ATOM      3  C1  UNL d   1      -3.873   2.489  -3.503  0.00  0.00    -0.004 A 
ATOM      4  C2  UNL d   1      -3.771   3.373  -2.450  0.00  0.00    -0.047 A 
ATOM      5  C3  UNL d   1      -3.669   4.674  -2.998  0.00  0.00    -0.047 A 
ATOM      6  C4  UNL d   1      -3.712   4.546  -4.370  0.00  0.00    -0.004 A 
ENDROOT
TORSDOF 0
ENDMDL
