MODEL 1
REMARK minimizedAffinity 3.16292787
REMARK minimizedRMSD -1
REMARK  0 active torsions:
REMARK  status: ('A' for Active; 'I' for Inactive)
ROOT
ATOM      1  C   UNL d   1       0.800  -2.907   5.613  0.00  0.00     0.172 C 
ATOM      2  N   UNL d   1       1.116  -2.551   4.250  0.00  0.00    -0.070 N 
ATOM      3  C1  UNL d   1       1.770  -3.347   3.348  0.00  0.00    -0.004 A 
ATOM      4  C2  UNL d   1       1.875  -2.647   2.165  0.00  0.00    -0.047 A 
ATOM      5  C3  UNL d   1       1.264  -1.386   2.364  0.00  0.00    -0.047 A 
ATOM      6  C4  UNL d   1       0.803  -1.353   3.663  0.00  0.00    -0.004 A 
ENDROOT
TORSDOF 0
ENDMDL
