MODEL 1
REMARK minimizedAffinity 4.93619061
REMARK minimizedRMSD -1
REMARK  0 active torsions:
REMARK  status: ('A' for Active; 'I' for Inactive)
ROOT
ATOM      1  C   UNL d   1      -3.112   1.363  -2.349  0.00  0.00     0.172 C 
ATOM      2  N   UNL d   1      -3.419   2.554  -3.105  0.00  0.00    -0.070 N 
ATOM      3  C1  UNL d   1      -3.994   3.692  -2.604  0.00  0.00    -0.004 A 
ATOM      4  C2  UNL d   1      -4.119   4.593  -3.640  0.00  0.00    -0.047 A 
ATOM      5  C3  UNL d   1      -3.601   3.975  -4.803  0.00  0.00    -0.047 A 
ATOM      6  C4  UNL d   1      -3.174   2.714  -4.443  0.00  0.00    -0.004 A 
ENDROOT
TORSDOF 0
ENDMDL
