MODEL 1
REMARK minimizedAffinity 5.14517069
REMARK minimizedRMSD -1
REMARK  0 active torsions:
REMARK  status: ('A' for Active; 'I' for Inactive)
ROOT
ATOM      1  C   UNL d   1       0.484  -2.938   5.998  0.00  0.00     0.172 C 
ATOM      2  N   UNL d   1       0.690  -2.242   4.750  0.00  0.00    -0.070 N 
ATOM      3  C1  UNL d   1       0.462  -0.910   4.532  0.00  0.00    -0.004 A 
ATOM      4  C2  UNL d   1       0.780  -0.636   3.219  0.00  0.00    -0.047 A 
ATOM      5  C3  UNL d   1       1.212  -1.847   2.627  0.00  0.00    -0.047 A 
ATOM      6  C4  UNL d   1       1.147  -2.824   3.597  0.00  0.00    -0.004 A 
ENDROOT
TORSDOF 0
ENDMDL
