MODEL 1
REMARK minimizedAffinity 4.44167042
REMARK minimizedRMSD -1
REMARK  0 active torsions:
REMARK  status: ('A' for Active; 'I' for Inactive)
ROOT
ATOM      1  C   UNL d   1      -2.213  -4.579   0.029  0.00  0.00     0.172 C 
ATOM      2  N   UNL d   1      -0.846  -4.881  -0.326  0.00  0.00    -0.070 N 
ATOM      3  C1  UNL d   1       0.182  -5.080   0.556  0.00  0.00    -0.004 A 
ATOM      4  C2  UNL d   1       1.321  -5.343  -0.175  0.00  0.00    -0.047 A 
ATOM      5  C3  UNL d   1       0.964  -5.299  -1.544  0.00  0.00    -0.047 A 
ATOM      6  C4  UNL d   1      -0.383  -5.012  -1.609  0.00  0.00    -0.004 A 
ENDROOT
TORSDOF 0
ENDMDL
