MODEL 1
REMARK minimizedAffinity 7.16077137
REMARK minimizedRMSD -1
REMARK  0 active torsions:
REMARK  status: ('A' for Active; 'I' for Inactive)
ROOT
ATOM      1  C   UNL d   1       0.923  -1.915   2.497  0.00  0.00     0.172 C 
ATOM      2  N   UNL d   1       1.251  -2.448   3.798  0.00  0.00    -0.070 N 
ATOM      3  C1  UNL d   1       0.818  -1.949   4.998  0.00  0.00    -0.004 A 
ATOM      4  C2  UNL d   1       1.348  -2.735   5.998  0.00  0.00    -0.047 A 
ATOM      5  C3  UNL d   1       2.127  -3.741   5.378  0.00  0.00    -0.047 A 
ATOM      6  C4  UNL d   1       2.049  -3.540   4.016  0.00  0.00    -0.004 A 
ENDROOT
TORSDOF 0
ENDMDL
