MODEL 1
REMARK minimizedAffinity 6.99939251
REMARK minimizedRMSD -1
REMARK  0 active torsions:
REMARK  status: ('A' for Active; 'I' for Inactive)
ROOT
ATOM      1  C1  DEN d   1       1.890  -2.630  -1.873  0.00  0.00     0.130 A 
ATOM      2  C2  DEN d   1       1.628  -2.884  -3.287  0.00  0.00    -0.031 A 
ATOM      3  C3  DEN d   1       2.481  -4.010  -3.715  0.00  0.00     0.027 A 
ATOM      4  C4  DEN d   1       4.170  -5.383  -2.332  0.00  0.00     0.027 A 
ATOM      5  C5  DEN d   1       4.746  -5.532  -1.089  0.00  0.00    -0.003 A 
ATOM      6  C6  DEN d   1       4.438  -4.709  -0.039  0.00  0.00     0.001 A 
ATOM      7  C7  DEN d   1       3.495  -3.728  -0.199  0.00  0.00     0.017 A 
ATOM      8  C8  DEN d   1       2.916  -3.567  -1.451  0.00  0.00    -0.094 A 
ATOM      9  C9  DEN d   1       3.232  -4.417  -2.497  0.00  0.00    -0.072 A 
ENDROOT
TORSDOF 0
ENDMDL
