MODEL 1
REMARK minimizedAffinity 7.35502625
REMARK minimizedRMSD -1
REMARK  0 active torsions:
REMARK  status: ('A' for Active; 'I' for Inactive)
ROOT
ATOM      1  C1  DEN d   1       3.370  -4.239  -0.241  0.00  0.00     0.130 A 
ATOM      2  C2  DEN d   1       4.646  -4.846   0.126  0.00  0.00    -0.031 A 
ATOM      3  C3  DEN d   1       5.328  -5.262  -1.116  0.00  0.00     0.027 A 
ATOM      4  C4  DEN d   1       4.536  -5.021  -3.559  0.00  0.00     0.027 A 
ATOM      5  C5  DEN d   1       3.514  -4.580  -4.370  0.00  0.00    -0.003 A 
ATOM      6  C6  DEN d   1       2.366  -4.030  -3.864  0.00  0.00     0.001 A 
ATOM      7  C7  DEN d   1       2.233  -3.865  -2.510  0.00  0.00     0.017 A 
ATOM      8  C8  DEN d   1       3.256  -4.314  -1.686  0.00  0.00    -0.094 A 
ATOM      9  C9  DEN d   1       4.414  -4.856  -2.218  0.00  0.00    -0.072 A 
ENDROOT
TORSDOF 0
ENDMDL
