MODEL 1
REMARK minimizedAffinity 10.9664888
REMARK minimizedRMSD -1
REMARK  0 active torsions:
REMARK  status: ('A' for Active; 'I' for Inactive)
ROOT
ATOM      1  C1  DEN d   1       4.918  -4.181  -0.736  0.00  0.00     0.130 A 
ATOM      2  C2  DEN d   1       4.107  -4.510   0.433  0.00  0.00    -0.031 A 
ATOM      3  C3  DEN d   1       2.761  -4.892  -0.038  0.00  0.00     0.027 A 
ATOM      4  C4  DEN d   1       1.859  -5.010  -2.451  0.00  0.00     0.027 A 
ATOM      5  C5  DEN d   1       2.173  -4.811  -3.778  0.00  0.00    -0.003 A 
ATOM      6  C6  DEN d   1       3.403  -4.360  -4.178  0.00  0.00     0.001 A 
ATOM      7  C7  DEN d   1       4.380  -4.135  -3.244  0.00  0.00     0.017 A 
ATOM      8  C8  DEN d   1       4.069  -4.326  -1.904  0.00  0.00    -0.094 A 
ATOM      9  C9  DEN d   1       2.823  -4.794  -1.521  0.00  0.00    -0.072 A 
ENDROOT
TORSDOF 0
ENDMDL
