MODEL 1
REMARK minimizedAffinity 5.02318478
REMARK minimizedRMSD -1
REMARK  0 active torsions:
REMARK  status: ('A' for Active; 'I' for Inactive)
ROOT
ATOM      1  C1  DEN d   1       1.690  -2.570  -1.980  0.00  0.00     0.130 A 
ATOM      2  C2  DEN d   1       1.702  -2.570  -3.440  0.00  0.00    -0.031 A 
ATOM      3  C3  DEN d   1       2.681  -3.580  -3.889  0.00  0.00     0.027 A 
ATOM      4  C4  DEN d   1       4.168  -5.140  -2.472  0.00  0.00     0.027 A 
ATOM      5  C5  DEN d   1       4.517  -5.498  -1.188  0.00  0.00    -0.003 A 
ATOM      6  C6  DEN d   1       3.977  -4.886  -0.088  0.00  0.00     0.001 A 
ATOM      7  C7  DEN d   1       3.025  -3.914  -0.250  0.00  0.00     0.017 A 
ATOM      8  C8  DEN d   1       2.674  -3.543  -1.541  0.00  0.00    -0.094 A 
ATOM      9  C9  DEN d   1       3.221  -4.182  -2.641  0.00  0.00    -0.072 A 
ENDROOT
TORSDOF 0
ENDMDL
