MODEL 1
REMARK minimizedAffinity 0.0653100163
REMARK minimizedRMSD -1
REMARK  0 active torsions:
REMARK  status: ('A' for Active; 'I' for Inactive)
ROOT
ATOM      1  C1  DEN d   1       4.775  -4.281  -0.863  0.00  0.00     0.130 A 
ATOM      2  C2  DEN d   1       3.826  -3.938   0.192  0.00  0.00    -0.031 A 
ATOM      3  C3  DEN d   1       2.609  -3.398  -0.445  0.00  0.00     0.027 A 
ATOM      4  C4  DEN d   1       2.102  -3.066  -2.952  0.00  0.00     0.027 A 
ATOM      5  C5  DEN d   1       2.606  -3.201  -4.227  0.00  0.00    -0.003 A 
ATOM      6  C6  DEN d   1       3.870  -3.669  -4.467  0.00  0.00     0.001 A 
ATOM      7  C7  DEN d   1       4.658  -4.063  -3.417  0.00  0.00     0.017 A 
ATOM      8  C8  DEN d   1       4.160  -3.923  -2.129  0.00  0.00    -0.094 A 
ATOM      9  C9  DEN d   1       2.874  -3.459  -1.908  0.00  0.00    -0.072 A 
ENDROOT
TORSDOF 0
ENDMDL
