MODEL 1
REMARK minimizedAffinity 4.00708961
REMARK minimizedRMSD -1
REMARK  0 active torsions:
REMARK  status: ('A' for Active; 'I' for Inactive)
ROOT
ATOM      1  C1  DEN d   1      -4.114  -2.050   3.876  0.00  0.00     0.130 A 
ATOM      2  C2  DEN d   1      -5.090  -1.407   3.001  0.00  0.00    -0.031 A 
ATOM      3  C3  DEN d   1      -6.000  -2.450   2.487  0.00  0.00     0.027 A 
ATOM      4  C4  DEN d   1      -5.996  -4.985   2.964  0.00  0.00     0.027 A 
ATOM      5  C5  DEN d   1      -5.351  -6.000   3.637  0.00  0.00    -0.003 A 
ATOM      6  C6  DEN d   1      -4.239  -5.776   4.403  0.00  0.00     0.001 A 
ATOM      7  C7  DEN d   1      -3.762  -4.500   4.552  0.00  0.00     0.017 A 
ATOM      8  C8  DEN d   1      -4.402  -3.473   3.871  0.00  0.00    -0.094 A 
ATOM      9  C9  DEN d   1      -5.533  -3.718   3.111  0.00  0.00    -0.072 A 
ENDROOT
TORSDOF 0
ENDMDL
