MODEL 1
REMARK minimizedAffinity 14.8144693
REMARK minimizedRMSD -1
REMARK  0 active torsions:
REMARK  status: ('A' for Active; 'I' for Inactive)
ROOT
ATOM      1  C1  DEN d   1      -3.687  -1.584   2.561  0.00  0.00     0.130 A 
ATOM      2  C2  DEN d   1      -4.881  -1.111   1.865  0.00  0.00    -0.031 A 
ATOM      3  C3  DEN d   1      -6.000  -2.010   2.215  0.00  0.00     0.027 A 
ATOM      4  C4  DEN d   1      -6.000  -4.074   3.762  0.00  0.00     0.027 A 
ATOM      5  C5  DEN d   1      -5.219  -4.873   4.568  0.00  0.00    -0.003 A 
ATOM      6  C6  DEN d   1      -3.877  -4.654   4.733  0.00  0.00     0.001 A 
ATOM      7  C7  DEN d   1      -3.284  -3.583   4.118  0.00  0.00     0.017 A 
ATOM      8  C8  DEN d   1      -4.063  -2.777   3.298  0.00  0.00    -0.094 A 
ATOM      9  C9  DEN d   1      -5.420  -3.008   3.154  0.00  0.00    -0.072 A 
ENDROOT
TORSDOF 0
ENDMDL
