MODEL 1
REMARK minimizedAffinity 8.35823059
REMARK minimizedRMSD -1
REMARK  0 active torsions:
REMARK  status: ('A' for Active; 'I' for Inactive)
ROOT
ATOM      1  C1  DEN d   1       4.688  -5.240  -0.725  0.00  0.00     0.130 A 
ATOM      2  C2  DEN d   1       4.033  -4.572   0.396  0.00  0.00    -0.031 A 
ATOM      3  C3  DEN d   1       2.857  -3.848  -0.127  0.00  0.00     0.027 A 
ATOM      4  C4  DEN d   1       1.989  -3.701  -2.552  0.00  0.00     0.027 A 
ATOM      5  C5  DEN d   1       2.220  -4.092  -3.852  0.00  0.00    -0.003 A 
ATOM      6  C6  DEN d   1       3.299  -4.858  -4.204  0.00  0.00     0.001 A 
ATOM      7  C7  DEN d   1       4.165  -5.296  -3.237  0.00  0.00     0.017 A 
ATOM      8  C8  DEN d   1       3.943  -4.900  -1.924  0.00  0.00    -0.094 A 
ATOM      9  C9  DEN d   1       2.839  -4.135  -1.587  0.00  0.00    -0.072 A 
ENDROOT
TORSDOF 0
ENDMDL
