MODEL 1
REMARK minimizedAffinity 1.25513482
REMARK minimizedRMSD -1
REMARK  0 active torsions:
REMARK  status: ('A' for Active; 'I' for Inactive)
ROOT
ATOM      1  C1  DEN d   1       2.609  -2.866  -0.266  0.00  0.00     0.130 A 
ATOM      2  C2  DEN d   1       1.868  -1.651  -0.593  0.00  0.00    -0.031 A 
ATOM      3  C3  DEN d   1       1.897  -1.479  -2.059  0.00  0.00     0.027 A 
ATOM      4  C4  DEN d   1       3.008  -2.971  -3.846  0.00  0.00     0.027 A 
ATOM      5  C5  DEN d   1       3.761  -4.106  -4.051  0.00  0.00    -0.003 A 
ATOM      6  C6  DEN d   1       4.208  -4.882  -3.015  0.00  0.00     0.001 A 
ATOM      7  C7  DEN d   1       3.867  -4.558  -1.728  0.00  0.00     0.017 A 
ATOM      8  C8  DEN d   1       3.114  -3.411  -1.513  0.00  0.00    -0.094 A 
ATOM      9  C9  DEN d   1       2.662  -2.647  -2.575  0.00  0.00    -0.072 A 
ENDROOT
TORSDOF 0
ENDMDL
