MODEL 1
REMARK minimizedAffinity 2.39403176
REMARK minimizedRMSD -1
REMARK  0 active torsions:
REMARK  status: ('A' for Active; 'I' for Inactive)
ROOT
ATOM      1  C1  DEN d   1       2.094  -3.793  -3.765  0.00  0.00     0.130 A 
ATOM      2  C2  DEN d   1       2.760  -5.027  -3.356  0.00  0.00    -0.031 A 
ATOM      3  C3  DEN d   1       3.241  -4.849  -1.972  0.00  0.00     0.027 A 
ATOM      4  C4  DEN d   1       3.018  -2.795  -0.427  0.00  0.00     0.027 A 
ATOM      5  C5  DEN d   1       2.542  -1.506  -0.336  0.00  0.00    -0.003 A 
ATOM      6  C6  DEN d   1       1.920  -0.881  -1.384  0.00  0.00     0.001 A 
ATOM      7  C7  DEN d   1       1.715  -1.562  -2.555  0.00  0.00     0.017 A 
ATOM      8  C8  DEN d   1       2.198  -2.860  -2.657  0.00  0.00    -0.094 A 
ATOM      9  C9  DEN d   1       2.814  -3.478  -1.582  0.00  0.00    -0.072 A 
ENDROOT
TORSDOF 0
ENDMDL
