MODEL 1
REMARK minimizedAffinity 0.472813696
REMARK minimizedRMSD -1
REMARK  0 active torsions:
REMARK  status: ('A' for Active; 'I' for Inactive)
ROOT
ATOM      1  C1  DEN d   1       4.909  -5.059  -0.818  0.00  0.00     0.130 A 
ATOM      2  C2  DEN d   1       4.061  -4.491   0.225  0.00  0.00    -0.031 A 
ATOM      3  C3  DEN d   1       2.951  -3.770  -0.431  0.00  0.00     0.027 A 
ATOM      4  C4  DEN d   1       2.465  -3.487  -2.948  0.00  0.00     0.027 A 
ATOM      5  C5  DEN d   1       2.911  -3.781  -4.218  0.00  0.00    -0.003 A 
ATOM      6  C6  DEN d   1       4.063  -4.487  -4.442  0.00  0.00     0.001 A 
ATOM      7  C7  DEN d   1       4.785  -4.962  -3.379  0.00  0.00     0.017 A 
ATOM      8  C8  DEN d   1       4.346  -4.663  -2.096  0.00  0.00    -0.094 A 
ATOM      9  C9  DEN d   1       3.172  -3.958  -1.890  0.00  0.00    -0.072 A 
ENDROOT
TORSDOF 0
ENDMDL
