MODEL 1
REMARK minimizedAffinity 7.41245079
REMARK minimizedRMSD -1
REMARK  0 active torsions:
REMARK  status: ('A' for Active; 'I' for Inactive)
ROOT
ATOM      1  C1  DEN d   1       4.482  -5.069  -0.844  0.00  0.00     0.130 A 
ATOM      2  C2  DEN d   1       3.701  -4.547   0.274  0.00  0.00    -0.031 A 
ATOM      3  C3  DEN d   1       2.660  -3.654  -0.274  0.00  0.00     0.027 A 
ATOM      4  C4  DEN d   1       2.182  -3.036  -2.732  0.00  0.00     0.027 A 
ATOM      5  C5  DEN d   1       2.586  -3.222  -4.036  0.00  0.00    -0.003 A 
ATOM      6  C6  DEN d   1       3.663  -4.003  -4.361  0.00  0.00     0.001 A 
ATOM      7  C7  DEN d   1       4.346  -4.664  -3.374  0.00  0.00     0.017 A 
ATOM      8  C8  DEN d   1       3.948  -4.476  -2.057  0.00  0.00    -0.094 A 
ATOM      9  C9  DEN d   1       2.849  -3.692  -1.749  0.00  0.00    -0.072 A 
ENDROOT
TORSDOF 0
ENDMDL
