MODEL 1
REMARK minimizedAffinity -1.55054319
REMARK minimizedRMSD -1
REMARK  0 active torsions:
REMARK  status: ('A' for Active; 'I' for Inactive)
ROOT
ATOM      1  C1  DEN d   1       2.915  -3.694   0.028  0.00  0.00     0.130 A 
ATOM      2  C2  DEN d   1       4.166  -4.397   0.300  0.00  0.00    -0.031 A 
ATOM      3  C3  DEN d   1       4.800  -4.718  -0.995  0.00  0.00     0.027 A 
ATOM      4  C4  DEN d   1       3.972  -4.193  -3.381  0.00  0.00     0.027 A 
ATOM      5  C5  DEN d   1       2.957  -3.623  -4.117  0.00  0.00    -0.003 A 
ATOM      6  C6  DEN d   1       1.850  -3.071  -3.528  0.00  0.00     0.001 A 
ATOM      7  C7  DEN d   1       1.753  -3.037  -2.162  0.00  0.00     0.017 A 
ATOM      8  C8  DEN d   1       2.769  -3.617  -1.414  0.00  0.00    -0.094 A 
ATOM      9  C9  DEN d   1       3.885  -4.159  -2.027  0.00  0.00    -0.072 A 
ENDROOT
TORSDOF 0
ENDMDL
