MODEL 1
REMARK minimizedAffinity 8.31331158
REMARK minimizedRMSD -1
REMARK  0 active torsions:
REMARK  status: ('A' for Active; 'I' for Inactive)
ROOT
ATOM      1  C1  DEN d   1       2.782  -4.481  -0.271  0.00  0.00     0.130 A 
ATOM      2  C2  DEN d   1       4.108  -4.905   0.172  0.00  0.00    -0.031 A 
ATOM      3  C3  DEN d   1       4.935  -5.141  -1.028  0.00  0.00     0.027 A 
ATOM      4  C4  DEN d   1       4.298  -4.888  -3.515  0.00  0.00     0.027 A 
ATOM      5  C5  DEN d   1       3.281  -4.565  -4.386  0.00  0.00    -0.003 A 
ATOM      6  C6  DEN d   1       2.027  -4.226  -3.951  0.00  0.00     0.001 A 
ATOM      7  C7  DEN d   1       1.770  -4.159  -2.607  0.00  0.00     0.017 A 
ATOM      8  C8  DEN d   1       2.788  -4.492  -1.723  0.00  0.00    -0.094 A 
ATOM      9  C9  DEN d   1       4.053  -4.820  -2.182  0.00  0.00    -0.072 A 
ENDROOT
TORSDOF 0
ENDMDL
