MODEL 1
REMARK minimizedAffinity 3.04427385
REMARK minimizedRMSD -1
REMARK  0 active torsions:
REMARK  status: ('A' for Active; 'I' for Inactive)
ROOT
ATOM      1  C1  DEN d   1       4.116  -3.453  -0.271  0.00  0.00     0.130 A 
ATOM      2  C2  DEN d   1       4.697  -4.661   0.309  0.00  0.00    -0.031 A 
ATOM      3  C3  DEN d   1       4.240  -5.816  -0.489  0.00  0.00     0.027 A 
ATOM      4  C4  DEN d   1       2.700  -5.852  -2.558  0.00  0.00     0.027 A 
ATOM      5  C5  DEN d   1       1.951  -5.075  -3.413  0.00  0.00    -0.003 A 
ATOM      6  C6  DEN d   1       1.844  -3.718  -3.262  0.00  0.00     0.001 A 
ATOM      7  C7  DEN d   1       2.534  -3.090  -2.259  0.00  0.00     0.017 A 
ATOM      8  C8  DEN d   1       3.286  -3.868  -1.388  0.00  0.00    -0.094 A 
ATOM      9  C9  DEN d   1       3.390  -5.237  -1.565  0.00  0.00    -0.072 A 
ENDROOT
TORSDOF 0
ENDMDL
