MODEL 1
REMARK minimizedAffinity 8.47621059
REMARK minimizedRMSD -1
REMARK  0 active torsions:
REMARK  status: ('A' for Active; 'I' for Inactive)
ROOT
ATOM      1  C1  DEN d   1      -4.075  -5.451  -5.973  0.00  0.00     0.130 A 
ATOM      2  C2  DEN d   1      -2.619  -5.567  -5.970  0.00  0.00    -0.031 A 
ATOM      3  C3  DEN d   1      -2.052  -4.204  -5.957  0.00  0.00     0.027 A 
ATOM      4  C4  DEN d   1      -3.279  -1.936  -5.937  0.00  0.00     0.027 A 
ATOM      5  C5  DEN d   1      -4.515  -1.328  -5.946  0.00  0.00    -0.003 A 
ATOM      6  C6  DEN d   1      -5.681  -2.046  -5.999  0.00  0.00     0.001 A 
ATOM      7  C7  DEN d   1      -5.636  -3.415  -5.999  0.00  0.00     0.017 A 
ATOM      8  C8  DEN d   1      -4.393  -4.034  -5.997  0.00  0.00    -0.094 A 
ATOM      9  C9  DEN d   1      -3.227  -3.292  -5.931  0.00  0.00    -0.072 A 
ENDROOT
TORSDOF 0
ENDMDL
