MODEL 1
REMARK minimizedAffinity 20.6679535
REMARK minimizedRMSD -1
REMARK  0 active torsions:
REMARK  status: ('A' for Active; 'I' for Inactive)
ROOT
ATOM      1  C1  DEN d   1      -2.602  -5.557  -3.199  0.00  0.00     0.130 A 
ATOM      2  C2  DEN d   1      -1.472  -4.793  -2.677  0.00  0.00    -0.031 A 
ATOM      3  C3  DEN d   1      -1.433  -3.497  -3.382  0.00  0.00     0.027 A 
ATOM      4  C4  DEN d   1      -3.006  -2.599  -5.218  0.00  0.00     0.027 A 
ATOM      5  C5  DEN d   1      -4.104  -2.891  -5.996  0.00  0.00    -0.003 A 
ATOM      6  C6  DEN d   1      -4.753  -4.096  -5.922  0.00  0.00     0.001 A 
ATOM      7  C7  DEN d   1      -4.336  -5.036  -5.017  0.00  0.00     0.017 A 
ATOM      8  C8  DEN d   1      -3.225  -4.752  -4.234  0.00  0.00    -0.094 A 
ATOM      9  C9  DEN d   1      -2.591  -3.524  -4.315  0.00  0.00    -0.072 A 
ENDROOT
TORSDOF 0
ENDMDL
