MODEL 1
REMARK minimizedAffinity 25.2800407
REMARK minimizedRMSD -1
REMARK  0 active torsions:
REMARK  status: ('A' for Active; 'I' for Inactive)
ROOT
ATOM      1  C1  DEN d   1       0.205   1.396   4.290  0.00  0.00     0.130 A 
ATOM      2  C2  DEN d   1       0.748   1.567   2.945  0.00  0.00    -0.031 A 
ATOM      3  C3  DEN d   1      -0.371   1.471   1.986  0.00  0.00     0.027 A 
ATOM      4  C4  DEN d   1      -2.878   1.082   2.452  0.00  0.00     0.027 A 
ATOM      5  C5  DEN d   1      -3.817   0.868   3.436  0.00  0.00    -0.003 A 
ATOM      6  C6  DEN d   1      -3.479   0.782   4.761  0.00  0.00     0.001 A 
ATOM      7  C7  DEN d   1      -2.175   0.955   5.142  0.00  0.00     0.017 A 
ATOM      8  C8  DEN d   1      -1.222   1.164   4.154  0.00  0.00    -0.094 A 
ATOM      9  C9  DEN d   1      -1.585   1.260   2.821  0.00  0.00    -0.072 A 
ENDROOT
TORSDOF 0
ENDMDL
