MODEL 1
REMARK minimizedAffinity -3.3535614
REMARK minimizedRMSD -1
REMARK  0 active torsions:
REMARK  status: ('A' for Active; 'I' for Inactive)
ROOT
ATOM      1  N1  IND d   1       1.089  -3.144  -0.824  0.00  0.00    -0.196 N 
ATOM      2  C2  IND d   1       2.238  -3.368  -1.530  0.00  0.00     0.054 A 
ATOM      3  C3  IND d   1       2.806  -2.194  -1.888  0.00  0.00    -0.031 A 
ATOM      4  C4  IND d   1       2.076   0.212  -1.336  0.00  0.00     0.051 A 
ATOM      5  C5  IND d   1       1.069   0.924  -0.747  0.00  0.00    -0.031 A 
ATOM      6  C6  IND d   1      -0.003   0.303  -0.138  0.00  0.00     0.015 A 
ATOM      7  C7  IND d   1      -0.103  -1.058  -0.087  0.00  0.00    -0.016 A 
ATOM      8  C8  IND d   1       0.914  -1.784  -0.690  0.00  0.00    -0.047 A 
ATOM      9  C9  IND d   1       1.983  -1.160  -1.346  0.00  0.00    -0.096 A 
ATOM     10  HN1 IND d   1       0.564  -3.751  -0.516  0.00  0.00     0.298 HD
ENDROOT
TORSDOF 0
ENDMDL
