MODEL 1
REMARK minimizedAffinity -5.48111534
REMARK minimizedRMSD -1
REMARK  0 active torsions:
REMARK  status: ('A' for Active; 'I' for Inactive)
ROOT
ATOM      1  N1  IND d   1       0.998  -2.802  -0.544  0.00  0.00    -0.196 N 
ATOM      2  C2  IND d   1       1.978  -3.018  -1.473  0.00  0.00     0.054 A 
ATOM      3  C3  IND d   1       2.351  -1.850  -2.043  0.00  0.00    -0.031 A 
ATOM      4  C4  IND d   1       1.561   0.546  -1.532  0.00  0.00     0.051 A 
ATOM      5  C5  IND d   1       0.652   1.245  -0.787  0.00  0.00    -0.031 A 
ATOM      6  C6  IND d   1      -0.203   0.618   0.096  0.00  0.00     0.015 A 
ATOM      7  C7  IND d   1      -0.174  -0.736   0.277  0.00  0.00    -0.016 A 
ATOM      8  C8  IND d   1       0.743  -1.450  -0.483  0.00  0.00    -0.047 A 
ATOM      9  C9  IND d   1       1.584  -0.824  -1.411  0.00  0.00    -0.096 A 
ATOM     10  HN1 IND d   1       0.607  -3.409  -0.077  0.00  0.00     0.298 HD
ENDROOT
TORSDOF 0
ENDMDL
