MODEL 1
REMARK minimizedAffinity -3.11312461
REMARK minimizedRMSD -1
REMARK  0 active torsions:
REMARK  status: ('A' for Active; 'I' for Inactive)
ROOT
ATOM      1  N1  IND d   1      -0.331  -1.406   1.193  0.00  0.00    -0.196 N 
ATOM      2  C2  IND d   1       0.023  -2.575   0.580  0.00  0.00     0.054 A 
ATOM      3  C3  IND d   1       0.782  -2.324  -0.510  0.00  0.00    -0.031 A 
ATOM      4  C4  IND d   1       1.650  -0.076  -1.415  0.00  0.00     0.051 A 
ATOM      5  C5  IND d   1       1.561   1.273  -1.214  0.00  0.00    -0.031 A 
ATOM      6  C6  IND d   1       0.824   1.809  -0.177  0.00  0.00     0.015 A 
ATOM      7  C7  IND d   1       0.155   1.011   0.707  0.00  0.00    -0.016 A 
ATOM      8  C8  IND d   1       0.237  -0.359   0.502  0.00  0.00    -0.047 A 
ATOM      9  C9  IND d   1       0.949  -0.907  -0.573  0.00  0.00    -0.096 A 
ATOM     10  HN1 IND d   1      -0.826  -1.336   1.893  0.00  0.00     0.298 HD
ENDROOT
TORSDOF 0
ENDMDL
