MODEL 1
REMARK minimizedAffinity 2.44132495
REMARK minimizedRMSD -1
REMARK  0 active torsions:
REMARK  status: ('A' for Active; 'I' for Inactive)
ROOT
ATOM      1  N1  IND d   1      -0.124  -0.531   0.932  0.00  0.00    -0.196 N 
ATOM      2  C2  IND d   1       0.378  -1.697   0.426  0.00  0.00     0.054 A 
ATOM      3  C3  IND d   1       1.271  -1.438  -0.555  0.00  0.00    -0.031 A 
ATOM      4  C4  IND d   1       2.135   0.826  -1.424  0.00  0.00     0.051 A 
ATOM      5  C5  IND d   1       1.943   2.173  -1.296  0.00  0.00    -0.031 A 
ATOM      6  C6  IND d   1       1.037   2.698  -0.398  0.00  0.00     0.015 A 
ATOM      7  C7  IND d   1       0.292   1.893   0.416  0.00  0.00    -0.016 A 
ATOM      8  C8  IND d   1       0.479   0.524   0.284  0.00  0.00    -0.047 A 
ATOM      9  C9  IND d   1       1.367  -0.016  -0.655  0.00  0.00    -0.096 A 
ATOM     10  HN1 IND d   1      -0.718  -0.467   1.551  0.00  0.00     0.298 HD
ENDROOT
TORSDOF 0
ENDMDL
