MODEL 1
REMARK minimizedAffinity -0.70152998
REMARK minimizedRMSD -1
REMARK  0 active torsions:
REMARK  status: ('A' for Active; 'I' for Inactive)
ROOT
ATOM      1  N1  IND d   1      -3.217   5.419  -5.756  0.00  0.00    -0.196 N 
ATOM      2  C2  IND d   1      -4.564   5.385  -5.989  0.00  0.00     0.054 A 
ATOM      3  C3  IND d   1      -5.007   4.108  -5.997  0.00  0.00    -0.031 A 
ATOM      4  C4  IND d   1      -3.717   1.925  -5.550  0.00  0.00     0.051 A 
ATOM      5  C5  IND d   1      -2.457   1.446  -5.327  0.00  0.00    -0.031 A 
ATOM      6  C6  IND d   1      -1.364   2.283  -5.230  0.00  0.00     0.015 A 
ATOM      7  C7  IND d   1      -1.493   3.638  -5.343  0.00  0.00    -0.016 A 
ATOM      8  C8  IND d   1      -2.770   4.129  -5.577  0.00  0.00    -0.047 A 
ATOM      9  C9  IND d   1      -3.876   3.281  -5.718  0.00  0.00    -0.096 A 
ATOM     10  HN1 IND d   1      -2.731   6.128  -5.726  0.00  0.00     0.298 HD
ENDROOT
TORSDOF 0
ENDMDL
