MODEL 1
REMARK minimizedAffinity 5.62964058
REMARK minimizedRMSD -1
REMARK  0 active torsions:
REMARK  status: ('A' for Active; 'I' for Inactive)
ROOT
ATOM      1  N1  IND d   1       1.244   3.941  -1.966  0.00  0.00    -0.196 N 
ATOM      2  C2  IND d   1       1.144   4.303  -0.652  0.00  0.00     0.054 A 
ATOM      3  C3  IND d   1       1.265   3.218   0.145  0.00  0.00    -0.031 A 
ATOM      4  C4  IND d   1       1.732   0.767  -0.488  0.00  0.00     0.051 A 
ATOM      5  C5  IND d   1       1.865  -0.060  -1.568  0.00  0.00    -0.031 A 
ATOM      6  C6  IND d   1       1.799   0.415  -2.862  0.00  0.00     0.015 A 
ATOM      7  C7  IND d   1       1.608   1.742  -3.126  0.00  0.00    -0.016 A 
ATOM      8  C8  IND d   1       1.466   2.583  -2.031  0.00  0.00    -0.047 A 
ATOM      9  C9  IND d   1       1.490   2.101  -0.716  0.00  0.00    -0.096 A 
ATOM     10  HN1 IND d   1       1.179   4.472  -2.639  0.00  0.00     0.298 HD
ENDROOT
TORSDOF 0
ENDMDL
