MODEL 1
REMARK minimizedAffinity 3.03923559
REMARK minimizedRMSD -1
REMARK  0 active torsions:
REMARK  status: ('A' for Active; 'I' for Inactive)
ROOT
ATOM      1  N1  IND d   1       1.087   0.702  -3.512  0.00  0.00    -0.196 N 
ATOM      2  C2  IND d   1       1.439  -0.606  -3.330  0.00  0.00     0.054 A 
ATOM      3  C3  IND d   1       1.916  -0.795  -2.079  0.00  0.00    -0.031 A 
ATOM      4  C4  IND d   1       2.111   0.879  -0.133  0.00  0.00     0.051 A 
ATOM      5  C5  IND d   1       1.949   2.201   0.170  0.00  0.00    -0.031 A 
ATOM      6  C6  IND d   1       1.478   3.109  -0.756  0.00  0.00     0.015 A 
ATOM      7  C7  IND d   1       1.141   2.725  -2.023  0.00  0.00    -0.016 A 
ATOM      8  C8  IND d   1       1.311   1.384  -2.337  0.00  0.00    -0.047 A 
ATOM      9  C9  IND d   1       1.829   0.466  -1.414  0.00  0.00    -0.096 A 
ATOM     10  HN1 IND d   1       0.777   1.042  -4.239  0.00  0.00     0.298 HD
ENDROOT
TORSDOF 0
ENDMDL
