MODEL 1
REMARK minimizedAffinity 2.73707914
REMARK minimizedRMSD -1
REMARK  0 active torsions:
REMARK  status: ('A' for Active; 'I' for Inactive)
ROOT
ATOM      1  N1  IND d   1       2.107   3.688  -2.190  0.00  0.00    -0.196 N 
ATOM      2  C2  IND d   1       1.511   4.381  -1.174  0.00  0.00     0.054 A 
ATOM      3  C3  IND d   1       0.996   3.527  -0.261  0.00  0.00    -0.031 A 
ATOM      4  C4  IND d   1       1.106   0.956  -0.181  0.00  0.00     0.051 A 
ATOM      5  C5  IND d   1       1.516  -0.127  -0.907  0.00  0.00    -0.031 A 
ATOM      6  C6  IND d   1       2.159   0.008  -2.120  0.00  0.00     0.015 A 
ATOM      7  C7  IND d   1       2.427   1.238  -2.650  0.00  0.00    -0.016 A 
ATOM      8  C8  IND d   1       2.007   2.341  -1.920  0.00  0.00    -0.047 A 
ATOM      9  C9  IND d   1       1.316   2.209  -0.709  0.00  0.00    -0.096 A 
ATOM     10  HN1 IND d   1       2.483   4.035  -2.882  0.00  0.00     0.298 HD
ENDROOT
TORSDOF 0
ENDMDL
