MODEL 1
REMARK minimizedAffinity 7.81239033
REMARK minimizedRMSD -1
REMARK  0 active torsions:
REMARK  status: ('A' for Active; 'I' for Inactive)
ROOT
ATOM      1  N1  IND d   1       0.741   3.837  -2.179  0.00  0.00    -0.196 N 
ATOM      2  C2  IND d   1       1.184   4.490  -1.063  0.00  0.00     0.054 A 
ATOM      3  C3  IND d   1       1.841   3.635  -0.248  0.00  0.00    -0.031 A 
ATOM      4  C4  IND d   1       2.395   1.145  -0.594  0.00  0.00     0.051 A 
ATOM      5  C5  IND d   1       2.168   0.099  -1.444  0.00  0.00    -0.031 A 
ATOM      6  C6  IND d   1       1.442   0.250  -2.608  0.00  0.00     0.015 A 
ATOM      7  C7  IND d   1       0.923   1.460  -2.972  0.00  0.00    -0.016 A 
ATOM      8  C8  IND d   1       1.144   2.522  -2.107  0.00  0.00    -0.047 A 
ATOM      9  C9  IND d   1       1.844   2.366  -0.904  0.00  0.00    -0.096 A 
ATOM     10  HN1 IND d   1       0.286   4.189  -2.819  0.00  0.00     0.298 HD
ENDROOT
TORSDOF 0
ENDMDL
