MODEL 1
REMARK minimizedAffinity 4.99451303
REMARK minimizedRMSD -1
REMARK  0 active torsions:
REMARK  status: ('A' for Active; 'I' for Inactive)
ROOT
ATOM      1  N1  IND d   1       1.829   3.490  -2.574  0.00  0.00    -0.196 N 
ATOM      2  C2  IND d   1       1.073   4.215  -1.696  0.00  0.00     0.054 A 
ATOM      3  C3  IND d   1       0.638   3.426  -0.687  0.00  0.00    -0.031 A 
ATOM      4  C4  IND d   1       1.130   0.942  -0.225  0.00  0.00     0.051 A 
ATOM      5  C5  IND d   1       1.742  -0.154  -0.766  0.00  0.00    -0.031 A 
ATOM      6  C6  IND d   1       2.431  -0.089  -1.961  0.00  0.00     0.015 A 
ATOM      7  C7  IND d   1       2.543   1.082  -2.655  0.00  0.00    -0.016 A 
ATOM      8  C8  IND d   1       1.917   2.195  -2.113  0.00  0.00    -0.047 A 
ATOM      9  C9  IND d   1       1.181   2.125  -0.923  0.00  0.00    -0.096 A 
ATOM     10  HN1 IND d   1       2.189   3.792  -3.294  0.00  0.00     0.298 HD
ENDROOT
TORSDOF 0
ENDMDL
