MODEL 1
REMARK minimizedAffinity 11.337697
REMARK minimizedRMSD -1
REMARK  0 active torsions:
REMARK  status: ('A' for Active; 'I' for Inactive)
ROOT
ATOM      1  N1  IND d   1       0.210  -3.162   0.298  0.00  0.00    -0.196 N 
ATOM      2  C2  IND d   1       0.903  -3.204  -0.880  0.00  0.00     0.054 A 
ATOM      3  C3  IND d   1       0.138  -2.737  -1.892  0.00  0.00    -0.031 A 
ATOM      4  C4  IND d   1      -2.243  -1.759  -1.826  0.00  0.00     0.051 A 
ATOM      5  C5  IND d   1      -3.297  -1.546  -0.983  0.00  0.00    -0.031 A 
ATOM      6  C6  IND d   1      -3.234  -1.866   0.358  0.00  0.00     0.015 A 
ATOM      7  C7  IND d   1      -2.105  -2.401   0.911  0.00  0.00    -0.016 A 
ATOM      8  C8  IND d   1      -1.035  -2.625   0.056  0.00  0.00    -0.047 A 
ATOM      9  C9  IND d   1      -1.108  -2.342  -1.314  0.00  0.00    -0.096 A 
ATOM     10  HN1 IND d   1       0.503  -3.427   1.062  0.00  0.00     0.298 HD
ENDROOT
TORSDOF 0
ENDMDL
