MODEL 1
REMARK minimizedAffinity 0.852874279
REMARK minimizedRMSD -1
REMARK  0 active torsions:
REMARK  status: ('A' for Active; 'I' for Inactive)
ROOT
ATOM      1  N1  IND d   1      -4.760   2.394  -5.624  0.00  0.00    -0.196 N 
ATOM      2  C2  IND d   1      -3.736   1.549  -5.298  0.00  0.00     0.054 A 
ATOM      3  C3  IND d   1      -2.579   2.238  -5.172  0.00  0.00    -0.031 A 
ATOM      4  C4  IND d   1      -2.156   4.771  -5.357  0.00  0.00     0.051 A 
ATOM      5  C5  IND d   1      -2.776   5.946  -5.674  0.00  0.00    -0.031 A 
ATOM      6  C6  IND d   1      -4.117   5.999  -5.996  0.00  0.00     0.015 A 
ATOM      7  C7  IND d   1      -4.894   4.875  -6.000  0.00  0.00    -0.016 A 
ATOM      8  C8  IND d   1      -4.266   3.679  -5.684  0.00  0.00    -0.047 A 
ATOM      9  C9  IND d   1      -2.896   3.613  -5.399  0.00  0.00    -0.096 A 
ATOM     10  HN1 IND d   1      -5.575   2.163  -5.767  0.00  0.00     0.298 HD
ENDROOT
TORSDOF 0
ENDMDL
