MODEL 1
REMARK minimizedAffinity -1.62202847
REMARK minimizedRMSD -1
REMARK  0 active torsions:
REMARK  status: ('A' for Active; 'I' for Inactive)
ROOT
ATOM      1  N1  IND d   1      -3.774   1.752  -5.982  0.00  0.00    -0.196 N 
ATOM      2  C2  IND d   1      -4.956   1.065  -5.966  0.00  0.00     0.054 A 
ATOM      3  C3  IND d   1      -5.999   1.925  -5.931  0.00  0.00    -0.031 A 
ATOM      4  C4  IND d   1      -6.000   4.498  -5.997  0.00  0.00     0.051 A 
ATOM      5  C5  IND d   1      -5.161   5.577  -5.977  0.00  0.00    -0.031 A 
ATOM      6  C6  IND d   1      -3.788   5.432  -5.961  0.00  0.00     0.015 A 
ATOM      7  C7  IND d   1      -3.202   4.198  -5.975  0.00  0.00    -0.016 A 
ATOM      8  C8  IND d   1      -4.051   3.101  -5.988  0.00  0.00    -0.047 A 
ATOM      9  C9  IND d   1      -5.445   3.241  -5.961  0.00  0.00    -0.096 A 
ATOM     10  HN1 IND d   1      -2.990   1.400  -5.988  0.00  0.00     0.298 HD
ENDROOT
TORSDOF 0
ENDMDL
