MODEL 1
REMARK minimizedAffinity 5.83737993
REMARK minimizedRMSD -1
REMARK  0 active torsions:
REMARK  status: ('A' for Active; 'I' for Inactive)
ROOT
ATOM      1  N1  IND d   1       4.098  -1.028  -4.798  0.00  0.00    -0.196 N 
ATOM      2  C2  IND d   1       4.490  -1.549  -5.999  0.00  0.00     0.054 A 
ATOM      3  C3  IND d   1       4.947  -2.811  -5.837  0.00  0.00    -0.031 A 
ATOM      4  C4  IND d   1       5.045  -4.254  -3.707  0.00  0.00     0.051 A 
ATOM      5  C5  IND d   1       4.831  -4.200  -2.359  0.00  0.00    -0.031 A 
ATOM      6  C6  IND d   1       4.349  -3.063  -1.742  0.00  0.00     0.015 A 
ATOM      7  C7  IND d   1       4.051  -1.937  -2.456  0.00  0.00    -0.016 A 
ATOM      8  C8  IND d   1       4.274  -1.986  -3.825  0.00  0.00    -0.047 A 
ATOM      9  C9  IND d   1       4.803  -3.123  -4.450  0.00  0.00    -0.096 A 
ATOM     10  HN1 IND d   1       3.792  -0.234  -4.672  0.00  0.00     0.298 HD
ENDROOT
TORSDOF 0
ENDMDL
