MODEL 1
REMARK minimizedAffinity -0.538246274
REMARK minimizedRMSD -1
REMARK  0 active torsions:
REMARK  status: ('A' for Active; 'I' for Inactive)
ROOT
ATOM      1  N1  IND d   1      -2.992   0.013  -6.000  0.00  0.00    -0.196 N 
ATOM      2  C2  IND d   1      -4.351  -0.133  -5.998  0.00  0.00     0.054 A 
ATOM      3  C3  IND d   1      -4.952   1.067  -5.832  0.00  0.00    -0.031 A 
ATOM      4  C4  IND d   1      -3.904   3.410  -5.644  0.00  0.00     0.051 A 
ATOM      5  C5  IND d   1      -2.697   4.047  -5.556  0.00  0.00    -0.031 A 
ATOM      6  C6  IND d   1      -1.503   3.357  -5.616  0.00  0.00     0.015 A 
ATOM      7  C7  IND d   1      -1.471   2.001  -5.778  0.00  0.00    -0.016 A 
ATOM      8  C8  IND d   1      -2.694   1.351  -5.860  0.00  0.00    -0.047 A 
ATOM      9  C9  IND d   1      -3.909   2.040  -5.757  0.00  0.00    -0.096 A 
ATOM     10  HN1 IND d   1      -2.419  -0.624  -6.075  0.00  0.00     0.298 HD
ENDROOT
TORSDOF 0
ENDMDL
