MODEL 1
REMARK minimizedAffinity 1.24093628
REMARK minimizedRMSD -1
REMARK  0 active torsions:
REMARK  status: ('A' for Active; 'I' for Inactive)
ROOT
ATOM      1  N1  IND d   1      -2.602  -5.761  -5.547  0.00  0.00    -0.196 N 
ATOM      2  C2  IND d   1      -1.501  -5.248  -4.919  0.00  0.00     0.054 A 
ATOM      3  C3  IND d   1      -1.752  -3.995  -4.478  0.00  0.00    -0.031 A 
ATOM      4  C4  IND d   1      -3.931  -2.629  -4.588  0.00  0.00     0.051 A 
ATOM      5  C5  IND d   1      -5.198  -2.661  -5.098  0.00  0.00    -0.031 A 
ATOM      6  C6  IND d   1      -5.675  -3.752  -5.796  0.00  0.00     0.015 A 
ATOM      7  C7  IND d   1      -4.903  -4.860  -6.000  0.00  0.00    -0.016 A 
ATOM      8  C8  IND d   1      -3.613  -4.828  -5.489  0.00  0.00    -0.047 A 
ATOM      9  C9  IND d   1      -3.109  -3.707  -4.818  0.00  0.00    -0.096 A 
ATOM     10  HN1 IND d   1      -2.653  -6.536  -5.915  0.00  0.00     0.298 HD
ENDROOT
TORSDOF 0
ENDMDL
