MODEL 1
REMARK minimizedAffinity -4.00415468
REMARK minimizedRMSD -1
REMARK  0 active torsions:
REMARK  status: ('A' for Active; 'I' for Inactive)
ROOT
ATOM      1  N1  IND d   1      -2.073   1.637   2.512  0.00  0.00    -0.196 N 
ATOM      2  C2  IND d   1      -3.423   1.849   2.474  0.00  0.00     0.054 A 
ATOM      3  C3  IND d   1      -4.036   0.855   1.793  0.00  0.00    -0.031 A 
ATOM      4  C4  IND d   1      -3.032  -1.271   0.745  0.00  0.00     0.051 A 
ATOM      5  C5  IND d   1      -1.838  -1.887   0.493  0.00  0.00    -0.031 A 
ATOM      6  C6  IND d   1      -0.638  -1.350   0.911  0.00  0.00     0.015 A 
ATOM      7  C7  IND d   1      -0.587  -0.178   1.610  0.00  0.00    -0.016 A 
ATOM      8  C8  IND d   1      -1.796   0.454   1.863  0.00  0.00    -0.047 A 
ATOM      9  C9  IND d   1      -3.014  -0.064   1.404  0.00  0.00    -0.096 A 
ATOM     10  HN1 IND d   1      -1.494   2.156   2.879  0.00  0.00     0.298 HD
ENDROOT
TORSDOF 0
ENDMDL
