MODEL 1
REMARK minimizedAffinity -0.711233079
REMARK minimizedRMSD -1
REMARK  0 active torsions:
REMARK  status: ('A' for Active; 'I' for Inactive)
ROOT
ATOM      1  N1  IND d   1      -1.557  -1.372  -0.103  0.00  0.00    -0.196 N 
ATOM      2  C2  IND d   1      -0.278  -0.964   0.156  0.00  0.00     0.054 A 
ATOM      3  C3  IND d   1      -0.283   0.102   0.986  0.00  0.00    -0.031 A 
ATOM      4  C4  IND d   1      -2.270   1.279   2.125  0.00  0.00     0.051 A 
ATOM      5  C5  IND d   1      -3.636   1.288   2.168  0.00  0.00    -0.031 A 
ATOM      6  C6  IND d   1      -4.394   0.391   1.443  0.00  0.00     0.015 A 
ATOM      7  C7  IND d   1      -3.812  -0.560   0.654  0.00  0.00    -0.016 A 
ATOM      8  C8  IND d   1      -2.425  -0.568   0.603  0.00  0.00    -0.047 A 
ATOM      9  C9  IND d   1      -1.651   0.367   1.303  0.00  0.00    -0.096 A 
ATOM     10  HN1 IND d   1      -1.782  -2.022  -0.619  0.00  0.00     0.298 HD
ENDROOT
TORSDOF 0
ENDMDL
