MODEL 1
REMARK minimizedAffinity 8.68238354
REMARK minimizedRMSD -1
REMARK  0 active torsions:
REMARK  status: ('A' for Active; 'I' for Inactive)
ROOT
ATOM      1  C   UNL d   1      -2.173  -3.878  -0.113  0.00  0.00     0.023 A 
ATOM      2  C1  UNL d   1      -0.914  -4.463   0.026  0.00  0.00     0.003 A 
ATOM      3  C2  UNL d   1       0.103  -3.782   0.699  0.00  0.00     0.048 A 
ATOM      4  C3  UNL d   1      -0.146  -2.518   1.232  0.00  0.00     0.023 A 
ATOM      5  C4  UNL d   1      -1.405  -1.930   1.097  0.00  0.00     0.048 A 
ATOM      6  C5  UNL d   1      -2.418  -2.613   0.422  0.00  0.00     0.003 A 
ATOM      7  I   UNL d   1       1.366  -1.504   2.235  0.00  0.00    -0.146 I 
ENDROOT
TORSDOF 0
ENDMDL
