MODEL 1
REMARK minimizedAffinity 10.7807274
REMARK minimizedRMSD -1
REMARK  0 active torsions:
REMARK  status: ('A' for Active; 'I' for Inactive)
ROOT
ATOM      1  C   UNL d   1      -2.019  -5.057   0.278  0.00  0.00     0.023 A 
ATOM      2  C1  UNL d   1      -1.545  -5.976  -0.658  0.00  0.00     0.003 A 
ATOM      3  C2  UNL d   1      -0.350  -5.728  -1.338  0.00  0.00     0.048 A 
ATOM      4  C3  UNL d   1       0.365  -4.560  -1.075  0.00  0.00     0.023 A 
ATOM      5  C4  UNL d   1      -0.106  -3.638  -0.139  0.00  0.00     0.048 A 
ATOM      6  C5  UNL d   1      -1.301  -3.890   0.538  0.00  0.00     0.003 A 
ATOM      7  I   UNL d   1       2.143  -4.189  -2.086  0.00  0.00    -0.146 I 
ENDROOT
TORSDOF 0
ENDMDL
