MODEL 1
REMARK minimizedAffinity 7.35802174
REMARK minimizedRMSD -1
REMARK  0 active torsions:
REMARK  status: ('A' for Active; 'I' for Inactive)
ROOT
ATOM      1  C   UNL d   1      -4.466   4.714  -4.295  0.00  0.00     0.023 A 
ATOM      2  C1  UNL d   1      -3.779   3.746  -5.028  0.00  0.00     0.003 A 
ATOM      3  C2  UNL d   1      -3.418   2.539  -4.427  0.00  0.00     0.048 A 
ATOM      4  C3  UNL d   1      -3.749   2.305  -3.092  0.00  0.00     0.023 A 
ATOM      5  C4  UNL d   1      -4.438   3.270  -2.356  0.00  0.00     0.048 A 
ATOM      6  C5  UNL d   1      -4.795   4.476  -2.961  0.00  0.00     0.003 A 
ATOM      7  I   UNL d   1      -3.213   0.508  -2.195  0.00  0.00    -0.146 I 
ENDROOT
TORSDOF 0
ENDMDL
