MODEL 1
REMARK minimizedAffinity 8.81935406
REMARK minimizedRMSD -1
REMARK  0 active torsions:
REMARK  status: ('A' for Active; 'I' for Inactive)
ROOT
ATOM      1  C   UNL d   1       2.111  -1.242   1.379  0.00  0.00     0.023 A 
ATOM      2  C1  UNL d   1       1.536  -0.418   2.346  0.00  0.00     0.003 A 
ATOM      3  C2  UNL d   1       1.457  -0.846   3.673  0.00  0.00     0.048 A 
ATOM      4  C3  UNL d   1       1.955  -2.100   4.026  0.00  0.00     0.023 A 
ATOM      5  C4  UNL d   1       2.531  -2.928   3.061  0.00  0.00     0.048 A 
ATOM      6  C5  UNL d   1       2.608  -2.496   1.736  0.00  0.00     0.003 A 
ATOM      7  I   UNL d   1       1.837  -2.740   6.000  0.00  0.00    -0.146 I 
ENDROOT
TORSDOF 0
ENDMDL
