MODEL 1
REMARK minimizedAffinity 7.20184994
REMARK minimizedRMSD -1
REMARK  0 active torsions:
REMARK  status: ('A' for Active; 'I' for Inactive)
ROOT
ATOM      1  C   UNL d   1       1.718  -2.721   5.930  0.00  0.00     0.023 A 
ATOM      2  C1  UNL d   1       2.388  -3.582   5.060  0.00  0.00     0.003 A 
ATOM      3  C2  UNL d   1       2.444  -3.294   3.695  0.00  0.00     0.048 A 
ATOM      4  C3  UNL d   1       1.828  -2.143   3.206  0.00  0.00     0.023 A 
ATOM      5  C4  UNL d   1       1.157  -1.278   4.072  0.00  0.00     0.048 A 
ATOM      6  C5  UNL d   1       1.103  -1.571   5.436  0.00  0.00     0.003 A 
ATOM      7  I   UNL d   1       1.910  -1.711   1.174  0.00  0.00    -0.146 I 
ENDROOT
TORSDOF 0
ENDMDL
