MODEL 1
REMARK minimizedAffinity 11.9433613
REMARK minimizedRMSD -1
REMARK  0 active torsions:
REMARK  status: ('A' for Active; 'I' for Inactive)
ROOT
ATOM      1  C   UNL d   1      -1.521  -5.152  -0.658  0.00  0.00     0.023 A 
ATOM      2  C1  UNL d   1      -2.158  -4.093  -0.011  0.00  0.00     0.003 A 
ATOM      3  C2  UNL d   1      -1.404  -3.124   0.653  0.00  0.00     0.048 A 
ATOM      4  C3  UNL d   1      -0.013  -3.219   0.666  0.00  0.00     0.023 A 
ATOM      5  C4  UNL d   1       0.629  -4.276   0.019  0.00  0.00     0.048 A 
ATOM      6  C5  UNL d   1      -0.129  -5.244  -0.643  0.00  0.00     0.003 A 
ATOM      7  I   UNL d   1       1.112  -1.777   1.653  0.00  0.00    -0.146 I 
ENDROOT
TORSDOF 0
ENDMDL
