MODEL 1
REMARK minimizedAffinity 11.5976219
REMARK minimizedRMSD -1
REMARK  0 active torsions:
REMARK  status: ('A' for Active; 'I' for Inactive)
ROOT
ATOM      1  C   UNL d   1       6.000  -4.127  -0.238  0.00  0.00     0.023 A 
ATOM      2  C1  UNL d   1       4.909  -3.562   0.424  0.00  0.00     0.003 A 
ATOM      3  C2  UNL d   1       3.617  -3.754  -0.067  0.00  0.00     0.048 A 
ATOM      4  C3  UNL d   1       3.421  -4.513  -1.220  0.00  0.00     0.023 A 
ATOM      5  C4  UNL d   1       4.509  -5.081  -1.886  0.00  0.00     0.048 A 
ATOM      6  C5  UNL d   1       5.800  -4.885  -1.391  0.00  0.00     0.003 A 
ATOM      7  I   UNL d   1       1.498  -4.801  -1.954  0.00  0.00    -0.146 I 
ENDROOT
TORSDOF 0
ENDMDL
