MODEL 1
REMARK minimizedAffinity 11.4062681
REMARK minimizedRMSD -1
REMARK  0 active torsions:
REMARK  status: ('A' for Active; 'I' for Inactive)
ROOT
ATOM      1  C   UNL d   1       2.230  -3.781   5.999  0.00  0.00     0.023 A 
ATOM      2  C1  UNL d   1       1.364  -2.687   5.999  0.00  0.00     0.003 A 
ATOM      3  C2  UNL d   1       1.069  -2.029   4.803  0.00  0.00     0.048 A 
ATOM      4  C3  UNL d   1       1.642  -2.471   3.611  0.00  0.00     0.023 A 
ATOM      5  C4  UNL d   1       2.508  -3.566   3.606  0.00  0.00     0.048 A 
ATOM      6  C5  UNL d   1       2.801  -4.220   4.805  0.00  0.00     0.003 A 
ATOM      7  I   UNL d   1       1.204  -1.493   1.830  0.00  0.00    -0.146 I 
ENDROOT
TORSDOF 0
ENDMDL
