MODEL 1
REMARK minimizedAffinity 14.938427
REMARK minimizedRMSD -1
REMARK  0 active torsions:
REMARK  status: ('A' for Active; 'I' for Inactive)
ROOT
ATOM      1  C   UNL d   1       1.968  -1.339   0.941  0.00  0.00     0.023 A 
ATOM      2  C1  UNL d   1       2.334  -2.598   1.417  0.00  0.00     0.003 A 
ATOM      3  C2  UNL d   1       2.162  -2.912   2.767  0.00  0.00     0.048 A 
ATOM      4  C3  UNL d   1       1.623  -1.963   3.635  0.00  0.00     0.023 A 
ATOM      5  C4  UNL d   1       1.255  -0.702   3.162  0.00  0.00     0.048 A 
ATOM      6  C5  UNL d   1       1.429  -0.392   1.812  0.00  0.00     0.003 A 
ATOM      7  I   UNL d   1       1.367  -2.429   5.644  0.00  0.00    -0.146 I 
ENDROOT
TORSDOF 0
ENDMDL
