MODEL 1
REMARK minimizedAffinity 1.73933148
REMARK minimizedRMSD -1
REMARK  0 active torsions:
REMARK  status: ('A' for Active; 'I' for Inactive)
ROOT
ATOM      1  C   UNL d   1      -4.402   5.155  -4.108  0.00  0.00     0.023 A 
ATOM      2  C1  UNL d   1      -4.671   4.871  -2.769  0.00  0.00     0.003 A 
ATOM      3  C2  UNL d   1      -4.287   3.644  -2.224  0.00  0.00     0.048 A 
ATOM      4  C3  UNL d   1      -3.632   2.707  -3.022  0.00  0.00     0.023 A 
ATOM      5  C4  UNL d   1      -3.360   2.988  -4.362  0.00  0.00     0.048 A 
ATOM      6  C5  UNL d   1      -3.747   4.215  -4.904  0.00  0.00     0.003 A 
ATOM      7  I   UNL d   1      -3.059   0.881  -2.212  0.00  0.00    -0.146 I 
ENDROOT
TORSDOF 0
ENDMDL
