MODEL 1
REMARK minimizedAffinity 13.6781311
REMARK minimizedRMSD -1
REMARK  0 active torsions:
REMARK  status: ('A' for Active; 'I' for Inactive)
ROOT
ATOM      1  C1  DEN d   1       0.963  -1.318   0.110  0.00  0.00     0.130 A 
ATOM      2  C2  DEN d   1       2.182  -1.800   0.753  0.00  0.00    -0.031 A 
ATOM      3  C3  DEN d   1       2.406  -3.194   0.320  0.00  0.00     0.027 A 
ATOM      4  C4  DEN d   1       0.994  -4.642  -1.281  0.00  0.00     0.027 A 
ATOM      5  C5  DEN d   1      -0.138  -4.671  -2.065  0.00  0.00    -0.003 A 
ATOM      6  C6  DEN d   1      -0.993  -3.605  -2.152  0.00  0.00     0.001 A 
ATOM      7  C7  DEN d   1      -0.706  -2.448  -1.478  0.00  0.00     0.017 A 
ATOM      8  C8  DEN d   1       0.430  -2.413  -0.679  0.00  0.00    -0.094 A 
ATOM      9  C9  DEN d   1       1.288  -3.498  -0.614  0.00  0.00    -0.072 A 
ENDROOT
TORSDOF 0
ENDMDL
