MODEL 1
REMARK minimizedAffinity 6.98866749
REMARK minimizedRMSD -1
REMARK  0 active torsions:
REMARK  status: ('A' for Active; 'I' for Inactive)
ROOT
ATOM      1  C1  DEN d   1      -6.000  -1.057   4.896  0.00  0.00     0.130 A 
ATOM      2  C2  DEN d   1      -5.298  -2.336   4.833  0.00  0.00    -0.031 A 
ATOM      3  C3  DEN d   1      -4.448  -2.332   3.625  0.00  0.00     0.027 A 
ATOM      4  C4  DEN d   1      -4.148  -0.475   1.860  0.00  0.00     0.027 A 
ATOM      5  C5  DEN d   1      -4.545   0.788   1.481  0.00  0.00    -0.003 A 
ATOM      6  C6  DEN d   1      -5.471   1.506   2.190  0.00  0.00     0.001 A 
ATOM      7  C7  DEN d   1      -6.000   0.983   3.340  0.00  0.00     0.017 A 
ATOM      8  C8  DEN d   1      -5.611  -0.294   3.724  0.00  0.00    -0.094 A 
ATOM      9  C9  DEN d   1      -4.664  -0.998   3.001  0.00  0.00    -0.072 A 
ENDROOT
TORSDOF 0
ENDMDL
