MODEL 1
REMARK minimizedAffinity 1.90621161
REMARK minimizedRMSD -1
REMARK  0 active torsions:
REMARK  status: ('A' for Active; 'I' for Inactive)
ROOT
ATOM      1  C1  DEN d   1      -5.999   0.793  -3.375  0.00  0.00     0.130 A 
ATOM      2  C2  DEN d   1      -5.995   0.481  -4.802  0.00  0.00    -0.031 A 
ATOM      3  C3  DEN d   1      -5.679   1.721  -5.539  0.00  0.00     0.027 A 
ATOM      4  C4  DEN d   1      -5.194   4.079  -4.615  0.00  0.00     0.027 A 
ATOM      5  C5  DEN d   1      -5.096   4.838  -3.469  0.00  0.00    -0.003 A 
ATOM      6  C6  DEN d   1      -5.322   4.313  -2.224  0.00  0.00     0.001 A 
ATOM      7  C7  DEN d   1      -5.616   2.981  -2.092  0.00  0.00     0.017 A 
ATOM      8  C8  DEN d   1      -5.724   2.212  -3.243  0.00  0.00    -0.094 A 
ATOM      9  C9  DEN d   1      -5.479   2.758  -4.492  0.00  0.00    -0.072 A 
ENDROOT
TORSDOF 0
ENDMDL
