MODEL 1
REMARK minimizedAffinity 8.87541008
REMARK minimizedRMSD -1
REMARK  0 active torsions:
REMARK  status: ('A' for Active; 'I' for Inactive)
ROOT
ATOM      1  C1  DEN d   1      -4.206   2.237   1.149  0.00  0.00     0.130 A 
ATOM      2  C2  DEN d   1      -4.505   0.925   1.715  0.00  0.00    -0.031 A 
ATOM      3  C3  DEN d   1      -5.265   0.156   0.709  0.00  0.00     0.027 A 
ATOM      4  C4  DEN d   1      -6.000   0.865  -1.660  0.00  0.00     0.027 A 
ATOM      5  C5  DEN d   1      -5.987   1.891  -2.579  0.00  0.00    -0.003 A 
ATOM      6  C6  DEN d   1      -5.414   3.105  -2.310  0.00  0.00     0.001 A 
ATOM      7  C7  DEN d   1      -4.790   3.310  -1.108  0.00  0.00     0.017 A 
ATOM      8  C8  DEN d   1      -4.805   2.283  -0.173  0.00  0.00    -0.094 A 
ATOM      9  C9  DEN d   1      -5.379   1.058  -0.468  0.00  0.00    -0.072 A 
ENDROOT
TORSDOF 0
ENDMDL
