MODEL 1
REMARK minimizedAffinity 6.76046133
REMARK minimizedRMSD -1
REMARK  0 active torsions:
REMARK  status: ('A' for Active; 'I' for Inactive)
ROOT
ATOM      1  C1  DEN d   1      -5.997   1.256  -1.104  0.00  0.00     0.130 A 
ATOM      2  C2  DEN d   1      -5.515   1.876   0.127  0.00  0.00    -0.031 A 
ATOM      3  C3  DEN d   1      -4.971   3.206  -0.214  0.00  0.00     0.027 A 
ATOM      4  C4  DEN d   1      -4.836   4.362  -2.516  0.00  0.00     0.027 A 
ATOM      5  C5  DEN d   1      -5.108   4.224  -3.859  0.00  0.00    -0.003 A 
ATOM      6  C6  DEN d   1      -5.659   3.083  -4.379  0.00  0.00     0.001 A 
ATOM      7  C7  DEN d   1      -5.999   2.052  -3.543  0.00  0.00     0.017 A 
ATOM      8  C8  DEN d   1      -5.721   2.181  -2.189  0.00  0.00    -0.094 A 
ATOM      9  C9  DEN d   1      -5.174   3.347  -1.681  0.00  0.00    -0.072 A 
ENDROOT
TORSDOF 0
ENDMDL
