MODEL 1
REMARK minimizedAffinity 13.173089
REMARK minimizedRMSD -1
REMARK  0 active torsions:
REMARK  status: ('A' for Active; 'I' for Inactive)
ROOT
ATOM      1  C1  DEN d   1      -0.003   2.691  -0.658  0.00  0.00     0.130 A 
ATOM      2  C2  DEN d   1       0.649   3.199   0.546  0.00  0.00    -0.031 A 
ATOM      3  C3  DEN d   1       0.199   4.589   0.758  0.00  0.00     0.027 A 
ATOM      4  C4  DEN d   1      -1.440   5.996  -0.652  0.00  0.00     0.027 A 
ATOM      5  C5  DEN d   1      -2.239   5.999  -1.774  0.00  0.00    -0.003 A 
ATOM      6  C6  DEN d   1      -2.322   4.920  -2.614  0.00  0.00     0.001 A 
ATOM      7  C7  DEN d   1      -1.628   3.776  -2.321  0.00  0.00     0.017 A 
ATOM      8  C8  DEN d   1      -0.814   3.768  -1.195  0.00  0.00    -0.094 A 
ATOM      9  C9  DEN d   1      -0.753   4.865  -0.352  0.00  0.00    -0.072 A 
ENDROOT
TORSDOF 0
ENDMDL
