MODEL 1
REMARK minimizedAffinity 0.569312155
REMARK minimizedRMSD -1
REMARK  2 active torsions:
REMARK  status: ('A' for Active; 'I' for Inactive)
REMARK    1  A    between atoms: C2'_3  and  C1'_4 
REMARK    2  A    between atoms: C1'_4  and  C1_5 
ROOT
ATOM      1  C1  I4B d   1       3.367   3.510  -5.257  0.00  0.00    -0.075 A 
ATOM      2  C2  I4B d   1       3.336   2.355  -5.999  0.00  0.00     0.003 A 
ATOM      3  C3  I4B d   1       3.642   1.112  -5.395  0.00  0.00     0.002 A 
ATOM      4  C4  I4B d   1       4.020   1.075  -4.068  0.00  0.00    -0.004 A 
ATOM      5  C5  I4B d   1       4.028   2.244  -3.312  0.00  0.00     0.002 A 
ATOM      6  C6  I4B d   1       3.688   3.467  -3.907  0.00  0.00     0.003 A 
ENDROOT
BRANCH   1   7
ATOM      7  C1' I4B d   1       3.070   4.810  -5.935  0.00  0.00     0.060 C 
BRANCH   7   8
ATOM      8  C2' I4B d   1       1.565   4.971  -5.998  0.00  0.00    -0.013 C 
ATOM      9  C4' I4B d   1       0.873   3.633  -5.991  0.00  0.00     0.013 C 
ATOM     10  C3' I4B d   1       1.140   5.806  -4.827  0.00  0.00     0.013 C 
ENDBRANCH   7   8
ENDBRANCH   1   7
TORSDOF 2
ENDMDL
