MODEL 1
REMARK minimizedAffinity 1.3785181
REMARK minimizedRMSD -1
REMARK  2 active torsions:
REMARK  status: ('A' for Active; 'I' for Inactive)
REMARK    1  A    between atoms: C2'_3  and  C1'_4 
REMARK    2  A    between atoms: C1'_4  and  C1_5 
ROOT
ATOM      1  C1  I4B d   1       3.246   4.043  -5.079  0.00  0.00    -0.075 A 
ATOM      2  C2  I4B d   1       3.830   5.248  -5.382  0.00  0.00     0.003 A 
ATOM      3  C3  I4B d   1       5.161   5.294  -5.864  0.00  0.00     0.002 A 
ATOM      4  C4  I4B d   1       5.883   4.124  -5.979  0.00  0.00    -0.004 A 
ATOM      5  C5  I4B d   1       5.282   2.902  -5.693  0.00  0.00     0.002 A 
ATOM      6  C6  I4B d   1       3.952   2.859  -5.252  0.00  0.00     0.003 A 
ENDROOT
BRANCH   1   7
ATOM      7  C1' I4B d   1       1.851   4.033  -4.542  0.00  0.00     0.060 C 
BRANCH   7   8
ATOM      8  C2' I4B d   1       0.949   4.684  -5.571  0.00  0.00    -0.013 C 
ATOM      9  C4' I4B d   1      -0.437   4.899  -5.023  0.00  0.00     0.013 C 
ATOM     10  C3' I4B d   1       1.577   5.983  -5.980  0.00  0.00     0.013 C 
ENDBRANCH   7   8
ENDBRANCH   1   7
TORSDOF 2
ENDMDL
