MODEL 1
REMARK minimizedAffinity 3.32168412
REMARK minimizedRMSD -1
REMARK  2 active torsions:
REMARK  status: ('A' for Active; 'I' for Inactive)
REMARK    1  A    between atoms: C2'_3  and  C1'_4 
REMARK    2  A    between atoms: C1'_4  and  C1_5 
ROOT
ATOM      1  C1  I4B d   1       3.773   2.496  -4.991  0.00  0.00    -0.075 A 
ATOM      2  C2  I4B d   1       2.536   3.041  -5.228  0.00  0.00     0.003 A 
ATOM      3  C3  I4B d   1       2.423   4.347  -5.764  0.00  0.00     0.002 A 
ATOM      4  C4  I4B d   1       3.564   5.087  -5.998  0.00  0.00    -0.004 A 
ATOM      5  C5  I4B d   1       4.818   4.524  -5.779  0.00  0.00     0.002 A 
ATOM      6  C6  I4B d   1       4.924   3.216  -5.283  0.00  0.00     0.003 A 
ENDROOT
BRANCH   1   7
ATOM      7  C1' I4B d   1       3.855   1.127  -4.394  0.00  0.00     0.060 C 
BRANCH   7   8
ATOM      8  C2' I4B d   1       4.621   1.231  -3.091  0.00  0.00    -0.013 C 
ATOM      9  C4' I4B d   1       3.813   1.945  -2.039  0.00  0.00     0.013 C 
ATOM     10  C3' I4B d   1       4.977  -0.157  -2.651  0.00  0.00     0.013 C 
ENDBRANCH   7   8
ENDBRANCH   1   7
TORSDOF 2
ENDMDL
