MODEL 1
REMARK minimizedAffinity 6.85024357
REMARK minimizedRMSD -1
REMARK  2 active torsions:
REMARK  status: ('A' for Active; 'I' for Inactive)
REMARK    1  A    between atoms: C2'_3  and  C1'_4 
REMARK    2  A    between atoms: C1'_4  and  C1_5 
ROOT
ATOM      1  C1  I4B d   1      -1.783  -2.176  -3.581  0.00  0.00    -0.075 A 
ATOM      2  C2  I4B d   1      -1.404  -1.639  -4.786  0.00  0.00     0.003 A 
ATOM      3  C3  I4B d   1      -1.770  -2.276  -5.997  0.00  0.00     0.002 A 
ATOM      4  C4  I4B d   1      -2.466  -3.467  -5.955  0.00  0.00    -0.004 A 
ATOM      5  C5  I4B d   1      -2.869  -3.998  -4.733  0.00  0.00     0.002 A 
ATOM      6  C6  I4B d   1      -2.536  -3.342  -3.538  0.00  0.00     0.003 A 
ENDROOT
BRANCH   1   7
ATOM      7  C1' I4B d   1      -1.352  -1.495  -2.321  0.00  0.00     0.060 C 
BRANCH   7   8
ATOM      8  C2' I4B d   1      -1.578  -2.454  -1.170  0.00  0.00    -0.013 C 
ATOM      9  C4' I4B d   1      -0.312  -2.672  -0.385  0.00  0.00     0.013 C 
ATOM     10  C3' I4B d   1      -2.663  -1.889  -0.303  0.00  0.00     0.013 C 
ENDBRANCH   7   8
ENDBRANCH   1   7
TORSDOF 2
ENDMDL
