MODEL 1
REMARK minimizedAffinity 2.76594543
REMARK minimizedRMSD -1
REMARK  2 active torsions:
REMARK  status: ('A' for Active; 'I' for Inactive)
REMARK    1  A    between atoms: C2'_3  and  C1'_4 
REMARK    2  A    between atoms: C1'_4  and  C1_5 
ROOT
ATOM      1  C1  I4B d   1       3.123   3.587  -5.998  0.00  0.00    -0.075 A 
ATOM      2  C2  I4B d   1       1.750   3.565  -5.999  0.00  0.00     0.003 A 
ATOM      3  C3  I4B d   1       1.018   4.777  -5.987  0.00  0.00     0.002 A 
ATOM      4  C4  I4B d   1       1.694   5.978  -5.925  0.00  0.00    -0.004 A 
ATOM      5  C5  I4B d   1       3.085   5.999  -5.948  0.00  0.00     0.002 A 
ATOM      6  C6  I4B d   1       3.805   4.796  -5.997  0.00  0.00     0.003 A 
ENDROOT
BRANCH   1   7
ATOM      7  C1' I4B d   1       3.864   2.288  -5.978  0.00  0.00     0.060 C 
BRANCH   7   8
ATOM      8  C2' I4B d   1       3.221   1.400  -4.931  0.00  0.00    -0.013 C 
ATOM      9  C4' I4B d   1       2.577   0.193  -5.561  0.00  0.00     0.013 C 
ATOM     10  C3' I4B d   1       4.282   0.997  -3.951  0.00  0.00     0.013 C 
ENDBRANCH   7   8
ENDBRANCH   1   7
TORSDOF 2
ENDMDL
