MODEL 1
REMARK minimizedAffinity 5.82949209
REMARK minimizedRMSD -1
REMARK  2 active torsions:
REMARK  status: ('A' for Active; 'I' for Inactive)
REMARK    1  A    between atoms: C2'_3  and  C1'_4 
REMARK    2  A    between atoms: C1'_4  and  C1_5 
ROOT
ATOM      1  C1  I4B d   1       2.663   4.685  -5.770  0.00  0.00    -0.075 A 
ATOM      2  C2  I4B d   1       1.914   3.536  -5.797  0.00  0.00     0.003 A 
ATOM      3  C3  I4B d   1       0.505   3.600  -5.670  0.00  0.00     0.002 A 
ATOM      4  C4  I4B d   1      -0.104   4.822  -5.469  0.00  0.00    -0.004 A 
ATOM      5  C5  I4B d   1       0.655   5.988  -5.464  0.00  0.00     0.002 A 
ATOM      6  C6  I4B d   1       2.046   5.921  -5.628  0.00  0.00     0.003 A 
ENDROOT
BRANCH   1   7
ATOM      7  C1' I4B d   1       4.151   4.578  -5.874  0.00  0.00     0.060 C 
BRANCH   7   8
ATOM      8  C2' I4B d   1       4.526   3.118  -5.715  0.00  0.00    -0.013 C 
ATOM      9  C4' I4B d   1       5.989   2.897  -5.999  0.00  0.00     0.013 C 
ATOM     10  C3' I4B d   1       4.177   2.700  -4.318  0.00  0.00     0.013 C 
ENDBRANCH   7   8
ENDBRANCH   1   7
TORSDOF 2
ENDMDL
