MODEL 1
REMARK minimizedAffinity 1.04625046
REMARK minimizedRMSD -1
REMARK  2 active torsions:
REMARK  status: ('A' for Active; 'I' for Inactive)
REMARK    1  A    between atoms: C2'_3  and  C1'_4 
REMARK    2  A    between atoms: C1'_4  and  C1_5 
ROOT
ATOM      1  C1  I4B d   1       3.118   3.922  -5.938  0.00  0.00    -0.075 A 
ATOM      2  C2  I4B d   1       3.850   5.081  -5.997  0.00  0.00     0.003 A 
ATOM      3  C3  I4B d   1       5.262   5.038  -5.912  0.00  0.00     0.002 A 
ATOM      4  C4  I4B d   1       5.895   3.826  -5.720  0.00  0.00    -0.004 A 
ATOM      5  C5  I4B d   1       5.153   2.649  -5.684  0.00  0.00     0.002 A 
ATOM      6  C6  I4B d   1       3.756   2.695  -5.806  0.00  0.00     0.003 A 
ENDROOT
BRANCH   1   7
ATOM      7  C1' I4B d   1       1.626   4.007  -5.997  0.00  0.00     0.060 C 
BRANCH   7   8
ATOM      8  C2' I4B d   1       1.238   5.469  -5.899  0.00  0.00    -0.013 C 
ATOM      9  C4' I4B d   1      -0.255   5.644  -5.998  0.00  0.00     0.013 C 
ATOM     10  C3' I4B d   1       1.760   5.999  -4.597  0.00  0.00     0.013 C 
ENDBRANCH   7   8
ENDBRANCH   1   7
TORSDOF 2
ENDMDL
