MODEL 1
REMARK minimizedAffinity 4.27850771
REMARK minimizedRMSD -1
REMARK  2 active torsions:
REMARK  status: ('A' for Active; 'I' for Inactive)
REMARK    1  A    between atoms: C2'_3  and  C1'_4 
REMARK    2  A    between atoms: C1'_4  and  C1_5 
ROOT
ATOM      1  C1  I4B d   1       3.500   3.879  -5.645  0.00  0.00    -0.075 A 
ATOM      2  C2  I4B d   1       3.663   5.076  -4.992  0.00  0.00     0.003 A 
ATOM      3  C3  I4B d   1       2.537   5.875  -4.676  0.00  0.00     0.002 A 
ATOM      4  C4  I4B d   1       1.281   5.467  -5.075  0.00  0.00    -0.004 A 
ATOM      5  C5  I4B d   1       1.115   4.243  -5.717  0.00  0.00     0.002 A 
ATOM      6  C6  I4B d   1       2.230   3.438  -5.993  0.00  0.00     0.003 A 
ENDROOT
BRANCH   1   7
ATOM      7  C1' I4B d   1       4.713   3.076  -5.992  0.00  0.00     0.060 C 
BRANCH   7   8
ATOM      8  C2' I4B d   1       4.554   1.701  -5.376  0.00  0.00    -0.013 C 
ATOM      9  C4' I4B d   1       4.447   1.784  -3.876  0.00  0.00     0.013 C 
ATOM     10  C3' I4B d   1       3.334   1.065  -5.972  0.00  0.00     0.013 C 
ENDBRANCH   7   8
ENDBRANCH   1   7
TORSDOF 2
ENDMDL
