MODEL 1
REMARK minimizedAffinity 4.13075447
REMARK minimizedRMSD -1
REMARK  2 active torsions:
REMARK  status: ('A' for Active; 'I' for Inactive)
REMARK    1  A    between atoms: C2'_3  and  C1'_4 
REMARK    2  A    between atoms: C1'_4  and  C1_5 
ROOT
ATOM      1  C1  I4B d   1       2.416   1.083   1.722  0.00  0.00    -0.075 A 
ATOM      2  C2  I4B d   1       1.533   0.458   2.567  0.00  0.00     0.003 A 
ATOM      3  C3  I4B d   1       0.347   1.116   2.974  0.00  0.00     0.002 A 
ATOM      4  C4  I4B d   1       0.110   2.409   2.555  0.00  0.00    -0.004 A 
ATOM      5  C5  I4B d   1       0.995   3.034   1.680  0.00  0.00     0.002 A 
ATOM      6  C6  I4B d   1       2.149   2.362   1.251  0.00  0.00     0.003 A 
ENDROOT
BRANCH   1   7
ATOM      7  C1' I4B d   1       3.674   0.371   1.339  0.00  0.00     0.060 C 
BRANCH   7   8
ATOM      8  C2' I4B d   1       4.743   0.735   2.350  0.00  0.00    -0.013 C 
ATOM      9  C4' I4B d   1       5.462  -0.490   2.848  0.00  0.00     0.013 C 
ATOM     10  C3' I4B d   1       5.694   1.692   1.694  0.00  0.00     0.013 C 
ENDBRANCH   7   8
ENDBRANCH   1   7
TORSDOF 2
ENDMDL
