MODEL 1
REMARK minimizedAffinity -2.4265697
REMARK minimizedRMSD -1
REMARK  2 active torsions:
REMARK  status: ('A' for Active; 'I' for Inactive)
REMARK    1  A    between atoms: C2'_3  and  C1'_4 
REMARK    2  A    between atoms: C1'_4  and  C1_5 
ROOT
ATOM      1  C1  I4B d   1       4.832   3.593  -5.720  0.00  0.00    -0.075 A 
ATOM      2  C2  I4B d   1       5.432   4.716  -5.208  0.00  0.00     0.003 A 
ATOM      3  C3  I4B d   1       4.670   5.885  -4.969  0.00  0.00     0.002 A 
ATOM      4  C4  I4B d   1       3.331   5.903  -5.302  0.00  0.00    -0.004 A 
ATOM      5  C5  I4B d   1       2.719   4.756  -5.800  0.00  0.00     0.002 A 
ATOM      6  C6  I4B d   1       3.472   3.590  -5.999  0.00  0.00     0.003 A 
ENDROOT
BRANCH   1   7
ATOM      7  C1' I4B d   1       5.674   2.386  -5.991  0.00  0.00     0.060 C 
BRANCH   7   8
ATOM      8  C2' I4B d   1       5.021   1.200  -5.312  0.00  0.00    -0.013 C 
ATOM      9  C4' I4B d   1       3.736   0.817  -5.999  0.00  0.00     0.013 C 
ATOM     10  C3' I4B d   1       5.999   0.063  -5.323  0.00  0.00     0.013 C 
ENDBRANCH   7   8
ENDBRANCH   1   7
TORSDOF 2
ENDMDL
