MODEL 1
REMARK minimizedAffinity 9.02983475
REMARK minimizedRMSD -1
REMARK  2 active torsions:
REMARK  status: ('A' for Active; 'I' for Inactive)
REMARK    1  A    between atoms: C2'_3  and  C1'_4 
REMARK    2  A    between atoms: C1'_4  and  C1_5 
ROOT
ATOM      1  C1  I4B d   1       1.618  -0.319   0.459  0.00  0.00    -0.075 A 
ATOM      2  C2  I4B d   1       2.751  -0.534   1.204  0.00  0.00     0.003 A 
ATOM      3  C3  I4B d   1       3.658   0.526   1.445  0.00  0.00     0.002 A 
ATOM      4  C4  I4B d   1       3.420   1.764   0.884  0.00  0.00    -0.004 A 
ATOM      5  C5  I4B d   1       2.260   1.986   0.148  0.00  0.00     0.002 A 
ATOM      6  C6  I4B d   1       1.347   0.942  -0.056  0.00  0.00     0.003 A 
ENDROOT
BRANCH   1   7
ATOM      7  C1' I4B d   1       0.699  -1.470   0.196  0.00  0.00     0.060 C 
BRANCH   7   8
ATOM      8  C2' I4B d   1       0.290  -2.055   1.533  0.00  0.00    -0.013 C 
ATOM      9  C4' I4B d   1      -1.018  -1.476   2.004  0.00  0.00     0.013 C 
ATOM     10  C3' I4B d   1       0.200  -3.544   1.378  0.00  0.00     0.013 C 
ENDBRANCH   7   8
ENDBRANCH   1   7
TORSDOF 2
ENDMDL
