MODEL 1
REMARK minimizedAffinity 4.32175875
REMARK minimizedRMSD -1
REMARK  2 active torsions:
REMARK  status: ('A' for Active; 'I' for Inactive)
REMARK    1  A    between atoms: C2'_3  and  C1'_4 
REMARK    2  A    between atoms: C1'_4  and  C1_5 
ROOT
ATOM      1  C1  I4B d   1       5.040   3.596  -5.338  0.00  0.00    -0.075 A 
ATOM      2  C2  I4B d   1       4.495   3.553  -4.080  0.00  0.00     0.003 A 
ATOM      3  C3  I4B d   1       4.082   4.747  -3.440  0.00  0.00     0.002 A 
ATOM      4  C4  I4B d   1       4.279   5.959  -4.071  0.00  0.00    -0.004 A 
ATOM      5  C5  I4B d   1       4.811   5.999  -5.357  0.00  0.00     0.002 A 
ATOM      6  C6  I4B d   1       5.183   4.809  -6.000  0.00  0.00     0.003 A 
ENDROOT
BRANCH   1   7
ATOM      7  C1' I4B d   1       5.496   2.320  -5.971  0.00  0.00     0.060 C 
BRANCH   7   8
ATOM      8  C2' I4B d   1       4.890   1.170  -5.191  0.00  0.00    -0.013 C 
ATOM      9  C4' I4B d   1       3.838   0.458  -5.999  0.00  0.00     0.013 C 
ATOM     10  C3' I4B d   1       5.999   0.238  -4.803  0.00  0.00     0.013 C 
ENDBRANCH   7   8
ENDBRANCH   1   7
TORSDOF 2
ENDMDL
