MODEL 1
REMARK minimizedAffinity 4.33965302
REMARK minimizedRMSD -1
REMARK  2 active torsions:
REMARK  status: ('A' for Active; 'I' for Inactive)
REMARK    1  A    between atoms: C2'_3  and  C1'_4 
REMARK    2  A    between atoms: C1'_4  and  C1_5 
ROOT
ATOM      1  C1  I4B d   1       2.969   0.746   1.538  0.00  0.00    -0.075 A 
ATOM      2  C2  I4B d   1       1.857   1.071   2.274  0.00  0.00     0.003 A 
ATOM      3  C3  I4B d   1       1.115   2.237   1.968  0.00  0.00     0.002 A 
ATOM      4  C4  I4B d   1       1.547   3.072   0.957  0.00  0.00    -0.004 A 
ATOM      5  C5  I4B d   1       2.662   2.729   0.197  0.00  0.00     0.002 A 
ATOM      6  C6  I4B d   1       3.371   1.553   0.481  0.00  0.00     0.003 A 
ENDROOT
BRANCH   1   7
ATOM      7  C1' I4B d   1       3.748  -0.476   1.910  0.00  0.00     0.060 C 
BRANCH   7   8
ATOM      8  C2' I4B d   1       4.661  -0.114   3.064  0.00  0.00    -0.013 C 
ATOM      9  C4' I4B d   1       4.083  -0.568   4.379  0.00  0.00     0.013 C 
ATOM     10  C3' I4B d   1       5.997  -0.746   2.813  0.00  0.00     0.013 C 
ENDBRANCH   7   8
ENDBRANCH   1   7
TORSDOF 2
ENDMDL
