MODEL 1
REMARK minimizedAffinity 4.57655573
REMARK minimizedRMSD -1
REMARK  2 active torsions:
REMARK  status: ('A' for Active; 'I' for Inactive)
REMARK    1  A    between atoms: C2'_3  and  C1'_4 
REMARK    2  A    between atoms: C1'_4  and  C1_5 
ROOT
ATOM      1  C1  I4B d   1       2.483   3.293  -5.790  0.00  0.00    -0.075 A 
ATOM      2  C2  I4B d   1       1.518   4.175  -5.372  0.00  0.00     0.003 A 
ATOM      3  C3  I4B d   1       1.847   5.533  -5.138  0.00  0.00     0.002 A 
ATOM      4  C4  I4B d   1       3.154   5.950  -5.284  0.00  0.00    -0.004 A 
ATOM      5  C5  I4B d   1       4.126   5.059  -5.730  0.00  0.00     0.002 A 
ATOM      6  C6  I4B d   1       3.786   3.725  -5.997  0.00  0.00     0.003 A 
ENDROOT
BRANCH   1   7
ATOM      7  C1' I4B d   1       2.108   1.860  -5.996  0.00  0.00     0.060 C 
BRANCH   7   8
ATOM      8  C2' I4B d   1       3.218   1.000  -5.425  0.00  0.00    -0.013 C 
ATOM      9  C4' I4B d   1       2.993  -0.457  -5.735  0.00  0.00     0.013 C 
ATOM     10  C3' I4B d   1       4.517   1.481  -5.999  0.00  0.00     0.013 C 
ENDBRANCH   7   8
ENDBRANCH   1   7
TORSDOF 2
ENDMDL
