MODEL 1
REMARK minimizedAffinity 1.09142697
REMARK minimizedRMSD -1
REMARK  0 active torsions:
REMARK  status: ('A' for Active; 'I' for Inactive)
ROOT
ATOM      1  C2' OXE d   1      -1.239  -3.834   3.285  0.00  0.00     0.078 C 
ATOM      2  C1' OXE d   1      -0.459  -1.155   2.986  0.00  0.00     0.078 C 
ATOM      3  C1  OXE d   1       0.450  -2.219   2.423  0.00  0.00    -0.078 A 
ATOM      4  C2  OXE d   1       0.083  -3.529   2.615  0.00  0.00    -0.078 A 
ATOM      5  C3  OXE d   1       0.857  -4.549   2.068  0.00  0.00     0.003 A 
ATOM      6  C4  OXE d   1       2.084  -4.258   1.458  0.00  0.00    -0.002 A 
ATOM      7  C5  OXE d   1       2.495  -2.932   1.288  0.00  0.00    -0.002 A 
ATOM      8  C6  OXE d   1       1.671  -1.901   1.725  0.00  0.00     0.003 A 
ENDROOT
TORSDOF 0
ENDMDL
