MODEL 1
REMARK minimizedAffinity 0.328407884
REMARK minimizedRMSD -1
REMARK  0 active torsions:
REMARK  status: ('A' for Active; 'I' for Inactive)
ROOT
ATOM      1  C2' OXE d   1      -1.187  -2.520   3.757  0.00  0.00     0.078 C 
ATOM      2  C1' OXE d   1      -1.359  -0.068   2.401  0.00  0.00     0.078 C 
ATOM      3  C1  OXE d   1      -0.211  -0.984   2.056  0.00  0.00    -0.078 A 
ATOM      4  C2  OXE d   1      -0.109  -2.161   2.758  0.00  0.00    -0.078 A 
ATOM      5  C3  OXE d   1       0.900  -3.067   2.441  0.00  0.00     0.003 A 
ATOM      6  C4  OXE d   1       1.899  -2.722   1.523  0.00  0.00    -0.002 A 
ATOM      7  C5  OXE d   1       1.836  -1.511   0.826  0.00  0.00    -0.002 A 
ATOM      8  C6  OXE d   1       0.767  -0.651   1.050  0.00  0.00     0.003 A 
ENDROOT
TORSDOF 0
ENDMDL
