MODEL 1
REMARK minimizedAffinity 3.60895038
REMARK minimizedRMSD -1
REMARK  0 active torsions:
REMARK  status: ('A' for Active; 'I' for Inactive)
ROOT
ATOM      1  C2' OXE d   1       2.493  -1.437   0.298  0.00  0.00     0.078 C 
ATOM      2  C1' OXE d   1       4.073   0.843   0.726  0.00  0.00     0.078 C 
ATOM      3  C1  OXE d   1       3.048   0.895  -0.378  0.00  0.00    -0.078 A 
ATOM      4  C2  OXE d   1       2.311  -0.241  -0.611  0.00  0.00    -0.078 A 
ATOM      5  C3  OXE d   1       1.314  -0.229  -1.582  0.00  0.00     0.003 A 
ATOM      6  C4  OXE d   1       1.159   0.878  -2.426  0.00  0.00    -0.002 A 
ATOM      7  C5  OXE d   1       1.926   2.031  -2.232  0.00  0.00    -0.002 A 
ATOM      8  C6  OXE d   1       2.843   2.072  -1.187  0.00  0.00     0.003 A 
ENDROOT
TORSDOF 0
ENDMDL
