MODEL 1
REMARK minimizedAffinity -0.33665207
REMARK minimizedRMSD -1
REMARK  0 active torsions:
REMARK  status: ('A' for Active; 'I' for Inactive)
ROOT
ATOM      1  C2' OXE d   1      -0.870  -3.277   3.981  0.00  0.00     0.078 C 
ATOM      2  C1' OXE d   1      -0.111  -0.837   2.818  0.00  0.00     0.078 C 
ATOM      3  C1  OXE d   1       0.717  -2.057   2.498  0.00  0.00    -0.078 A 
ATOM      4  C2  OXE d   1       0.366  -3.237   3.108  0.00  0.00    -0.078 A 
ATOM      5  C3  OXE d   1       1.063  -4.403   2.806  0.00  0.00     0.003 A 
ATOM      6  C4  OXE d   1       2.211  -4.356   2.006  0.00  0.00    -0.002 A 
ATOM      7  C5  OXE d   1       2.609  -3.156   1.406  0.00  0.00    -0.002 A 
ATOM      8  C6  OXE d   1       1.850  -2.009   1.607  0.00  0.00     0.003 A 
ENDROOT
TORSDOF 0
ENDMDL
