MODEL 1
REMARK minimizedAffinity 1.28494787
REMARK minimizedRMSD -1
REMARK  0 active torsions:
REMARK  status: ('A' for Active; 'I' for Inactive)
ROOT
ATOM      1  C2' OXE d   1       5.638   5.835  -5.775  0.00  0.00     0.078 C 
ATOM      2  C1' OXE d   1       5.377   3.115  -5.131  0.00  0.00     0.078 C 
ATOM      3  C1  OXE d   1       4.117   3.896  -5.410  0.00  0.00    -0.078 A 
ATOM      4  C2  OXE d   1       4.251   5.237  -5.679  0.00  0.00    -0.078 A 
ATOM      5  C3  OXE d   1       3.126   5.992  -5.997  0.00  0.00     0.003 A 
ATOM      6  C4  OXE d   1       1.846   5.433  -5.896  0.00  0.00    -0.002 A 
ATOM      7  C5  OXE d   1       1.685   4.079  -5.586  0.00  0.00    -0.002 A 
ATOM      8  C6  OXE d   1       2.810   3.288  -5.382  0.00  0.00     0.003 A 
ENDROOT
TORSDOF 0
ENDMDL
