MODEL 1
REMARK minimizedAffinity 9.167099
REMARK minimizedRMSD -1
REMARK  0 active torsions:
REMARK  status: ('A' for Active; 'I' for Inactive)
ROOT
ATOM      1  C2' OXE d   1      -1.464   1.715   3.393  0.00  0.00     0.078 C 
ATOM      2  C1' OXE d   1      -4.196   1.874   2.766  0.00  0.00     0.078 C 
ATOM      3  C1  OXE d   1      -3.682   2.730   3.897  0.00  0.00    -0.078 A 
ATOM      4  C2  OXE d   1      -2.354   2.611   4.227  0.00  0.00    -0.078 A 
ATOM      5  C3  OXE d   1      -1.817   3.418   5.226  0.00  0.00     0.003 A 
ATOM      6  C4  OXE d   1      -2.648   4.237   5.999  0.00  0.00    -0.002 A 
ATOM      7  C5  OXE d   1      -4.012   4.343   5.705  0.00  0.00    -0.002 A 
ATOM      8  C6  OXE d   1      -4.536   3.630   4.632  0.00  0.00     0.003 A 
ENDROOT
TORSDOF 0
ENDMDL
