MODEL 1
REMARK minimizedAffinity 9.53786087
REMARK minimizedRMSD -1
REMARK  0 active torsions:
REMARK  status: ('A' for Active; 'I' for Inactive)
ROOT
ATOM      1  C2' OXE d   1       5.962  -0.770  -2.151  0.00  0.00     0.078 C 
ATOM      2  C1' OXE d   1       5.925   1.877  -3.084  0.00  0.00     0.078 C 
ATOM      3  C1  OXE d   1       5.951   1.658  -1.592  0.00  0.00    -0.078 A 
ATOM      4  C2  OXE d   1       5.922   0.359  -1.144  0.00  0.00    -0.078 A 
ATOM      5  C3  OXE d   1       6.000   0.100   0.222  0.00  0.00     0.003 A 
ATOM      6  C4  OXE d   1       5.952   1.150   1.147  0.00  0.00    -0.002 A 
ATOM      7  C5  OXE d   1       5.941   2.479   0.711  0.00  0.00    -0.002 A 
ATOM      8  C6  OXE d   1       5.983   2.751  -0.652  0.00  0.00     0.003 A 
ENDROOT
TORSDOF 0
ENDMDL
