MODEL 1
REMARK minimizedAffinity -3.52106881
REMARK minimizedRMSD -1
REMARK  0 active torsions:
REMARK  status: ('A' for Active; 'I' for Inactive)
ROOT
ATOM      1  C2' OXE d   1      -3.467   2.217   5.998  0.00  0.00     0.078 C 
ATOM      2  C1' OXE d   1      -5.972   2.931   4.954  0.00  0.00     0.078 C 
ATOM      3  C1  OXE d   1      -4.826   3.889   4.749  0.00  0.00    -0.078 A 
ATOM      4  C2  OXE d   1      -3.614   3.553   5.304  0.00  0.00    -0.078 A 
ATOM      5  C3  OXE d   1      -2.510   4.375   5.098  0.00  0.00     0.003 A 
ATOM      6  C4  OXE d   1      -2.657   5.614   4.462  0.00  0.00    -0.002 A 
ATOM      7  C5  OXE d   1      -3.891   5.994   3.924  0.00  0.00    -0.002 A 
ATOM      8  C6  OXE d   1      -4.973   5.126   4.021  0.00  0.00     0.003 A 
ENDROOT
TORSDOF 0
ENDMDL
