MODEL 1
REMARK minimizedAffinity 3.39787412
REMARK minimizedRMSD -1
REMARK  0 active torsions:
REMARK  status: ('A' for Active; 'I' for Inactive)
ROOT
ATOM      1  C2' OXE d   1       1.682  -2.454  -0.814  0.00  0.00     0.078 C 
ATOM      2  C1' OXE d   1       3.842  -0.937   0.143  0.00  0.00     0.078 C 
ATOM      3  C1  OXE d   1       2.675  -1.162   1.070  0.00  0.00    -0.078 A 
ATOM      4  C2  OXE d   1       1.602  -1.865   0.578  0.00  0.00    -0.078 A 
ATOM      5  C3  OXE d   1       0.522  -2.147   1.409  0.00  0.00     0.003 A 
ATOM      6  C4  OXE d   1       0.451  -1.590   2.692  0.00  0.00    -0.002 A 
ATOM      7  C5  OXE d   1       1.515  -0.838   3.199  0.00  0.00    -0.002 A 
ATOM      8  C6  OXE d   1       2.650  -0.650   2.418  0.00  0.00     0.003 A 
ENDROOT
TORSDOF 0
ENDMDL
