MODEL 1
REMARK minimizedAffinity 11.5016432
REMARK minimizedRMSD -1
REMARK  0 active torsions:
REMARK  status: ('A' for Active; 'I' for Inactive)
ROOT
ATOM      1  C2' OXE d   1       0.981   3.174  -5.031  0.00  0.00     0.078 C 
ATOM      2  C1' OXE d   1       0.824   5.895  -5.703  0.00  0.00     0.078 C 
ATOM      3  C1  OXE d   1       2.191   5.259  -5.662  0.00  0.00    -0.078 A 
ATOM      4  C2  OXE d   1       2.262   3.939  -5.286  0.00  0.00    -0.078 A 
ATOM      5  C3  OXE d   1       3.493   3.288  -5.285  0.00  0.00     0.003 A 
ATOM      6  C4  OXE d   1       4.674   4.005  -5.513  0.00  0.00    -0.002 A 
ATOM      7  C5  OXE d   1       4.626   5.360  -5.858  0.00  0.00    -0.002 A 
ATOM      8  C6  OXE d   1       3.393   5.990  -5.978  0.00  0.00     0.003 A 
ENDROOT
TORSDOF 0
ENDMDL
