MODEL 1
REMARK minimizedAffinity 0.223347351
REMARK minimizedRMSD -1
REMARK  0 active torsions:
REMARK  status: ('A' for Active; 'I' for Inactive)
ROOT
ATOM      1  C   UNL d   1       0.762  -3.471  -0.367  0.00  0.00     0.172 C 
ATOM      2  N   UNL d   1       0.590  -2.167   0.228  0.00  0.00    -0.070 N 
ATOM      3  C1  UNL d   1      -0.551  -1.709   0.832  0.00  0.00    -0.004 A 
ATOM      4  C2  UNL d   1      -0.311  -0.424   1.268  0.00  0.00    -0.047 A 
ATOM      5  C3  UNL d   1       1.019  -0.098   0.914  0.00  0.00    -0.047 A 
ATOM      6  C4  UNL d   1       1.554  -1.195   0.271  0.00  0.00    -0.004 A 
ENDROOT
TORSDOF 0
ENDMDL
