MODEL 1
REMARK minimizedAffinity -0.726981759
REMARK minimizedRMSD -1
REMARK  0 active torsions:
REMARK  status: ('A' for Active; 'I' for Inactive)
ROOT
ATOM      1  C   UNL d   1       2.704  -1.106   0.054  0.00  0.00     0.172 C 
ATOM      2  N   UNL d   1       1.309  -1.380   0.306  0.00  0.00    -0.070 N 
ATOM      3  C1  UNL d   1       0.507  -0.697   1.180  0.00  0.00    -0.004 A 
ATOM      4  C2  UNL d   1      -0.749  -1.262   1.131  0.00  0.00    -0.047 A 
ATOM      5  C3  UNL d   1      -0.699  -2.323   0.195  0.00  0.00    -0.047 A 
ATOM      6  C4  UNL d   1       0.586  -2.373  -0.300  0.00  0.00    -0.004 A 
ENDROOT
TORSDOF 0
ENDMDL
