MODEL 1
REMARK minimizedAffinity -1.80352044
REMARK minimizedRMSD -1
REMARK  0 active torsions:
REMARK  status: ('A' for Active; 'I' for Inactive)
ROOT
ATOM      1  C   UNL d   1      -1.104  -1.134   1.181  0.00  0.00     0.172 C 
ATOM      2  N   UNL d   1       0.165  -1.629   0.700  0.00  0.00    -0.070 N 
ATOM      3  C1  UNL d   1       1.351  -0.945   0.729  0.00  0.00    -0.004 A 
ATOM      4  C2  UNL d   1       2.320  -1.757   0.180  0.00  0.00    -0.047 A 
ATOM      5  C3  UNL d   1       1.694  -2.970  -0.194  0.00  0.00    -0.047 A 
ATOM      6  C4  UNL d   1       0.360  -2.863   0.139  0.00  0.00    -0.004 A 
ENDROOT
TORSDOF 0
ENDMDL
