MODEL 1
REMARK minimizedAffinity -0.146813139
REMARK minimizedRMSD -1
REMARK  0 active torsions:
REMARK  status: ('A' for Active; 'I' for Inactive)
ROOT
ATOM      1  C   UNL d   1       0.475  -3.380  -0.501  0.00  0.00     0.172 C 
ATOM      2  N   UNL d   1       0.277  -2.168   0.257  0.00  0.00    -0.070 N 
ATOM      3  C1  UNL d   1      -0.925  -1.548   0.471  0.00  0.00    -0.004 A 
ATOM      4  C2  UNL d   1      -0.691  -0.427   1.239  0.00  0.00    -0.047 A 
ATOM      5  C3  UNL d   1       0.699  -0.371   1.494  0.00  0.00    -0.047 A 
ATOM      6  C4  UNL d   1       1.275  -1.461   0.875  0.00  0.00    -0.004 A 
ENDROOT
TORSDOF 0
ENDMDL
