MODEL 1
REMARK minimizedAffinity 1.19186354
REMARK minimizedRMSD -1
REMARK  0 active torsions:
REMARK  status: ('A' for Active; 'I' for Inactive)
ROOT
ATOM      1  C   UNL d   1       1.946   0.109   1.860  0.00  0.00     0.172 C 
ATOM      2  N   UNL d   1       0.769  -0.526   1.317  0.00  0.00    -0.070 N 
ATOM      3  C1  UNL d   1      -0.513  -0.056   1.424  0.00  0.00    -0.004 A 
ATOM      4  C2  UNL d   1      -1.344  -0.944   0.776  0.00  0.00    -0.047 A 
ATOM      5  C3  UNL d   1      -0.534  -1.984   0.263  0.00  0.00    -0.047 A 
ATOM      6  C4  UNL d   1       0.770  -1.701   0.612  0.00  0.00    -0.004 A 
ENDROOT
TORSDOF 0
ENDMDL
