MODEL 1
REMARK minimizedAffinity -0.408807963
REMARK minimizedRMSD -1
REMARK  0 active torsions:
REMARK  status: ('A' for Active; 'I' for Inactive)
ROOT
ATOM      1  C   UNL d   1       0.909  -3.576  -1.140  0.00  0.00     0.172 C 
ATOM      2  N   UNL d   1       0.820  -2.361  -0.364  0.00  0.00    -0.070 N 
ATOM      3  C1  UNL d   1       1.808  -1.423  -0.233  0.00  0.00    -0.004 A 
ATOM      4  C2  UNL d   1       1.334  -0.420   0.584  0.00  0.00    -0.047 A 
ATOM      5  C3  UNL d   1       0.014  -0.769   0.959  0.00  0.00    -0.047 A 
ATOM      6  C4  UNL d   1      -0.279  -1.975   0.358  0.00  0.00    -0.004 A 
ENDROOT
TORSDOF 0
ENDMDL
