MODEL 1
REMARK minimizedAffinity -3.27873445
REMARK minimizedRMSD -1
REMARK  0 active torsions:
REMARK  status: ('A' for Active; 'I' for Inactive)
ROOT
ATOM      1  C   UNL d   1       1.748  -3.770  -0.275  0.00  0.00     0.172 C 
ATOM      2  N   UNL d   1       1.138  -2.519   0.110  0.00  0.00    -0.070 N 
ATOM      3  C1  UNL d   1       1.751  -1.294   0.096  0.00  0.00    -0.004 A 
ATOM      4  C2  UNL d   1       0.836  -0.359   0.531  0.00  0.00    -0.047 A 
ATOM      5  C3  UNL d   1      -0.367  -1.046   0.819  0.00  0.00    -0.047 A 
ATOM      6  C4  UNL d   1      -0.152  -2.382   0.550  0.00  0.00    -0.004 A 
ENDROOT
TORSDOF 0
ENDMDL
