MODEL 1
REMARK minimizedAffinity -1.95867038
REMARK minimizedRMSD -1
REMARK  0 active torsions:
REMARK  status: ('A' for Active; 'I' for Inactive)
ROOT
ATOM      1  C   UNL d   1       0.932  -3.624   0.336  0.00  0.00     0.172 C 
ATOM      2  N   UNL d   1       0.584  -2.228   0.465  0.00  0.00    -0.070 N 
ATOM      3  C1  UNL d   1       1.463  -1.204   0.700  0.00  0.00    -0.004 A 
ATOM      4  C2  UNL d   1       0.740  -0.032   0.754  0.00  0.00    -0.047 A 
ATOM      5  C3  UNL d   1      -0.620  -0.363   0.546  0.00  0.00    -0.047 A 
ATOM      6  C4  UNL d   1      -0.688  -1.728   0.370  0.00  0.00    -0.004 A 
ENDROOT
TORSDOF 0
ENDMDL
