MODEL 1
REMARK minimizedAffinity 4.74626541
REMARK minimizedRMSD -1
REMARK  0 active torsions:
REMARK  status: ('A' for Active; 'I' for Inactive)
ROOT
ATOM      1  C   UNL d   1       1.727  -0.075   2.174  0.00  0.00     0.172 C 
ATOM      2  N   UNL d   1       0.900  -0.782   1.225  0.00  0.00    -0.070 N 
ATOM      3  C1  UNL d   1       1.298  -1.840   0.451  0.00  0.00    -0.004 A 
ATOM      4  C2  UNL d   1       0.222  -2.230  -0.316  0.00  0.00    -0.047 A 
ATOM      5  C3  UNL d   1      -0.860  -1.378   0.007  0.00  0.00    -0.047 A 
ATOM      6  C4  UNL d   1      -0.413  -0.491   0.964  0.00  0.00    -0.004 A 
ENDROOT
TORSDOF 0
ENDMDL
