MODEL 1
REMARK minimizedAffinity -0.848138511
REMARK minimizedRMSD -1
REMARK  0 active torsions:
REMARK  status: ('A' for Active; 'I' for Inactive)
ROOT
ATOM      1  C   UNL d   1       1.695  -1.382   3.477  0.00  0.00     0.172 C 
ATOM      2  N   UNL d   1       0.902  -1.433   2.272  0.00  0.00    -0.070 N 
ATOM      3  C1  UNL d   1       0.402  -0.350   1.599  0.00  0.00    -0.004 A 
ATOM      4  C2  UNL d   1      -0.295  -0.817   0.506  0.00  0.00    -0.047 A 
ATOM      5  C3  UNL d   1      -0.213  -2.229   0.523  0.00  0.00    -0.047 A 
ATOM      6  C4  UNL d   1       0.534  -2.584   1.626  0.00  0.00    -0.004 A 
ENDROOT
TORSDOF 0
ENDMDL
