MODEL 1
REMARK minimizedAffinity -2.89906645
REMARK minimizedRMSD -1
REMARK  0 active torsions:
REMARK  status: ('A' for Active; 'I' for Inactive)
ROOT
ATOM      1  C   UNL d   1       2.023  -3.441  -0.574  0.00  0.00     0.172 C 
ATOM      2  N   UNL d   1       1.222  -2.376  -0.017  0.00  0.00    -0.070 N 
ATOM      3  C1  UNL d   1      -0.065  -2.498   0.434  0.00  0.00    -0.004 A 
ATOM      4  C2  UNL d   1      -0.473  -1.262   0.885  0.00  0.00    -0.047 A 
ATOM      5  C3  UNL d   1       0.606  -0.365   0.698  0.00  0.00    -0.047 A 
ATOM      6  C4  UNL d   1       1.642  -1.082   0.138  0.00  0.00    -0.004 A 
ENDROOT
TORSDOF 0
ENDMDL
