MODEL 1
REMARK minimizedAffinity -0.919112742
REMARK minimizedRMSD -1
REMARK  0 active torsions:
REMARK  status: ('A' for Active; 'I' for Inactive)
ROOT
ATOM      1  C   UNL d   1       1.623  -3.656  -0.129  0.00  0.00     0.172 C 
ATOM      2  N   UNL d   1       1.048  -2.409   0.317  0.00  0.00    -0.070 N 
ATOM      3  C1  UNL d   1       1.631  -1.175   0.204  0.00  0.00    -0.004 A 
ATOM      4  C2  UNL d   1       0.767  -0.248   0.746  0.00  0.00    -0.047 A 
ATOM      5  C3  UNL d   1      -0.374  -0.949   1.202  0.00  0.00    -0.047 A 
ATOM      6  C4  UNL d   1      -0.174  -2.285   0.924  0.00  0.00    -0.004 A 
ENDROOT
TORSDOF 0
ENDMDL
