MODEL 1
REMARK minimizedAffinity -0.0356124192
REMARK minimizedRMSD -1
REMARK  0 active torsions:
REMARK  status: ('A' for Active; 'I' for Inactive)
ROOT
ATOM      1  C   UNL d   1       2.801  -1.810  -0.379  0.00  0.00     0.172 C 
ATOM      2  N   UNL d   1       1.560  -1.261   0.115  0.00  0.00    -0.070 N 
ATOM      3  C1  UNL d   1       0.316  -1.505  -0.403  0.00  0.00    -0.004 A 
ATOM      4  C2  UNL d   1      -0.599  -0.799   0.347  0.00  0.00    -0.047 A 
ATOM      5  C3  UNL d   1       0.119  -0.107   1.350  0.00  0.00    -0.047 A 
ATOM      6  C4  UNL d   1       1.453  -0.411   1.184  0.00  0.00    -0.004 A 
ENDROOT
TORSDOF 0
ENDMDL
