MODEL 1
REMARK minimizedAffinity -6.70128775
REMARK minimizedRMSD -1
REMARK  3 active torsions:
REMARK  status: ('A' for Active; 'I' for Inactive)
REMARK    1  A    between atoms: C3'_2  and  C2'_3 
REMARK    2  A    between atoms: C2'_3  and  C1'_4 
REMARK    3  A    between atoms: C1'_4  and  C1_5 
ROOT
ATOM      1  C1  N4B d   1       0.437   0.419   0.448  0.00  0.00    -0.075 A 
ATOM      2  C2  N4B d   1       0.957   1.532   1.144  0.00  0.00     0.002 A 
ATOM      3  C3  N4B d   1       2.247   1.506   1.614  0.00  0.00     0.002 A 
ATOM      4  C4  N4B d   1       3.026   0.376   1.417  0.00  0.00    -0.004 A 
ATOM      5  C5  N4B d   1       2.525  -0.685   0.721  0.00  0.00     0.002 A 
ATOM      6  C6  N4B d   1       1.231  -0.671   0.240  0.00  0.00     0.002 A 
ENDROOT
BRANCH   1   7
ATOM      7  C1' N4B d   1      -0.995   0.368  -0.009  0.00  0.00     0.057 C 
BRANCH   7   8
ATOM      8  C2' N4B d   1      -1.055   0.664  -1.505  0.00  0.00     0.009 C 
BRANCH   8   9
ATOM      9  C3' N4B d   1      -2.371   0.221  -2.120  0.00  0.00     0.004 C 
ATOM     10  C4' N4B d   1      -2.354   0.261  -3.619  0.00  0.00     0.003 C 
ENDBRANCH   8   9
ENDBRANCH   7   8
ENDBRANCH   1   7
TORSDOF 3
ENDMDL
