MODEL 1
REMARK minimizedAffinity -0.683513582
REMARK minimizedRMSD -1
REMARK  3 active torsions:
REMARK  status: ('A' for Active; 'I' for Inactive)
REMARK    1  A    between atoms: C3'_2  and  C2'_3 
REMARK    2  A    between atoms: C2'_3  and  C1'_4 
REMARK    3  A    between atoms: C1'_4  and  C1_5 
ROOT
ATOM      1  C1  N4B d   1       0.493   0.394  -0.130  0.00  0.00    -0.075 A 
ATOM      2  C2  N4B d   1       0.741  -0.799   0.584  0.00  0.00     0.002 A 
ATOM      3  C3  N4B d   1       2.018  -1.106   0.986  0.00  0.00     0.002 A 
ATOM      4  C4  N4B d   1       3.061  -0.248   0.671  0.00  0.00    -0.004 A 
ATOM      5  C5  N4B d   1       2.809   0.915   0.004  0.00  0.00     0.002 A 
ATOM      6  C6  N4B d   1       1.530   1.238  -0.403  0.00  0.00     0.002 A 
ENDROOT
BRANCH   1   7
ATOM      7  C1' N4B d   1      -0.872   0.730  -0.665  0.00  0.00     0.057 C 
BRANCH   7   8
ATOM      8  C2' N4B d   1      -1.309  -0.358  -1.641  0.00  0.00     0.009 C 
BRANCH   8   9
ATOM      9  C3' N4B d   1      -1.835   0.223  -2.942  0.00  0.00     0.004 C 
ATOM     10  C4' N4B d   1      -2.091  -0.824  -3.985  0.00  0.00     0.003 C 
ENDBRANCH   8   9
ENDBRANCH   7   8
ENDBRANCH   1   7
TORSDOF 3
ENDMDL
