MODEL 1
REMARK minimizedAffinity -4.64929295
REMARK minimizedRMSD -1
REMARK  3 active torsions:
REMARK  status: ('A' for Active; 'I' for Inactive)
REMARK    1  A    between atoms: C3'_2  and  C2'_3 
REMARK    2  A    between atoms: C2'_3  and  C1'_4 
REMARK    3  A    between atoms: C1'_4  and  C1_5 
ROOT
ATOM      1  C1  N4B d   1      -0.268  -0.102   0.385  0.00  0.00    -0.075 A 
ATOM      2  C2  N4B d   1       0.492   1.052   0.090  0.00  0.00     0.002 A 
ATOM      3  C3  N4B d   1       1.848   1.055   0.308  0.00  0.00     0.002 A 
ATOM      4  C4  N4B d   1       2.461  -0.073   0.834  0.00  0.00    -0.004 A 
ATOM      5  C5  N4B d   1       1.724  -1.192   1.091  0.00  0.00     0.002 A 
ATOM      6  C6  N4B d   1       0.361  -1.210   0.874  0.00  0.00     0.002 A 
ENDROOT
BRANCH   1   7
ATOM      7  C1' N4B d   1      -1.765  -0.124   0.245  0.00  0.00     0.057 C 
BRANCH   7   8
ATOM      8  C2' N4B d   1      -2.167   0.700  -0.975  0.00  0.00     0.009 C 
BRANCH   8   9
ATOM      9  C3' N4B d   1      -2.468  -0.177  -2.179  0.00  0.00     0.004 C 
ATOM     10  C4' N4B d   1      -2.288   0.543  -3.482  0.00  0.00     0.003 C 
ENDBRANCH   8   9
ENDBRANCH   7   8
ENDBRANCH   1   7
TORSDOF 3
ENDMDL
