MODEL 1
REMARK minimizedAffinity -1.90194106
REMARK minimizedRMSD -1
REMARK  3 active torsions:
REMARK  status: ('A' for Active; 'I' for Inactive)
REMARK    1  A    between atoms: C3'_2  and  C2'_3 
REMARK    2  A    between atoms: C2'_3  and  C1'_4 
REMARK    3  A    between atoms: C1'_4  and  C1_5 
ROOT
ATOM      1  C1  N4B d   1      -0.791   1.051   0.296  0.00  0.00    -0.075 A 
ATOM      2  C2  N4B d   1      -0.335  -0.286   0.307  0.00  0.00     0.002 A 
ATOM      3  C3  N4B d   1       0.586  -0.704  -0.622  0.00  0.00     0.002 A 
ATOM      4  C4  N4B d   1       1.048   0.187  -1.579  0.00  0.00    -0.004 A 
ATOM      5  C5  N4B d   1       0.622   1.483  -1.566  0.00  0.00     0.002 A 
ATOM      6  C6  N4B d   1      -0.300   1.918  -0.636  0.00  0.00     0.002 A 
ENDROOT
BRANCH   1   7
ATOM      7  C1' N4B d   1      -1.861   1.532   1.238  0.00  0.00     0.057 C 
BRANCH   7   8
ATOM      8  C2' N4B d   1      -1.264   2.564   2.189  0.00  0.00     0.009 C 
BRANCH   8   9
ATOM      9  C3' N4B d   1      -0.527   1.911   3.346  0.00  0.00     0.004 C 
ATOM     10  C4' N4B d   1       0.603   2.751   3.863  0.00  0.00     0.003 C 
ENDBRANCH   8   9
ENDBRANCH   7   8
ENDBRANCH   1   7
TORSDOF 3
ENDMDL
