MODEL 1
REMARK minimizedAffinity 5.24316216
REMARK minimizedRMSD -1
REMARK  3 active torsions:
REMARK  status: ('A' for Active; 'I' for Inactive)
REMARK    1  A    between atoms: C3'_2  and  C2'_3 
REMARK    2  A    between atoms: C2'_3  and  C1'_4 
REMARK    3  A    between atoms: C1'_4  and  C1_5 
ROOT
ATOM      1  C1  N4B d   1      -0.763  -0.965  -0.653  0.00  0.00    -0.075 A 
ATOM      2  C2  N4B d   1       0.150  -0.676   0.385  0.00  0.00     0.002 A 
ATOM      3  C3  N4B d   1       0.553   0.619   0.603  0.00  0.00     0.002 A 
ATOM      4  C4  N4B d   1       0.074   1.633  -0.211  0.00  0.00    -0.004 A 
ATOM      5  C5  N4B d   1      -0.828   1.349  -1.195  0.00  0.00     0.002 A 
ATOM      6  C6  N4B d   1      -1.245   0.053  -1.423  0.00  0.00     0.002 A 
ENDROOT
BRANCH   1   7
ATOM      7  C1' N4B d   1      -1.167  -2.376  -0.984  0.00  0.00     0.057 C 
BRANCH   7   8
ATOM      8  C2' N4B d   1       0.068  -3.162  -1.414  0.00  0.00     0.009 C 
BRANCH   8   9
ATOM      9  C3' N4B d   1      -0.083  -3.738  -2.812  0.00  0.00     0.004 C 
ATOM     10  C4' N4B d   1      -1.175  -3.076  -3.598  0.00  0.00     0.003 C 
ENDBRANCH   8   9
ENDBRANCH   7   8
ENDBRANCH   1   7
TORSDOF 3
ENDMDL
