MODEL 1
REMARK minimizedAffinity -2.63135886
REMARK minimizedRMSD -1
REMARK  3 active torsions:
REMARK  status: ('A' for Active; 'I' for Inactive)
REMARK    1  A    between atoms: C3'_2  and  C2'_3 
REMARK    2  A    between atoms: C2'_3  and  C1'_4 
REMARK    3  A    between atoms: C1'_4  and  C1_5 
ROOT
ATOM      1  C1  N4B d   1       0.713  -0.954  -1.212  0.00  0.00    -0.075 A 
ATOM      2  C2  N4B d   1       1.433  -1.847  -0.388  0.00  0.00     0.002 A 
ATOM      3  C3  N4B d   1       1.724  -3.112  -0.837  0.00  0.00     0.002 A 
ATOM      4  C4  N4B d   1       1.291  -3.511  -2.092  0.00  0.00    -0.004 A 
ATOM      5  C5  N4B d   1       0.619  -2.633  -2.892  0.00  0.00     0.002 A 
ATOM      6  C6  N4B d   1       0.323  -1.358  -2.456  0.00  0.00     0.002 A 
ENDROOT
BRANCH   1   7
ATOM      7  C1' N4B d   1       0.297   0.409  -0.731  0.00  0.00     0.057 C 
BRANCH   7   8
ATOM      8  C2' N4B d   1      -0.764   0.255   0.354  0.00  0.00     0.009 C 
BRANCH   8   9
ATOM      9  C3' N4B d   1      -1.119   1.586   0.995  0.00  0.00     0.004 C 
ATOM     10  C4' N4B d   1      -0.663   1.685   2.420  0.00  0.00     0.003 C 
ENDBRANCH   8   9
ENDBRANCH   7   8
ENDBRANCH   1   7
TORSDOF 3
ENDMDL
