MODEL 1
REMARK minimizedAffinity -3.72449493
REMARK minimizedRMSD -1
REMARK  3 active torsions:
REMARK  status: ('A' for Active; 'I' for Inactive)
REMARK    1  A    between atoms: C3'_2  and  C2'_3 
REMARK    2  A    between atoms: C2'_3  and  C1'_4 
REMARK    3  A    between atoms: C1'_4  and  C1_5 
ROOT
ATOM      1  C1  N4B d   1      -0.512   0.492   0.403  0.00  0.00    -0.075 A 
ATOM      2  C2  N4B d   1      -1.091   0.832   1.646  0.00  0.00     0.002 A 
ATOM      3  C3  N4B d   1      -1.456   2.131   1.902  0.00  0.00     0.002 A 
ATOM      4  C4  N4B d   1      -1.235   3.107   0.941  0.00  0.00    -0.004 A 
ATOM      5  C5  N4B d   1      -0.699   2.766  -0.266  0.00  0.00     0.002 A 
ATOM      6  C6  N4B d   1      -0.332   1.464  -0.538  0.00  0.00     0.002 A 
ENDROOT
BRANCH   1   7
ATOM      7  C1' N4B d   1      -0.019  -0.898   0.110  0.00  0.00     0.057 C 
BRANCH   7   8
ATOM      8  C2' N4B d   1       0.924  -0.853  -1.088  0.00  0.00     0.009 C 
BRANCH   8   9
ATOM      9  C3' N4B d   1       1.373  -2.241  -1.511  0.00  0.00     0.004 C 
ATOM     10  C4' N4B d   1       0.607  -2.765  -2.689  0.00  0.00     0.003 C 
ENDBRANCH   8   9
ENDBRANCH   7   8
ENDBRANCH   1   7
TORSDOF 3
ENDMDL
