MODEL 1
REMARK minimizedAffinity 0.273398221
REMARK minimizedRMSD -1
REMARK  3 active torsions:
REMARK  status: ('A' for Active; 'I' for Inactive)
REMARK    1  A    between atoms: C3'_2  and  C2'_3 
REMARK    2  A    between atoms: C2'_3  and  C1'_4 
REMARK    3  A    between atoms: C1'_4  and  C1_5 
ROOT
ATOM      1  C1  N4B d   1       0.307  -1.009  -1.476  0.00  0.00    -0.075 A 
ATOM      2  C2  N4B d   1       0.908  -1.887  -0.547  0.00  0.00     0.002 A 
ATOM      3  C3  N4B d   1       1.214  -3.173  -0.917  0.00  0.00     0.002 A 
ATOM      4  C4  N4B d   1       0.914  -3.608  -2.199  0.00  0.00    -0.004 A 
ATOM      5  C5  N4B d   1       0.357  -2.747  -3.099  0.00  0.00     0.002 A 
ATOM      6  C6  N4B d   1       0.047  -1.450  -2.742  0.00  0.00     0.002 A 
ENDROOT
BRANCH   1   7
ATOM      7  C1' N4B d   1      -0.124   0.380  -1.093  0.00  0.00     0.057 C 
BRANCH   7   8
ATOM      8  C2' N4B d   1      -1.557   0.332  -0.570  0.00  0.00     0.009 C 
BRANCH   8   9
ATOM      9  C3' N4B d   1      -1.968   1.642   0.080  0.00  0.00     0.004 C 
ATOM     10  C4' N4B d   1      -1.209   1.929   1.341  0.00  0.00     0.003 C 
ENDBRANCH   8   9
ENDBRANCH   7   8
ENDBRANCH   1   7
TORSDOF 3
ENDMDL
