MODEL 1
REMARK minimizedAffinity -1.98988116
REMARK minimizedRMSD -1
REMARK  3 active torsions:
REMARK  status: ('A' for Active; 'I' for Inactive)
REMARK    1  A    between atoms: C3'_2  and  C2'_3 
REMARK    2  A    between atoms: C2'_3  and  C1'_4 
REMARK    3  A    between atoms: C1'_4  and  C1_5 
ROOT
ATOM      1  C1  N4B d   1      -1.025   1.094   0.087  0.00  0.00    -0.075 A 
ATOM      2  C2  N4B d   1      -0.579  -0.161   0.557  0.00  0.00     0.002 A 
ATOM      3  C3  N4B d   1       0.378  -0.855  -0.142  0.00  0.00     0.002 A 
ATOM      4  C4  N4B d   1       0.888  -0.326  -1.318  0.00  0.00    -0.004 A 
ATOM      5  C5  N4B d   1       0.470   0.899  -1.752  0.00  0.00     0.002 A 
ATOM      6  C6  N4B d   1      -0.488   1.609  -1.057  0.00  0.00     0.002 A 
ENDROOT
BRANCH   1   7
ATOM      7  C1' N4B d   1      -2.131   1.851   0.770  0.00  0.00     0.057 C 
BRANCH   7   8
ATOM      8  C2' N4B d   1      -1.547   2.649   1.933  0.00  0.00     0.009 C 
BRANCH   8   9
ATOM      9  C3' N4B d   1      -0.665   1.792   2.824  0.00  0.00     0.004 C 
ATOM     10  C4' N4B d   1       0.123   2.601   3.811  0.00  0.00     0.003 C 
ENDBRANCH   8   9
ENDBRANCH   7   8
ENDBRANCH   1   7
TORSDOF 3
ENDMDL
