MODEL 1
REMARK minimizedAffinity -4.28131866
REMARK minimizedRMSD -1
REMARK  3 active torsions:
REMARK  status: ('A' for Active; 'I' for Inactive)
REMARK    1  A    between atoms: C3'_2  and  C2'_3 
REMARK    2  A    between atoms: C2'_3  and  C1'_4 
REMARK    3  A    between atoms: C1'_4  and  C1_5 
ROOT
ATOM      1  C1  N4B d   1      -0.636   0.019   0.888  0.00  0.00    -0.075 A 
ATOM      2  C2  N4B d   1      -0.549   0.442   2.232  0.00  0.00     0.002 A 
ATOM      3  C3  N4B d   1      -1.131   1.624   2.619  0.00  0.00     0.002 A 
ATOM      4  C4  N4B d   1      -1.787   2.406   1.680  0.00  0.00    -0.004 A 
ATOM      5  C5  N4B d   1      -1.888   1.978   0.388  0.00  0.00     0.002 A 
ATOM      6  C6  N4B d   1      -1.312   0.790  -0.014  0.00  0.00     0.002 A 
ENDROOT
BRANCH   1   7
ATOM      7  C1' N4B d   1       0.057  -1.223   0.399  0.00  0.00     0.057 C 
BRANCH   7   8
ATOM      8  C2' N4B d   1       0.544  -0.997  -1.029  0.00  0.00     0.009 C 
BRANCH   8   9
ATOM      9  C3' N4B d   1       1.145  -2.255  -1.631  0.00  0.00     0.004 C 
ATOM     10  C4' N4B d   1       0.241  -2.909  -2.633  0.00  0.00     0.003 C 
ENDBRANCH   8   9
ENDBRANCH   7   8
ENDBRANCH   1   7
TORSDOF 3
ENDMDL
