MODEL 1
REMARK minimizedAffinity -5.58028173
REMARK minimizedRMSD -1
REMARK  3 active torsions:
REMARK  status: ('A' for Active; 'I' for Inactive)
REMARK    1  A    between atoms: C3'_2  and  C2'_3 
REMARK    2  A    between atoms: C2'_3  and  C1'_4 
REMARK    3  A    between atoms: C1'_4  and  C1_5 
ROOT
ATOM      1  C1  N4B d   1       0.321  -0.031  -0.122  0.00  0.00    -0.075 A 
ATOM      2  C2  N4B d   1      -0.632   0.985  -0.354  0.00  0.00     0.002 A 
ATOM      3  C3  N4B d   1      -1.515   1.337   0.638  0.00  0.00     0.002 A 
ATOM      4  C4  N4B d   1      -1.476   0.677   1.857  0.00  0.00    -0.004 A 
ATOM      5  C5  N4B d   1      -0.536  -0.285   2.082  0.00  0.00     0.002 A 
ATOM      6  C6  N4B d   1       0.361  -0.646   1.096  0.00  0.00     0.002 A 
ENDROOT
BRANCH   1   7
ATOM      7  C1' N4B d   1       1.250  -0.510  -1.203  0.00  0.00     0.057 C 
BRANCH   7   8
ATOM      8  C2' N4B d   1       1.426  -2.020  -1.080  0.00  0.00     0.009 C 
BRANCH   8   9
ATOM      9  C3' N4B d   1       0.478  -2.779  -1.994  0.00  0.00     0.004 C 
ATOM     10  C4' N4B d   1       0.371  -2.166  -3.358  0.00  0.00     0.003 C 
ENDBRANCH   8   9
ENDBRANCH   7   8
ENDBRANCH   1   7
TORSDOF 3
ENDMDL
