MODEL 1
REMARK minimizedAffinity -4.59694862
REMARK minimizedRMSD -1
REMARK  3 active torsions:
REMARK  status: ('A' for Active; 'I' for Inactive)
REMARK    1  A    between atoms: C3'_2  and  C2'_3 
REMARK    2  A    between atoms: C2'_3  and  C1'_4 
REMARK    3  A    between atoms: C1'_4  and  C1_5 
ROOT
ATOM      1  C1  N4B d   1       0.014   0.231   0.197  0.00  0.00    -0.075 A 
ATOM      2  C2  N4B d   1      -0.803   1.383   0.191  0.00  0.00     0.002 A 
ATOM      3  C3  N4B d   1      -1.516   1.725   1.314  0.00  0.00     0.002 A 
ATOM      4  C4  N4B d   1      -1.443   0.924   2.443  0.00  0.00    -0.004 A 
ATOM      5  C5  N4B d   1      -0.631  -0.172   2.450  0.00  0.00     0.002 A 
ATOM      6  C6  N4B d   1       0.094  -0.526   1.330  0.00  0.00     0.002 A 
ENDROOT
BRANCH   1   7
ATOM      7  C1' N4B d   1       0.745  -0.231  -1.034  0.00  0.00     0.057 C 
BRANCH   7   8
ATOM      8  C2' N4B d   1       1.183  -1.679  -0.841  0.00  0.00     0.009 C 
BRANCH   8   9
ATOM      9  C3' N4B d   1       0.725  -2.568  -1.985  0.00  0.00     0.004 C 
ATOM     10  C4' N4B d   1      -0.149  -1.847  -2.967  0.00  0.00     0.003 C 
ENDBRANCH   8   9
ENDBRANCH   7   8
ENDBRANCH   1   7
TORSDOF 3
ENDMDL
