MODEL 1
REMARK minimizedAffinity 1.50713587
REMARK minimizedRMSD -1
REMARK  0 active torsions:
REMARK  status: ('A' for Active; 'I' for Inactive)
ROOT
ATOM      1  C   UNL d   1      -2.112   0.804   1.073  0.00  0.00     0.020 A 
ATOM      2  C1  UNL d   1      -1.546   0.222   2.207  0.00  0.00     0.020 A 
ATOM      3  C2  UNL d   1      -0.286  -0.375   2.131  0.00  0.00     0.034 A 
ATOM      4  C3  UNL d   1       0.413  -0.392   0.918  0.00  0.00     0.017 A 
ATOM      5  C4  UNL d   1      -0.156   0.193  -0.219  0.00  0.00     0.017 A 
ATOM      6  C5  UNL d   1      -1.418   0.789  -0.137  0.00  0.00     0.034 A 
ATOM      7 Cl   UNL d   1       0.646   0.212  -1.751  0.00  0.00    -0.070 Cl
ATOM      8 Cl1  UNL d   1       1.967  -1.147   0.896  0.00  0.00    -0.070 Cl
ENDROOT
TORSDOF 0
ENDMDL
