MODEL 1
REMARK minimizedAffinity 3.73841715
REMARK minimizedRMSD -1
REMARK  0 active torsions:
REMARK  status: ('A' for Active; 'I' for Inactive)
ROOT
ATOM      1  C   UNL d   1      -1.314   0.164  -0.809  0.00  0.00     0.020 A 
ATOM      2  C1  UNL d   1      -2.164   0.159   0.296  0.00  0.00     0.020 A 
ATOM      3  C2  UNL d   1      -1.648  -0.074   1.573  0.00  0.00     0.034 A 
ATOM      4  C3  UNL d   1      -0.279  -0.304   1.748  0.00  0.00     0.017 A 
ATOM      5  C4  UNL d   1       0.574  -0.300   0.638  0.00  0.00     0.017 A 
ATOM      6  C5  UNL d   1       0.052  -0.065  -0.638  0.00  0.00     0.034 A 
ATOM      7 Cl   UNL d   1       2.275  -0.575   0.774  0.00  0.00    -0.070 Cl
ATOM      8 Cl1  UNL d   1       0.290  -0.585   3.355  0.00  0.00    -0.070 Cl
ENDROOT
TORSDOF 0
ENDMDL
