MODEL 1
REMARK minimizedAffinity 3.92594695
REMARK minimizedRMSD -1
REMARK  0 active torsions:
REMARK  status: ('A' for Active; 'I' for Inactive)
ROOT
ATOM      1  C   UNL d   1       1.403   1.825  -4.276  0.00  0.00     0.020 A 
ATOM      2  C1  UNL d   1       1.888   2.071  -2.992  0.00  0.00     0.020 A 
ATOM      3  C2  UNL d   1       1.474   1.272  -1.924  0.00  0.00     0.034 A 
ATOM      4  C3  UNL d   1       0.571   0.224  -2.138  0.00  0.00     0.017 A 
ATOM      5  C4  UNL d   1       0.085  -0.022  -3.427  0.00  0.00     0.017 A 
ATOM      6  C5  UNL d   1       0.503   0.781  -4.493  0.00  0.00     0.034 A 
ATOM      7 Cl   UNL d   1      -1.030  -1.298  -3.769  0.00  0.00    -0.070 Cl
ATOM      8 Cl1  UNL d   1       0.102  -0.724  -0.772  0.00  0.00    -0.070 Cl
ENDROOT
TORSDOF 0
ENDMDL
