MODEL 1
REMARK minimizedAffinity 2.01473665
REMARK minimizedRMSD -1
REMARK  0 active torsions:
REMARK  status: ('A' for Active; 'I' for Inactive)
ROOT
ATOM      1  C   UNL d   1      -0.577   0.284  -1.716  0.00  0.00     0.020 A 
ATOM      2  C1  UNL d   1      -1.737   0.602  -1.009  0.00  0.00     0.020 A 
ATOM      3  C2  UNL d   1      -1.739   0.554   0.386  0.00  0.00     0.034 A 
ATOM      4  C3  UNL d   1      -0.580   0.188   1.080  0.00  0.00     0.017 A 
ATOM      5  C4  UNL d   1       0.583  -0.131   0.370  0.00  0.00     0.017 A 
ATOM      6  C5  UNL d   1       0.580  -0.082  -1.028  0.00  0.00     0.034 A 
ATOM      7 Cl   UNL d   1       2.052  -0.593   1.156  0.00  0.00    -0.070 Cl
ATOM      8 Cl1  UNL d   1      -0.654   0.150   2.806  0.00  0.00    -0.070 Cl
ENDROOT
TORSDOF 0
ENDMDL
