MODEL 1
REMARK minimizedAffinity -5.65728378
REMARK minimizedRMSD -1
REMARK  0 active torsions:
REMARK  status: ('A' for Active; 'I' for Inactive)
ROOT
ATOM      1  C   UNL d   1       1.334   0.380   3.118  0.00  0.00     0.020 A 
ATOM      2  C1  UNL d   1       0.106   0.857   3.573  0.00  0.00     0.020 A 
ATOM      3  C2  UNL d   1      -0.968   0.975   2.688  0.00  0.00     0.034 A 
ATOM      4  C3  UNL d   1      -0.816   0.615   1.344  0.00  0.00     0.017 A 
ATOM      5  C4  UNL d   1       0.418   0.136   0.889  0.00  0.00     0.017 A 
ATOM      6  C5  UNL d   1       1.490   0.020   1.779  0.00  0.00     0.034 A 
ATOM      7 Cl   UNL d   1       0.682  -0.328  -0.755  0.00  0.00    -0.070 Cl
ATOM      8 Cl1  UNL d   1      -2.187   0.786   0.307  0.00  0.00    -0.070 Cl
ENDROOT
TORSDOF 0
ENDMDL
