MODEL 1
REMARK minimizedAffinity -0.904302895
REMARK minimizedRMSD -1
REMARK  0 active torsions:
REMARK  status: ('A' for Active; 'I' for Inactive)
ROOT
ATOM      1  C   UNL d   1      -1.832   1.080   2.587  0.00  0.00     0.020 A 
ATOM      2  C1  UNL d   1      -0.807   0.806   3.492  0.00  0.00     0.020 A 
ATOM      3  C2  UNL d   1       0.374   0.208   3.049  0.00  0.00     0.034 A 
ATOM      4  C3  UNL d   1       0.534  -0.118   1.697  0.00  0.00     0.017 A 
ATOM      5  C4  UNL d   1      -0.495   0.158   0.790  0.00  0.00     0.017 A 
ATOM      6  C5  UNL d   1      -1.676   0.756   1.239  0.00  0.00     0.034 A 
ATOM      7 Cl   UNL d   1      -0.371  -0.215  -0.893  0.00  0.00    -0.070 Cl
ATOM      8 Cl1  UNL d   1       2.022  -0.855   1.219  0.00  0.00    -0.070 Cl
ENDROOT
TORSDOF 0
ENDMDL
