MODEL 1
REMARK minimizedAffinity -3.3689568
REMARK minimizedRMSD -1
REMARK  0 active torsions:
REMARK  status: ('A' for Active; 'I' for Inactive)
ROOT
ATOM      1  C   UNL d   1       2.098   0.054  -0.011  0.00  0.00     0.020 A 
ATOM      2  C1  UNL d   1       0.764  -0.350  -0.026  0.00  0.00     0.020 A 
ATOM      3  C2  UNL d   1       0.081  -0.461  -1.240  0.00  0.00     0.034 A 
ATOM      4  C3  UNL d   1       0.733  -0.167  -2.443  0.00  0.00     0.017 A 
ATOM      5  C4  UNL d   1       2.072   0.238  -2.427  0.00  0.00     0.017 A 
ATOM      6  C5  UNL d   1       2.751   0.348  -1.209  0.00  0.00     0.034 A 
ATOM      7 Cl   UNL d   1       2.943   0.618  -3.871  0.00  0.00    -0.070 Cl
ATOM      8 Cl1  UNL d   1      -0.172  -0.326  -3.906  0.00  0.00    -0.070 Cl
ENDROOT
TORSDOF 0
ENDMDL
