MODEL 1
REMARK minimizedAffinity 0.126609579
REMARK minimizedRMSD -1
REMARK  0 active torsions:
REMARK  status: ('A' for Active; 'I' for Inactive)
ROOT
ATOM      1  C   UNL d   1       0.567   0.045  -1.095  0.00  0.00     0.020 A 
ATOM      2  C1  UNL d   1       1.799  -0.385  -0.604  0.00  0.00     0.020 A 
ATOM      3  C2  UNL d   1       1.980  -0.560   0.770  0.00  0.00     0.034 A 
ATOM      4  C3  UNL d   1       0.928  -0.306   1.657  0.00  0.00     0.017 A 
ATOM      5  C4  UNL d   1      -0.308   0.125   1.163  0.00  0.00     0.017 A 
ATOM      6  C5  UNL d   1      -0.485   0.299  -0.213  0.00  0.00     0.034 A 
ATOM      7 Cl   UNL d   1      -1.653   0.460   2.196  0.00  0.00    -0.070 Cl
ATOM      8 Cl1  UNL d   1       1.223  -0.544   3.343  0.00  0.00    -0.070 Cl
ENDROOT
TORSDOF 0
ENDMDL
