MODEL 1
REMARK minimizedAffinity -4.52468109
REMARK minimizedRMSD -1
REMARK  0 active torsions:
REMARK  status: ('A' for Active; 'I' for Inactive)
ROOT
ATOM      1  C   UNL d   1      -0.068   1.126   3.257  0.00  0.00     0.020 A 
ATOM      2  C1  UNL d   1       1.212   0.709   2.892  0.00  0.00     0.020 A 
ATOM      3  C2  UNL d   1       1.450   0.235   1.600  0.00  0.00     0.034 A 
ATOM      4  C3  UNL d   1       0.407   0.177   0.669  0.00  0.00     0.017 A 
ATOM      5  C4  UNL d   1      -0.877   0.596   1.036  0.00  0.00     0.017 A 
ATOM      6  C5  UNL d   1      -1.110   1.070   2.331  0.00  0.00     0.034 A 
ATOM      7 Cl   UNL d   1      -2.214   0.554  -0.059  0.00  0.00    -0.070 Cl
ATOM      8 Cl1  UNL d   1       0.773  -0.420  -0.911  0.00  0.00    -0.070 Cl
ENDROOT
TORSDOF 0
ENDMDL
