MODEL 1
REMARK minimizedAffinity -5.36693001
REMARK minimizedRMSD -1
REMARK  0 active torsions:
REMARK  status: ('A' for Active; 'I' for Inactive)
ROOT
ATOM      1  C   UNL d   1       0.743   0.669   2.743  0.00  0.00     0.020 A 
ATOM      2  C1  UNL d   1      -0.557   1.129   2.950  0.00  0.00     0.020 A 
ATOM      3  C2  UNL d   1      -1.497   1.051   1.921  0.00  0.00     0.034 A 
ATOM      4  C3  UNL d   1      -1.139   0.514   0.679  0.00  0.00     0.017 A 
ATOM      5  C4  UNL d   1       0.166   0.053   0.472  0.00  0.00     0.017 A 
ATOM      6  C5  UNL d   1       1.104   0.133   1.506  0.00  0.00     0.034 A 
ATOM      7 Cl   UNL d   1       0.682  -0.623  -1.033  0.00  0.00    -0.070 Cl
ATOM      8 Cl1  UNL d   1      -2.353   0.449  -0.549  0.00  0.00    -0.070 Cl
ENDROOT
TORSDOF 0
ENDMDL
