MODEL 1
REMARK minimizedAffinity -4.04871655
REMARK minimizedRMSD -1
REMARK  0 active torsions:
REMARK  status: ('A' for Active; 'I' for Inactive)
ROOT
ATOM      1  C   UNL d   1      -0.029  -0.460  -0.761  0.00  0.00     0.020 A 
ATOM      2  C1  UNL d   1      -1.203   0.199  -0.397  0.00  0.00     0.020 A 
ATOM      3  C2  UNL d   1      -1.274   0.878   0.820  0.00  0.00     0.034 A 
ATOM      4  C3  UNL d   1      -0.169   0.902   1.679  0.00  0.00     0.017 A 
ATOM      5  C4  UNL d   1       1.009   0.241   1.313  0.00  0.00     0.017 A 
ATOM      6  C5  UNL d   1       1.075  -0.439   0.093  0.00  0.00     0.034 A 
ATOM      7 Cl   UNL d   1       2.414   0.225   2.320  0.00  0.00    -0.070 Cl
ATOM      8 Cl1  UNL d   1      -0.327   1.762   3.169  0.00  0.00    -0.070 Cl
ENDROOT
TORSDOF 0
ENDMDL
