MODEL 1
REMARK minimizedAffinity -2.24129796
REMARK minimizedRMSD -1
REMARK  0 active torsions:
REMARK  status: ('A' for Active; 'I' for Inactive)
ROOT
ATOM      1  C   UNL d   1       1.580  -1.477  -0.138  0.00  0.00     0.020 A 
ATOM      2  C1  UNL d   1       2.251  -0.953   0.966  0.00  0.00     0.020 A 
ATOM      3  C2  UNL d   1       1.586  -0.097   1.846  0.00  0.00     0.034 A 
ATOM      4  C3  UNL d   1       0.245   0.238   1.624  0.00  0.00     0.017 A 
ATOM      5  C4  UNL d   1      -0.428  -0.290   0.516  0.00  0.00     0.017 A 
ATOM      6  C5  UNL d   1       0.243  -1.146  -0.362  0.00  0.00     0.034 A 
ATOM      7 Cl   UNL d   1      -2.083   0.077   0.175  0.00  0.00    -0.070 Cl
ATOM      8 Cl1  UNL d   1      -0.516   1.302   2.753  0.00  0.00    -0.070 Cl
ENDROOT
TORSDOF 0
ENDMDL
