MODEL 1
REMARK minimizedAffinity -3.37590098
REMARK minimizedRMSD -1
REMARK  0 active torsions:
REMARK  status: ('A' for Active; 'I' for Inactive)
ROOT
ATOM      1  C   UNL d   1      -1.698   0.447   1.292  0.00  0.00     0.020 A 
ATOM      2  C1  UNL d   1      -1.110   0.010   0.106  0.00  0.00     0.020 A 
ATOM      3  C2  UNL d   1       0.163  -0.562   0.127  0.00  0.00     0.034 A 
ATOM      4  C3  UNL d   1       0.853  -0.700   1.337  0.00  0.00     0.017 A 
ATOM      5  C4  UNL d   1       0.262  -0.261   2.527  0.00  0.00     0.017 A 
ATOM      6  C5  UNL d   1      -1.013   0.312   2.500  0.00  0.00     0.034 A 
ATOM      7 Cl   UNL d   1       1.051  -0.397   4.059  0.00  0.00    -0.070 Cl
ATOM      8 Cl1  UNL d   1       2.424  -1.417   1.289  0.00  0.00    -0.070 Cl
ENDROOT
TORSDOF 0
ENDMDL
