MODEL 1
REMARK minimizedAffinity -3.39456105
REMARK minimizedRMSD -1
REMARK  0 active torsions:
REMARK  status: ('A' for Active; 'I' for Inactive)
ROOT
ATOM      1  C   UNL d   1      -0.478  -0.264   2.710  0.00  0.00     0.020 A 
ATOM      2  C1  UNL d   1      -1.371   0.152   1.724  0.00  0.00     0.020 A 
ATOM      3  C2  UNL d   1      -1.049  -0.013   0.375  0.00  0.00     0.034 A 
ATOM      4  C3  UNL d   1       0.170  -0.595   0.009  0.00  0.00     0.017 A 
ATOM      5  C4  UNL d   1       1.066  -1.013   0.999  0.00  0.00     0.017 A 
ATOM      6  C5  UNL d   1       0.739  -0.845   2.348  0.00  0.00     0.034 A 
ATOM      7 Cl   UNL d   1       2.589  -1.739   0.625  0.00  0.00    -0.070 Cl
ATOM      8 Cl1  UNL d   1       0.502  -0.769  -1.678  0.00  0.00    -0.070 Cl
ENDROOT
TORSDOF 0
ENDMDL
