MODEL 1
REMARK minimizedAffinity -2.9904902
REMARK minimizedRMSD -1
REMARK  0 active torsions:
REMARK  status: ('A' for Active; 'I' for Inactive)
ROOT
ATOM      1  C   UNL d   1       2.849  -0.342  -1.452  0.00  0.00     0.077 C 
ATOM      2  C1  UNL d   1       1.459  -0.602  -0.953  0.00  0.00    -0.074 A 
ATOM      3  C2  UNL d   1       1.067  -1.883  -0.552  0.00  0.00    -0.005 A 
ATOM      4  C3  UNL d   1      -0.227  -2.108  -0.081  0.00  0.00     0.006 A 
ATOM      5  C4  UNL d   1      -1.140  -1.055  -0.006  0.00  0.00    -0.005 A 
ATOM      6  C5  UNL d   1      -0.766   0.233  -0.402  0.00  0.00    -0.074 A 
ATOM      7  C6  UNL d   1      -1.732   1.377  -0.318  0.00  0.00     0.077 C 
ATOM      8  C7  UNL d   1       0.538   0.452  -0.867  0.00  0.00    -0.001 A 
ENDROOT
TORSDOF 0
ENDMDL
