MODEL 1
REMARK minimizedAffinity 0.609523952
REMARK minimizedRMSD -1
REMARK  0 active torsions:
REMARK  status: ('A' for Active; 'I' for Inactive)
ROOT
ATOM      1  C   UNL d   1       0.046   2.252  -1.332  0.00  0.00     0.077 C 
ATOM      2  C1  UNL d   1       0.741   0.944  -1.099  0.00  0.00    -0.074 A 
ATOM      3  C2  UNL d   1       2.134   0.880  -0.990  0.00  0.00    -0.005 A 
ATOM      4  C3  UNL d   1       2.766  -0.343  -0.763  0.00  0.00     0.006 A 
ATOM      5  C4  UNL d   1       2.013  -1.511  -0.643  0.00  0.00    -0.005 A 
ATOM      6  C5  UNL d   1       0.620  -1.467  -0.748  0.00  0.00    -0.074 A 
ATOM      7  C6  UNL d   1      -0.205  -2.712  -0.612  0.00  0.00     0.077 C 
ATOM      8  C7  UNL d   1      -0.009  -0.234  -0.969  0.00  0.00    -0.001 A 
ENDROOT
TORSDOF 0
ENDMDL
