MODEL 1
REMARK minimizedAffinity -2.33973551
REMARK minimizedRMSD -1
REMARK  0 active torsions:
REMARK  status: ('A' for Active; 'I' for Inactive)
ROOT
ATOM      1  C   UNL d   1      -0.671   0.817   0.524  0.00  0.00     0.077 C 
ATOM      2  C1  UNL d   1       0.265  -0.150  -0.138  0.00  0.00    -0.074 A 
ATOM      3  C2  UNL d   1      -0.010  -1.521  -0.152  0.00  0.00    -0.005 A 
ATOM      4  C3  UNL d   1       0.865  -2.408  -0.779  0.00  0.00     0.006 A 
ATOM      5  C4  UNL d   1       2.023  -1.933  -1.398  0.00  0.00    -0.005 A 
ATOM      6  C5  UNL d   1       2.314  -0.566  -1.394  0.00  0.00    -0.074 A 
ATOM      7  C6  UNL d   1       3.549  -0.038  -2.062  0.00  0.00     0.077 C 
ATOM      8  C7  UNL d   1       1.426   0.320  -0.768  0.00  0.00    -0.001 A 
ENDROOT
TORSDOF 0
ENDMDL
