MODEL 1
REMARK minimizedAffinity -4.34764576
REMARK minimizedRMSD -1
REMARK  0 active torsions:
REMARK  status: ('A' for Active; 'I' for Inactive)
ROOT
ATOM      1  C   UNL d   1      -0.735   1.926  -0.752  0.00  0.00     0.077 C 
ATOM      2  C1  UNL d   1       0.052   0.662  -0.578  0.00  0.00    -0.074 A 
ATOM      3  C2  UNL d   1      -0.541  -0.487  -0.044  0.00  0.00    -0.005 A 
ATOM      4  C3  UNL d   1       0.201  -1.658   0.104  0.00  0.00     0.006 A 
ATOM      5  C4  UNL d   1       1.542  -1.694  -0.281  0.00  0.00    -0.005 A 
ATOM      6  C5  UNL d   1       2.152  -0.556  -0.818  0.00  0.00    -0.074 A 
ATOM      7  C6  UNL d   1       3.590  -0.579  -1.245  0.00  0.00     0.077 C 
ATOM      8  C7  UNL d   1       1.398   0.616  -0.969  0.00  0.00    -0.001 A 
ENDROOT
TORSDOF 0
ENDMDL
