MODEL 1
REMARK minimizedAffinity -3.54623246
REMARK minimizedRMSD -1
REMARK  0 active torsions:
REMARK  status: ('A' for Active; 'I' for Inactive)
ROOT
ATOM      1  C   UNL d   1       1.098   1.931  -2.394  0.00  0.00     0.077 C 
ATOM      2  C1  UNL d   1       0.740   0.748  -1.544  0.00  0.00    -0.074 A 
ATOM      3  C2  UNL d   1       1.491  -0.430  -1.598  0.00  0.00    -0.005 A 
ATOM      4  C3  UNL d   1       1.152  -1.518  -0.795  0.00  0.00     0.006 A 
ATOM      5  C4  UNL d   1       0.059  -1.440   0.069  0.00  0.00    -0.005 A 
ATOM      6  C5  UNL d   1      -0.704  -0.270   0.137  0.00  0.00    -0.074 A 
ATOM      7  C6  UNL d   1      -1.876  -0.165   1.067  0.00  0.00     0.077 C 
ATOM      8  C7  UNL d   1      -0.352   0.822  -0.668  0.00  0.00    -0.001 A 
ENDROOT
TORSDOF 0
ENDMDL
