MODEL 1
REMARK minimizedAffinity -3.18851495
REMARK minimizedRMSD -1
REMARK  0 active torsions:
REMARK  status: ('A' for Active; 'I' for Inactive)
ROOT
ATOM      1  C   UNL d   1       3.189  -0.030  -1.665  0.00  0.00     0.077 C 
ATOM      2  C1  UNL d   1       1.910  -0.393  -0.971  0.00  0.00    -0.074 A 
ATOM      3  C2  UNL d   1       1.397  -1.693  -1.043  0.00  0.00    -0.005 A 
ATOM      4  C3  UNL d   1       0.211  -2.018  -0.385  0.00  0.00     0.006 A 
ATOM      5  C4  UNL d   1      -0.473  -1.050   0.350  0.00  0.00    -0.005 A 
ATOM      6  C5  UNL d   1       0.025   0.254   0.435  0.00  0.00    -0.074 A 
ATOM      7  C6  UNL d   1      -0.692   1.305   1.229  0.00  0.00     0.077 C 
ATOM      8  C7  UNL d   1       1.221   0.572  -0.224  0.00  0.00    -0.001 A 
ENDROOT
TORSDOF 0
ENDMDL
