MODEL 1
REMARK minimizedAffinity -4.10046387
REMARK minimizedRMSD -1
REMARK  0 active torsions:
REMARK  status: ('A' for Active; 'I' for Inactive)
ROOT
ATOM      1  C   UNL d   1      -0.972   0.043   0.817  0.00  0.00     0.077 C 
ATOM      2  C1  UNL d   1       0.228  -0.115  -0.068  0.00  0.00    -0.074 A 
ATOM      3  C2  UNL d   1       0.957  -1.309  -0.084  0.00  0.00    -0.005 A 
ATOM      4  C3  UNL d   1       2.066  -1.444  -0.919  0.00  0.00     0.006 A 
ATOM      5  C4  UNL d   1       2.457  -0.389  -1.745  0.00  0.00    -0.005 A 
ATOM      6  C5  UNL d   1       1.740   0.812  -1.743  0.00  0.00    -0.074 A 
ATOM      7  C6  UNL d   1       2.140   1.952  -2.631  0.00  0.00     0.077 C 
ATOM      8  C7  UNL d   1       0.622   0.937  -0.906  0.00  0.00    -0.001 A 
ENDROOT
TORSDOF 0
ENDMDL
