MODEL 1
REMARK minimizedAffinity -5.47456646
REMARK minimizedRMSD -1
REMARK  0 active torsions:
REMARK  status: ('A' for Active; 'I' for Inactive)
ROOT
ATOM      1  C   UNL d   1       1.597   2.260  -3.088  0.00  0.00     0.077 C 
ATOM      2  C1  UNL d   1       1.681   1.048  -2.209  0.00  0.00    -0.074 A 
ATOM      3  C2  UNL d   1       2.861   0.302  -2.123  0.00  0.00    -0.005 A 
ATOM      4  C3  UNL d   1       2.927  -0.817  -1.293  0.00  0.00     0.006 A 
ATOM      5  C4  UNL d   1       1.815  -1.202  -0.543  0.00  0.00    -0.005 A 
ATOM      6  C5  UNL d   1       0.626  -0.469  -0.616  0.00  0.00    -0.074 A 
ATOM      7  C6  UNL d   1      -0.575  -0.863   0.191  0.00  0.00     0.077 C 
ATOM      8  C7  UNL d   1       0.570   0.659  -1.446  0.00  0.00    -0.001 A 
ENDROOT
TORSDOF 0
ENDMDL
