MODEL 1
REMARK minimizedAffinity -4.18784237
REMARK minimizedRMSD -1
REMARK  0 active torsions:
REMARK  status: ('A' for Active; 'I' for Inactive)
ROOT
ATOM      1  C   UNL d   1      -1.401   1.711  -1.292  0.00  0.00     0.077 C 
ATOM      2  C1  UNL d   1      -0.524   0.595  -0.808  0.00  0.00    -0.074 A 
ATOM      3  C2  UNL d   1      -1.054  -0.467  -0.068  0.00  0.00    -0.005 A 
ATOM      4  C3  UNL d   1      -0.228  -1.503   0.367  0.00  0.00     0.006 A 
ATOM      5  C4  UNL d   1       1.135  -1.488   0.066  0.00  0.00    -0.005 A 
ATOM      6  C5  UNL d   1       1.683  -0.436  -0.674  0.00  0.00    -0.074 A 
ATOM      7  C6  UNL d   1       3.143  -0.410  -1.014  0.00  0.00     0.077 C 
ATOM      8  C7  UNL d   1       0.845   0.598  -1.113  0.00  0.00    -0.001 A 
ENDROOT
TORSDOF 0
ENDMDL
