MODEL 1
REMARK minimizedAffinity -2.78137469
REMARK minimizedRMSD -1
REMARK  0 active torsions:
REMARK  status: ('A' for Active; 'I' for Inactive)
ROOT
ATOM      1  C   UNL d   1      -0.457   2.293  -2.025  0.00  0.00     0.077 C 
ATOM      2  C1  UNL d   1      -0.228   1.100  -1.146  0.00  0.00    -0.074 A 
ATOM      3  C2  UNL d   1      -0.978   0.912   0.019  0.00  0.00    -0.005 A 
ATOM      4  C3  UNL d   1      -0.761  -0.208   0.822  0.00  0.00     0.006 A 
ATOM      5  C4  UNL d   1       0.207  -1.149   0.469  0.00  0.00    -0.005 A 
ATOM      6  C5  UNL d   1       0.966  -0.978  -0.693  0.00  0.00    -0.074 A 
ATOM      7  C6  UNL d   1       2.004  -1.985  -1.092  0.00  0.00     0.077 C 
ATOM      8  C7  UNL d   1       0.737   0.146  -1.498  0.00  0.00    -0.001 A 
ENDROOT
TORSDOF 0
ENDMDL
