MODEL 1
REMARK minimizedAffinity -3.49952221
REMARK minimizedRMSD -1
REMARK  0 active torsions:
REMARK  status: ('A' for Active; 'I' for Inactive)
ROOT
ATOM      1  C   UNL d   1       0.762  -0.818  -0.422  0.00  0.00     0.077 C 
ATOM      2  C1  UNL d   1      -0.520  -0.869   0.354  0.00  0.00    -0.074 A 
ATOM      3  C2  UNL d   1      -1.415  -1.932   0.195  0.00  0.00    -0.005 A 
ATOM      4  C3  UNL d   1      -2.599  -1.971   0.932  0.00  0.00     0.006 A 
ATOM      5  C4  UNL d   1      -2.900  -0.949   1.833  0.00  0.00    -0.005 A 
ATOM      6  C5  UNL d   1      -2.016   0.122   2.006  0.00  0.00    -0.074 A 
ATOM      7  C6  UNL d   1      -2.320   1.224   2.977  0.00  0.00     0.077 C 
ATOM      8  C7  UNL d   1      -0.825   0.150   1.267  0.00  0.00    -0.001 A 
ENDROOT
TORSDOF 0
ENDMDL
