MODEL 1
REMARK minimizedAffinity -2.61372805
REMARK minimizedRMSD -1
REMARK  0 active torsions:
REMARK  status: ('A' for Active; 'I' for Inactive)
ROOT
ATOM      1  C   UNL d   1       1.851  -1.826  -0.720  0.00  0.00     0.077 C 
ATOM      2  C1  UNL d   1       0.849  -0.713  -0.638  0.00  0.00    -0.074 A 
ATOM      3  C2  UNL d   1       0.881   0.351  -1.544  0.00  0.00    -0.005 A 
ATOM      4  C3  UNL d   1      -0.063   1.374  -1.461  0.00  0.00     0.006 A 
ATOM      5  C4  UNL d   1      -1.048   1.343  -0.473  0.00  0.00    -0.005 A 
ATOM      6  C5  UNL d   1      -1.097   0.286   0.442  0.00  0.00    -0.074 A 
ATOM      7  C6  UNL d   1      -2.154   0.232   1.504  0.00  0.00     0.077 C 
ATOM      8  C7  UNL d   1      -0.148  -0.742   0.348  0.00  0.00    -0.001 A 
ENDROOT
TORSDOF 0
ENDMDL
