MODEL 1
REMARK minimizedAffinity -5.16836357
REMARK minimizedRMSD -1
REMARK  0 active torsions:
REMARK  status: ('A' for Active; 'I' for Inactive)
ROOT
ATOM      1  C   UNL d   1       1.662   2.318  -2.514  0.00  0.00     0.077 C 
ATOM      2  C1  UNL d   1       1.386   1.057  -1.751  0.00  0.00    -0.074 A 
ATOM      3  C2  UNL d   1       2.266  -0.028  -1.813  0.00  0.00    -0.005 A 
ATOM      4  C3  UNL d   1       2.001  -1.191  -1.090  0.00  0.00     0.006 A 
ATOM      5  C4  UNL d   1       0.855  -1.281  -0.300  0.00  0.00    -0.005 A 
ATOM      6  C5  UNL d   1      -0.037  -0.207  -0.225  0.00  0.00    -0.074 A 
ATOM      7  C6  UNL d   1      -1.269  -0.283   0.627  0.00  0.00     0.077 C 
ATOM      8  C7  UNL d   1       0.240   0.961  -0.949  0.00  0.00    -0.001 A 
ENDROOT
TORSDOF 0
ENDMDL
