MODEL 1
REMARK minimizedAffinity -4.66040897
REMARK minimizedRMSD -1
REMARK  0 active torsions:
REMARK  status: ('A' for Active; 'I' for Inactive)
ROOT
ATOM      1  C   UNL d   1      -0.374  -2.144   0.087  0.00  0.00     0.077 C 
ATOM      2  C1  UNL d   1       0.508  -0.996  -0.304  0.00  0.00    -0.074 A 
ATOM      3  C2  UNL d   1       1.893  -1.157  -0.411  0.00  0.00    -0.005 A 
ATOM      4  C3  UNL d   1       2.699  -0.082  -0.785  0.00  0.00     0.006 A 
ATOM      5  C4  UNL d   1       2.130   1.162  -1.057  0.00  0.00    -0.005 A 
ATOM      6  C5  UNL d   1       0.747   1.342  -0.957  0.00  0.00    -0.074 A 
ATOM      7  C6  UNL d   1       0.117   2.671  -1.254  0.00  0.00     0.077 C 
ATOM      8  C7  UNL d   1      -0.058   0.256  -0.586  0.00  0.00    -0.001 A 
ENDROOT
TORSDOF 0
ENDMDL
