MODEL 1
REMARK minimizedAffinity -5.98999405
REMARK minimizedRMSD -1
REMARK  0 active torsions:
REMARK  status: ('A' for Active; 'I' for Inactive)
ROOT
ATOM      1  C   UNL d   1       3.384   0.201  -1.714  0.00  0.00     0.077 C 
ATOM      2  C1  UNL d   1       2.132  -0.466  -1.226  0.00  0.00    -0.074 A 
ATOM      3  C2  UNL d   1       1.895  -1.822  -1.477  0.00  0.00    -0.005 A 
ATOM      4  C3  UNL d   1       0.731  -2.431  -1.008  0.00  0.00     0.006 A 
ATOM      5  C4  UNL d   1      -0.207  -1.691  -0.286  0.00  0.00    -0.005 A 
ATOM      6  C5  UNL d   1       0.013  -0.335  -0.025  0.00  0.00    -0.074 A 
ATOM      7  C6  UNL d   1      -0.980   0.471   0.758  0.00  0.00     0.077 C 
ATOM      8  C7  UNL d   1       1.189   0.268  -0.493  0.00  0.00    -0.001 A 
ENDROOT
TORSDOF 0
ENDMDL
