MODEL 1
REMARK minimizedAffinity -5.46666098
REMARK minimizedRMSD -1
REMARK  0 active torsions:
REMARK  status: ('A' for Active; 'I' for Inactive)
ROOT
ATOM      1  C   UNL d   1      -1.740  -0.018   3.423  0.00  0.00     0.077 C 
ATOM      2  C1  UNL d   1      -1.236   0.223   2.031  0.00  0.00    -0.074 A 
ATOM      3  C2  UNL d   1      -1.608   1.369   1.320  0.00  0.00    -0.005 A 
ATOM      4  C3  UNL d   1      -1.123   1.584   0.030  0.00  0.00     0.006 A 
ATOM      5  C4  UNL d   1      -0.264   0.658  -0.561  0.00  0.00    -0.005 A 
ATOM      6  C5  UNL d   1       0.120  -0.493   0.135  0.00  0.00    -0.074 A 
ATOM      7  C6  UNL d   1       1.051  -1.494  -0.483  0.00  0.00     0.077 C 
ATOM      8  C7  UNL d   1      -0.366  -0.699   1.433  0.00  0.00    -0.001 A 
ENDROOT
TORSDOF 0
ENDMDL
