MODEL 1
REMARK minimizedAffinity -3.14702797
REMARK minimizedRMSD -1
REMARK  0 active torsions:
REMARK  status: ('A' for Active; 'I' for Inactive)
ROOT
ATOM      1  C   UNL d   1       5.991   3.119   5.539  0.00  0.00     0.077 C 
ATOM      2  C1  UNL d   1       5.724   1.777   4.926  0.00  0.00    -0.074 A 
ATOM      3  C2  UNL d   1       5.357   1.660   3.582  0.00  0.00    -0.005 A 
ATOM      4  C3  UNL d   1       5.121   0.404   3.024  0.00  0.00     0.006 A 
ATOM      5  C4  UNL d   1       5.249  -0.747   3.803  0.00  0.00    -0.005 A 
ATOM      6  C5  UNL d   1       5.615  -0.650   5.149  0.00  0.00    -0.074 A 
ATOM      7  C6  UNL d   1       5.767  -1.877   5.998  0.00  0.00     0.077 C 
ATOM      8  C7  UNL d   1       5.858   0.616   5.701  0.00  0.00    -0.001 A 
ENDROOT
TORSDOF 0
ENDMDL
