MODEL 1
REMARK minimizedAffinity -6.60919523
REMARK minimizedRMSD -1
REMARK  2 active torsions:
REMARK  status: ('A' for Active; 'I' for Inactive)
REMARK    1  A    between atoms: C2'_3  and  C1'_4 
REMARK    2  A    between atoms: C1'_4  and  C1_5 
ROOT
ATOM      1  C1  I4B d   1       0.343  -0.282   0.078  0.00  0.00    -0.075 A 
ATOM      2  C2  I4B d   1      -0.272   0.108  -1.085  0.00  0.00     0.003 A 
ATOM      3  C3  I4B d   1      -1.651  -0.146  -1.283  0.00  0.00     0.002 A 
ATOM      4  C4  I4B d   1      -2.360  -0.832  -0.319  0.00  0.00    -0.004 A 
ATOM      5  C5  I4B d   1      -1.741  -1.207   0.870  0.00  0.00     0.002 A 
ATOM      6  C6  I4B d   1      -0.384  -0.919   1.076  0.00  0.00     0.003 A 
ENDROOT
BRANCH   1   7
ATOM      7  C1' I4B d   1       1.808  -0.028   0.240  0.00  0.00     0.060 C 
BRANCH   7   8
ATOM      8  C2' I4B d   1       2.022   1.472   0.264  0.00  0.00    -0.013 C 
ATOM      9  C4' I4B d   1       2.265   1.966   1.665  0.00  0.00     0.013 C 
ATOM     10  C3' I4B d   1       3.183   1.789  -0.631  0.00  0.00     0.013 C 
ENDBRANCH   7   8
ENDBRANCH   1   7
TORSDOF 2
ENDMDL
