MODEL 1
REMARK minimizedAffinity -2.80627728
REMARK minimizedRMSD -1
REMARK  2 active torsions:
REMARK  status: ('A' for Active; 'I' for Inactive)
REMARK    1  A    between atoms: C2'_3  and  C1'_4 
REMARK    2  A    between atoms: C1'_4  and  C1_5 
ROOT
ATOM      1  C1  I4B d   1       0.177   0.389  -0.011  0.00  0.00    -0.075 A 
ATOM      2  C2  I4B d   1      -0.163   0.233  -1.331  0.00  0.00     0.003 A 
ATOM      3  C3  I4B d   1      -1.429  -0.293  -1.684  0.00  0.00     0.002 A 
ATOM      4  C4  I4B d   1      -2.299  -0.695  -0.691  0.00  0.00    -0.004 A 
ATOM      5  C5  I4B d   1      -1.962  -0.515   0.647  0.00  0.00     0.002 A 
ATOM      6  C6  I4B d   1      -0.721   0.042   0.990  0.00  0.00     0.003 A 
ENDROOT
BRANCH   1   7
ATOM      7  C1' I4B d   1       1.535   0.917   0.327  0.00  0.00     0.060 C 
BRANCH   7   8
ATOM      8  C2' I4B d   1       1.355   2.185   1.136  0.00  0.00    -0.013 C 
ATOM      9  C4' I4B d   1       2.122   2.120   2.430  0.00  0.00     0.013 C 
ATOM     10  C3' I4B d   1       1.810   3.340   0.294  0.00  0.00     0.013 C 
ENDBRANCH   7   8
ENDBRANCH   1   7
TORSDOF 2
ENDMDL
