MODEL 1
REMARK minimizedAffinity -2.54228711
REMARK minimizedRMSD -1
REMARK  2 active torsions:
REMARK  status: ('A' for Active; 'I' for Inactive)
REMARK    1  A    between atoms: C2'_3  and  C1'_4 
REMARK    2  A    between atoms: C1'_4  and  C1_5 
ROOT
ATOM      1  C1  I4B d   1       0.245  -0.303   0.123  0.00  0.00    -0.075 A 
ATOM      2  C2  I4B d   1      -0.541  -1.134   0.882  0.00  0.00     0.003 A 
ATOM      3  C3  I4B d   1      -1.870  -1.417   0.485  0.00  0.00     0.002 A 
ATOM      4  C4  I4B d   1      -2.385  -0.813  -0.644  0.00  0.00    -0.004 A 
ATOM      5  C5  I4B d   1      -1.579   0.010  -1.425  0.00  0.00     0.002 A 
ATOM      6  C6  I4B d   1      -0.252   0.257  -1.046  0.00  0.00     0.003 A 
ENDROOT
BRANCH   1   7
ATOM      7  C1' I4B d   1       1.634   0.001   0.590  0.00  0.00     0.060 C 
BRANCH   7   8
ATOM      8  C2' I4B d   1       1.882   1.481   0.382  0.00  0.00    -0.013 C 
ATOM      9  C4' I4B d   1       1.909   2.218   1.695  0.00  0.00     0.013 C 
ATOM     10  C3' I4B d   1       3.182   1.633  -0.351  0.00  0.00     0.013 C 
ENDBRANCH   7   8
ENDBRANCH   1   7
TORSDOF 2
ENDMDL
