MODEL 1
REMARK minimizedAffinity -1.32141447
REMARK minimizedRMSD -1
REMARK  2 active torsions:
REMARK  status: ('A' for Active; 'I' for Inactive)
REMARK    1  A    between atoms: C2'_3  and  C1'_4 
REMARK    2  A    between atoms: C1'_4  and  C1_5 
ROOT
ATOM      1  C1  I4B d   1       0.250  -0.116   0.299  0.00  0.00    -0.075 A 
ATOM      2  C2  I4B d   1       1.051  -0.868   1.121  0.00  0.00     0.003 A 
ATOM      3  C3  I4B d   1       0.522  -1.999   1.790  0.00  0.00     0.002 A 
ATOM      4  C4  I4B d   1      -0.815  -2.309   1.649  0.00  0.00    -0.004 A 
ATOM      5  C5  I4B d   1      -1.619  -1.558   0.796  0.00  0.00     0.002 A 
ATOM      6  C6  I4B d   1      -1.081  -0.462   0.107  0.00  0.00     0.003 A 
ENDROOT
BRANCH   1   7
ATOM      7  C1' I4B d   1       0.833   1.091  -0.366  0.00  0.00     0.060 C 
BRANCH   7   8
ATOM      8  C2' I4B d   1       2.175   1.375   0.276  0.00  0.00    -0.013 C 
ATOM      9  C4' I4B d   1       3.211   1.728  -0.759  0.00  0.00     0.013 C 
ATOM     10  C3' I4B d   1       1.991   2.492   1.260  0.00  0.00     0.013 C 
ENDBRANCH   7   8
ENDBRANCH   1   7
TORSDOF 2
ENDMDL
