MODEL 1
REMARK minimizedAffinity -6.31268406
REMARK minimizedRMSD -1
REMARK  2 active torsions:
REMARK  status: ('A' for Active; 'I' for Inactive)
REMARK    1  A    between atoms: C2'_3  and  C1'_4 
REMARK    2  A    between atoms: C1'_4  and  C1_5 
ROOT
ATOM      1  C1  I4B d   1       0.099  -0.220   0.319  0.00  0.00    -0.075 A 
ATOM      2  C2  I4B d   1      -0.596  -0.769   1.368  0.00  0.00     0.003 A 
ATOM      3  C3  I4B d   1      -1.952  -1.142   1.206  0.00  0.00     0.002 A 
ATOM      4  C4  I4B d   1      -2.584  -0.903   0.003  0.00  0.00    -0.004 A 
ATOM      5  C5  I4B d   1      -1.871  -0.367  -1.066  0.00  0.00     0.002 A 
ATOM      6  C6  I4B d   1      -0.518  -0.035  -0.911  0.00  0.00     0.003 A 
ENDROOT
BRANCH   1   7
ATOM      7  C1' I4B d   1       1.521   0.193   0.535  0.00  0.00     0.060 C 
BRANCH   7   8
ATOM      8  C2' I4B d   1       1.548   1.698   0.711  0.00  0.00    -0.013 C 
ATOM      9  C4' I4B d   1       1.579   2.076   2.168  0.00  0.00     0.013 C 
ATOM     10  C3' I4B d   1       2.752   2.227  -0.011  0.00  0.00     0.013 C 
ENDBRANCH   7   8
ENDBRANCH   1   7
TORSDOF 2
ENDMDL
