MODEL 1
REMARK minimizedAffinity 6.06238031
REMARK minimizedRMSD -1
REMARK  0 active torsions:
REMARK  status: ('A' for Active; 'I' for Inactive)
ROOT
ATOM      1  C   UNL d   1       5.572  -5.987  -5.718  0.00  0.00     0.078 C 
ATOM      2  C1  UNL d   1       5.622  -4.599  -5.152  0.00  0.00    -0.077 A 
ATOM      3  C2  UNL d   1       5.367  -3.482  -5.957  0.00  0.00    -0.001 A 
ATOM      4  C3  UNL d   1       5.426  -2.195  -5.419  0.00  0.00     0.003 A 
ATOM      5  C4  UNL d   1       5.741  -2.014  -4.074  0.00  0.00    -0.005 A 
ATOM      6  C5  UNL d   1       5.998  -3.119  -3.265  0.00  0.00     0.003 A 
ATOM      7  C6  UNL d   1       5.940  -4.406  -3.801  0.00  0.00    -0.001 A 
ENDROOT
TORSDOF 0
ENDMDL
