MODEL 1
REMARK minimizedAffinity 1.5136112
REMARK minimizedRMSD -1
REMARK  0 active torsions:
REMARK  status: ('A' for Active; 'I' for Inactive)
ROOT
ATOM      1  C   UNL d   1       4.925   1.048  -5.982  0.00  0.00     0.078 C 
ATOM      2  C1  UNL d   1       4.808   2.543  -5.995  0.00  0.00    -0.077 A 
ATOM      3  C2  UNL d   1       5.949   3.355  -5.997  0.00  0.00    -0.001 A 
ATOM      4  C3  UNL d   1       5.825   4.745  -6.000  0.00  0.00     0.003 A 
ATOM      5  C4  UNL d   1       4.563   5.335  -6.000  0.00  0.00    -0.005 A 
ATOM      6  C5  UNL d   1       3.422   4.535  -5.996  0.00  0.00     0.003 A 
ATOM      7  C6  UNL d   1       3.544   3.145  -5.993  0.00  0.00    -0.001 A 
ENDROOT
TORSDOF 0
ENDMDL
