MODEL 1
REMARK minimizedAffinity 2.75386858
REMARK minimizedRMSD -1
REMARK  0 active torsions:
REMARK  status: ('A' for Active; 'I' for Inactive)
ROOT
ATOM      1  C   UNL d   1       5.894   4.829  -5.408  0.00  0.00     0.078 C 
ATOM      2  C1  UNL d   1       5.237   3.496  -5.608  0.00  0.00    -0.077 A 
ATOM      3  C2  UNL d   1       5.999   2.335  -5.786  0.00  0.00    -0.001 A 
ATOM      4  C3  UNL d   1       5.373   1.103  -5.981  0.00  0.00     0.003 A 
ATOM      5  C4  UNL d   1       3.982   1.020  -6.000  0.00  0.00    -0.005 A 
ATOM      6  C5  UNL d   1       3.215   2.170  -5.825  0.00  0.00     0.003 A 
ATOM      7  C6  UNL d   1       3.839   3.403  -5.631  0.00  0.00    -0.001 A 
ENDROOT
TORSDOF 0
ENDMDL
