MODEL 1
REMARK minimizedAffinity 0.116781734
REMARK minimizedRMSD -1
REMARK  0 active torsions:
REMARK  status: ('A' for Active; 'I' for Inactive)
ROOT
ATOM      1  C   UNL d   1       5.825   0.306  -5.871  0.00  0.00     0.078 C 
ATOM      2  C1  UNL d   1       5.203   1.669  -5.923  0.00  0.00    -0.077 A 
ATOM      3  C2  UNL d   1       5.995   2.824  -5.931  0.00  0.00    -0.001 A 
ATOM      4  C3  UNL d   1       5.402   4.087  -5.970  0.00  0.00     0.003 A 
ATOM      5  C4  UNL d   1       4.015   4.207  -6.000  0.00  0.00    -0.005 A 
ATOM      6  C5  UNL d   1       3.218   3.064  -5.989  0.00  0.00     0.003 A 
ATOM      7  C6  UNL d   1       3.809   1.801  -5.951  0.00  0.00    -0.001 A 
ENDROOT
TORSDOF 0
ENDMDL
