MODEL 1
REMARK minimizedAffinity 11.4092236
REMARK minimizedRMSD -1
REMARK  0 active torsions:
REMARK  status: ('A' for Active; 'I' for Inactive)
ROOT
ATOM      1  C   UNL d   1      -0.191  -1.765   0.860  0.00  0.00     0.078 C 
ATOM      2  C1  UNL d   1      -0.796  -2.639  -0.198  0.00  0.00    -0.077 A 
ATOM      3  C2  UNL d   1      -1.851  -3.510   0.102  0.00  0.00    -0.001 A 
ATOM      4  C3  UNL d   1      -2.397  -4.325  -0.890  0.00  0.00     0.003 A 
ATOM      5  C4  UNL d   1      -1.895  -4.279  -2.189  0.00  0.00    -0.005 A 
ATOM      6  C5  UNL d   1      -0.844  -3.417  -2.496  0.00  0.00     0.003 A 
ATOM      7  C6  UNL d   1      -0.296  -2.601  -1.505  0.00  0.00    -0.001 A 
ENDROOT
TORSDOF 0
ENDMDL
