MODEL 1
REMARK minimizedAffinity 3.63129044
REMARK minimizedRMSD -1
REMARK  0 active torsions:
REMARK  status: ('A' for Active; 'I' for Inactive)
ROOT
ATOM      1  C   UNL d   1      -1.412  -3.450  -1.244  0.00  0.00     0.078 C 
ATOM      2  C1  UNL d   1      -1.290  -3.576   0.246  0.00  0.00    -0.077 A 
ATOM      3  C2  UNL d   1      -1.215  -2.441   1.062  0.00  0.00    -0.001 A 
ATOM      4  C3  UNL d   1      -1.092  -2.573   2.446  0.00  0.00     0.003 A 
ATOM      5  C4  UNL d   1      -1.042  -3.839   3.026  0.00  0.00    -0.005 A 
ATOM      6  C5  UNL d   1      -1.113  -4.975   2.222  0.00  0.00     0.003 A 
ATOM      7  C6  UNL d   1      -1.236  -4.845   0.838  0.00  0.00    -0.001 A 
ENDROOT
TORSDOF 0
ENDMDL
