MODEL 1
REMARK minimizedAffinity 6.94874382
REMARK minimizedRMSD -1
REMARK  0 active torsions:
REMARK  status: ('A' for Active; 'I' for Inactive)
ROOT
ATOM      1  C   UNL d   1      -0.997  -1.669   1.557  0.00  0.00     0.078 C 
ATOM      2  C1  UNL d   1      -0.652  -0.210   1.524  0.00  0.00    -0.077 A 
ATOM      3  C2  UNL d   1      -1.329   0.709   2.335  0.00  0.00    -0.001 A 
ATOM      4  C3  UNL d   1      -1.004   2.065   2.288  0.00  0.00     0.003 A 
ATOM      5  C4  UNL d   1      -0.003   2.515   1.429  0.00  0.00    -0.005 A 
ATOM      6  C5  UNL d   1       0.674   1.609   0.617  0.00  0.00     0.003 A 
ATOM      7  C6  UNL d   1       0.351   0.252   0.663  0.00  0.00    -0.001 A 
ENDROOT
TORSDOF 0
ENDMDL
