MODEL 1
REMARK minimizedAffinity 5.9176569
REMARK minimizedRMSD -1
REMARK  0 active torsions:
REMARK  status: ('A' for Active; 'I' for Inactive)
ROOT
ATOM      1  C   UNL d   1       1.706   1.522   1.872  0.00  0.00     0.078 C 
ATOM      2  C1  UNL d   1       0.791   2.396   1.068  0.00  0.00    -0.077 A 
ATOM      3  C2  UNL d   1      -0.572   2.488   1.374  0.00  0.00    -0.001 A 
ATOM      4  C3  UNL d   1      -1.414   3.298   0.611  0.00  0.00     0.003 A 
ATOM      5  C4  UNL d   1      -0.903   4.022  -0.464  0.00  0.00    -0.005 A 
ATOM      6  C5  UNL d   1       0.452   3.936  -0.778  0.00  0.00     0.003 A 
ATOM      7  C6  UNL d   1       1.295   3.126  -0.016  0.00  0.00    -0.001 A 
ENDROOT
TORSDOF 0
ENDMDL
