MODEL 1
REMARK minimizedAffinity 6.98609066
REMARK minimizedRMSD -1
REMARK  0 active torsions:
REMARK  status: ('A' for Active; 'I' for Inactive)
ROOT
ATOM      1  C   UNL d   1      -0.973   4.257   0.486  0.00  0.00     0.078 C 
ATOM      2  C1  UNL d   1      -0.923   3.687   1.872  0.00  0.00    -0.077 A 
ATOM      3  C2  UNL d   1      -1.800   4.134   2.868  0.00  0.00    -0.001 A 
ATOM      4  C3  UNL d   1      -1.736   3.601   4.156  0.00  0.00     0.003 A 
ATOM      5  C4  UNL d   1      -0.795   2.619   4.461  0.00  0.00    -0.005 A 
ATOM      6  C5  UNL d   1       0.083   2.170   3.477  0.00  0.00     0.003 A 
ATOM      7  C6  UNL d   1       0.020   2.702   2.188  0.00  0.00    -0.001 A 
ENDROOT
TORSDOF 0
ENDMDL
