MODEL 1
REMARK minimizedAffinity 6.99906397
REMARK minimizedRMSD -1
REMARK  0 active torsions:
REMARK  status: ('A' for Active; 'I' for Inactive)
ROOT
ATOM      1  C   UNL d   1       0.739   4.463  -0.382  0.00  0.00     0.078 C 
ATOM      2  C1  UNL d   1       1.268   3.272   0.361  0.00  0.00    -0.077 A 
ATOM      3  C2  UNL d   1       1.055   3.128   1.737  0.00  0.00    -0.001 A 
ATOM      4  C3  UNL d   1       1.562   2.019   2.417  0.00  0.00     0.003 A 
ATOM      5  C4  UNL d   1       2.285   1.047   1.729  0.00  0.00    -0.005 A 
ATOM      6  C5  UNL d   1       2.503   1.182   0.360  0.00  0.00     0.003 A 
ATOM      7  C6  UNL d   1       1.997   2.291  -0.322  0.00  0.00    -0.001 A 
ENDROOT
TORSDOF 0
ENDMDL
