MODEL 1
REMARK minimizedAffinity 1.47133398
REMARK minimizedRMSD -1
REMARK  0 active torsions:
REMARK  status: ('A' for Active; 'I' for Inactive)
ROOT
ATOM      1  C   UNL d   1       5.745   0.068  -4.880  0.00  0.00     0.078 C 
ATOM      2  C1  UNL d   1       5.162   1.395  -5.265  0.00  0.00    -0.077 A 
ATOM      3  C2  UNL d   1       3.816   1.511  -5.634  0.00  0.00    -0.001 A 
ATOM      4  C3  UNL d   1       3.289   2.751  -6.000  0.00  0.00     0.003 A 
ATOM      5  C4  UNL d   1       4.101   3.884  -6.000  0.00  0.00    -0.005 A 
ATOM      6  C5  UNL d   1       5.441   3.778  -5.635  0.00  0.00     0.003 A 
ATOM      7  C6  UNL d   1       5.970   2.539  -5.270  0.00  0.00    -0.001 A 
ENDROOT
TORSDOF 0
ENDMDL
