MODEL 1
REMARK minimizedAffinity 0.77977246
REMARK minimizedRMSD -1
REMARK  0 active torsions:
REMARK  status: ('A' for Active; 'I' for Inactive)
ROOT
ATOM      1  C   UNL d   1       1.445   0.956   1.804  0.00  0.00     0.078 C 
ATOM      2  C1  UNL d   1       2.643   1.843   1.972  0.00  0.00    -0.077 A 
ATOM      3  C2  UNL d   1       3.138   2.597   0.900  0.00  0.00    -0.001 A 
ATOM      4  C3  UNL d   1       4.260   3.410   1.068  0.00  0.00     0.003 A 
ATOM      5  C4  UNL d   1       4.897   3.477   2.306  0.00  0.00    -0.005 A 
ATOM      6  C5  UNL d   1       4.413   2.729   3.377  0.00  0.00     0.003 A 
ATOM      7  C6  UNL d   1       3.291   1.915   3.211  0.00  0.00    -0.001 A 
ENDROOT
TORSDOF 0
ENDMDL
