MODEL 1
REMARK minimizedAffinity 4.70050955
REMARK minimizedRMSD -1
REMARK  2 active torsions:
REMARK  status: ('A' for Active; 'I' for Inactive)
REMARK    1  A    between atoms: C2'_3  and  C1'_4 
REMARK    2  A    between atoms: C1'_4  and  C1_5 
ROOT
ATOM      1  C1  I4B d   1       1.356   0.781   0.787  0.00  0.00    -0.075 A 
ATOM      2  C2  I4B d   1       1.839  -0.044  -0.198  0.00  0.00     0.003 A 
ATOM      3  C3  I4B d   1       1.471   0.166  -1.549  0.00  0.00     0.002 A 
ATOM      4  C4  I4B d   1       0.582   1.175  -1.861  0.00  0.00    -0.004 A 
ATOM      5  C5  I4B d   1       0.111   2.025  -0.864  0.00  0.00     0.002 A 
ATOM      6  C6  I4B d   1       0.510   1.834   0.467  0.00  0.00     0.003 A 
ENDROOT
BRANCH   1   7
ATOM      7  C1' I4B d   1       1.740   0.510   2.207  0.00  0.00     0.060 C 
BRANCH   7   8
ATOM      8  C2' I4B d   1       0.523  -0.039   2.923  0.00  0.00    -0.013 C 
ATOM      9  C4' I4B d   1       0.909  -0.729   4.205  0.00  0.00     0.013 C 
ATOM     10  C3' I4B d   1      -0.415   1.102   3.184  0.00  0.00     0.013 C 
ENDBRANCH   7   8
ENDBRANCH   1   7
TORSDOF 2
ENDMDL
