MODEL 1
REMARK minimizedAffinity 11.2426567
REMARK minimizedRMSD -1
REMARK  2 active torsions:
REMARK  status: ('A' for Active; 'I' for Inactive)
REMARK    1  A    between atoms: C2'_3  and  C1'_4 
REMARK    2  A    between atoms: C1'_4  and  C1_5 
ROOT
ATOM      1  C1  I4B d   1       0.816  -1.368  -1.674  0.00  0.00    -0.075 A 
ATOM      2  C2  I4B d   1       1.986  -0.684  -1.459  0.00  0.00     0.003 A 
ATOM      3  C3  I4B d   1       3.162  -1.382  -1.092  0.00  0.00     0.002 A 
ATOM      4  C4  I4B d   1       3.111  -2.748  -0.904  0.00  0.00    -0.004 A 
ATOM      5  C5  I4B d   1       1.929  -3.443  -1.145  0.00  0.00     0.002 A 
ATOM      6  C6  I4B d   1       0.777  -2.750  -1.545  0.00  0.00     0.003 A 
ENDROOT
BRANCH   1   7
ATOM      7  C1' I4B d   1      -0.416  -0.596  -2.029  0.00  0.00     0.060 C 
BRANCH   7   8
ATOM      8  C2' I4B d   1      -0.067   0.878  -2.000  0.00  0.00    -0.013 C 
ATOM      9  C4' I4B d   1      -0.113   1.476  -3.381  0.00  0.00     0.013 C 
ATOM     10  C3' I4B d   1      -1.031   1.565  -1.080  0.00  0.00     0.013 C 
ENDBRANCH   7   8
ENDBRANCH   1   7
TORSDOF 2
ENDMDL
