MODEL 1
REMARK minimizedAffinity 5.81727123
REMARK minimizedRMSD -1
REMARK  2 active torsions:
REMARK  status: ('A' for Active; 'I' for Inactive)
REMARK    1  A    between atoms: C2'_3  and  C1'_4 
REMARK    2  A    between atoms: C1'_4  and  C1_5 
ROOT
ATOM      1  C1  I4B d   1       1.867  -3.596  -2.464  0.00  0.00    -0.075 A 
ATOM      2  C2  I4B d   1       2.318  -4.815  -2.022  0.00  0.00     0.003 A 
ATOM      3  C3  I4B d   1       2.724  -5.804  -2.951  0.00  0.00     0.002 A 
ATOM      4  C4  I4B d   1       2.616  -5.551  -4.303  0.00  0.00    -0.004 A 
ATOM      5  C5  I4B d   1       2.180  -4.307  -4.749  0.00  0.00     0.002 A 
ATOM      6  C6  I4B d   1       1.815  -3.318  -3.824  0.00  0.00     0.003 A 
ENDROOT
BRANCH   1   7
ATOM      7  C1' I4B d   1       1.415  -2.587  -1.457  0.00  0.00     0.060 C 
BRANCH   7   8
ATOM      8  C2' I4B d   1       2.290  -1.358  -1.601  0.00  0.00    -0.013 C 
ATOM      9  C4' I4B d   1       1.472  -0.146  -1.961  0.00  0.00     0.013 C 
ATOM     10  C3' I4B d   1       3.020  -1.155  -0.307  0.00  0.00     0.013 C 
ENDBRANCH   7   8
ENDBRANCH   1   7
TORSDOF 2
ENDMDL
