MODEL 1
REMARK minimizedAffinity 3.9950366
REMARK minimizedRMSD -1
REMARK  2 active torsions:
REMARK  status: ('A' for Active; 'I' for Inactive)
REMARK    1  A    between atoms: C2'_3  and  C1'_4 
REMARK    2  A    between atoms: C1'_4  and  C1_5 
ROOT
ATOM      1  C1  I4B d   1       0.834  -1.115  -1.752  0.00  0.00    -0.075 A 
ATOM      2  C2  I4B d   1       2.020  -0.476  -1.490  0.00  0.00     0.003 A 
ATOM      3  C3  I4B d   1       3.166  -1.223  -1.123  0.00  0.00     0.002 A 
ATOM      4  C4  I4B d   1       3.068  -2.592  -0.981  0.00  0.00    -0.004 A 
ATOM      5  C5  I4B d   1       1.870  -3.240  -1.269  0.00  0.00     0.002 A 
ATOM      6  C6  I4B d   1       0.749  -2.498  -1.669  0.00  0.00     0.003 A 
ENDROOT
BRANCH   1   7
ATOM      7  C1' I4B d   1      -0.365  -0.292  -2.105  0.00  0.00     0.060 C 
BRANCH   7   8
ATOM      8  C2' I4B d   1       0.033   1.168  -2.032  0.00  0.00    -0.013 C 
ATOM      9  C4' I4B d   1      -0.221   1.868  -3.341  0.00  0.00     0.013 C 
ATOM     10  C3' I4B d   1      -0.744   1.804  -0.919  0.00  0.00     0.013 C 
ENDBRANCH   7   8
ENDBRANCH   1   7
TORSDOF 2
ENDMDL
