MODEL 1
REMARK minimizedAffinity -5.86286449
REMARK minimizedRMSD -1
REMARK  1 active torsions:
REMARK  status: ('A' for Active; 'I' for Inactive)
REMARK    1  A    between atoms: C1_2  and  C2_3 
ROOT
ATOM      1  C2  UNL d   1      -0.104   0.382   0.085  0.00  0.00    -0.073 A 
ATOM      2  C3  UNL d   1       0.754  -0.718   0.190  0.00  0.00    -0.002 A 
ATOM      3  C4  UNL d   1       0.310  -1.906   0.772  0.00  0.00     0.004 A 
ATOM      4  C5  UNL d   1      -0.997  -2.008   1.248  0.00  0.00    -0.004 A 
ATOM      5  C6  UNL d   1      -1.874  -0.923   1.141  0.00  0.00    -0.075 A 
ATOM      6  C7  UNL d   1      -3.282  -1.016   1.651  0.00  0.00     0.076 C 
ATOM      7  C8  UNL d   1      -1.419   0.267   0.558  0.00  0.00     0.001 A 
ENDROOT
BRANCH   1   8
ATOM      8  C1  UNL d   1       0.369   1.664  -0.550  0.00  0.00     0.053 C 
ATOM      9  C   UNL d   1       1.461   1.422  -1.580  0.00  0.00     0.018 C 
ENDBRANCH   1   8
TORSDOF 1
ENDMDL
