MODEL 1
REMARK minimizedAffinity -4.11731291
REMARK minimizedRMSD -1
REMARK  1 active torsions:
REMARK  status: ('A' for Active; 'I' for Inactive)
REMARK    1  A    between atoms: C1_2  and  C2_3 
ROOT
ATOM      1  C2  UNL d   1      -0.029   0.211   0.030  0.00  0.00    -0.073 A 
ATOM      2  C3  UNL d   1       1.209  -0.437   0.093  0.00  0.00    -0.002 A 
ATOM      3  C4  UNL d   1       1.288  -1.770   0.501  0.00  0.00     0.004 A 
ATOM      4  C5  UNL d   1       0.130  -2.469   0.842  0.00  0.00    -0.004 A 
ATOM      5  C6  UNL d   1      -1.118  -1.842   0.773  0.00  0.00    -0.075 A 
ATOM      6  C7  UNL d   1      -2.373  -2.579   1.139  0.00  0.00     0.076 C 
ATOM      7  C8  UNL d   1      -1.189  -0.503   0.366  0.00  0.00     0.001 A 
ENDROOT
BRANCH   1   8
ATOM      8  C1  UNL d   1      -0.120   1.647  -0.416  0.00  0.00     0.053 C 
ATOM      9  C   UNL d   1       0.552   1.870  -1.761  0.00  0.00     0.018 C 
ENDBRANCH   1   8
TORSDOF 1
ENDMDL
