MODEL 1
REMARK minimizedAffinity -5.70744371
REMARK minimizedRMSD -1
REMARK  1 active torsions:
REMARK  status: ('A' for Active; 'I' for Inactive)
REMARK    1  A    between atoms: C1_2  and  C2_3 
ROOT
ATOM      1  C2  UNL d   1      -0.830  -1.211   0.499  0.00  0.00    -0.073 A 
ATOM      2  C3  UNL d   1      -1.306  -2.524   0.591  0.00  0.00    -0.002 A 
ATOM      3  C4  UNL d   1      -2.535  -2.787   1.197  0.00  0.00     0.004 A 
ATOM      4  C5  UNL d   1      -3.303  -1.742   1.710  0.00  0.00    -0.004 A 
ATOM      5  C6  UNL d   1      -2.850  -0.422   1.617  0.00  0.00    -0.075 A 
ATOM      6  C7  UNL d   1      -3.663   0.713   2.166  0.00  0.00     0.076 C 
ATOM      7  C8  UNL d   1      -1.613  -0.166   1.009  0.00  0.00     0.001 A 
ENDROOT
BRANCH   1   8
ATOM      8  C1  UNL d   1       0.494  -0.922  -0.160  0.00  0.00     0.053 C 
ATOM      9  C   UNL d   1       0.906   0.533   0.003  0.00  0.00     0.018 C 
ENDBRANCH   1   8
TORSDOF 1
ENDMDL
