MODEL 1
REMARK minimizedAffinity -3.67090821
REMARK minimizedRMSD -1
REMARK  1 active torsions:
REMARK  status: ('A' for Active; 'I' for Inactive)
REMARK    1  A    between atoms: C1_2  and  C2_3 
ROOT
ATOM      1  C2  UNL d   1       0.089  -0.356  -0.011  0.00  0.00    -0.073 A 
ATOM      2  C3  UNL d   1      -0.094   0.964  -0.438  0.00  0.00    -0.002 A 
ATOM      3  C4  UNL d   1       0.942   1.893  -0.321  0.00  0.00     0.004 A 
ATOM      4  C5  UNL d   1       2.170   1.510   0.217  0.00  0.00    -0.004 A 
ATOM      5  C6  UNL d   1       2.376   0.192   0.638  0.00  0.00    -0.075 A 
ATOM      6  C7  UNL d   1       3.691  -0.235   1.221  0.00  0.00     0.076 C 
ATOM      7  C8  UNL d   1       1.331  -0.734   0.520  0.00  0.00     0.001 A 
ENDROOT
BRANCH   1   8
ATOM      8  C1  UNL d   1      -1.024  -1.363  -0.141  0.00  0.00     0.053 C 
ATOM      9  C   UNL d   1      -1.148  -2.239   1.095  0.00  0.00     0.018 C 
ENDBRANCH   1   8
TORSDOF 1
ENDMDL
