MODEL 1
REMARK minimizedAffinity -4.30919838
REMARK minimizedRMSD -1
REMARK  1 active torsions:
REMARK  status: ('A' for Active; 'I' for Inactive)
REMARK    1  A    between atoms: C1_2  and  C2_3 
ROOT
ATOM      1  C2  UNL d   1       0.097   0.116  -0.094  0.00  0.00    -0.073 A 
ATOM      2  C3  UNL d   1       1.299  -0.570  -0.301  0.00  0.00    -0.002 A 
ATOM      3  C4  UNL d   1       1.389  -1.934  -0.017  0.00  0.00     0.004 A 
ATOM      4  C5  UNL d   1       0.279  -2.625   0.468  0.00  0.00    -0.004 A 
ATOM      5  C6  UNL d   1      -0.934  -1.959   0.670  0.00  0.00    -0.075 A 
ATOM      6  C7  UNL d   1      -2.136  -2.688   1.193  0.00  0.00     0.076 C 
ATOM      7  C8  UNL d   1      -1.016  -0.589   0.385  0.00  0.00     0.001 A 
ENDROOT
BRANCH   1   8
ATOM      8  C1  UNL d   1      -0.007   1.587  -0.405  0.00  0.00     0.053 C 
ATOM      9  C   UNL d   1       0.723   1.952  -1.688  0.00  0.00     0.018 C 
ENDBRANCH   1   8
TORSDOF 1
ENDMDL
