MODEL 1
REMARK minimizedAffinity -4.79389334
REMARK minimizedRMSD -1
REMARK  1 active torsions:
REMARK  status: ('A' for Active; 'I' for Inactive)
REMARK    1  A    between atoms: C1_2  and  C2_3 
ROOT
ATOM      1  C2  UNL d   1      -0.208  -0.380   0.150  0.00  0.00    -0.073 A 
ATOM      2  C3  UNL d   1      -1.132   0.509   0.711  0.00  0.00    -0.002 A 
ATOM      3  C4  UNL d   1      -1.061   1.873   0.426  0.00  0.00     0.004 A 
ATOM      4  C5  UNL d   1      -0.072   2.361  -0.427  0.00  0.00    -0.004 A 
ATOM      5  C6  UNL d   1       0.854   1.488  -1.007  0.00  0.00    -0.075 A 
ATOM      6  C7  UNL d   1       1.926   1.997  -1.925  0.00  0.00     0.076 C 
ATOM      7  C8  UNL d   1       0.778   0.119  -0.713  0.00  0.00     0.001 A 
ENDROOT
BRANCH   1   8
ATOM      8  C1  UNL d   1      -0.284  -1.854   0.451  0.00  0.00     0.053 C 
ATOM      9  C   UNL d   1      -1.467  -2.194   1.343  0.00  0.00     0.018 C 
ENDBRANCH   1   8
TORSDOF 1
ENDMDL
