MODEL 1
REMARK minimizedAffinity -4.55174446
REMARK minimizedRMSD -1
REMARK  1 active torsions:
REMARK  status: ('A' for Active; 'I' for Inactive)
REMARK    1  A    between atoms: C1_2  and  C2_3 
ROOT
ATOM      1  C2  UNL d   1      -0.376  -0.212  -0.188  0.00  0.00    -0.073 A 
ATOM      2  C3  UNL d   1       0.841  -0.871  -0.400  0.00  0.00    -0.002 A 
ATOM      3  C4  UNL d   1       1.011  -2.191   0.020  0.00  0.00     0.004 A 
ATOM      4  C5  UNL d   1      -0.035  -2.867   0.649  0.00  0.00    -0.004 A 
ATOM      5  C6  UNL d   1      -1.262  -2.230   0.859  0.00  0.00    -0.075 A 
ATOM      6  C7  UNL d   1      -2.395  -2.943   1.536  0.00  0.00     0.076 C 
ATOM      7  C8  UNL d   1      -1.423  -0.903   0.437  0.00  0.00     0.001 A 
ENDROOT
BRANCH   1   8
ATOM      8  C1  UNL d   1      -0.566   1.211  -0.646  0.00  0.00     0.053 C 
ATOM      9  C   UNL d   1       0.378   1.575  -1.781  0.00  0.00     0.018 C 
ENDBRANCH   1   8
TORSDOF 1
ENDMDL
