MODEL 1
REMARK minimizedAffinity -5.12896585
REMARK minimizedRMSD -1
REMARK  1 active torsions:
REMARK  status: ('A' for Active; 'I' for Inactive)
REMARK    1  A    between atoms: C1_2  and  C2_3 
ROOT
ATOM      1  C2  UNL d   1       0.576   1.172  -0.276  0.00  0.00    -0.073 A 
ATOM      2  C3  UNL d   1      -0.420   1.864   0.423  0.00  0.00    -0.002 A 
ATOM      3  C4  UNL d   1      -1.367   1.167   1.174  0.00  0.00     0.004 A 
ATOM      4  C5  UNL d   1      -1.326  -0.226   1.238  0.00  0.00    -0.004 A 
ATOM      5  C6  UNL d   1      -0.332  -0.934   0.555  0.00  0.00    -0.075 A 
ATOM      6  C7  UNL d   1      -0.275  -2.432   0.612  0.00  0.00     0.076 C 
ATOM      7  C8  UNL d   1       0.615  -0.227  -0.198  0.00  0.00     0.001 A 
ENDROOT
BRANCH   1   8
ATOM      8  C1  UNL d   1       1.605   1.921  -1.083  0.00  0.00     0.053 C 
ATOM      9  C   UNL d   1       1.292   1.897  -2.571  0.00  0.00     0.018 C 
ENDBRANCH   1   8
TORSDOF 1
ENDMDL
