MODEL 1
REMARK minimizedAffinity -5.94993877
REMARK minimizedRMSD -1
REMARK  1 active torsions:
REMARK  status: ('A' for Active; 'I' for Inactive)
REMARK    1  A    between atoms: C1_2  and  C2_3 
ROOT
ATOM      1  C2  UNL d   1       0.260   0.268  -0.163  0.00  0.00    -0.073 A 
ATOM      2  C3  UNL d   1       1.517  -0.345  -0.203  0.00  0.00    -0.002 A 
ATOM      3  C4  UNL d   1       1.674  -1.661   0.232  0.00  0.00     0.004 A 
ATOM      4  C5  UNL d   1       0.576  -2.379   0.705  0.00  0.00    -0.004 A 
ATOM      5  C6  UNL d   1      -0.691  -1.788   0.742  0.00  0.00    -0.075 A 
ATOM      6  C7  UNL d   1      -1.881  -2.547   1.250  0.00  0.00     0.076 C 
ATOM      7  C8  UNL d   1      -0.840  -0.465   0.306  0.00  0.00     0.001 A 
ENDROOT
BRANCH   1   8
ATOM      8  C1  UNL d   1       0.084   1.688  -0.638  0.00  0.00     0.053 C 
ATOM      9  C   UNL d   1       0.377   1.832  -2.123  0.00  0.00     0.018 C 
ENDBRANCH   1   8
TORSDOF 1
ENDMDL
