MODEL 1
REMARK minimizedAffinity -4.6191802
REMARK minimizedRMSD -1
REMARK  1 active torsions:
REMARK  status: ('A' for Active; 'I' for Inactive)
REMARK    1  A    between atoms: C1_2  and  C2_3 
ROOT
ATOM      1  C2  UNL d   1       0.395   0.936  -0.177  0.00  0.00    -0.073 A 
ATOM      2  C3  UNL d   1      -0.523   1.837   0.374  0.00  0.00    -0.002 A 
ATOM      3  C4  UNL d   1      -1.665   1.370   1.026  0.00  0.00     0.004 A 
ATOM      4  C5  UNL d   1      -1.897  -0.001   1.139  0.00  0.00    -0.004 A 
ATOM      5  C6  UNL d   1      -0.985  -0.917   0.606  0.00  0.00    -0.075 A 
ATOM      6  C7  UNL d   1      -1.221  -2.395   0.717  0.00  0.00     0.076 C 
ATOM      7  C8  UNL d   1       0.158  -0.440  -0.050  0.00  0.00     0.001 A 
ENDROOT
BRANCH   1   8
ATOM      8  C1  UNL d   1       1.633   1.436  -0.876  0.00  0.00     0.053 C 
ATOM      9  C   UNL d   1       1.339   1.900  -2.294  0.00  0.00     0.018 C 
ENDBRANCH   1   8
TORSDOF 1
ENDMDL
