MODEL 1
REMARK minimizedAffinity 0.266430855
REMARK minimizedRMSD -1
REMARK  0 active torsions:
REMARK  status: ('A' for Active; 'I' for Inactive)
ROOT
ATOM      1  C1  DEN d   1      -2.818   0.296  -5.653  0.00  0.00     0.130 A 
ATOM      2  C2  DEN d   1      -4.067  -0.077  -4.994  0.00  0.00    -0.031 A 
ATOM      3  C3  DEN d   1      -4.223   0.774  -3.796  0.00  0.00     0.027 A 
ATOM      4  C4  DEN d   1      -2.663   2.625  -2.907  0.00  0.00     0.027 A 
ATOM      5  C5  DEN d   1      -1.477   3.293  -3.121  0.00  0.00    -0.003 A 
ATOM      6  C6  DEN d   1      -0.647   2.989  -4.167  0.00  0.00     0.001 A 
ATOM      7  C7  DEN d   1      -1.011   2.020  -5.064  0.00  0.00     0.017 A 
ATOM      8  C8  DEN d   1      -2.201   1.337  -4.850  0.00  0.00    -0.094 A 
ATOM      9  C9  DEN d   1      -3.033   1.667  -3.794  0.00  0.00    -0.072 A 
ENDROOT
TORSDOF 0
ENDMDL
