MODEL 1
REMARK minimizedAffinity 8.63209534
REMARK minimizedRMSD -1
REMARK  0 active torsions:
REMARK  status: ('A' for Active; 'I' for Inactive)
ROOT
ATOM      1  C1  DEN d   1       1.407  -2.304   3.427  0.00  0.00     0.130 A 
ATOM      2  C2  DEN d   1       0.909  -3.020   2.256  0.00  0.00    -0.031 A 
ATOM      3  C3  DEN d   1       1.673  -4.277   2.130  0.00  0.00     0.027 A 
ATOM      4  C4  DEN d   1       3.565  -5.183   3.631  0.00  0.00     0.027 A 
ATOM      5  C5  DEN d   1       4.341  -4.923   4.739  0.00  0.00    -0.003 A 
ATOM      6  C6  DEN d   1       4.217  -3.767   5.462  0.00  0.00     0.001 A 
ATOM      7  C7  DEN d   1       3.266  -2.845   5.111  0.00  0.00     0.017 A 
ATOM      8  C8  DEN d   1       2.485  -3.097   3.991  0.00  0.00    -0.094 A 
ATOM      9  C9  DEN d   1       2.617  -4.278   3.280  0.00  0.00    -0.072 A 
ENDROOT
TORSDOF 0
ENDMDL
