MODEL 1
REMARK minimizedAffinity 1.87686193
REMARK minimizedRMSD -1
REMARK  0 active torsions:
REMARK  status: ('A' for Active; 'I' for Inactive)
ROOT
ATOM      1  C1  DEN d   1      -0.322   0.872  -1.148  0.00  0.00     0.130 A 
ATOM      2  C2  DEN d   1      -0.090  -0.514  -0.750  0.00  0.00    -0.031 A 
ATOM      3  C3  DEN d   1       1.250  -0.909  -1.230  0.00  0.00     0.027 A 
ATOM      4  C4  DEN d   1       2.980   0.485  -2.541  0.00  0.00     0.027 A 
ATOM      5  C5  DEN d   1       3.229   1.710  -3.118  0.00  0.00    -0.003 A 
ATOM      6  C6  DEN d   1       2.306   2.723  -3.108  0.00  0.00     0.001 A 
ATOM      7  C7  DEN d   1       1.108   2.543  -2.470  0.00  0.00     0.017 A 
ATOM      8  C8  DEN d   1       0.846   1.308  -1.893  0.00  0.00    -0.094 A 
ATOM      9  C9  DEN d   1       1.796   0.301  -1.902  0.00  0.00    -0.072 A 
ENDROOT
TORSDOF 0
ENDMDL
