MODEL 1
REMARK minimizedAffinity 1.93130171
REMARK minimizedRMSD -1
REMARK  0 active torsions:
REMARK  status: ('A' for Active; 'I' for Inactive)
ROOT
ATOM      1  C1  DEN d   1      -0.521  -1.688   3.625  0.00  0.00     0.130 A 
ATOM      2  C2  DEN d   1       0.571  -2.592   3.273  0.00  0.00    -0.031 A 
ATOM      3  C3  DEN d   1       0.748  -2.544   1.807  0.00  0.00     0.027 A 
ATOM      4  C4  DEN d   1      -0.552  -1.163   0.060  0.00  0.00     0.027 A 
ATOM      5  C5  DEN d   1      -1.576  -0.259  -0.121  0.00  0.00    -0.003 A 
ATOM      6  C6  DEN d   1      -2.336   0.202   0.921  0.00  0.00     0.001 A 
ATOM      7  C7  DEN d   1      -2.054  -0.205   2.198  0.00  0.00     0.017 A 
ATOM      8  C8  DEN d   1      -1.028  -1.122   2.388  0.00  0.00    -0.094 A 
ATOM      9  C9  DEN d   1      -0.263  -1.566   1.323  0.00  0.00    -0.072 A 
ENDROOT
TORSDOF 0
ENDMDL
