MODEL 1
REMARK minimizedAffinity -2.64300847
REMARK minimizedRMSD -1
REMARK  1 active torsions:
REMARK  status: ('A' for Active; 'I' for Inactive)
REMARK    1  A    between atoms: C3_4  and  O_7 
ROOT
ATOM      1  C   UNL d   1       5.999  -2.195   4.596  0.00  0.00    -0.033 A 
ATOM      2  C1  UNL d   1       5.250  -2.317   5.768  0.00  0.00     0.039 A 
ATOM      3  C2  UNL d   1       4.496  -3.469   6.000  0.00  0.00    -0.080 A 
ATOM      4  C3  UNL d   1       4.501  -4.490   5.054  0.00  0.00     0.150 A 
ATOM      5  C4  UNL d   1       5.248  -4.377   3.886  0.00  0.00    -0.007 A 
ATOM      6  C5  UNL d   1       5.999  -3.226   3.656  0.00  0.00     0.039 A 
ENDROOT
BRANCH   4   7
ATOM      7  O   UNL d   1       3.777  -5.632   5.235  0.00  0.00    -0.526 OA
ATOM      8  H5  UNL d   1       3.288  -5.557   6.071  0.00  0.00     0.418 HD
ENDBRANCH   4   7
TORSDOF 1
ENDMDL
