MODEL 1
REMARK minimizedAffinity -3.46026301
REMARK minimizedRMSD -1
REMARK  1 active torsions:
REMARK  status: ('A' for Active; 'I' for Inactive)
REMARK    1  A    between atoms: C3_4  and  O_7 
ROOT
ATOM      1  C   UNL d   1       5.977  -2.267   4.364  0.00  0.00    -0.033 A 
ATOM      2  C1  UNL d   1       5.254  -2.211   5.557  0.00  0.00     0.039 A 
ATOM      3  C2  UNL d   1       4.545  -3.329   6.000  0.00  0.00    -0.080 A 
ATOM      4  C3  UNL d   1       4.568  -4.497   5.242  0.00  0.00     0.150 A 
ATOM      5  C4  UNL d   1       5.289  -4.561   4.054  0.00  0.00    -0.007 A 
ATOM      6  C5  UNL d   1       5.995  -3.443   3.613  0.00  0.00     0.039 A 
ENDROOT
BRANCH   4   7
ATOM      7  O   UNL d   1       3.888  -5.612   5.631  0.00  0.00    -0.526 OA
ATOM      8  H5  UNL d   1       3.413  -5.411   6.455  0.00  0.00     0.418 HD
ENDBRANCH   4   7
TORSDOF 1
ENDMDL
