MODEL 1
REMARK minimizedAffinity -3.58787489
REMARK minimizedRMSD -1
REMARK  1 active torsions:
REMARK  status: ('A' for Active; 'I' for Inactive)
REMARK    1  A    between atoms: C3_4  and  O_7 
ROOT
ATOM      1  C   UNL d   1       5.577  -4.990   3.479  0.00  0.00    -0.033 A 
ATOM      2  C1  UNL d   1       5.162  -4.974   4.812  0.00  0.00     0.039 A 
ATOM      3  C2  UNL d   1       5.156  -3.776   5.529  0.00  0.00    -0.080 A 
ATOM      4  C3  UNL d   1       5.566  -2.603   4.903  0.00  0.00     0.150 A 
ATOM      5  C4  UNL d   1       5.977  -2.611   3.574  0.00  0.00    -0.007 A 
ATOM      6  C5  UNL d   1       5.983  -3.808   2.860  0.00  0.00     0.039 A 
ENDROOT
BRANCH   4   7
ATOM      7  O   UNL d   1       5.582  -1.410   5.563  0.00  0.00    -0.526 OA
ATOM      8  H5  UNL d   1       5.300  -1.563   6.481  0.00  0.00     0.418 HD
ENDBRANCH   4   7
TORSDOF 1
ENDMDL
