MODEL 1
REMARK minimizedAffinity 1.07932353
REMARK minimizedRMSD -1
REMARK  1 active torsions:
REMARK  status: ('A' for Active; 'I' for Inactive)
REMARK    1  A    between atoms: C3_4  and  O_7 
ROOT
ATOM      1  C   UNL d   1       5.998  -2.416   4.073  0.00  0.00    -0.033 A 
ATOM      2  C1  UNL d   1       5.437  -2.212   5.336  0.00  0.00     0.039 A 
ATOM      3  C2  UNL d   1       4.806  -3.265   6.000  0.00  0.00    -0.080 A 
ATOM      4  C3  UNL d   1       4.743  -4.516   5.392  0.00  0.00     0.150 A 
ATOM      5  C4  UNL d   1       5.302  -4.727   4.136  0.00  0.00    -0.007 A 
ATOM      6  C5  UNL d   1       5.931  -3.674   3.474  0.00  0.00     0.039 A 
ENDROOT
BRANCH   4   7
ATOM      7  O   UNL d   1       4.133  -5.573   5.999  0.00  0.00    -0.526 OA
ATOM      8  H5  UNL d   1       3.768  -5.272   6.848  0.00  0.00     0.418 HD
ENDBRANCH   4   7
TORSDOF 1
ENDMDL
