MODEL 1
REMARK minimizedAffinity -0.432101637
REMARK minimizedRMSD -1
REMARK  1 active torsions:
REMARK  status: ('A' for Active; 'I' for Inactive)
REMARK    1  A    between atoms: C3_4  and  O_7 
ROOT
ATOM      1  C   UNL d   1       3.914  -3.123   5.999  0.00  0.00    -0.033 A 
ATOM      2  C1  UNL d   1       5.310  -3.145   5.999  0.00  0.00     0.039 A 
ATOM      3  C2  UNL d   1       6.000  -3.806   4.981  0.00  0.00    -0.080 A 
ATOM      4  C3  UNL d   1       5.283  -4.439   3.969  0.00  0.00     0.150 A 
ATOM      5  C4  UNL d   1       3.892  -4.418   3.961  0.00  0.00    -0.007 A 
ATOM      6  C5  UNL d   1       3.205  -3.758   4.979  0.00  0.00     0.039 A 
ENDROOT
BRANCH   4   7
ATOM      7  O   UNL d   1       5.912  -5.100   2.956  0.00  0.00    -0.526 OA
ATOM      8  H5  UNL d   1       6.871  -5.056   3.109  0.00  0.00     0.418 HD
ENDBRANCH   4   7
TORSDOF 1
ENDMDL
