MODEL 1
REMARK minimizedAffinity -3.05777955
REMARK minimizedRMSD -1
REMARK  1 active torsions:
REMARK  status: ('A' for Active; 'I' for Inactive)
REMARK    1  A    between atoms: C3_4  and  O_7 
ROOT
ATOM      1  C   UNL d   1       5.554  -5.267   3.965  0.00  0.00    -0.033 A 
ATOM      2  C1  UNL d   1       5.966  -4.177   3.197  0.00  0.00     0.039 A 
ATOM      3  C2  UNL d   1       5.999  -2.898   3.758  0.00  0.00    -0.080 A 
ATOM      4  C3  UNL d   1       5.620  -2.725   5.086  0.00  0.00     0.150 A 
ATOM      5  C4  UNL d   1       5.213  -3.807   5.858  0.00  0.00    -0.007 A 
ATOM      6  C5  UNL d   1       5.179  -5.083   5.296  0.00  0.00     0.039 A 
ENDROOT
BRANCH   4   7
ATOM      7  O   UNL d   1       5.632  -1.496   5.676  0.00  0.00    -0.526 OA
ATOM      8  H5  UNL d   1       5.908  -0.839   5.014  0.00  0.00     0.418 HD
ENDBRANCH   4   7
TORSDOF 1
ENDMDL
