MODEL 1
REMARK minimizedAffinity -3.19990873
REMARK minimizedRMSD -1
REMARK  1 active torsions:
REMARK  status: ('A' for Active; 'I' for Inactive)
REMARK    1  A    between atoms: C3_4  and  O_7 
ROOT
ATOM      1  C   UNL d   1       5.998  -2.265   3.969  0.00  0.00    -0.033 A 
ATOM      2  C1  UNL d   1       5.528  -2.048   5.266  0.00  0.00     0.039 A 
ATOM      3  C2  UNL d   1       4.892  -3.078   5.962  0.00  0.00    -0.080 A 
ATOM      4  C3  UNL d   1       4.732  -4.319   5.350  0.00  0.00     0.150 A 
ATOM      5  C4  UNL d   1       5.201  -4.543   4.060  0.00  0.00    -0.007 A 
ATOM      6  C5  UNL d   1       5.836  -3.513   3.367  0.00  0.00     0.039 A 
ENDROOT
BRANCH   4   7
ATOM      7  O   UNL d   1       4.113  -5.353   5.987  0.00  0.00    -0.526 OA
ATOM      8  H5  UNL d   1       3.817  -5.044   6.859  0.00  0.00     0.418 HD
ENDBRANCH   4   7
TORSDOF 1
ENDMDL
