MODEL 1
REMARK minimizedAffinity -1.52279472
REMARK minimizedRMSD -1
REMARK  1 active torsions:
REMARK  status: ('A' for Active; 'I' for Inactive)
REMARK    1  A    between atoms: C3_4  and  O_7 
ROOT
ATOM      1  C   UNL d   1       6.000  -2.306   4.104  0.00  0.00    -0.033 A 
ATOM      2  C1  UNL d   1       5.976  -3.518   3.411  0.00  0.00     0.039 A 
ATOM      3  C2  UNL d   1       5.438  -4.658   4.012  0.00  0.00    -0.080 A 
ATOM      4  C3  UNL d   1       4.927  -4.572   5.304  0.00  0.00     0.150 A 
ATOM      5  C4  UNL d   1       4.944  -3.368   5.999  0.00  0.00    -0.007 A 
ATOM      6  C5  UNL d   1       5.483  -2.231   5.398  0.00  0.00     0.039 A 
ENDROOT
BRANCH   4   7
ATOM      7  O   UNL d   1       4.396  -5.659   5.934  0.00  0.00    -0.526 OA
ATOM      8  H5  UNL d   1       4.478  -6.427   5.344  0.00  0.00     0.418 HD
ENDBRANCH   4   7
TORSDOF 1
ENDMDL
