MODEL 1
REMARK minimizedAffinity -3.00460076
REMARK minimizedRMSD -1
REMARK  1 active torsions:
REMARK  status: ('A' for Active; 'I' for Inactive)
REMARK    1  A    between atoms: C3_4  and  O_7 
ROOT
ATOM      1  C   UNL d   1       5.104  -4.976   4.310  0.00  0.00    -0.033 A 
ATOM      2  C1  UNL d   1       4.562  -4.587   5.537  0.00  0.00     0.039 A 
ATOM      3  C2  UNL d   1       4.741  -3.282   5.999  0.00  0.00    -0.080 A 
ATOM      4  C3  UNL d   1       5.461  -2.376   5.225  0.00  0.00     0.150 A 
ATOM      5  C4  UNL d   1       6.000  -2.755   4.000  0.00  0.00    -0.007 A 
ATOM      6  C5  UNL d   1       5.821  -4.059   3.541  0.00  0.00     0.039 A 
ENDROOT
BRANCH   4   7
ATOM      7  O   UNL d   1       5.666  -1.092   5.637  0.00  0.00    -0.526 OA
ATOM      8  H5  UNL d   1       5.261  -0.982   6.513  0.00  0.00     0.418 HD
ENDBRANCH   4   7
TORSDOF 1
ENDMDL
