MODEL 1
REMARK minimizedAffinity -2.09988618
REMARK minimizedRMSD -1
REMARK  1 active torsions:
REMARK  status: ('A' for Active; 'I' for Inactive)
REMARK    1  A    between atoms: C3_4  and  O_7 
ROOT
ATOM      1  C   UNL d   1       5.993  -2.873   1.735  0.00  0.00    -0.033 A 
ATOM      2  C1  UNL d   1       5.990  -4.215   1.351  0.00  0.00     0.039 A 
ATOM      3  C2  UNL d   1       5.990  -4.555  -0.003  0.00  0.00    -0.080 A 
ATOM      4  C3  UNL d   1       5.993  -3.546  -0.962  0.00  0.00     0.150 A 
ATOM      5  C4  UNL d   1       6.000  -2.206  -0.586  0.00  0.00    -0.007 A 
ATOM      6  C5  UNL d   1       5.999  -1.868   0.766  0.00  0.00     0.039 A 
ENDROOT
BRANCH   4   7
ATOM      7  O   UNL d   1       5.989  -3.829  -2.295  0.00  0.00    -0.526 OA
ATOM      8  H5  UNL d   1       5.955  -4.794  -2.405  0.00  0.00     0.418 HD
ENDBRANCH   4   7
TORSDOF 1
ENDMDL
