MODEL 1
REMARK minimizedAffinity -3.48647952
REMARK minimizedRMSD -1
REMARK  1 active torsions:
REMARK  status: ('A' for Active; 'I' for Inactive)
REMARK    1  A    between atoms: C3_4  and  O_7 
ROOT
ATOM      1  C   UNL d   1       5.990  -2.685   2.285  0.00  0.00    -0.033 A 
ATOM      2  C1  UNL d   1       5.999  -2.260   3.615  0.00  0.00     0.039 A 
ATOM      3  C2  UNL d   1       5.622  -3.138   4.633  0.00  0.00    -0.080 A 
ATOM      4  C3  UNL d   1       5.239  -4.436   4.308  0.00  0.00     0.150 A 
ATOM      5  C4  UNL d   1       5.231  -4.868   2.986  0.00  0.00    -0.007 A 
ATOM      6  C5  UNL d   1       5.607  -3.989   1.971  0.00  0.00     0.039 A 
ENDROOT
BRANCH   4   7
ATOM      7  O   UNL d   1       4.858  -5.327   5.267  0.00  0.00    -0.526 OA
ATOM      8  H5  UNL d   1       4.886  -4.881   6.130  0.00  0.00     0.418 HD
ENDBRANCH   4   7
TORSDOF 1
ENDMDL
