MODEL 1
REMARK minimizedAffinity -3.56767797
REMARK minimizedRMSD -1
REMARK  1 active torsions:
REMARK  status: ('A' for Active; 'I' for Inactive)
REMARK    1  A    between atoms: C3_4  and  O_7 
ROOT
ATOM      1  C   UNL d   1       6.000  -2.617   3.285  0.00  0.00    -0.033 A 
ATOM      2  C1  UNL d   1       5.628  -2.138   4.543  0.00  0.00     0.039 A 
ATOM      3  C2  UNL d   1       5.023  -2.993   5.466  0.00  0.00    -0.080 A 
ATOM      4  C3  UNL d   1       4.796  -4.322   5.120  0.00  0.00     0.150 A 
ATOM      5  C4  UNL d   1       5.167  -4.807   3.871  0.00  0.00    -0.007 A 
ATOM      6  C5  UNL d   1       5.771  -3.951   2.950  0.00  0.00     0.039 A 
ENDROOT
BRANCH   4   7
ATOM      7  O   UNL d   1       4.204  -5.192   5.986  0.00  0.00    -0.526 OA
ATOM      8  H5  UNL d   1       3.976  -4.711   6.799  0.00  0.00     0.418 HD
ENDBRANCH   4   7
TORSDOF 1
ENDMDL
