MODEL 1
REMARK minimizedAffinity -2.37072873
REMARK minimizedRMSD -1
REMARK  1 active torsions:
REMARK  status: ('A' for Active; 'I' for Inactive)
REMARK    1  A    between atoms: C3_4  and  O_7 
ROOT
ATOM      1  C   UNL d   1       5.268  -4.749  -6.000  0.00  0.00    -0.033 A 
ATOM      2  C1  UNL d   1       5.379  -3.547  -5.298  0.00  0.00     0.039 A 
ATOM      3  C2  UNL d   1       5.621  -3.558  -3.924  0.00  0.00    -0.080 A 
ATOM      4  C3  UNL d   1       5.752  -4.777  -3.263  0.00  0.00     0.150 A 
ATOM      5  C4  UNL d   1       5.648  -5.978  -3.956  0.00  0.00    -0.007 A 
ATOM      6  C5  UNL d   1       5.404  -5.965  -5.329  0.00  0.00     0.039 A 
ENDROOT
BRANCH   4   7
ATOM      7  O   UNL d   1       5.985  -4.839  -1.921  0.00  0.00    -0.526 OA
ATOM      8  H5  UNL d   1       6.005  -3.933  -1.570  0.00  0.00     0.418 HD
ENDBRANCH   4   7
TORSDOF 1
ENDMDL
