MODEL 1
REMARK minimizedAffinity -2.62015843
REMARK minimizedRMSD -1
REMARK  1 active torsions:
REMARK  status: ('A' for Active; 'I' for Inactive)
REMARK    1  A    between atoms: C3_4  and  O_7 
ROOT
ATOM      1  C   UNL d   1       5.996  -1.743   3.934  0.00  0.00    -0.033 A 
ATOM      2  C1  UNL d   1       5.998  -1.816   5.328  0.00  0.00     0.039 A 
ATOM      3  C2  UNL d   1       5.998  -3.059   5.964  0.00  0.00    -0.080 A 
ATOM      4  C3  UNL d   1       5.998  -4.219   5.196  0.00  0.00     0.150 A 
ATOM      5  C4  UNL d   1       6.000  -4.154   3.806  0.00  0.00    -0.007 A 
ATOM      6  C5  UNL d   1       5.998  -2.912   3.173  0.00  0.00     0.039 A 
ENDROOT
BRANCH   4   7
ATOM      7  O   UNL d   1       5.993  -5.455   5.772  0.00  0.00    -0.526 OA
ATOM      8  H5  UNL d   1       5.963  -5.345   6.737  0.00  0.00     0.418 HD
ENDBRANCH   4   7
TORSDOF 1
ENDMDL
