MODEL 1
REMARK minimizedAffinity -3.49850035
REMARK minimizedRMSD -1
REMARK  1 active torsions:
REMARK  status: ('A' for Active; 'I' for Inactive)
REMARK    1  A    between atoms: C3_4  and  O_7 
ROOT
ATOM      1  C   UNL d   1       5.876  -4.339   2.055  0.00  0.00    -0.033 A 
ATOM      2  C1  UNL d   1       6.000  -2.960   1.880  0.00  0.00     0.039 A 
ATOM      3  C2  UNL d   1       5.867  -2.101   2.972  0.00  0.00    -0.080 A 
ATOM      4  C3  UNL d   1       5.613  -2.633   4.233  0.00  0.00     0.150 A 
ATOM      5  C4  UNL d   1       5.492  -4.006   4.416  0.00  0.00    -0.007 A 
ATOM      6  C5  UNL d   1       5.624  -4.863   3.324  0.00  0.00     0.039 A 
ENDROOT
BRANCH   4   7
ATOM      7  O   UNL d   1       5.471  -1.834   5.328  0.00  0.00    -0.526 OA
ATOM      8  H5  UNL d   1       5.550  -0.907   5.046  0.00  0.00     0.418 HD
ENDBRANCH   4   7
TORSDOF 1
ENDMDL
