MODEL 1
REMARK minimizedAffinity 1.7921387
REMARK minimizedRMSD -1
REMARK  1 active torsions:
REMARK  status: ('A' for Active; 'I' for Inactive)
REMARK    1  A    between atoms: C3_4  and  O_7 
ROOT
ATOM      1  C   UNL d   1       4.209  -2.167   3.762  0.00  0.00    -0.033 A 
ATOM      2  C1  UNL d   1       5.480  -2.670   3.473  0.00  0.00     0.039 A 
ATOM      3  C2  UNL d   1       5.994  -3.738   4.211  0.00  0.00    -0.080 A 
ATOM      4  C3  UNL d   1       5.229  -4.294   5.232  0.00  0.00     0.150 A 
ATOM      5  C4  UNL d   1       3.961  -3.801   5.523  0.00  0.00    -0.007 A 
ATOM      6  C5  UNL d   1       3.449  -2.734   4.785  0.00  0.00     0.039 A 
ENDROOT
BRANCH   4   7
ATOM      7  O   UNL d   1       5.691  -5.334   5.983  0.00  0.00    -0.526 OA
ATOM      8  H5  UNL d   1       6.591  -5.550   5.688  0.00  0.00     0.418 HD
ENDBRANCH   4   7
TORSDOF 1
ENDMDL
