MODEL 1
REMARK minimizedAffinity -1.58883822
REMARK minimizedRMSD -1
REMARK  0 active torsions:
REMARK  status: ('A' for Active; 'I' for Inactive)
ROOT
ATOM      1  C   UNL d   1       3.101  -0.243   0.855  0.00  0.00     0.172 C 
ATOM      2  N   UNL d   1       1.678  -0.419   0.688  0.00  0.00    -0.070 N 
ATOM      3  C1  UNL d   1       0.956  -1.511   1.090  0.00  0.00    -0.004 A 
ATOM      4  C2  UNL d   1      -0.362  -1.293   0.752  0.00  0.00    -0.047 A 
ATOM      5  C3  UNL d   1      -0.435  -0.026   0.125  0.00  0.00    -0.047 A 
ATOM      6  C4  UNL d   1       0.842   0.493   0.099  0.00  0.00    -0.004 A 
ENDROOT
TORSDOF 0
ENDMDL
