MODEL 1
REMARK minimizedAffinity -4.13660145
REMARK minimizedRMSD -1
REMARK  0 active torsions:
REMARK  status: ('A' for Active; 'I' for Inactive)
ROOT
ATOM      1  C   UNL d   1      -0.291  -0.128   0.221  0.00  0.00     0.172 C 
ATOM      2  N   UNL d   1       0.898  -0.707   0.800  0.00  0.00    -0.070 N 
ATOM      3  C1  UNL d   1       2.170  -0.215   0.672  0.00  0.00    -0.004 A 
ATOM      4  C2  UNL d   1       3.017  -1.049   1.368  0.00  0.00    -0.047 A 
ATOM      5  C3  UNL d   1       2.228  -2.078   1.934  0.00  0.00    -0.047 A 
ATOM      6  C4  UNL d   1       0.920  -1.842   1.567  0.00  0.00    -0.004 A 
ENDROOT
TORSDOF 0
ENDMDL
