MODEL 1
REMARK minimizedAffinity -3.89381027
REMARK minimizedRMSD -1
REMARK  0 active torsions:
REMARK  status: ('A' for Active; 'I' for Inactive)
ROOT
ATOM      1  C   UNL d   1      -0.205   0.052   0.740  0.00  0.00     0.172 C 
ATOM      2  N   UNL d   1       1.126  -0.445   0.999  0.00  0.00    -0.070 N 
ATOM      3  C1  UNL d   1       1.438  -1.515   1.794  0.00  0.00    -0.004 A 
ATOM      4  C2  UNL d   1       2.808  -1.666   1.781  0.00  0.00    -0.047 A 
ATOM      5  C3  UNL d   1       3.337  -0.650   0.949  0.00  0.00    -0.047 A 
ATOM      6  C4  UNL d   1       2.274   0.090   0.478  0.00  0.00    -0.004 A 
ENDROOT
TORSDOF 0
ENDMDL
