MODEL 1
REMARK minimizedAffinity -3.00479293
REMARK minimizedRMSD -1
REMARK  0 active torsions:
REMARK  status: ('A' for Active; 'I' for Inactive)
ROOT
ATOM      1  C   UNL d   1      -0.988   0.263  -0.194  0.00  0.00     0.172 C 
ATOM      2  N   UNL d   1       0.308  -0.123   0.313  0.00  0.00    -0.070 N 
ATOM      3  C1  UNL d   1       0.647  -1.366   0.776  0.00  0.00    -0.004 A 
ATOM      4  C2  UNL d   1       1.968  -1.326   1.167  0.00  0.00    -0.047 A 
ATOM      5  C3  UNL d   1       2.439  -0.013   0.931  0.00  0.00    -0.047 A 
ATOM      6  C4  UNL d   1       1.392   0.711   0.402  0.00  0.00    -0.004 A 
ENDROOT
TORSDOF 0
ENDMDL
