MODEL 1
REMARK minimizedAffinity -3.84181786
REMARK minimizedRMSD -1
REMARK  0 active torsions:
REMARK  status: ('A' for Active; 'I' for Inactive)
ROOT
ATOM      1  C   UNL d   1      -0.879   0.088   0.154  0.00  0.00     0.172 C 
ATOM      2  N   UNL d   1       0.558   0.102   0.294  0.00  0.00    -0.070 N 
ATOM      3  C1  UNL d   1       1.319  -0.909   0.818  0.00  0.00    -0.004 A 
ATOM      4  C2  UNL d   1       2.637  -0.510   0.776  0.00  0.00    -0.047 A 
ATOM      5  C3  UNL d   1       2.670   0.786   0.208  0.00  0.00    -0.047 A 
ATOM      6  C4  UNL d   1       1.369   1.140  -0.081  0.00  0.00    -0.004 A 
ENDROOT
TORSDOF 0
ENDMDL
