MODEL 1
REMARK minimizedAffinity -3.98411608
REMARK minimizedRMSD -1
REMARK  0 active torsions:
REMARK  status: ('A' for Active; 'I' for Inactive)
ROOT
ATOM      1  C   UNL d   1      -0.236   0.440  -0.321  0.00  0.00     0.172 C 
ATOM      2  N   UNL d   1       1.042   0.379   0.348  0.00  0.00    -0.070 N 
ATOM      3  C1  UNL d   1       1.998  -0.583   0.156  0.00  0.00    -0.004 A 
ATOM      4  C2  UNL d   1       3.065  -0.286   0.976  0.00  0.00    -0.047 A 
ATOM      5  C3  UNL d   1       2.739   0.895   1.685  0.00  0.00    -0.047 A 
ATOM      6  C4  UNL d   1       1.481   1.285   1.277  0.00  0.00    -0.004 A 
ENDROOT
TORSDOF 0
ENDMDL
