MODEL 1
REMARK minimizedAffinity -3.58663464
REMARK minimizedRMSD -1
REMARK  0 active torsions:
REMARK  status: ('A' for Active; 'I' for Inactive)
ROOT
ATOM      1  C   UNL d   1      -0.769   0.114  -0.708  0.00  0.00     0.172 C 
ATOM      2  N   UNL d   1       0.573   0.074  -0.176  0.00  0.00    -0.070 N 
ATOM      3  C1  UNL d   1       1.169  -1.014   0.405  0.00  0.00    -0.004 A 
ATOM      4  C2  UNL d   1       2.443  -0.647   0.780  0.00  0.00    -0.047 A 
ATOM      5  C3  UNL d   1       2.618   0.709   0.413  0.00  0.00    -0.047 A 
ATOM      6  C4  UNL d   1       1.445   1.130  -0.176  0.00  0.00    -0.004 A 
ENDROOT
TORSDOF 0
ENDMDL
