MODEL 1
REMARK minimizedAffinity -3.93905044
REMARK minimizedRMSD -1
REMARK  0 active torsions:
REMARK  status: ('A' for Active; 'I' for Inactive)
ROOT
ATOM      1  C   UNL d   1      -0.732   0.047  -0.487  0.00  0.00     0.172 C 
ATOM      2  N   UNL d   1       0.599  -0.006   0.069  0.00  0.00    -0.070 N 
ATOM      3  C1  UNL d   1       1.214  -1.125   0.564  0.00  0.00    -0.004 A 
ATOM      4  C2  UNL d   1       2.470  -0.760   0.998  0.00  0.00    -0.047 A 
ATOM      5  C3  UNL d   1       2.615   0.627   0.757  0.00  0.00    -0.047 A 
ATOM      6  C4  UNL d   1       1.442   1.068   0.181  0.00  0.00    -0.004 A 
ENDROOT
TORSDOF 0
ENDMDL
