MODEL 1
REMARK minimizedAffinity -2.75065446
REMARK minimizedRMSD -1
REMARK  0 active torsions:
REMARK  status: ('A' for Active; 'I' for Inactive)
ROOT
ATOM      1  C   UNL d   1      -1.337   0.308  -0.090  0.00  0.00     0.172 C 
ATOM      2  N   UNL d   1       0.047   0.104   0.270  0.00  0.00    -0.070 N 
ATOM      3  C1  UNL d   1       1.053   1.022   0.125  0.00  0.00    -0.004 A 
ATOM      4  C2  UNL d   1       2.218   0.446   0.584  0.00  0.00    -0.047 A 
ATOM      5  C3  UNL d   1       1.901  -0.862   1.019  0.00  0.00    -0.047 A 
ATOM      6  C4  UNL d   1       0.550  -1.048   0.814  0.00  0.00    -0.004 A 
ENDROOT
TORSDOF 0
ENDMDL
