MODEL 1
REMARK minimizedAffinity -3.10169268
REMARK minimizedRMSD -1
REMARK  0 active torsions:
REMARK  status: ('A' for Active; 'I' for Inactive)
ROOT
ATOM      1  C   UNL d   1       0.410  -1.756   1.254  0.00  0.00     0.172 C 
ATOM      2  N   UNL d   1       1.195  -0.680   0.695  0.00  0.00    -0.070 N 
ATOM      3  C1  UNL d   1       0.694   0.465   0.136  0.00  0.00    -0.004 A 
ATOM      4  C2  UNL d   1       1.761   1.234  -0.276  0.00  0.00    -0.047 A 
ATOM      5  C3  UNL d   1       2.943   0.526   0.046  0.00  0.00    -0.047 A 
ATOM      6  C4  UNL d   1       2.563  -0.656   0.646  0.00  0.00    -0.004 A 
ENDROOT
TORSDOF 0
ENDMDL
