MODEL 1
REMARK minimizedAffinity 2.61297393
REMARK minimizedRMSD -1
REMARK  0 active torsions:
REMARK  status: ('A' for Active; 'I' for Inactive)
ROOT
ATOM      1  C   UNL d   1      -4.125   1.873  -3.177  0.00  0.00     0.172 C 
ATOM      2  N   UNL d   1      -4.612   2.248  -1.871  0.00  0.00    -0.070 N 
ATOM      3  C1  UNL d   1      -3.838   2.654  -0.817  0.00  0.00    -0.004 A 
ATOM      4  C2  UNL d   1      -4.676   2.921   0.245  0.00  0.00    -0.047 A 
ATOM      5  C3  UNL d   1      -6.000   2.665  -0.186  0.00  0.00    -0.047 A 
ATOM      6  C4  UNL d   1      -5.931   2.250  -1.500  0.00  0.00    -0.004 A 
ENDROOT
TORSDOF 0
ENDMDL
