MODEL 1
REMARK minimizedAffinity 1.08695185
REMARK minimizedRMSD -1
REMARK  0 active torsions:
REMARK  status: ('A' for Active; 'I' for Inactive)
ROOT
ATOM      1  C1  BNZ d   1       5.999   3.548   2.626  0.00  0.00     0.000 A 
ATOM      2  C2  BNZ d   1       5.992   3.645   3.992  0.00  0.00     0.000 A 
ATOM      3  C3  BNZ d   1       5.963   4.866   4.607  0.00  0.00     0.000 A 
ATOM      4  C4  BNZ d   1       5.983   5.986   3.857  0.00  0.00     0.000 A 
ATOM      5  C5  BNZ d   1       6.000   5.905   2.479  0.00  0.00     0.000 A 
ATOM      6  C6  BNZ d   1       5.989   4.674   1.863  0.00  0.00     0.000 A 
ENDROOT
TORSDOF 0
ENDMDL
