MODEL 1
REMARK minimizedAffinity 0.883685648
REMARK minimizedRMSD -1
REMARK  0 active torsions:
REMARK  status: ('A' for Active; 'I' for Inactive)
ROOT
ATOM      1  C1  BNZ d   1       5.940   3.519   2.046  0.00  0.00     0.000 A 
ATOM      2  C2  BNZ d   1       5.940   4.691   1.338  0.00  0.00     0.000 A 
ATOM      3  C3  BNZ d   1       5.990   5.897   1.981  0.00  0.00     0.000 A 
ATOM      4  C4  BNZ d   1       5.997   5.930   3.329  0.00  0.00     0.000 A 
ATOM      5  C5  BNZ d   1       5.987   4.757   4.057  0.00  0.00     0.000 A 
ATOM      6  C6  BNZ d   1       5.977   3.544   3.406  0.00  0.00     0.000 A 
ENDROOT
TORSDOF 0
ENDMDL
