MODEL 1
REMARK minimizedAffinity 1.3522166
REMARK minimizedRMSD -1
REMARK  0 active torsions:
REMARK  status: ('A' for Active; 'I' for Inactive)
ROOT
ATOM      1  C1  BNZ d   1       5.976   4.025   2.683  0.00  0.00     0.000 A 
ATOM      2  C2  BNZ d   1       5.991   3.028   3.621  0.00  0.00     0.000 A 
ATOM      3  C3  BNZ d   1       5.981   3.322   4.956  0.00  0.00     0.000 A 
ATOM      4  C4  BNZ d   1       5.997   4.612   5.351  0.00  0.00     0.000 A 
ATOM      5  C5  BNZ d   1       5.992   5.629   4.417  0.00  0.00     0.000 A 
ATOM      6  C6  BNZ d   1       5.962   5.328   3.075  0.00  0.00     0.000 A 
ENDROOT
TORSDOF 0
ENDMDL
