MODEL 1
REMARK minimizedAffinity 0.642781675
REMARK minimizedRMSD -1
REMARK  0 active torsions:
REMARK  status: ('A' for Active; 'I' for Inactive)
ROOT
ATOM      1  C1  BNZ d   1       6.000   4.727   3.312  0.00  0.00     0.000 A 
ATOM      2  C2  BNZ d   1       5.996   3.851   2.259  0.00  0.00     0.000 A 
ATOM      3  C3  BNZ d   1       5.969   2.501   2.473  0.00  0.00     0.000 A 
ATOM      4  C4  BNZ d   1       5.986   2.029   3.736  0.00  0.00     0.000 A 
ATOM      5  C5  BNZ d   1       5.999   2.899   4.808  0.00  0.00     0.000 A 
ATOM      6  C6  BNZ d   1       5.987   4.258   4.589  0.00  0.00     0.000 A 
ENDROOT
TORSDOF 0
ENDMDL
