MODEL 1
REMARK minimizedAffinity -1.10748768
REMARK minimizedRMSD -1
REMARK  0 active torsions:
REMARK  status: ('A' for Active; 'I' for Inactive)
ROOT
ATOM      1  C1  BNZ d   1       5.970   4.485   5.959  0.00  0.00     0.000 A 
ATOM      2  C2  BNZ d   1       5.964   3.362   5.175  0.00  0.00     0.000 A 
ATOM      3  C3  BNZ d   1       5.997   3.460   3.812  0.00  0.00     0.000 A 
ATOM      4  C4  BNZ d   1       5.994   4.679   3.235  0.00  0.00     0.000 A 
ATOM      5  C5  BNZ d   1       5.991   5.820   4.011  0.00  0.00     0.000 A 
ATOM      6  C6  BNZ d   1       5.998   5.718   5.383  0.00  0.00     0.000 A 
ENDROOT
TORSDOF 0
ENDMDL
