MODEL 1
REMARK minimizedAffinity 4.00094652
REMARK minimizedRMSD -1
REMARK  0 active torsions:
REMARK  status: ('A' for Active; 'I' for Inactive)
ROOT
ATOM      1  C1  BNZ d   1       6.000   1.861  -5.141  0.00  0.00     0.000 A 
ATOM      2  C2  BNZ d   1       4.933   1.878  -6.000  0.00  0.00     0.000 A 
ATOM      3  C3  BNZ d   1       3.860   2.691  -5.767  0.00  0.00     0.000 A 
ATOM      4  C4  BNZ d   1       3.837   3.457  -4.656  0.00  0.00     0.000 A 
ATOM      5  C5  BNZ d   1       4.900   3.444  -3.777  0.00  0.00     0.000 A 
ATOM      6  C6  BNZ d   1       5.996   2.653  -4.035  0.00  0.00     0.000 A 
ENDROOT
TORSDOF 0
ENDMDL
