MODEL 1
REMARK minimizedAffinity -0.619405031
REMARK minimizedRMSD -1
REMARK  0 active torsions:
REMARK  status: ('A' for Active; 'I' for Inactive)
ROOT
ATOM      1  C1  BNZ d   1       1.880  -3.662   1.837  0.00  0.00     0.000 A 
ATOM      2  C2  BNZ d   1       2.295  -3.680   3.142  0.00  0.00     0.000 A 
ATOM      3  C3  BNZ d   1       2.686  -4.847   3.737  0.00  0.00     0.000 A 
ATOM      4  C4  BNZ d   1       2.624  -6.000   3.039  0.00  0.00     0.000 A 
ATOM      5  C5  BNZ d   1       2.198  -6.000   1.725  0.00  0.00     0.000 A 
ATOM      6  C6  BNZ d   1       1.843  -4.817   1.118  0.00  0.00     0.000 A 
ENDROOT
TORSDOF 0
ENDMDL
