MODEL 1
REMARK minimizedAffinity 1.21158123
REMARK minimizedRMSD -1
REMARK  0 active torsions:
REMARK  status: ('A' for Active; 'I' for Inactive)
ROOT
ATOM      1  C1  BNZ d   1       5.428   3.072  -2.127  0.00  0.00     0.000 A 
ATOM      2  C2  BNZ d   1       5.620   4.326  -2.642  0.00  0.00     0.000 A 
ATOM      3  C3  BNZ d   1       4.809   5.364  -2.276  0.00  0.00     0.000 A 
ATOM      4  C4  BNZ d   1       3.784   5.138  -1.429  0.00  0.00     0.000 A 
ATOM      5  C5  BNZ d   1       3.572   3.877  -0.909  0.00  0.00     0.000 A 
ATOM      6  C6  BNZ d   1       4.414   2.843  -1.249  0.00  0.00     0.000 A 
ENDROOT
TORSDOF 0
ENDMDL
