MODEL 1
REMARK minimizedAffinity 3.72609448
REMARK minimizedRMSD -1
REMARK  0 active torsions:
REMARK  status: ('A' for Active; 'I' for Inactive)
ROOT
ATOM      1  C1  BNZ d   1       3.061  -4.371   4.126  0.00  0.00     0.000 A 
ATOM      2  C2  BNZ d   1       4.420  -4.390   3.959  0.00  0.00     0.000 A 
ATOM      3  C3  BNZ d   1       4.999  -5.190   3.014  0.00  0.00     0.000 A 
ATOM      4  C4  BNZ d   1       4.222  -6.000   2.266  0.00  0.00     0.000 A 
ATOM      5  C5  BNZ d   1       2.851  -6.000   2.428  0.00  0.00     0.000 A 
ATOM      6  C6  BNZ d   1       2.269  -5.164   3.353  0.00  0.00     0.000 A 
ENDROOT
TORSDOF 0
ENDMDL
