MODEL 1
REMARK minimizedAffinity 0.596895635
REMARK minimizedRMSD -1
REMARK  0 active torsions:
REMARK  status: ('A' for Active; 'I' for Inactive)
ROOT
ATOM      1  C1  BNZ d   1      -1.040  -4.898   0.862  0.00  0.00     0.000 A 
ATOM      2  C2  BNZ d   1      -0.843  -3.596   0.487  0.00  0.00     0.000 A 
ATOM      3  C3  BNZ d   1      -1.893  -2.814   0.092  0.00  0.00     0.000 A 
ATOM      4  C4  BNZ d   1      -3.130  -3.347   0.034  0.00  0.00     0.000 A 
ATOM      5  C5  BNZ d   1      -3.344  -4.661   0.400  0.00  0.00     0.000 A 
ATOM      6  C6  BNZ d   1      -2.291  -5.433   0.835  0.00  0.00     0.000 A 
ENDROOT
TORSDOF 0
ENDMDL
