MODEL 1
REMARK minimizedAffinity -1.58312166
REMARK minimizedRMSD -1
REMARK  0 active torsions:
REMARK  status: ('A' for Active; 'I' for Inactive)
ROOT
ATOM      1  C1  BNZ d   1      -1.116  -1.465  -0.503  0.00  0.00     0.000 A 
ATOM      2  C2  BNZ d   1      -2.444  -1.787  -0.411  0.00  0.00     0.000 A 
ATOM      3  C3  BNZ d   1      -2.838  -3.082  -0.224  0.00  0.00     0.000 A 
ATOM      4  C4  BNZ d   1      -1.908  -4.058  -0.170  0.00  0.00     0.000 A 
ATOM      5  C5  BNZ d   1      -0.566  -3.750  -0.271  0.00  0.00     0.000 A 
ATOM      6  C6  BNZ d   1      -0.171  -2.441  -0.420  0.00  0.00     0.000 A 
ENDROOT
TORSDOF 0
ENDMDL
