MODEL 1
REMARK minimizedAffinity 1.14207792
REMARK minimizedRMSD -1
REMARK  0 active torsions:
REMARK  status: ('A' for Active; 'I' for Inactive)
ROOT
ATOM      1  C1  BNZ d   1       5.897   3.621   3.274  0.00  0.00     0.000 A 
ATOM      2  C2  BNZ d   1       5.927   3.655   1.906  0.00  0.00     0.000 A 
ATOM      3  C3  BNZ d   1       5.998   4.845   1.236  0.00  0.00     0.000 A 
ATOM      4  C4  BNZ d   1       5.999   5.999   1.934  0.00  0.00     0.000 A 
ATOM      5  C5  BNZ d   1       5.960   5.982   3.314  0.00  0.00     0.000 A 
ATOM      6  C6  BNZ d   1       5.928   4.781   3.985  0.00  0.00     0.000 A 
ENDROOT
TORSDOF 0
ENDMDL
