MODEL 1
REMARK minimizedAffinity -4.69774437
REMARK minimizedRMSD -1
REMARK  1 active torsions:
REMARK  status: ('A' for Active; 'I' for Inactive)
REMARK    1  A    between atoms: C1_2  and  C2_3 
ROOT
ATOM      1  C2  UNL d   1       0.941  -1.701   0.695  0.00  0.00    -0.073 A 
ATOM      2  C3  UNL d   1       1.600  -0.826  -0.176  0.00  0.00    -0.002 A 
ATOM      3  C4  UNL d   1       1.059   0.429  -0.456  0.00  0.00     0.004 A 
ATOM      4  C5  UNL d   1      -0.140   0.825   0.137  0.00  0.00    -0.004 A 
ATOM      5  C6  UNL d   1      -0.807  -0.031   1.019  0.00  0.00    -0.075 A 
ATOM      6  C7  UNL d   1      -2.099   0.379   1.663  0.00  0.00     0.076 C 
ATOM      7  C8  UNL d   1      -0.259  -1.291   1.293  0.00  0.00     0.001 A 
ENDROOT
BRANCH   1   8
ATOM      8  C1  UNL d   1       1.525  -3.056   1.005  0.00  0.00     0.053 C 
ATOM      9  C   UNL d   1       1.264  -3.473   2.444  0.00  0.00     0.018 C 
ENDBRANCH   1   8
TORSDOF 1
ENDMDL
