MODEL 1
REMARK minimizedAffinity -2.37691832
REMARK minimizedRMSD -1
REMARK  1 active torsions:
REMARK  status: ('A' for Active; 'I' for Inactive)
REMARK    1  A    between atoms: C1_2  and  C2_3 
ROOT
ATOM      1  C2  UNL d   1       0.319  -1.622   0.865  0.00  0.00    -0.073 A 
ATOM      2  C3  UNL d   1      -0.917  -0.977   0.987  0.00  0.00    -0.002 A 
ATOM      3  C4  UNL d   1      -1.065   0.346   0.570  0.00  0.00     0.004 A 
ATOM      4  C5  UNL d   1       0.016   1.035   0.022  0.00  0.00    -0.004 A 
ATOM      5  C6  UNL d   1       1.256   0.404  -0.119  0.00  0.00    -0.075 A 
ATOM      6  C7  UNL d   1       2.431   1.132  -0.704  0.00  0.00     0.076 C 
ATOM      7  C8  UNL d   1       1.398  -0.924   0.304  0.00  0.00     0.001 A 
ENDROOT
BRANCH   1   8
ATOM      8  C1  UNL d   1       0.482  -3.054   1.307  0.00  0.00     0.053 C 
ATOM      9  C   UNL d   1       1.902  -3.351   1.763  0.00  0.00     0.018 C 
ENDBRANCH   1   8
TORSDOF 1
ENDMDL
