MODEL 1
REMARK minimizedAffinity -3.75464702
REMARK minimizedRMSD -1
REMARK  1 active torsions:
REMARK  status: ('A' for Active; 'I' for Inactive)
REMARK    1  A    between atoms: C1_2  and  C2_3 
ROOT
ATOM      1  C2  UNL d   1       0.123  -1.599   0.883  0.00  0.00    -0.073 A 
ATOM      2  C3  UNL d   1      -0.862  -1.570   1.877  0.00  0.00    -0.002 A 
ATOM      3  C4  UNL d   1      -1.725  -0.478   1.983  0.00  0.00     0.004 A 
ATOM      4  C5  UNL d   1      -1.616   0.591   1.094  0.00  0.00    -0.004 A 
ATOM      5  C6  UNL d   1      -0.646   0.576   0.087  0.00  0.00    -0.075 A 
ATOM      6  C7  UNL d   1      -0.514   1.719  -0.876  0.00  0.00     0.076 C 
ATOM      7  C8  UNL d   1       0.219  -0.523  -0.011  0.00  0.00     0.001 A 
ENDROOT
BRANCH   1   8
ATOM      8  C1  UNL d   1       1.053  -2.779   0.761  0.00  0.00     0.053 C 
ATOM      9  C   UNL d   1       1.491  -3.302   2.119  0.00  0.00     0.018 C 
ENDBRANCH   1   8
TORSDOF 1
ENDMDL
