MODEL 1
REMARK minimizedAffinity -3.8064115
REMARK minimizedRMSD -1
REMARK  1 active torsions:
REMARK  status: ('A' for Active; 'I' for Inactive)
REMARK    1  A    between atoms: C1_2  and  C2_3 
ROOT
ATOM      1  C2  UNL d   1       0.281  -1.070   0.679  0.00  0.00    -0.073 A 
ATOM      2  C3  UNL d   1       1.569  -0.846   0.182  0.00  0.00    -0.002 A 
ATOM      3  C4  UNL d   1       1.829   0.258  -0.632  0.00  0.00     0.004 A 
ATOM      4  C5  UNL d   1       0.806   1.152  -0.949  0.00  0.00    -0.004 A 
ATOM      5  C6  UNL d   1      -0.486   0.951  -0.452  0.00  0.00    -0.075 A 
ATOM      6  C7  UNL d   1      -1.597   1.902  -0.786  0.00  0.00     0.076 C 
ATOM      7  C8  UNL d   1      -0.739  -0.161   0.362  0.00  0.00     0.001 A 
ENDROOT
BRANCH   1   8
ATOM      8  C1  UNL d   1      -0.003  -2.257   1.563  0.00  0.00     0.053 C 
ATOM      9  C   UNL d   1       1.147  -3.252   1.568  0.00  0.00     0.018 C 
ENDBRANCH   1   8
TORSDOF 1
ENDMDL
