MODEL 1
REMARK minimizedAffinity -5.22820759
REMARK minimizedRMSD -1
REMARK  1 active torsions:
REMARK  status: ('A' for Active; 'I' for Inactive)
REMARK    1  A    between atoms: C1_2  and  C2_3 
ROOT
ATOM      1  C2  UNL d   1       0.132  -0.232  -0.168  0.00  0.00    -0.073 A 
ATOM      2  C3  UNL d   1       1.434  -0.010  -0.631  0.00  0.00    -0.002 A 
ATOM      3  C4  UNL d   1       2.488  -0.807  -0.181  0.00  0.00     0.004 A 
ATOM      4  C5  UNL d   1       2.251  -1.836   0.730  0.00  0.00    -0.004 A 
ATOM      5  C6  UNL d   1       0.955  -2.080   1.196  0.00  0.00    -0.075 A 
ATOM      6  C7  UNL d   1       0.683  -3.182   2.178  0.00  0.00     0.076 C 
ATOM      7  C8  UNL d   1      -0.098  -1.275   0.741  0.00  0.00     0.001 A 
ENDROOT
BRANCH   1   8
ATOM      8  C1  UNL d   1      -1.010   0.621  -0.656  0.00  0.00     0.053 C 
ATOM      9  C   UNL d   1      -1.069   1.960   0.063  0.00  0.00     0.018 C 
ENDBRANCH   1   8
TORSDOF 1
ENDMDL
