MODEL 1
REMARK minimizedAffinity -4.97033167
REMARK minimizedRMSD -1
REMARK  1 active torsions:
REMARK  status: ('A' for Active; 'I' for Inactive)
REMARK    1  A    between atoms: C1_2  and  C2_3 
ROOT
ATOM      1  C2  UNL d   1       1.122  -1.175   0.704  0.00  0.00    -0.073 A 
ATOM      2  C3  UNL d   1       1.641  -0.330  -0.283  0.00  0.00    -0.002 A 
ATOM      3  C4  UNL d   1       0.956   0.829  -0.650  0.00  0.00     0.004 A 
ATOM      4  C5  UNL d   1      -0.250   1.158  -0.031  0.00  0.00    -0.004 A 
ATOM      5  C6  UNL d   1      -0.779   0.332   0.966  0.00  0.00    -0.075 A 
ATOM      6  C7  UNL d   1      -2.076   0.670   1.641  0.00  0.00     0.076 C 
ATOM      7  C8  UNL d   1      -0.087  -0.832   1.328  0.00  0.00     0.001 A 
ENDROOT
BRANCH   1   8
ATOM      8  C1  UNL d   1       1.861  -2.424   1.109  0.00  0.00     0.053 C 
ATOM      9  C   UNL d   1       1.524  -2.852   2.529  0.00  0.00     0.018 C 
ENDBRANCH   1   8
TORSDOF 1
ENDMDL
