MODEL 1
REMARK minimizedAffinity -4.69880772
REMARK minimizedRMSD -1
REMARK  1 active torsions:
REMARK  status: ('A' for Active; 'I' for Inactive)
REMARK    1  A    between atoms: C1_2  and  C2_3 
ROOT
ATOM      1  C2  UNL d   1      -0.468   0.304   0.090  0.00  0.00    -0.073 A 
ATOM      2  C3  UNL d   1      -1.465   0.525   1.047  0.00  0.00    -0.002 A 
ATOM      3  C4  UNL d   1      -1.672  -0.394   2.076  0.00  0.00     0.004 A 
ATOM      4  C5  UNL d   1      -0.880  -1.539   2.164  0.00  0.00    -0.004 A 
ATOM      5  C6  UNL d   1       0.130  -1.772   1.224  0.00  0.00    -0.075 A 
ATOM      6  C7  UNL d   1       0.989  -3.000   1.303  0.00  0.00     0.076 C 
ATOM      7  C8  UNL d   1       0.329  -0.845   0.192  0.00  0.00     0.001 A 
ENDROOT
BRANCH   1   8
ATOM      8  C1  UNL d   1      -0.237   1.297  -1.019  0.00  0.00     0.053 C 
ATOM      9  C   UNL d   1      -1.506   1.574  -1.809  0.00  0.00     0.018 C 
ENDBRANCH   1   8
TORSDOF 1
ENDMDL
