MODEL 1
REMARK minimizedAffinity -4.95528603
REMARK minimizedRMSD -1
REMARK  1 active torsions:
REMARK  status: ('A' for Active; 'I' for Inactive)
REMARK    1  A    between atoms: C1_2  and  C2_3 
ROOT
ATOM      1  C2  UNL d   1       0.832  -0.506  -0.261  0.00  0.00    -0.073 A 
ATOM      2  C3  UNL d   1       0.002   0.366   0.454  0.00  0.00    -0.002 A 
ATOM      3  C4  UNL d   1      -0.575  -0.040   1.658  0.00  0.00     0.004 A 
ATOM      4  C5  UNL d   1      -0.325  -1.316   2.162  0.00  0.00    -0.004 A 
ATOM      5  C6  UNL d   1       0.511  -2.197   1.468  0.00  0.00    -0.075 A 
ATOM      6  C7  UNL d   1       0.789  -3.574   1.996  0.00  0.00     0.076 C 
ATOM      7  C8  UNL d   1       1.085  -1.783   0.259  0.00  0.00     0.001 A 
ENDROOT
BRANCH   1   8
ATOM      8  C1  UNL d   1       1.463  -0.070  -1.558  0.00  0.00     0.053 C 
ATOM      9  C   UNL d   1       2.936   0.270  -1.389  0.00  0.00     0.018 C 
ENDBRANCH   1   8
TORSDOF 1
ENDMDL
