MODEL 1
REMARK minimizedAffinity -5.77074385
REMARK minimizedRMSD -1
REMARK  1 active torsions:
REMARK  status: ('A' for Active; 'I' for Inactive)
REMARK    1  A    between atoms: C1_2  and  C2_3 
ROOT
ATOM      1  C2  UNL d   1      -0.495   0.611   0.101  0.00  0.00    -0.073 A 
ATOM      2  C3  UNL d   1      -1.242   0.715   1.280  0.00  0.00    -0.002 A 
ATOM      3  C4  UNL d   1      -1.170  -0.284   2.251  0.00  0.00     0.004 A 
ATOM      4  C5  UNL d   1      -0.345  -1.392   2.058  0.00  0.00    -0.004 A 
ATOM      5  C6  UNL d   1       0.419  -1.509   0.893  0.00  0.00    -0.075 A 
ATOM      6  C7  UNL d   1       1.309  -2.696   0.669  0.00  0.00     0.076 C 
ATOM      7  C8  UNL d   1       0.338  -0.503  -0.080  0.00  0.00     0.001 A 
ENDROOT
BRANCH   1   8
ATOM      8  C1  UNL d   1      -0.565   1.690  -0.948  0.00  0.00     0.053 C 
ATOM      9  C   UNL d   1      -1.601   1.379  -2.017  0.00  0.00     0.018 C 
ENDBRANCH   1   8
TORSDOF 1
ENDMDL
