MODEL 1
REMARK minimizedAffinity -5.7343154
REMARK minimizedRMSD -1
REMARK  1 active torsions:
REMARK  status: ('A' for Active; 'I' for Inactive)
REMARK    1  A    between atoms: C1_2  and  C2_3 
ROOT
ATOM      1  C2  UNL d   1       0.745  -1.251   1.168  0.00  0.00    -0.073 A 
ATOM      2  C3  UNL d   1      -0.480  -0.574   1.210  0.00  0.00    -0.002 A 
ATOM      3  C4  UNL d   1      -0.663   0.597   0.474  0.00  0.00     0.004 A 
ATOM      4  C5  UNL d   1       0.371   1.100  -0.316  0.00  0.00    -0.004 A 
ATOM      5  C6  UNL d   1       1.598   0.432  -0.380  0.00  0.00    -0.075 A 
ATOM      6  C7  UNL d   1       2.721   0.960  -1.222  0.00  0.00     0.076 C 
ATOM      7  C8  UNL d   1       1.776  -0.743   0.364  0.00  0.00     0.001 A 
ENDROOT
BRANCH   1   8
ATOM      8  C1  UNL d   1       0.946  -2.519   1.956  0.00  0.00     0.053 C 
ATOM      9  C   UNL d   1       0.342  -2.427   3.348  0.00  0.00     0.018 C 
ENDBRANCH   1   8
TORSDOF 1
ENDMDL
