MODEL 1
REMARK minimizedAffinity 9.69350719
REMARK minimizedRMSD -1
REMARK  1 active torsions:
REMARK  status: ('A' for Active; 'I' for Inactive)
REMARK    1  A    between atoms: C1_2  and  C2_3 
ROOT
ATOM      1  C2  UNL d   1      -0.847   0.805   2.073  0.00  0.00    -0.081 A 
ATOM      2  C3  UNL d   1      -1.680   1.808   1.564  0.00  0.00     0.006 A 
ATOM      3  C4  UNL d   1      -3.036   1.556   1.340  0.00  0.00     0.002 A 
ATOM      4  C5  UNL d   1      -3.582   0.301   1.628  0.00  0.00    -0.080 A 
ATOM      5  C6  UNL d   1      -5.042   0.027   1.421  0.00  0.00     0.076 C 
ATOM      6  C7  UNL d   1      -2.745  -0.706   2.121  0.00  0.00     0.002 A 
ATOM      7  C8  UNL d   1      -1.390  -0.455   2.344  0.00  0.00     0.006 A 
ENDROOT
BRANCH   1   8
ATOM      8  C1  UNL d   1       0.602   1.093   2.377  0.00  0.00     0.054 C 
ATOM      9  C   UNL d   1       1.179   2.111   1.404  0.00  0.00     0.018 C 
ENDBRANCH   1   8
TORSDOF 1
ENDMDL
