MODEL 1
REMARK minimizedAffinity 11.514699
REMARK minimizedRMSD -1
REMARK  1 active torsions:
REMARK  status: ('A' for Active; 'I' for Inactive)
REMARK    1  A    between atoms: C1_2  and  C2_3 
ROOT
ATOM      1  C2  UNL d   1       1.856  -3.314  -1.517  0.00  0.00    -0.081 A 
ATOM      2  C3  UNL d   1       2.552  -4.528  -1.488  0.00  0.00     0.006 A 
ATOM      3  C4  UNL d   1       2.493  -5.405  -2.575  0.00  0.00     0.002 A 
ATOM      4  C5  UNL d   1       1.744  -5.078  -3.710  0.00  0.00    -0.080 A 
ATOM      5  C6  UNL d   1       1.697  -5.996  -4.895  0.00  0.00     0.076 C 
ATOM      6  C7  UNL d   1       1.034  -3.873  -3.732  0.00  0.00     0.002 A 
ATOM      7  C8  UNL d   1       1.092  -2.997  -2.646  0.00  0.00     0.006 A 
ENDROOT
BRANCH   1   8
ATOM      8  C1  UNL d   1       1.969  -2.338  -0.374  0.00  0.00     0.054 C 
ATOM      9  C   UNL d   1       3.312  -2.466   0.332  0.00  0.00     0.018 C 
ENDBRANCH   1   8
TORSDOF 1
ENDMDL
