MODEL 1
REMARK minimizedAffinity 12.1365061
REMARK minimizedRMSD -1
REMARK  1 active torsions:
REMARK  status: ('A' for Active; 'I' for Inactive)
REMARK    1  A    between atoms: C1_2  and  C2_3 
ROOT
ATOM      1  C2  UNL d   1      -2.626  -5.860   1.599  0.00  0.00    -0.081 A 
ATOM      2  C3  UNL d   1      -3.914  -5.999   2.131  0.00  0.00     0.006 A 
ATOM      3  C4  UNL d   1      -4.140  -5.811   3.496  0.00  0.00     0.002 A 
ATOM      4  C5  UNL d   1      -3.085  -5.474   4.351  0.00  0.00    -0.080 A 
ATOM      5  C6  UNL d   1      -3.319  -5.239   5.814  0.00  0.00     0.076 C 
ATOM      6  C7  UNL d   1      -1.795  -5.352   3.822  0.00  0.00     0.002 A 
ATOM      7  C8  UNL d   1      -1.568  -5.541   2.457  0.00  0.00     0.006 A 
ENDROOT
BRANCH   1   8
ATOM      8  C1  UNL d   1      -2.390  -5.999   0.117  0.00  0.00     0.054 C 
ATOM      9  C   UNL d   1      -1.973  -4.673  -0.504  0.00  0.00     0.018 C 
ENDBRANCH   1   8
TORSDOF 1
ENDMDL
