MODEL 1
REMARK minimizedAffinity 8.29335499
REMARK minimizedRMSD -1
REMARK  1 active torsions:
REMARK  status: ('A' for Active; 'I' for Inactive)
REMARK    1  A    between atoms: C1_2  and  C2_3 
ROOT
ATOM      1  C2  UNL d   1      -0.832   4.611  -5.090  0.00  0.00    -0.081 A 
ATOM      2  C3  UNL d   1       0.496   5.031  -5.225  0.00  0.00     0.006 A 
ATOM      3  C4  UNL d   1       1.498   4.482  -4.421  0.00  0.00     0.002 A 
ATOM      4  C5  UNL d   1       1.190   3.500  -3.474  0.00  0.00    -0.080 A 
ATOM      5  C6  UNL d   1       2.260   2.881  -2.626  0.00  0.00     0.076 C 
ATOM      6  C7  UNL d   1      -0.140   3.092  -3.327  0.00  0.00     0.002 A 
ATOM      7  C8  UNL d   1      -1.143   3.641  -4.130  0.00  0.00     0.006 A 
ENDROOT
BRANCH   1   8
ATOM      8  C1  UNL d   1      -1.904   5.154  -6.000  0.00  0.00     0.054 C 
ATOM      9  C   UNL d   1      -2.913   5.992  -5.228  0.00  0.00     0.018 C 
ENDBRANCH   1   8
TORSDOF 1
ENDMDL
