MODEL 1
REMARK minimizedAffinity 5.16305828
REMARK minimizedRMSD -1
REMARK  1 active torsions:
REMARK  status: ('A' for Active; 'I' for Inactive)
REMARK    1  A    between atoms: C1_2  and  C2_3 
ROOT
ATOM      1  C2  UNL d   1      -1.766  -1.200   2.018  0.00  0.00    -0.081 A 
ATOM      2  C3  UNL d   1      -2.774  -0.229   2.055  0.00  0.00     0.006 A 
ATOM      3  C4  UNL d   1      -3.945  -0.451   2.784  0.00  0.00     0.002 A 
ATOM      4  C5  UNL d   1      -4.124  -1.644   3.492  0.00  0.00    -0.080 A 
ATOM      5  C6  UNL d   1      -5.363  -1.883   4.303  0.00  0.00     0.076 C 
ATOM      6  C7  UNL d   1      -3.125  -2.622   3.440  0.00  0.00     0.002 A 
ATOM      7  C8  UNL d   1      -1.954  -2.400   2.712  0.00  0.00     0.006 A 
ENDROOT
BRANCH   1   8
ATOM      8  C1  UNL d   1      -0.475  -0.937   1.286  0.00  0.00     0.054 C 
ATOM      9  C   UNL d   1      -0.048   0.518   1.423  0.00  0.00     0.018 C 
ENDBRANCH   1   8
TORSDOF 1
ENDMDL
