MODEL 1
REMARK minimizedAffinity 9.3728199
REMARK minimizedRMSD -1
REMARK  1 active torsions:
REMARK  status: ('A' for Active; 'I' for Inactive)
REMARK    1  A    between atoms: C1_2  and  C2_3 
ROOT
ATOM      1  C2  UNL d   1       4.096   4.359  -5.682  0.00  0.00    -0.081 A 
ATOM      2  C3  UNL d   1       3.151   3.342  -5.499  0.00  0.00     0.006 A 
ATOM      3  C4  UNL d   1       3.534   2.000  -5.558  0.00  0.00     0.002 A 
ATOM      4  C5  UNL d   1       4.868   1.653  -5.794  0.00  0.00    -0.080 A 
ATOM      5  C6  UNL d   1       5.298   0.216  -5.830  0.00  0.00     0.076 C 
ATOM      6  C7  UNL d   1       5.810   2.668  -5.995  0.00  0.00     0.002 A 
ATOM      7  C8  UNL d   1       5.427   4.010  -5.936  0.00  0.00     0.006 A 
ENDROOT
BRANCH   1   8
ATOM      8  C1  UNL d   1       3.699   5.807  -5.554  0.00  0.00     0.054 C 
ATOM      9  C   UNL d   1       2.209   5.996  -5.802  0.00  0.00     0.018 C 
ENDBRANCH   1   8
TORSDOF 1
ENDMDL
