MODEL 1
REMARK minimizedAffinity 2.19195628
REMARK minimizedRMSD -1
REMARK  1 active torsions:
REMARK  status: ('A' for Active; 'I' for Inactive)
REMARK    1  A    between atoms: C1_2  and  C2_3 
ROOT
ATOM      1  C2  UNL d   1      -2.269   4.153  -4.232  0.00  0.00    -0.081 A 
ATOM      2  C3  UNL d   1      -3.180   4.636  -3.285  0.00  0.00     0.006 A 
ATOM      3  C4  UNL d   1      -4.369   5.245  -3.693  0.00  0.00     0.002 A 
ATOM      4  C5  UNL d   1      -4.670   5.374  -5.053  0.00  0.00    -0.080 A 
ATOM      5  C6  UNL d   1      -5.957   5.998  -5.504  0.00  0.00     0.076 C 
ATOM      6  C7  UNL d   1      -3.752   4.906  -6.000  0.00  0.00     0.002 A 
ATOM      7  C8  UNL d   1      -2.563   4.298  -5.593  0.00  0.00     0.006 A 
ENDROOT
BRANCH   1   8
ATOM      8  C1  UNL d   1      -1.016   3.438  -3.795  0.00  0.00     0.054 C 
ATOM      9  C   UNL d   1      -0.373   4.127  -2.600  0.00  0.00     0.018 C 
ENDBRANCH   1   8
TORSDOF 1
ENDMDL
