MODEL 1
REMARK minimizedAffinity 3.07454109
REMARK minimizedRMSD -1
REMARK  1 active torsions:
REMARK  status: ('A' for Active; 'I' for Inactive)
REMARK    1  A    between atoms: C1_2  and  C2_3 
ROOT
ATOM      1  C2  UNL d   1      -2.206  -3.067  -0.280  0.00  0.00    -0.081 A 
ATOM      2  C3  UNL d   1      -1.538  -2.069  -1.001  0.00  0.00     0.006 A 
ATOM      3  C4  UNL d   1      -0.799  -1.089  -0.334  0.00  0.00     0.002 A 
ATOM      4  C5  UNL d   1      -0.708  -1.095   1.062  0.00  0.00    -0.080 A 
ATOM      5  C6  UNL d   1       0.107  -0.067   1.788  0.00  0.00     0.076 C 
ATOM      6  C7  UNL d   1      -1.390  -2.082   1.783  0.00  0.00     0.002 A 
ATOM      7  C8  UNL d   1      -2.130  -3.061   1.117  0.00  0.00     0.006 A 
ENDROOT
BRANCH   1   8
ATOM      8  C1  UNL d   1      -2.952  -4.162  -0.999  0.00  0.00     0.054 C 
ATOM      9  C   UNL d   1      -2.337  -4.447  -2.362  0.00  0.00     0.018 C 
ENDBRANCH   1   8
TORSDOF 1
ENDMDL
