MODEL 1
REMARK minimizedAffinity 13.4934454
REMARK minimizedRMSD -1
REMARK  1 active torsions:
REMARK  status: ('A' for Active; 'I' for Inactive)
REMARK    1  A    between atoms: C1_2  and  C2_3 
ROOT
ATOM      1  C2  UNL d   1       4.127   4.021   4.397  0.00  0.00    -0.081 A 
ATOM      2  C3  UNL d   1       4.489   4.507   3.135  0.00  0.00     0.006 A 
ATOM      3  C4  UNL d   1       3.786   4.109   1.995  0.00  0.00     0.002 A 
ATOM      4  C5  UNL d   1       2.707   3.225   2.098  0.00  0.00    -0.080 A 
ATOM      5  C6  UNL d   1       1.925   2.814   0.886  0.00  0.00     0.076 C 
ATOM      6  C7  UNL d   1       2.356   2.726   3.357  0.00  0.00     0.002 A 
ATOM      7  C8  UNL d   1       3.059   3.123   4.497  0.00  0.00     0.006 A 
ENDROOT
BRANCH   1   8
ATOM      8  C1  UNL d   1       4.841   4.498   5.636  0.00  0.00     0.054 C 
ATOM      9  C   UNL d   1       4.432   5.919   5.997  0.00  0.00     0.018 C 
ENDBRANCH   1   8
TORSDOF 1
ENDMDL
