MODEL 1
REMARK minimizedAffinity 4.53289843
REMARK minimizedRMSD -1
REMARK  1 active torsions:
REMARK  status: ('A' for Active; 'I' for Inactive)
REMARK    1  A    between atoms: C1_2  and  C2_3 
ROOT
ATOM      1  C2  UNL d   1       2.523   4.795  -2.016  0.00  0.00    -0.081 A 
ATOM      2  C3  UNL d   1       3.098   3.592  -1.588  0.00  0.00     0.006 A 
ATOM      3  C4  UNL d   1       4.107   3.593  -0.622  0.00  0.00     0.002 A 
ATOM      4  C5  UNL d   1       4.551   4.795  -0.061  0.00  0.00    -0.080 A 
ATOM      5  C6  UNL d   1       5.611   4.808   1.000  0.00  0.00     0.076 C 
ATOM      6  C7  UNL d   1       3.988   5.999  -0.500  0.00  0.00     0.002 A 
ATOM      7  C8  UNL d   1       2.981   5.998  -1.467  0.00  0.00     0.006 A 
ENDROOT
BRANCH   1   8
ATOM      8  C1  UNL d   1       1.391   4.792  -3.011  0.00  0.00     0.054 C 
ATOM      9  C   UNL d   1       1.604   3.739  -4.089  0.00  0.00     0.018 C 
ENDBRANCH   1   8
TORSDOF 1
ENDMDL
