MODEL 1
REMARK minimizedAffinity 2.29328513
REMARK minimizedRMSD -1
REMARK  1 active torsions:
REMARK  status: ('A' for Active; 'I' for Inactive)
REMARK    1  A    between atoms: C1_2  and  C2_3 
ROOT
ATOM      1  C2  UNL d   1       2.602   3.287  -4.797  0.00  0.00    -0.081 A 
ATOM      2  C3  UNL d   1       3.889   3.033  -4.307  0.00  0.00     0.006 A 
ATOM      3  C4  UNL d   1       4.957   3.863  -4.657  0.00  0.00     0.002 A 
ATOM      4  C5  UNL d   1       4.754   4.965  -5.495  0.00  0.00    -0.080 A 
ATOM      5  C6  UNL d   1       5.885   5.882  -5.854  0.00  0.00     0.076 C 
ATOM      6  C7  UNL d   1       3.472   5.208  -5.999  0.00  0.00     0.002 A 
ATOM      7  C8  UNL d   1       2.404   4.378  -5.650  0.00  0.00     0.006 A 
ENDROOT
BRANCH   1   8
ATOM      8  C1  UNL d   1       1.437   2.431  -4.370  0.00  0.00     0.054 C 
ATOM      9  C   UNL d   1       0.241   3.284  -3.973  0.00  0.00     0.018 C 
ENDBRANCH   1   8
TORSDOF 1
ENDMDL
