MODEL 1
REMARK minimizedAffinity 9.95912743
REMARK minimizedRMSD -1
REMARK  1 active torsions:
REMARK  status: ('A' for Active; 'I' for Inactive)
REMARK    1  A    between atoms: C1_2  and  C2_3 
ROOT
ATOM      1  C2  UNL d   1      -4.514  -0.061   2.977  0.00  0.00    -0.081 A 
ATOM      2  C3  UNL d   1      -5.275   0.685   2.068  0.00  0.00     0.006 A 
ATOM      3  C4  UNL d   1      -4.656   1.364   1.016  0.00  0.00     0.002 A 
ATOM      4  C5  UNL d   1      -3.268   1.301   0.850  0.00  0.00    -0.080 A 
ATOM      5  C6  UNL d   1      -2.594   2.000  -0.293  0.00  0.00     0.076 C 
ATOM      6  C7  UNL d   1      -2.506   0.569   1.767  0.00  0.00     0.002 A 
ATOM      7  C8  UNL d   1      -3.125  -0.109   2.820  0.00  0.00     0.006 A 
ENDROOT
BRANCH   1   8
ATOM      8  C1  UNL d   1      -5.185  -0.847   4.074  0.00  0.00     0.054 C 
ATOM      9  C   UNL d   1      -4.406  -2.111   4.406  0.00  0.00     0.018 C 
ENDBRANCH   1   8
TORSDOF 1
ENDMDL
