MODEL 1
REMARK minimizedAffinity 12.6216516
REMARK minimizedRMSD -1
REMARK  1 active torsions:
REMARK  status: ('A' for Active; 'I' for Inactive)
REMARK    1  A    between atoms: C1_2  and  C2_3 
ROOT
ATOM      1  C2  UNL d   1      -0.048   1.433   0.578  0.00  0.00    -0.081 A 
ATOM      2  C3  UNL d   1      -0.869   2.168  -0.286  0.00  0.00     0.006 A 
ATOM      3  C4  UNL d   1      -2.258   2.135  -0.141  0.00  0.00     0.002 A 
ATOM      4  C5  UNL d   1      -2.848   1.373   0.874  0.00  0.00    -0.080 A 
ATOM      5  C6  UNL d   1      -4.336   1.353   1.059  0.00  0.00     0.076 C 
ATOM      6  C7  UNL d   1      -2.028   0.625   1.725  0.00  0.00     0.002 A 
ATOM      7  C8  UNL d   1      -0.639   0.658   1.581  0.00  0.00     0.006 A 
ENDROOT
BRANCH   1   8
ATOM      8  C1  UNL d   1       1.453   1.518   0.465  0.00  0.00     0.054 C 
ATOM      9  C   UNL d   1       1.874   2.614  -0.504  0.00  0.00     0.018 C 
ENDBRANCH   1   8
TORSDOF 1
ENDMDL
