MODEL 1
REMARK minimizedAffinity 4.88718319
REMARK minimizedRMSD -1
REMARK  1 active torsions:
REMARK  status: ('A' for Active; 'I' for Inactive)
REMARK    1  A    between atoms: C1_2  and  C2_3 
ROOT
ATOM      1  C2  UNL d   1      -1.897   2.706   1.347  0.00  0.00    -0.081 A 
ATOM      2  C3  UNL d   1      -0.820   3.336   0.711  0.00  0.00     0.006 A 
ATOM      3  C4  UNL d   1       0.456   3.302   1.278  0.00  0.00     0.002 A 
ATOM      4  C5  UNL d   1       0.678   2.631   2.486  0.00  0.00    -0.080 A 
ATOM      5  C6  UNL d   1       2.049   2.561   3.090  0.00  0.00     0.076 C 
ATOM      6  C7  UNL d   1      -0.401   2.017   3.130  0.00  0.00     0.002 A 
ATOM      7  C8  UNL d   1      -1.677   2.051   2.564  0.00  0.00     0.006 A 
ENDROOT
BRANCH   1   8
ATOM      8  C1  UNL d   1      -3.260   2.686   0.705  0.00  0.00     0.054 C 
ATOM      9  C   UNL d   1      -3.928   1.328   0.867  0.00  0.00     0.018 C 
ENDBRANCH   1   8
TORSDOF 1
ENDMDL
