MODEL 1
REMARK minimizedAffinity 7.01257038
REMARK minimizedRMSD -1
REMARK  1 active torsions:
REMARK  status: ('A' for Active; 'I' for Inactive)
REMARK    1  A    between atoms: C1_2  and  C2_3 
ROOT
ATOM      1  C2  UNL d   1      -1.933  -0.732   2.423  0.00  0.00    -0.081 A 
ATOM      2  C3  UNL d   1      -2.799   0.306   2.788  0.00  0.00     0.006 A 
ATOM      3  C4  UNL d   1      -3.965   0.036   3.509  0.00  0.00     0.002 A 
ATOM      4  C5  UNL d   1      -4.279  -1.275   3.884  0.00  0.00    -0.080 A 
ATOM      5  C6  UNL d   1      -5.512  -1.576   4.684  0.00  0.00     0.076 C 
ATOM      6  C7  UNL d   1      -3.423  -2.314   3.504  0.00  0.00     0.002 A 
ATOM      7  C8  UNL d   1      -2.258  -2.044   2.782  0.00  0.00     0.006 A 
ENDROOT
BRANCH   1   8
ATOM      8  C1  UNL d   1      -0.643  -0.435   1.702  0.00  0.00     0.054 C 
ATOM      9  C   UNL d   1      -0.396   1.063   1.603  0.00  0.00     0.018 C 
ENDBRANCH   1   8
TORSDOF 1
ENDMDL
