MODEL 1
REMARK minimizedAffinity 1.74586332
REMARK minimizedRMSD -1
REMARK  0 active torsions:
REMARK  status: ('A' for Active; 'I' for Inactive)
ROOT
ATOM      1  C   UNL d   1       4.469   0.788  -3.808  0.00  0.00    -0.002 A 
ATOM      2  C1  UNL d   1       4.115   0.842  -5.149  0.00  0.00     0.010 A 
ATOM      3  C2  UNL d   1       4.354   1.994  -5.901  0.00  0.00     0.041 A 
ATOM      4  C3  UNL d   1       4.963   3.101  -5.277  0.00  0.00    -0.075 A 
ATOM      5  S   UNL d   1       5.353   4.617  -6.000  0.00  0.00     0.015 SA
ATOM      6  C4  UNL d   1       5.999   5.228  -4.546  0.00  0.00     0.022 A 
ATOM      7  C5  UNL d   1       5.926   4.312  -3.523  0.00  0.00     0.026 A 
ATOM      8  C6  UNL d   1       5.328   3.070  -3.928  0.00  0.00    -0.082 A 
ATOM      9  C7  UNL d   1       5.072   1.888  -3.193  0.00  0.00     0.045 A 
ENDROOT
TORSDOF 0
ENDMDL
