MODEL 1
REMARK minimizedAffinity 10.6300192
REMARK minimizedRMSD -1
REMARK  0 active torsions:
REMARK  status: ('A' for Active; 'I' for Inactive)
ROOT
ATOM      1  C   UNL d   1       5.991   0.637  -5.206  0.00  0.00    -0.002 A 
ATOM      2  C1  UNL d   1       5.902   0.692  -3.822  0.00  0.00     0.010 A 
ATOM      3  C2  UNL d   1       4.812   1.309  -3.204  0.00  0.00     0.041 A 
ATOM      4  C3  UNL d   1       3.802   1.873  -4.008  0.00  0.00    -0.075 A 
ATOM      5  S   UNL d   1       2.374   2.678  -3.473  0.00  0.00     0.015 SA
ATOM      6  C4  UNL d   1       1.849   2.966  -5.068  0.00  0.00     0.022 A 
ATOM      7  C5  UNL d   1       2.729   2.468  -5.999  0.00  0.00     0.026 A 
ATOM      8  C6  UNL d   1       3.869   1.829  -5.404  0.00  0.00    -0.082 A 
ATOM      9  C7  UNL d   1       4.987   1.198  -6.000  0.00  0.00     0.045 A 
ENDROOT
TORSDOF 0
ENDMDL
