MODEL 1
REMARK minimizedAffinity 11.0515423
REMARK minimizedRMSD -1
REMARK  0 active torsions:
REMARK  status: ('A' for Active; 'I' for Inactive)
ROOT
ATOM      1  C   UNL d   1      -0.762  -1.696   0.340  0.00  0.00    -0.002 A 
ATOM      2  C1  UNL d   1      -0.001  -2.853   0.426  0.00  0.00     0.010 A 
ATOM      3  C2  UNL d   1      -0.023  -3.797  -0.603  0.00  0.00     0.041 A 
ATOM      4  C3  UNL d   1      -0.829  -3.555  -1.732  0.00  0.00    -0.075 A 
ATOM      5  S   UNL d   1      -1.014  -4.568  -3.115  0.00  0.00     0.015 SA
ATOM      6  C4  UNL d   1      -2.107  -3.489  -3.853  0.00  0.00     0.022 A 
ATOM      7  C5  UNL d   1      -2.337  -2.377  -3.078  0.00  0.00     0.026 A 
ATOM      8  C6  UNL d   1      -1.604  -2.397  -1.843  0.00  0.00    -0.082 A 
ATOM      9  C7  UNL d   1      -1.561  -1.460  -0.782  0.00  0.00     0.045 A 
ENDROOT
TORSDOF 0
ENDMDL
