MODEL 1
REMARK minimizedAffinity 18.0269794
REMARK minimizedRMSD -1
REMARK  0 active torsions:
REMARK  status: ('A' for Active; 'I' for Inactive)
ROOT
ATOM      1  C   UNL d   1       4.589  -0.362   2.225  0.00  0.00    -0.002 A 
ATOM      2  C1  UNL d   1       3.854   0.142   1.162  0.00  0.00     0.010 A 
ATOM      3  C2  UNL d   1       2.492   0.415   1.307  0.00  0.00     0.041 A 
ATOM      4  C3  UNL d   1       1.877   0.173   2.551  0.00  0.00    -0.075 A 
ATOM      5  S   UNL d   1       0.222   0.434   2.960  0.00  0.00     0.015 SA
ATOM      6  C4  UNL d   1       0.454  -0.116   4.557  0.00  0.00     0.022 A 
ATOM      7  C5  UNL d   1       1.755  -0.494   4.789  0.00  0.00     0.026 A 
ATOM      8  C6  UNL d   1       2.597  -0.333   3.637  0.00  0.00    -0.082 A 
ATOM      9  C7  UNL d   1       3.975  -0.601   3.458  0.00  0.00     0.045 A 
ENDROOT
TORSDOF 0
ENDMDL
