MODEL 1
REMARK minimizedAffinity 10.8752089
REMARK minimizedRMSD -1
REMARK  0 active torsions:
REMARK  status: ('A' for Active; 'I' for Inactive)
ROOT
ATOM      1  C   UNL d   1       0.726  -3.197  -0.016  0.00  0.00    -0.002 A 
ATOM      2  C1  UNL d   1       0.679  -4.546   0.309  0.00  0.00     0.010 A 
ATOM      3  C2  UNL d   1      -0.007  -4.979   1.446  0.00  0.00     0.041 A 
ATOM      4  C3  UNL d   1      -0.652  -4.025   2.257  0.00  0.00    -0.075 A 
ATOM      5  S   UNL d   1      -1.553  -4.323   3.697  0.00  0.00     0.015 SA
ATOM      6  C4  UNL d   1      -1.897  -2.668   3.913  0.00  0.00     0.022 A 
ATOM      7  C5  UNL d   1      -1.346  -1.892   2.921  0.00  0.00     0.026 A 
ATOM      8  C6  UNL d   1      -0.620  -2.661   1.950  0.00  0.00    -0.082 A 
ATOM      9  C7  UNL d   1       0.084  -2.254   0.791  0.00  0.00     0.045 A 
ENDROOT
TORSDOF 0
ENDMDL
