MODEL 1
REMARK minimizedAffinity 15.6293793
REMARK minimizedRMSD -1
REMARK  0 active torsions:
REMARK  status: ('A' for Active; 'I' for Inactive)
ROOT
ATOM      1  C   UNL d   1      -2.002  -1.933   3.588  0.00  0.00    -0.002 A 
ATOM      2  C1  UNL d   1      -1.840  -3.272   3.913  0.00  0.00     0.010 A 
ATOM      3  C2  UNL d   1      -1.159  -4.135   3.052  0.00  0.00     0.041 A 
ATOM      4  C3  UNL d   1      -0.637  -3.624   1.848  0.00  0.00    -0.075 A 
ATOM      5  S   UNL d   1       0.234  -4.494   0.641  0.00  0.00     0.015 SA
ATOM      6  C4  UNL d   1       0.412  -3.108  -0.335  0.00  0.00     0.022 A 
ATOM      7  C5  UNL d   1      -0.173  -2.000   0.230  0.00  0.00     0.026 A 
ATOM      8  C6  UNL d   1      -0.786  -2.279   1.498  0.00  0.00    -0.082 A 
ATOM      9  C7  UNL d   1      -1.483  -1.429   2.392  0.00  0.00     0.045 A 
ENDROOT
TORSDOF 0
ENDMDL
