MODEL 1
REMARK minimizedAffinity 15.5580063
REMARK minimizedRMSD -1
REMARK  0 active torsions:
REMARK  status: ('A' for Active; 'I' for Inactive)
ROOT
ATOM      1  C   UNL d   1      -0.006  -5.105  -0.730  0.00  0.00    -0.002 A 
ATOM      2  C1  UNL d   1       0.220  -4.024   0.110  0.00  0.00     0.010 A 
ATOM      3  C2  UNL d   1      -0.431  -2.808  -0.107  0.00  0.00     0.041 A 
ATOM      4  C3  UNL d   1      -1.323  -2.696  -1.192  0.00  0.00    -0.075 A 
ATOM      5  S   UNL d   1      -2.233  -1.305  -1.651  0.00  0.00     0.015 SA
ATOM      6  C4  UNL d   1      -2.943  -2.114  -2.972  0.00  0.00     0.022 A 
ATOM      7  C5  UNL d   1      -2.508  -3.414  -3.076  0.00  0.00     0.026 A 
ATOM      8  C6  UNL d   1      -1.567  -3.771  -2.051  0.00  0.00    -0.082 A 
ATOM      9  C7  UNL d   1      -0.891  -4.990  -1.805  0.00  0.00     0.045 A 
ENDROOT
TORSDOF 0
ENDMDL
