MODEL 1
REMARK minimizedAffinity 14.5278282
REMARK minimizedRMSD -1
REMARK  0 active torsions:
REMARK  status: ('A' for Active; 'I' for Inactive)
ROOT
ATOM      1  C   UNL d   1       0.430  -4.818  -0.217  0.00  0.00    -0.002 A 
ATOM      2  C1  UNL d   1       0.259  -3.689   0.570  0.00  0.00     0.010 A 
ATOM      3  C2  UNL d   1      -0.517  -2.619   0.120  0.00  0.00     0.041 A 
ATOM      4  C3  UNL d   1      -1.126  -2.706  -1.148  0.00  0.00    -0.075 A 
ATOM      5  S   UNL d   1      -2.121  -1.519  -1.906  0.00  0.00     0.015 SA
ATOM      6  C4  UNL d   1      -2.344  -2.485  -3.292  0.00  0.00     0.022 A 
ATOM      7  C5  UNL d   1      -1.683  -3.686  -3.197  0.00  0.00     0.026 A 
ATOM      8  C6  UNL d   1      -0.970  -3.833  -1.959  0.00  0.00    -0.082 A 
ATOM      9  C7  UNL d   1      -0.176  -4.901  -1.474  0.00  0.00     0.045 A 
ENDROOT
TORSDOF 0
ENDMDL
