MODEL 1
REMARK minimizedAffinity 12.0530443
REMARK minimizedRMSD -1
REMARK  0 active torsions:
REMARK  status: ('A' for Active; 'I' for Inactive)
ROOT
ATOM      1  C   UNL d   1      -1.501  -3.176  -1.392  0.00  0.00    -0.002 A 
ATOM      2  C1  UNL d   1      -1.875  -1.872  -1.683  0.00  0.00     0.010 A 
ATOM      3  C2  UNL d   1      -2.261  -1.515  -2.976  0.00  0.00     0.041 A 
ATOM      4  C3  UNL d   1      -2.266  -2.502  -3.982  0.00  0.00    -0.075 A 
ATOM      5  S   UNL d   1      -2.702  -2.297  -5.637  0.00  0.00     0.015 SA
ATOM      6  C4  UNL d   1      -2.403  -3.935  -5.997  0.00  0.00     0.022 A 
ATOM      7  C5  UNL d   1      -1.980  -4.637  -4.893  0.00  0.00     0.026 A 
ATOM      8  C6  UNL d   1      -1.894  -3.822  -3.713  0.00  0.00    -0.082 A 
ATOM      9  C7  UNL d   1      -1.508  -4.152  -2.392  0.00  0.00     0.045 A 
ENDROOT
TORSDOF 0
ENDMDL
