MODEL 1
REMARK minimizedAffinity 11.0775023
REMARK minimizedRMSD -1
REMARK  0 active torsions:
REMARK  status: ('A' for Active; 'I' for Inactive)
ROOT
ATOM      1  C   UNL d   1      -1.609  -3.775  -6.000  0.00  0.00    -0.002 A 
ATOM      2  C1  UNL d   1      -2.988  -3.760  -5.846  0.00  0.00     0.010 A 
ATOM      3  C2  UNL d   1      -3.564  -3.348  -4.643  0.00  0.00     0.041 A 
ATOM      4  C3  UNL d   1      -2.723  -2.944  -3.587  0.00  0.00    -0.075 A 
ATOM      5  S   UNL d   1      -3.205  -2.398  -2.024  0.00  0.00     0.015 SA
ATOM      6  C4  UNL d   1      -1.591  -2.171  -1.524  0.00  0.00     0.022 A 
ATOM      7  C5  UNL d   1      -0.694  -2.498  -2.513  0.00  0.00     0.026 A 
ATOM      8  C6  UNL d   1      -1.331  -2.948  -3.719  0.00  0.00    -0.082 A 
ATOM      9  C7  UNL d   1      -0.778  -3.373  -4.950  0.00  0.00     0.045 A 
ENDROOT
TORSDOF 0
ENDMDL
