MODEL 1
REMARK minimizedAffinity 8.7334013
REMARK minimizedRMSD -1
REMARK  0 active torsions:
REMARK  status: ('A' for Active; 'I' for Inactive)
ROOT
ATOM      1  C   UNL d   1      -1.093  -2.568  -1.568  0.00  0.00    -0.002 A 
ATOM      2  C1  UNL d   1      -1.403  -1.322  -2.094  0.00  0.00     0.010 A 
ATOM      3  C2  UNL d   1      -1.738  -1.184  -3.442  0.00  0.00     0.041 A 
ATOM      4  C3  UNL d   1      -1.758  -2.330  -4.260  0.00  0.00    -0.075 A 
ATOM      5  S   UNL d   1      -2.140  -2.402  -5.940  0.00  0.00     0.015 SA
ATOM      6  C4  UNL d   1      -1.900  -4.088  -5.999  0.00  0.00     0.022 A 
ATOM      7  C5  UNL d   1      -1.538  -4.601  -4.776  0.00  0.00     0.026 A 
ATOM      8  C6  UNL d   1      -1.450  -3.596  -3.754  0.00  0.00    -0.082 A 
ATOM      9  C7  UNL d   1      -1.113  -3.703  -2.383  0.00  0.00     0.045 A 
ENDROOT
TORSDOF 0
ENDMDL
