MODEL 1
REMARK minimizedAffinity -1.07341564
REMARK minimizedRMSD -1
REMARK  0 active torsions:
REMARK  status: ('A' for Active; 'I' for Inactive)
ROOT
ATOM      1  C   UNL d   1      -4.435   0.007  -0.743  0.00  0.00     0.077 C 
ATOM      2  C1  UNL d   1      -3.348   0.628   0.082  0.00  0.00    -0.074 A 
ATOM      3  C2  UNL d   1      -3.654   1.445   1.175  0.00  0.00    -0.005 A 
ATOM      4  C3  UNL d   1      -2.632   2.009   1.939  0.00  0.00     0.006 A 
ATOM      5  C4  UNL d   1      -1.297   1.762   1.618  0.00  0.00    -0.005 A 
ATOM      6  C5  UNL d   1      -0.972   0.948   0.529  0.00  0.00    -0.074 A 
ATOM      7  C6  UNL d   1       0.458   0.665   0.176  0.00  0.00     0.077 C 
ATOM      8  C7  UNL d   1      -2.004   0.379  -0.230  0.00  0.00    -0.001 A 
ENDROOT
TORSDOF 0
ENDMDL
