MODEL 1
REMARK minimizedAffinity -3.42148733
REMARK minimizedRMSD -1
REMARK  0 active torsions:
REMARK  status: ('A' for Active; 'I' for Inactive)
ROOT
ATOM      1  C   UNL d   1      -1.042  -2.391  -1.635  0.00  0.00     0.077 C 
ATOM      2  C1  UNL d   1      -0.157  -1.421  -0.910  0.00  0.00    -0.074 A 
ATOM      3  C2  UNL d   1      -0.643  -0.176  -0.496  0.00  0.00    -0.005 A 
ATOM      4  C3  UNL d   1       0.189   0.712   0.185  0.00  0.00     0.006 A 
ATOM      5  C4  UNL d   1       1.513   0.366   0.458  0.00  0.00    -0.005 A 
ATOM      6  C5  UNL d   1       2.016  -0.874   0.052  0.00  0.00    -0.074 A 
ATOM      7  C6  UNL d   1       3.434  -1.266   0.346  0.00  0.00     0.077 C 
ATOM      8  C7  UNL d   1       1.172  -1.764  -0.626  0.00  0.00    -0.001 A 
ENDROOT
TORSDOF 0
ENDMDL
