MODEL 1
REMARK minimizedAffinity -4.4897933
REMARK minimizedRMSD -1
REMARK  0 active torsions:
REMARK  status: ('A' for Active; 'I' for Inactive)
ROOT
ATOM      1  C   UNL d   1       3.229  -1.121   1.154  0.00  0.00     0.077 C 
ATOM      2  C1  UNL d   1       2.267  -0.048   0.740  0.00  0.00    -0.074 A 
ATOM      3  C2  UNL d   1       2.629   1.302   0.792  0.00  0.00    -0.005 A 
ATOM      4  C3  UNL d   1       1.726   2.288   0.394  0.00  0.00     0.006 A 
ATOM      5  C4  UNL d   1       0.455   1.935  -0.059  0.00  0.00    -0.005 A 
ATOM      6  C5  UNL d   1       0.075   0.591  -0.119  0.00  0.00    -0.074 A 
ATOM      7  C6  UNL d   1      -1.284   0.193  -0.613  0.00  0.00     0.077 C 
ATOM      8  C7  UNL d   1       0.990  -0.395   0.276  0.00  0.00    -0.001 A 
ENDROOT
TORSDOF 0
ENDMDL
