MODEL 1
REMARK minimizedAffinity -3.45734882
REMARK minimizedRMSD -1
REMARK  0 active torsions:
REMARK  status: ('A' for Active; 'I' for Inactive)
ROOT
ATOM      1  C   UNL d   1       0.363   2.479  -0.368  0.00  0.00     0.077 C 
ATOM      2  C1  UNL d   1       0.293   0.989  -0.206  0.00  0.00    -0.074 A 
ATOM      3  C2  UNL d   1      -0.885   0.291  -0.490  0.00  0.00    -0.005 A 
ATOM      4  C3  UNL d   1      -0.933  -1.096  -0.343  0.00  0.00     0.006 A 
ATOM      5  C4  UNL d   1       0.194  -1.796   0.089  0.00  0.00    -0.005 A 
ATOM      6  C5  UNL d   1       1.381  -1.114   0.377  0.00  0.00    -0.074 A 
ATOM      7  C6  UNL d   1       2.604  -1.852   0.833  0.00  0.00     0.077 C 
ATOM      8  C7  UNL d   1       1.423   0.278   0.220  0.00  0.00    -0.001 A 
ENDROOT
TORSDOF 0
ENDMDL
