MODEL 1
REMARK minimizedAffinity -3.32785201
REMARK minimizedRMSD -1
REMARK  0 active torsions:
REMARK  status: ('A' for Active; 'I' for Inactive)
ROOT
ATOM      1  C   UNL d   1       2.607  -1.779  -0.586  0.00  0.00     0.077 C 
ATOM      2  C1  UNL d   1       1.170  -1.604  -0.194  0.00  0.00    -0.074 A 
ATOM      3  C2  UNL d   1       0.452  -2.652   0.390  0.00  0.00    -0.005 A 
ATOM      4  C3  UNL d   1      -0.881  -2.471   0.758  0.00  0.00     0.006 A 
ATOM      5  C4  UNL d   1      -1.508  -1.243   0.547  0.00  0.00    -0.005 A 
ATOM      6  C5  UNL d   1      -0.806  -0.183  -0.035  0.00  0.00    -0.074 A 
ATOM      7  C6  UNL d   1      -1.462   1.147  -0.261  0.00  0.00     0.077 C 
ATOM      8  C7  UNL d   1       0.536  -0.370  -0.396  0.00  0.00    -0.001 A 
ENDROOT
TORSDOF 0
ENDMDL
