MODEL 1
REMARK minimizedAffinity -4.06762505
REMARK minimizedRMSD -1
REMARK  0 active torsions:
REMARK  status: ('A' for Active; 'I' for Inactive)
ROOT
ATOM      1  C   UNL d   1       4.015   0.409   0.133  0.00  0.00     0.077 C 
ATOM      2  C1  UNL d   1       2.657  -0.175  -0.119  0.00  0.00    -0.074 A 
ATOM      3  C2  UNL d   1       2.486  -1.554  -0.280  0.00  0.00    -0.005 A 
ATOM      4  C3  UNL d   1       1.216  -2.084  -0.504  0.00  0.00     0.006 A 
ATOM      5  C4  UNL d   1       0.105  -1.242  -0.570  0.00  0.00    -0.005 A 
ATOM      6  C5  UNL d   1       0.256   0.139  -0.411  0.00  0.00    -0.074 A 
ATOM      7  C6  UNL d   1      -0.929   1.057  -0.470  0.00  0.00     0.077 C 
ATOM      8  C7  UNL d   1       1.535   0.663  -0.179  0.00  0.00    -0.001 A 
ENDROOT
TORSDOF 0
ENDMDL
