MODEL 1
REMARK minimizedAffinity -4.26110411
REMARK minimizedRMSD -1
REMARK  0 active torsions:
REMARK  status: ('A' for Active; 'I' for Inactive)
ROOT
ATOM      1  C   UNL d   1      -0.786  -2.485  -2.174  0.00  0.00     0.077 C 
ATOM      2  C1  UNL d   1      -0.249  -1.535  -1.144  0.00  0.00    -0.074 A 
ATOM      3  C2  UNL d   1      -0.898  -0.327  -0.873  0.00  0.00    -0.005 A 
ATOM      4  C3  UNL d   1      -0.392   0.542   0.094  0.00  0.00     0.006 A 
ATOM      5  C4  UNL d   1       0.766   0.211   0.799  0.00  0.00    -0.005 A 
ATOM      6  C5  UNL d   1       1.429  -0.993   0.541  0.00  0.00    -0.074 A 
ATOM      7  C6  UNL d   1       2.669  -1.369   1.296  0.00  0.00     0.077 C 
ATOM      8  C7  UNL d   1       0.910  -1.864  -0.427  0.00  0.00    -0.001 A 
ENDROOT
TORSDOF 0
ENDMDL
