MODEL 1
REMARK minimizedAffinity -5.22537184
REMARK minimizedRMSD -1
REMARK  3 active torsions:
REMARK  status: ('A' for Active; 'I' for Inactive)
REMARK    1  A    between atoms: C3'_2  and  C2'_3 
REMARK    2  A    between atoms: C2'_3  and  C1'_4 
REMARK    3  A    between atoms: C1'_4  and  C1_5 
ROOT
ATOM      1  C1  N4B d   1       0.051  -0.402   0.600  0.00  0.00    -0.075 A 
ATOM      2  C2  N4B d   1      -0.082  -0.778   1.954  0.00  0.00     0.002 A 
ATOM      3  C3  N4B d   1       0.879  -1.561   2.547  0.00  0.00     0.002 A 
ATOM      4  C4  N4B d   1       1.967  -1.992   1.803  0.00  0.00    -0.004 A 
ATOM      5  C5  N4B d   1       2.101  -1.602   0.502  0.00  0.00     0.002 A 
ATOM      6  C6  N4B d   1       1.145  -0.813  -0.105  0.00  0.00     0.002 A 
ENDROOT
BRANCH   1   7
ATOM      7  C1' N4B d   1      -1.016   0.381  -0.115  0.00  0.00     0.057 C 
BRANCH   7   8
ATOM      8  C2' N4B d   1      -0.488   0.818  -1.478  0.00  0.00     0.009 C 
BRANCH   8   9
ATOM      9  C3' N4B d   1      -1.197   2.060  -1.991  0.00  0.00     0.004 C 
ATOM     10  C4' N4B d   1      -0.264   3.032  -2.649  0.00  0.00     0.003 C 
ENDBRANCH   8   9
ENDBRANCH   7   8
ENDBRANCH   1   7
TORSDOF 3
ENDMDL
