MODEL 1
REMARK minimizedAffinity -2.78897595
REMARK minimizedRMSD -1
REMARK  3 active torsions:
REMARK  status: ('A' for Active; 'I' for Inactive)
REMARK    1  A    between atoms: C3'_2  and  C2'_3 
REMARK    2  A    between atoms: C2'_3  and  C1'_4 
REMARK    3  A    between atoms: C1'_4  and  C1_5 
ROOT
ATOM      1  C1  N4B d   1      -0.694   2.288  -1.764  0.00  0.00    -0.075 A 
ATOM      2  C2  N4B d   1       0.053   3.086  -2.657  0.00  0.00     0.002 A 
ATOM      3  C3  N4B d   1      -0.549   3.618  -3.771  0.00  0.00     0.002 A 
ATOM      4  C4  N4B d   1      -1.886   3.351  -4.021  0.00  0.00    -0.004 A 
ATOM      5  C5  N4B d   1      -2.608   2.599  -3.140  0.00  0.00     0.002 A 
ATOM      6  C6  N4B d   1      -2.016   2.062  -2.015  0.00  0.00     0.002 A 
ENDROOT
BRANCH   1   7
ATOM      7  C1' N4B d   1      -0.058   1.614  -0.579  0.00  0.00     0.057 C 
BRANCH   7   8
ATOM      8  C2' N4B d   1      -0.745   0.273  -0.337  0.00  0.00     0.009 C 
BRANCH   8   9
ATOM      9  C3' N4B d   1      -1.095   0.070   1.127  0.00  0.00     0.004 C 
ATOM     10  C4' N4B d   1      -0.078  -0.754   1.859  0.00  0.00     0.003 C 
ENDBRANCH   8   9
ENDBRANCH   7   8
ENDBRANCH   1   7
TORSDOF 3
ENDMDL
