MODEL 1
REMARK minimizedAffinity -5.88557911
REMARK minimizedRMSD -1
REMARK  3 active torsions:
REMARK  status: ('A' for Active; 'I' for Inactive)
REMARK    1  A    between atoms: C3'_2  and  C2'_3 
REMARK    2  A    between atoms: C2'_3  and  C1'_4 
REMARK    3  A    between atoms: C1'_4  and  C1_5 
ROOT
ATOM      1  C1  N4B d   1       0.047  -0.017  -0.285  0.00  0.00    -0.075 A 
ATOM      2  C2  N4B d   1      -1.083   0.291   0.504  0.00  0.00     0.002 A 
ATOM      3  C3  N4B d   1      -1.097  -0.032   1.839  0.00  0.00     0.002 A 
ATOM      4  C4  N4B d   1      -0.005  -0.676   2.400  0.00  0.00    -0.004 A 
ATOM      5  C5  N4B d   1       1.093  -0.947   1.637  0.00  0.00     0.002 A 
ATOM      6  C6  N4B d   1       1.123  -0.625   0.295  0.00  0.00     0.002 A 
ENDROOT
BRANCH   1   7
ATOM      7  C1' N4B d   1       0.075   0.238  -1.767  0.00  0.00     0.057 C 
BRANCH   7   8
ATOM      8  C2' N4B d   1      -1.033   1.225  -2.126  0.00  0.00     0.009 C 
BRANCH   8   9
ATOM      9  C3' N4B d   1      -0.511   2.390  -2.949  0.00  0.00     0.004 C 
ATOM     10  C4' N4B d   1      -1.250   3.667  -2.681  0.00  0.00     0.003 C 
ENDBRANCH   8   9
ENDBRANCH   7   8
ENDBRANCH   1   7
TORSDOF 3
ENDMDL
