MODEL 1
REMARK minimizedAffinity 2.73199821
REMARK minimizedRMSD -1
REMARK  0 active torsions:
REMARK  status: ('A' for Active; 'I' for Inactive)
ROOT
ATOM      1  C   UNL d   1      -4.735   2.606   5.737  0.00  0.00     0.078 C 
ATOM      2  C1  UNL d   1      -3.743   1.711   5.058  0.00  0.00    -0.077 A 
ATOM      3  C2  UNL d   1      -3.020   0.755   5.782  0.00  0.00    -0.001 A 
ATOM      4  C3  UNL d   1      -2.092  -0.065   5.137  0.00  0.00     0.003 A 
ATOM      5  C4  UNL d   1      -1.877   0.064   3.767  0.00  0.00    -0.005 A 
ATOM      6  C5  UNL d   1      -2.590   1.014   3.038  0.00  0.00     0.003 A 
ATOM      7  C6  UNL d   1      -3.518   1.835   3.681  0.00  0.00    -0.001 A 
ENDROOT
TORSDOF 0
ENDMDL
