MODEL 1
REMARK minimizedAffinity 4.29995394
REMARK minimizedRMSD -1
REMARK  0 active torsions:
REMARK  status: ('A' for Active; 'I' for Inactive)
ROOT
ATOM      1  C   UNL d   1       0.950  -3.175   2.041  0.00  0.00     0.078 C 
ATOM      2  C1  UNL d   1      -0.341  -2.418   1.944  0.00  0.00    -0.077 A 
ATOM      3  C2  UNL d   1      -1.508  -3.038   1.481  0.00  0.00    -0.001 A 
ATOM      4  C3  UNL d   1      -2.700  -2.318   1.386  0.00  0.00     0.003 A 
ATOM      5  C4  UNL d   1      -2.736  -0.974   1.752  0.00  0.00    -0.005 A 
ATOM      6  C5  UNL d   1      -1.580  -0.348   2.212  0.00  0.00     0.003 A 
ATOM      7  C6  UNL d   1      -0.387  -1.066   2.307  0.00  0.00    -0.001 A 
ENDROOT
TORSDOF 0
ENDMDL
