MODEL 1
REMARK minimizedAffinity 2.9415102
REMARK minimizedRMSD -1
REMARK  0 active torsions:
REMARK  status: ('A' for Active; 'I' for Inactive)
ROOT
ATOM      1  C   UNL d   1      -3.682   0.010   0.749  0.00  0.00     0.078 C 
ATOM      2  C1  UNL d   1      -2.620  -0.322   1.755  0.00  0.00    -0.077 A 
ATOM      3  C2  UNL d   1      -2.497   0.411   2.941  0.00  0.00    -0.001 A 
ATOM      4  C3  UNL d   1      -1.498   0.097   3.865  0.00  0.00     0.003 A 
ATOM      5  C4  UNL d   1      -0.614  -0.950   3.610  0.00  0.00    -0.005 A 
ATOM      6  C5  UNL d   1      -0.728  -1.684   2.431  0.00  0.00     0.003 A 
ATOM      7  C6  UNL d   1      -1.727  -1.371   1.507  0.00  0.00    -0.001 A 
ENDROOT
TORSDOF 0
ENDMDL
