MODEL 1
REMARK minimizedAffinity 5.72668552
REMARK minimizedRMSD -1
REMARK  0 active torsions:
REMARK  status: ('A' for Active; 'I' for Inactive)
ROOT
ATOM      1  C   UNL d   1      -4.941   2.646   6.000  0.00  0.00     0.078 C 
ATOM      2  C1  UNL d   1      -3.903   1.860   5.257  0.00  0.00    -0.077 A 
ATOM      3  C2  UNL d   1      -3.800   1.937   3.862  0.00  0.00    -0.001 A 
ATOM      4  C3  UNL d   1      -2.835   1.192   3.183  0.00  0.00     0.003 A 
ATOM      5  C4  UNL d   1      -1.966   0.364   3.890  0.00  0.00    -0.005 A 
ATOM      6  C5  UNL d   1      -2.062   0.278   5.277  0.00  0.00     0.003 A 
ATOM      7  C6  UNL d   1      -3.026   1.022   5.958  0.00  0.00    -0.001 A 
ENDROOT
TORSDOF 0
ENDMDL
