MODEL 1
REMARK minimizedAffinity 8.61311054
REMARK minimizedRMSD -1
REMARK  0 active torsions:
REMARK  status: ('A' for Active; 'I' for Inactive)
ROOT
ATOM      1  C   UNL d   1      -4.491   2.243   4.907  0.00  0.00     0.078 C 
ATOM      2  C1  UNL d   1      -3.410   1.397   4.302  0.00  0.00    -0.077 A 
ATOM      3  C2  UNL d   1      -3.370   1.155   2.924  0.00  0.00    -0.001 A 
ATOM      4  C3  UNL d   1      -2.364   0.357   2.376  0.00  0.00     0.003 A 
ATOM      5  C4  UNL d   1      -1.392  -0.206   3.200  0.00  0.00    -0.005 A 
ATOM      6  C5  UNL d   1      -1.425   0.027   4.573  0.00  0.00     0.003 A 
ATOM      7  C6  UNL d   1      -2.430   0.825   5.122  0.00  0.00    -0.001 A 
ENDROOT
TORSDOF 0
ENDMDL
