MODEL 1
REMARK minimizedAffinity 6.68299675
REMARK minimizedRMSD -1
REMARK  0 active torsions:
REMARK  status: ('A' for Active; 'I' for Inactive)
ROOT
ATOM      1  C   UNL d   1      -6.000  -0.621  -3.015  0.00  0.00     0.078 C 
ATOM      2  C1  UNL d   1      -5.872   0.051  -1.681  0.00  0.00    -0.077 A 
ATOM      3  C2  UNL d   1      -6.000   1.440  -1.559  0.00  0.00    -0.001 A 
ATOM      4  C3  UNL d   1      -5.868   2.054  -0.312  0.00  0.00     0.003 A 
ATOM      5  C4  UNL d   1      -5.607   1.287   0.821  0.00  0.00    -0.005 A 
ATOM      6  C5  UNL d   1      -5.475  -0.095   0.709  0.00  0.00     0.003 A 
ATOM      7  C6  UNL d   1      -5.606  -0.711  -0.537  0.00  0.00    -0.001 A 
ENDROOT
TORSDOF 0
ENDMDL
