MODEL 1
REMARK minimizedAffinity 8.50983524
REMARK minimizedRMSD -1
REMARK  0 active torsions:
REMARK  status: ('A' for Active; 'I' for Inactive)
ROOT
ATOM      1  C   UNL d   1      -2.223   1.348   3.816  0.00  0.00     0.078 C 
ATOM      2  C1  UNL d   1      -1.683   0.239   2.963  0.00  0.00    -0.077 A 
ATOM      3  C2  UNL d   1      -2.542  -0.601   2.244  0.00  0.00    -0.001 A 
ATOM      4  C3  UNL d   1      -2.026  -1.636   1.462  0.00  0.00     0.003 A 
ATOM      5  C4  UNL d   1      -0.650  -1.841   1.393  0.00  0.00    -0.005 A 
ATOM      6  C5  UNL d   1       0.213  -1.012   2.107  0.00  0.00     0.003 A 
ATOM      7  C6  UNL d   1      -0.301   0.023   2.890  0.00  0.00    -0.001 A 
ENDROOT
TORSDOF 0
ENDMDL
