MODEL 1
REMARK minimizedAffinity 3.13109136
REMARK minimizedRMSD -1
REMARK  0 active torsions:
REMARK  status: ('A' for Active; 'I' for Inactive)
ROOT
ATOM      1  C   UNL d   1       1.900  -4.843   0.381  0.00  0.00     0.078 C 
ATOM      2  C1  UNL d   1       3.330  -4.817  -0.071  0.00  0.00    -0.077 A 
ATOM      3  C2  UNL d   1       3.924  -3.630  -0.516  0.00  0.00    -0.001 A 
ATOM      4  C3  UNL d   1       5.253  -3.622  -0.942  0.00  0.00     0.003 A 
ATOM      5  C4  UNL d   1       5.999  -4.799  -0.930  0.00  0.00    -0.005 A 
ATOM      6  C5  UNL d   1       5.415  -5.986  -0.492  0.00  0.00     0.003 A 
ATOM      7  C6  UNL d   1       4.086  -5.996  -0.065  0.00  0.00    -0.001 A 
ENDROOT
TORSDOF 0
ENDMDL
