MODEL 1
REMARK minimizedAffinity 7.23297405
REMARK minimizedRMSD -1
REMARK  0 active torsions:
REMARK  status: ('A' for Active; 'I' for Inactive)
ROOT
ATOM      1  C   UNL d   1      -4.603   2.826   5.873  0.00  0.00     0.078 C 
ATOM      2  C1  UNL d   1      -3.687   1.948   5.074  0.00  0.00    -0.077 A 
ATOM      3  C2  UNL d   1      -2.666   1.217   5.694  0.00  0.00    -0.001 A 
ATOM      4  C3  UNL d   1      -1.815   0.411   4.936  0.00  0.00     0.003 A 
ATOM      5  C4  UNL d   1      -1.976   0.329   3.555  0.00  0.00    -0.005 A 
ATOM      6  C5  UNL d   1      -2.987   1.054   2.929  0.00  0.00     0.003 A 
ATOM      7  C6  UNL d   1      -3.839   1.860   3.684  0.00  0.00    -0.001 A 
ENDROOT
TORSDOF 0
ENDMDL
