MODEL 1
REMARK minimizedAffinity 4.58867836
REMARK minimizedRMSD -1
REMARK  0 active torsions:
REMARK  status: ('A' for Active; 'I' for Inactive)
ROOT
ATOM      1  C   UNL d   1      -1.787   1.107   4.496  0.00  0.00     0.078 C 
ATOM      2  C1  UNL d   1      -3.254   1.347   4.297  0.00  0.00    -0.077 A 
ATOM      3  C2  UNL d   1      -3.891   0.977   3.107  0.00  0.00    -0.001 A 
ATOM      4  C3  UNL d   1      -5.255   1.215   2.932  0.00  0.00     0.003 A 
ATOM      5  C4  UNL d   1      -5.994   1.826   3.943  0.00  0.00    -0.005 A 
ATOM      6  C5  UNL d   1      -5.368   2.201   5.130  0.00  0.00     0.003 A 
ATOM      7  C6  UNL d   1      -4.004   1.963   5.307  0.00  0.00    -0.001 A 
ENDROOT
TORSDOF 0
ENDMDL
