MODEL 1
REMARK minimizedAffinity 4.66594458
REMARK minimizedRMSD -1
REMARK  0 active torsions:
REMARK  status: ('A' for Active; 'I' for Inactive)
ROOT
ATOM      1  C   UNL d   1       1.696  -5.451  -4.269  0.00  0.00     0.078 C 
ATOM      2  C1  UNL d   1       0.198  -5.436  -4.215  0.00  0.00    -0.077 A 
ATOM      3  C2  UNL d   1      -0.478  -4.874  -3.124  0.00  0.00    -0.001 A 
ATOM      4  C3  UNL d   1      -1.873  -4.875  -3.082  0.00  0.00     0.003 A 
ATOM      5  C4  UNL d   1      -2.604  -5.437  -4.127  0.00  0.00    -0.005 A 
ATOM      6  C5  UNL d   1      -1.940  -6.000  -5.215  0.00  0.00     0.003 A 
ATOM      7  C6  UNL d   1      -0.545  -6.000  -5.259  0.00  0.00    -0.001 A 
ENDROOT
TORSDOF 0
ENDMDL
