MODEL 1
REMARK minimizedAffinity 15.8114567
REMARK minimizedRMSD -1
REMARK  0 active torsions:
REMARK  status: ('A' for Active; 'I' for Inactive)
ROOT
ATOM      1  C   UNL d   1      -2.215   0.819   3.423  0.00  0.00     0.078 C 
ATOM      2  C1  UNL d   1      -1.474  -0.246   2.671  0.00  0.00    -0.077 A 
ATOM      3  C2  UNL d   1      -2.161  -1.248   1.974  0.00  0.00    -0.001 A 
ATOM      4  C3  UNL d   1      -1.458  -2.238   1.287  0.00  0.00     0.003 A 
ATOM      5  C4  UNL d   1      -0.064  -2.238   1.291  0.00  0.00    -0.005 A 
ATOM      6  C5  UNL d   1       0.628  -1.247   1.983  0.00  0.00     0.003 A 
ATOM      7  C6  UNL d   1      -0.073  -0.255   2.671  0.00  0.00    -0.001 A 
ENDROOT
TORSDOF 0
ENDMDL
