MODEL 1
REMARK minimizedAffinity 10.2737722
REMARK minimizedRMSD -1
REMARK  0 active torsions:
REMARK  status: ('A' for Active; 'I' for Inactive)
ROOT
ATOM      1  C   UNL d   1       5.997   4.890  -1.823  0.00  0.00     0.078 C 
ATOM      2  C1  UNL d   1       4.507   4.841  -1.982  0.00  0.00    -0.077 A 
ATOM      3  C2  UNL d   1       3.731   6.000  -1.862  0.00  0.00    -0.001 A 
ATOM      4  C3  UNL d   1       2.343   5.938  -2.002  0.00  0.00     0.003 A 
ATOM      5  C4  UNL d   1       1.720   4.719  -2.263  0.00  0.00    -0.005 A 
ATOM      6  C5  UNL d   1       2.484   3.560  -2.383  0.00  0.00     0.003 A 
ATOM      7  C6  UNL d   1       3.872   3.620  -2.242  0.00  0.00    -0.001 A 
ENDROOT
TORSDOF 0
ENDMDL
