MODEL 1
REMARK minimizedAffinity 1.92323923
REMARK minimizedRMSD -1
REMARK  0 active torsions:
REMARK  status: ('A' for Active; 'I' for Inactive)
ROOT
ATOM      1  C   UNL d   1       1.298  -5.163  -3.398  0.00  0.00     0.078 C 
ATOM      2  C1  UNL d   1      -0.171  -5.462  -3.402  0.00  0.00    -0.077 A 
ATOM      3  C2  UNL d   1      -0.851  -5.723  -4.598  0.00  0.00    -0.001 A 
ATOM      4  C3  UNL d   1      -2.221  -5.991  -4.587  0.00  0.00     0.003 A 
ATOM      5  C4  UNL d   1      -2.923  -6.000  -3.384  0.00  0.00    -0.005 A 
ATOM      6  C5  UNL d   1      -2.255  -5.739  -2.189  0.00  0.00     0.003 A 
ATOM      7  C6  UNL d   1      -0.886  -5.471  -2.197  0.00  0.00    -0.001 A 
ENDROOT
TORSDOF 0
ENDMDL
