MODEL 1
REMARK minimizedAffinity 4.22321463
REMARK minimizedRMSD -1
REMARK  0 active torsions:
REMARK  status: ('A' for Active; 'I' for Inactive)
ROOT
ATOM      1  C   UNL d   1       5.220  -2.428  -1.878  0.00  0.00     0.078 C 
ATOM      2  C1  UNL d   1       4.956  -3.671  -1.083  0.00  0.00    -0.077 A 
ATOM      3  C2  UNL d   1       5.999  -4.538  -0.733  0.00  0.00    -0.001 A 
ATOM      4  C3  UNL d   1       5.738  -5.697  -0.000  0.00  0.00     0.003 A 
ATOM      5  C4  UNL d   1       4.434  -6.000   0.388  0.00  0.00    -0.005 A 
ATOM      6  C5  UNL d   1       3.390  -5.144   0.043  0.00  0.00     0.003 A 
ATOM      7  C6  UNL d   1       3.649  -3.985  -0.690  0.00  0.00    -0.001 A 
ENDROOT
TORSDOF 0
ENDMDL
