MODEL 1
REMARK minimizedAffinity 26.9491501
REMARK minimizedRMSD -1
REMARK  0 active torsions:
REMARK  status: ('A' for Active; 'I' for Inactive)
ROOT
ATOM      1  C   UNL d   1      -3.310   1.168   2.349  0.00  0.00     0.124 A 
ATOM      2  C1  UNL d   1      -1.935   1.224   2.167  0.00  0.00     0.062 A 
ATOM      3  C2  UNL d   1      -1.108   1.635   3.208  0.00  0.00     0.162 A 
ATOM      4  C3  UNL d   1      -1.653   1.993   4.441  0.00  0.00    -0.034 A 
ATOM      5  C4  UNL d   1      -3.037   1.936   4.616  0.00  0.00     0.162 A 
ATOM      6  C5  UNL d   1      -3.860   1.524   3.573  0.00  0.00     0.062 A 
ATOM      7  F   UNL d   1      -5.188   1.471   3.750  0.00  0.00    -0.097 F 
ATOM      8  F1  UNL d   1      -3.594   2.273   5.789  0.00  0.00    -0.096 F 
ATOM      9  I   UNL d   1      -0.419   2.608   6.000  0.00  0.00    -0.060 I 
ATOM     10  F2  UNL d   1       0.217   1.679   3.004  0.00  0.00    -0.096 F 
ATOM     11  F3  UNL d   1      -1.402   0.881   0.986  0.00  0.00    -0.097 F 
ATOM     12  F4  UNL d   1      -4.104   0.773   1.345  0.00  0.00    -0.092 F 
ENDROOT
TORSDOF 0
ENDMDL
