MODEL 1
REMARK minimizedAffinity 2.90962172
REMARK minimizedRMSD -1
REMARK  0 active torsions:
REMARK  status: ('A' for Active; 'I' for Inactive)
ROOT
ATOM      1  C   UNL d   1       2.378  -4.609  -0.532  0.00  0.00     0.124 A 
ATOM      2  C1  UNL d   1       3.698  -4.617  -0.103  0.00  0.00     0.062 A 
ATOM      3  C2  UNL d   1       4.734  -4.483  -1.023  0.00  0.00     0.162 A 
ATOM      4  C3  UNL d   1       4.454  -4.339  -2.382  0.00  0.00    -0.034 A 
ATOM      5  C4  UNL d   1       3.123  -4.333  -2.806  0.00  0.00     0.162 A 
ATOM      6  C5  UNL d   1       2.092  -4.467  -1.882  0.00  0.00     0.062 A 
ATOM      7  F   UNL d   1       0.817  -4.459  -2.299  0.00  0.00    -0.097 F 
ATOM      8  F1  UNL d   1       2.819  -4.196  -4.105  0.00  0.00    -0.096 F 
ATOM      9  I   UNL d   1       5.999  -4.138  -3.761  0.00  0.00    -0.060 I 
ATOM     10  F2  UNL d   1       6.000  -4.494  -0.581  0.00  0.00    -0.096 F 
ATOM     11  F3  UNL d   1       3.977  -4.756   1.201  0.00  0.00    -0.097 F 
ATOM     12  F4  UNL d   1       1.383  -4.740   0.355  0.00  0.00    -0.092 F 
ENDROOT
TORSDOF 0
ENDMDL
