MODEL 1
REMARK minimizedAffinity 28.4800625
REMARK minimizedRMSD -1
REMARK  0 active torsions:
REMARK  status: ('A' for Active; 'I' for Inactive)
ROOT
ATOM      1  C   UNL d   1       2.081  -0.832  -1.259  0.00  0.00     0.124 A 
ATOM      2  C1  UNL d   1       2.699  -0.305  -0.134  0.00  0.00     0.062 A 
ATOM      3  C2  UNL d   1       1.954   0.393   0.812  0.00  0.00     0.162 A 
ATOM      4  C3  UNL d   1       0.581   0.566   0.638  0.00  0.00    -0.034 A 
ATOM      5  C4  UNL d   1      -0.034   0.034  -0.497  0.00  0.00     0.162 A 
ATOM      6  C5  UNL d   1       0.715  -0.663  -1.440  0.00  0.00     0.062 A 
ATOM      7  F   UNL d   1       0.116  -1.172  -2.526  0.00  0.00    -0.097 F 
ATOM      8  F1  UNL d   1      -1.352   0.182  -0.696  0.00  0.00    -0.096 F 
ATOM      9  I   UNL d   1      -0.537   1.609   2.050  0.00  0.00    -0.060 I 
ATOM     10  F2  UNL d   1       2.577   0.892   1.889  0.00  0.00    -0.096 F 
ATOM     11  F3  UNL d   1       4.018  -0.466   0.042  0.00  0.00    -0.097 F 
ATOM     12  F4  UNL d   1       2.800  -1.502  -2.169  0.00  0.00    -0.092 F 
ENDROOT
TORSDOF 0
ENDMDL
