MODEL 1
REMARK minimizedAffinity 15.2857542
REMARK minimizedRMSD -1
REMARK  0 active torsions:
REMARK  status: ('A' for Active; 'I' for Inactive)
ROOT
ATOM      1  C   UNL d   1       3.314  -0.530  -0.958  0.00  0.00     0.124 A 
ATOM      2  C1  UNL d   1       2.417  -0.046  -1.901  0.00  0.00     0.062 A 
ATOM      3  C2  UNL d   1       1.268  -0.768  -2.209  0.00  0.00     0.162 A 
ATOM      4  C3  UNL d   1       1.008  -1.982  -1.572  0.00  0.00    -0.034 A 
ATOM      5  C4  UNL d   1       1.915  -2.462  -0.626  0.00  0.00     0.162 A 
ATOM      6  C5  UNL d   1       3.062  -1.737  -0.322  0.00  0.00     0.062 A 
ATOM      7  F   UNL d   1       3.927  -2.206   0.589  0.00  0.00    -0.097 F 
ATOM      8  F1  UNL d   1       1.696  -3.626   0.005  0.00  0.00    -0.096 F 
ATOM      9  I   UNL d   1      -0.709  -3.065  -2.030  0.00  0.00    -0.060 I 
ATOM     10  F2  UNL d   1       0.419  -0.277  -3.124  0.00  0.00    -0.096 F 
ATOM     11  F3  UNL d   1       2.659   1.120  -2.518  0.00  0.00    -0.097 F 
ATOM     12  F4  UNL d   1       4.420   0.167  -0.665  0.00  0.00    -0.092 F 
ENDROOT
TORSDOF 0
ENDMDL
