MODEL 1
REMARK minimizedAffinity 9.70946121
REMARK minimizedRMSD -1
REMARK  0 active torsions:
REMARK  status: ('A' for Active; 'I' for Inactive)
ROOT
ATOM      1  C   UNL d   1       3.744  -0.487  -0.861  0.00  0.00     0.124 A 
ATOM      2  C1  UNL d   1       2.757   0.010  -1.701  0.00  0.00     0.062 A 
ATOM      3  C2  UNL d   1       1.600  -0.727  -1.934  0.00  0.00     0.162 A 
ATOM      4  C3  UNL d   1       1.422  -1.970  -1.325  0.00  0.00    -0.034 A 
ATOM      5  C4  UNL d   1       2.420  -2.464  -0.483  0.00  0.00     0.162 A 
ATOM      6  C5  UNL d   1       3.574  -1.723  -0.253  0.00  0.00     0.062 A 
ATOM      7  F   UNL d   1       4.527  -2.205   0.559  0.00  0.00    -0.097 F 
ATOM      8  F1  UNL d   1       2.281  -3.655   0.119  0.00  0.00    -0.096 F 
ATOM      9  I   UNL d   1      -0.307  -3.075  -1.672  0.00  0.00    -0.060 I 
ATOM     10  F2  UNL d   1       0.663  -0.222  -2.750  0.00  0.00    -0.096 F 
ATOM     11  F3  UNL d   1       2.919   1.203  -2.290  0.00  0.00    -0.097 F 
ATOM     12  F4  UNL d   1       4.857   0.224  -0.639  0.00  0.00    -0.092 F 
ENDROOT
TORSDOF 0
ENDMDL
