MODEL 1
REMARK minimizedAffinity 27.4666004
REMARK minimizedRMSD -1
REMARK  0 active torsions:
REMARK  status: ('A' for Active; 'I' for Inactive)
ROOT
ATOM      1  C   UNL d   1      -0.612   1.665   4.603  0.00  0.00     0.124 A 
ATOM      2  C1  UNL d   1      -1.165   1.521   3.338  0.00  0.00     0.062 A 
ATOM      3  C2  UNL d   1      -0.350   1.235   2.246  0.00  0.00     0.162 A 
ATOM      4  C3  UNL d   1       1.027   1.091   2.414  0.00  0.00    -0.034 A 
ATOM      5  C4  UNL d   1       1.576   1.238   3.689  0.00  0.00     0.162 A 
ATOM      6  C5  UNL d   1       0.758   1.524   4.777  0.00  0.00     0.062 A 
ATOM      7  F   UNL d   1       1.294   1.663   5.999  0.00  0.00    -0.097 F 
ATOM      8  F1  UNL d   1       2.896   1.106   3.886  0.00  0.00    -0.096 F 
ATOM      9  I   UNL d   1       2.248   0.664   0.784  0.00  0.00    -0.060 I 
ATOM     10  F2  UNL d   1      -0.912   1.101   1.036  0.00  0.00    -0.096 F 
ATOM     11  F3  UNL d   1      -2.488   1.658   3.167  0.00  0.00    -0.097 F 
ATOM     12  F4  UNL d   1      -1.398   1.941   5.652  0.00  0.00    -0.092 F 
ENDROOT
TORSDOF 0
ENDMDL
