MODEL 1
REMARK minimizedAffinity 5.18169498
REMARK minimizedRMSD -1
REMARK  0 active torsions:
REMARK  status: ('A' for Active; 'I' for Inactive)
ROOT
ATOM      1  C   UNL d   1       2.323   2.165  -1.129  0.00  0.00     0.124 A 
ATOM      2  C1  UNL d   1       1.112   1.975  -0.478  0.00  0.00     0.062 A 
ATOM      3  C2  UNL d   1       0.316   3.067  -0.146  0.00  0.00     0.162 A 
ATOM      4  C3  UNL d   1       0.728   4.361  -0.466  0.00  0.00    -0.034 A 
ATOM      5  C4  UNL d   1       1.947   4.545  -1.121  0.00  0.00     0.162 A 
ATOM      6  C5  UNL d   1       2.739   3.450  -1.450  0.00  0.00     0.062 A 
ATOM      7  F   UNL d   1       3.908   3.636  -2.080  0.00  0.00    -0.097 F 
ATOM      8  F1  UNL d   1       2.373   5.775  -1.444  0.00  0.00    -0.096 F 
ATOM      9  I   UNL d   1      -0.460   5.997   0.028  0.00  0.00    -0.060 I 
ATOM     10  F2  UNL d   1      -0.849   2.853   0.484  0.00  0.00    -0.096 F 
ATOM     11  F3  UNL d   1       0.708   0.735  -0.166  0.00  0.00    -0.097 F 
ATOM     12  F4  UNL d   1       3.087   1.112  -1.447  0.00  0.00    -0.092 F 
ENDROOT
TORSDOF 0
ENDMDL
