MODEL 1
REMARK minimizedAffinity 6.01164532
REMARK minimizedRMSD -1
REMARK  0 active torsions:
REMARK  status: ('A' for Active; 'I' for Inactive)
ROOT
ATOM      1  C   UNL d   1       0.507   4.746  -0.309  0.00  0.00     0.124 A 
ATOM      2  C1  UNL d   1       1.604   4.809  -1.157  0.00  0.00     0.062 A 
ATOM      3  C2  UNL d   1       2.196   3.639  -1.624  0.00  0.00     0.162 A 
ATOM      4  C3  UNL d   1       1.692   2.395  -1.244  0.00  0.00    -0.034 A 
ATOM      5  C4  UNL d   1       0.588   2.340  -0.390  0.00  0.00     0.162 A 
ATOM      6  C5  UNL d   1       0.000   3.512   0.073  0.00  0.00     0.062 A 
ATOM      7  F   UNL d   1      -1.060   3.450   0.892  0.00  0.00    -0.097 F 
ATOM      8  F1  UNL d   1       0.078   1.161  -0.005  0.00  0.00    -0.096 F 
ATOM      9  I   UNL d   1       2.574   0.643  -1.939  0.00  0.00    -0.060 I 
ATOM     10  F2  UNL d   1       3.255   3.729  -2.442  0.00  0.00    -0.096 F 
ATOM     11  F3  UNL d   1       2.096   6.000  -1.528  0.00  0.00    -0.097 F 
ATOM     12  F4  UNL d   1      -0.060   5.874   0.139  0.00  0.00    -0.092 F 
ENDROOT
TORSDOF 0
ENDMDL
