MODEL 1
REMARK minimizedAffinity 10.1401749
REMARK minimizedRMSD -1
REMARK  0 active torsions:
REMARK  status: ('A' for Active; 'I' for Inactive)
ROOT
ATOM      1  C   UNL d   1      -3.589   4.658  -5.842  0.00  0.00     0.124 A 
ATOM      2  C1  UNL d   1      -4.798   3.976  -5.835  0.00  0.00     0.062 A 
ATOM      3  C2  UNL d   1      -4.817   2.585  -5.875  0.00  0.00     0.162 A 
ATOM      4  C3  UNL d   1      -3.623   1.866  -5.920  0.00  0.00    -0.034 A 
ATOM      5  C4  UNL d   1      -2.411   2.558  -5.928  0.00  0.00     0.162 A 
ATOM      6  C5  UNL d   1      -2.397   3.949  -5.888  0.00  0.00     0.062 A 
ATOM      7  F   UNL d   1      -1.228   4.606  -5.895  0.00  0.00    -0.097 F 
ATOM      8  F1  UNL d   1      -1.244   1.898  -5.971  0.00  0.00    -0.096 F 
ATOM      9  I   UNL d   1      -3.648  -0.214  -5.979  0.00  0.00    -0.060 I 
ATOM     10  F2  UNL d   1      -6.000   1.953  -5.867  0.00  0.00    -0.096 F 
ATOM     11  F3  UNL d   1      -5.951   4.659  -5.792  0.00  0.00    -0.097 F 
ATOM     12  F4  UNL d   1      -3.573   5.997  -5.805  0.00  0.00    -0.092 F 
ENDROOT
TORSDOF 0
ENDMDL
