MODEL 1
REMARK minimizedAffinity 33.4034958
REMARK minimizedRMSD -1
REMARK  0 active torsions:
REMARK  status: ('A' for Active; 'I' for Inactive)
ROOT
ATOM      1  C   UNL d   1       3.410  -0.870   0.304  0.00  0.00     0.124 A 
ATOM      2  C1  UNL d   1       2.949  -1.641  -0.754  0.00  0.00     0.062 A 
ATOM      3  C2  UNL d   1       1.808  -1.259  -1.453  0.00  0.00     0.162 A 
ATOM      4  C3  UNL d   1       1.119  -0.100  -1.097  0.00  0.00    -0.034 A 
ATOM      5  C4  UNL d   1       1.588   0.670  -0.031  0.00  0.00     0.162 A 
ATOM      6  C5  UNL d   1       2.729   0.285   0.665  0.00  0.00     0.062 A 
ATOM      7  F   UNL d   1       3.173   1.031   1.687  0.00  0.00    -0.097 F 
ATOM      8  F1  UNL d   1       0.950   1.791   0.338  0.00  0.00    -0.096 F 
ATOM      9  I   UNL d   1      -0.588   0.474  -2.140  0.00  0.00    -0.060 I 
ATOM     10  F2  UNL d   1       1.385  -2.024  -2.471  0.00  0.00    -0.096 F 
ATOM     11  F3  UNL d   1       3.605  -2.757  -1.103  0.00  0.00    -0.097 F 
ATOM     12  F4  UNL d   1       4.508  -1.240   0.976  0.00  0.00    -0.092 F 
ENDROOT
TORSDOF 0
ENDMDL
