MODEL 1
REMARK minimizedAffinity 18.2215118
REMARK minimizedRMSD -1
REMARK  0 active torsions:
REMARK  status: ('A' for Active; 'I' for Inactive)
ROOT
ATOM      1  C   UNL d   1      -2.236  -4.363   2.249  0.00  0.00     0.124 A 
ATOM      2  C1  UNL d   1      -3.536  -4.795   2.026  0.00  0.00     0.062 A 
ATOM      3  C2  UNL d   1      -4.612  -3.981   2.368  0.00  0.00     0.162 A 
ATOM      4  C3  UNL d   1      -4.393  -2.727   2.937  0.00  0.00    -0.034 A 
ATOM      5  C4  UNL d   1      -3.083  -2.299   3.159  0.00  0.00     0.162 A 
ATOM      6  C5  UNL d   1      -2.011  -3.116   2.816  0.00  0.00     0.062 A 
ATOM      7  F   UNL d   1      -0.755  -2.697   3.032  0.00  0.00    -0.097 F 
ATOM      8  F1  UNL d   1      -2.836  -1.099   3.704  0.00  0.00    -0.096 F 
ATOM      9  I   UNL d   1      -6.000  -1.507   3.450  0.00  0.00    -0.060 I 
ATOM     10  F2  UNL d   1      -5.858  -4.424   2.141  0.00  0.00    -0.096 F 
ATOM     11  F3  UNL d   1      -3.756  -5.999   1.480  0.00  0.00    -0.097 F 
ATOM     12  F4  UNL d   1      -1.202  -5.148   1.920  0.00  0.00    -0.092 F 
ENDROOT
TORSDOF 0
ENDMDL
