MODEL 1
REMARK minimizedAffinity 22.3145504
REMARK minimizedRMSD -1
REMARK  0 active torsions:
REMARK  status: ('A' for Active; 'I' for Inactive)
ROOT
ATOM      1  C   UNL d   1      -0.815  -2.411  -4.831  0.00  0.00     0.124 A 
ATOM      2  C1  UNL d   1      -1.900  -3.269  -4.713  0.00  0.00     0.062 A 
ATOM      3  C2  UNL d   1      -2.168  -3.896  -3.500  0.00  0.00     0.162 A 
ATOM      4  C3  UNL d   1      -1.349  -3.668  -2.394  0.00  0.00    -0.034 A 
ATOM      5  C4  UNL d   1      -0.259  -2.804  -2.520  0.00  0.00     0.162 A 
ATOM      6  C5  UNL d   1       0.004  -2.180  -3.735  0.00  0.00     0.062 A 
ATOM      7  F   UNL d   1       1.053  -1.351  -3.847  0.00  0.00    -0.097 F 
ATOM      8  F1  UNL d   1       0.548  -2.562  -1.477  0.00  0.00    -0.096 F 
ATOM      9  I   UNL d   1      -1.746  -4.604  -0.578  0.00  0.00    -0.060 I 
ATOM     10  F2  UNL d   1      -3.223  -4.720  -3.415  0.00  0.00    -0.096 F 
ATOM     11  F3  UNL d   1      -2.692  -3.494  -5.771  0.00  0.00    -0.097 F 
ATOM     12  F4  UNL d   1      -0.559  -1.809  -6.000  0.00  0.00    -0.092 F 
ENDROOT
TORSDOF 0
ENDMDL
