MODEL 1
REMARK minimizedAffinity 15.7849636
REMARK minimizedRMSD -1
REMARK  0 active torsions:
REMARK  status: ('A' for Active; 'I' for Inactive)
ROOT
ATOM      1  C   UNL d   1      -2.860  -4.476  -3.911  0.00  0.00     0.124 A 
ATOM      2  C1  UNL d   1      -2.604  -3.615  -4.969  0.00  0.00     0.062 A 
ATOM      3  C2  UNL d   1      -1.461  -2.821  -4.964  0.00  0.00     0.162 A 
ATOM      4  C3  UNL d   1      -0.565  -2.884  -3.897  0.00  0.00    -0.034 A 
ATOM      5  C4  UNL d   1      -0.830  -3.751  -2.836  0.00  0.00     0.162 A 
ATOM      6  C5  UNL d   1      -1.973  -4.543  -2.846  0.00  0.00     0.062 A 
ATOM      7  F   UNL d   1      -2.219  -5.374  -1.822  0.00  0.00    -0.097 F 
ATOM      8  F1  UNL d   1       0.011  -3.837  -1.794  0.00  0.00    -0.096 F 
ATOM      9  I   UNL d   1       1.145  -1.697  -3.886  0.00  0.00    -0.060 I 
ATOM     10  F2  UNL d   1      -1.238  -1.998  -6.000  0.00  0.00    -0.096 F 
ATOM     11  F3  UNL d   1      -3.459  -3.548  -5.999  0.00  0.00    -0.097 F 
ATOM     12  F4  UNL d   1      -3.961  -5.239  -3.918  0.00  0.00    -0.092 F 
ENDROOT
TORSDOF 0
ENDMDL
