MODEL 1
REMARK minimizedAffinity 21.3885612
REMARK minimizedRMSD -1
REMARK  0 active torsions:
REMARK  status: ('A' for Active; 'I' for Inactive)
ROOT
ATOM      1  C   UNL d   1      -2.625  -2.798   3.951  0.00  0.00     0.124 A 
ATOM      2  C1  UNL d   1      -1.427  -2.126   4.147  0.00  0.00     0.062 A 
ATOM      3  C2  UNL d   1      -0.380  -2.284   3.244  0.00  0.00     0.162 A 
ATOM      4  C3  UNL d   1      -0.526  -3.118   2.135  0.00  0.00    -0.034 A 
ATOM      5  C4  UNL d   1      -1.734  -3.792   1.945  0.00  0.00     0.162 A 
ATOM      6  C5  UNL d   1      -2.778  -3.630   2.851  0.00  0.00     0.062 A 
ATOM      7  F   UNL d   1      -3.935  -4.281   2.660  0.00  0.00    -0.097 F 
ATOM      8  F1  UNL d   1      -1.909  -4.601   0.890  0.00  0.00    -0.096 F 
ATOM      9  I   UNL d   1       1.037  -3.357   0.783  0.00  0.00    -0.060 I 
ATOM     10  F2  UNL d   1       0.767  -1.622   3.458  0.00  0.00    -0.096 F 
ATOM     11  F3  UNL d   1      -1.277  -1.322   5.210  0.00  0.00    -0.097 F 
ATOM     12  F4  UNL d   1      -3.631  -2.645   4.822  0.00  0.00    -0.092 F 
ENDROOT
TORSDOF 0
ENDMDL
