MODEL 1
REMARK minimizedAffinity 16.3288212
REMARK minimizedRMSD -1
REMARK  0 active torsions:
REMARK  status: ('A' for Active; 'I' for Inactive)
ROOT
ATOM      1  C   UNL d   1      -2.286  -3.613   1.902  0.00  0.00     0.124 A 
ATOM      2  C1  UNL d   1      -1.731  -4.042   0.704  0.00  0.00     0.062 A 
ATOM      3  C2  UNL d   1      -0.476  -3.587   0.312  0.00  0.00     0.162 A 
ATOM      4  C3  UNL d   1       0.234  -2.698   1.118  0.00  0.00    -0.034 A 
ATOM      5  C4  UNL d   1      -0.331  -2.270   2.321  0.00  0.00     0.162 A 
ATOM      6  C5  UNL d   1      -1.586  -2.727   2.709  0.00  0.00     0.062 A 
ATOM      7  F   UNL d   1      -2.121  -2.312   3.866  0.00  0.00    -0.097 F 
ATOM      8  F1  UNL d   1       0.324  -1.415   3.121  0.00  0.00    -0.096 F 
ATOM      9  I   UNL d   1       2.112  -2.015   0.535  0.00  0.00    -0.060 I 
ATOM     10  F2  UNL d   1       0.036  -4.018  -0.851  0.00  0.00    -0.096 F 
ATOM     11  F3  UNL d   1      -2.406  -4.896  -0.078  0.00  0.00    -0.097 F 
ATOM     12  F4  UNL d   1      -3.495  -4.051   2.276  0.00  0.00    -0.092 F 
ENDROOT
TORSDOF 0
ENDMDL
