MODEL 1
REMARK minimizedAffinity -3.80774474
REMARK minimizedRMSD -1
REMARK  0 active torsions:
REMARK  status: ('A' for Active; 'I' for Inactive)
ROOT
ATOM      1  C   UNL d   1      -1.242   0.911   2.805  0.00  0.00    -0.002 A 
ATOM      2  C1  UNL d   1       0.031   0.654   3.292  0.00  0.00     0.010 A 
ATOM      3  C2  UNL d   1       0.981   0.013   2.493  0.00  0.00     0.041 A 
ATOM      4  C3  UNL d   1       0.625  -0.367   1.184  0.00  0.00    -0.075 A 
ATOM      5  S   UNL d   1       1.623  -1.163   0.026  0.00  0.00     0.015 SA
ATOM      6  C4  UNL d   1       0.383  -1.179  -1.143  0.00  0.00     0.022 A 
ATOM      7  C5  UNL d   1      -0.772  -0.596  -0.677  0.00  0.00     0.026 A 
ATOM      8  C6  UNL d   1      -0.651  -0.118   0.671  0.00  0.00    -0.082 A 
ATOM      9  C7  UNL d   1      -1.591   0.533   1.506  0.00  0.00     0.045 A 
ENDROOT
TORSDOF 0
ENDMDL
