MODEL 1
REMARK minimizedAffinity -5.37549114
REMARK minimizedRMSD -1
REMARK  0 active torsions:
REMARK  status: ('A' for Active; 'I' for Inactive)
ROOT
ATOM      1  C   UNL d   1      -0.330   1.349   3.128  0.00  0.00    -0.002 A 
ATOM      2  C1  UNL d   1       0.596   0.376   3.478  0.00  0.00     0.010 A 
ATOM      3  C2  UNL d   1       1.122  -0.483   2.512  0.00  0.00     0.041 A 
ATOM      4  C3  UNL d   1       0.701  -0.346   1.174  0.00  0.00    -0.075 A 
ATOM      5  S   UNL d   1       1.211  -1.285  -0.178  0.00  0.00     0.015 SA
ATOM      6  C4  UNL d   1       0.213  -0.416  -1.253  0.00  0.00     0.022 A 
ATOM      7  C5  UNL d   1      -0.499   0.570  -0.612  0.00  0.00     0.026 A 
ATOM      8  C6  UNL d   1      -0.229   0.627   0.797  0.00  0.00    -0.082 A 
ATOM      9  C7  UNL d   1      -0.745   1.483   1.800  0.00  0.00     0.045 A 
ENDROOT
TORSDOF 0
ENDMDL
