MODEL 1
REMARK minimizedAffinity -2.00976586
REMARK minimizedRMSD -1
REMARK  0 active torsions:
REMARK  status: ('A' for Active; 'I' for Inactive)
ROOT
ATOM      1  C   UNL d   1      -1.031   0.951   3.324  0.00  0.00    -0.002 A 
ATOM      2  C1  UNL d   1       0.298   1.335   3.218  0.00  0.00     0.010 A 
ATOM      3  C2  UNL d   1       1.014   1.099   2.043  0.00  0.00     0.041 A 
ATOM      4  C3  UNL d   1       0.365   0.465   0.965  0.00  0.00    -0.075 A 
ATOM      5  S   UNL d   1       1.042   0.074  -0.571  0.00  0.00     0.015 SA
ATOM      6  C4  UNL d   1      -0.418  -0.611  -1.124  0.00  0.00     0.022 A 
ATOM      7  C5  UNL d   1      -1.408  -0.551  -0.172  0.00  0.00     0.026 A 
ATOM      8  C6  UNL d   1      -0.973   0.070   1.048  0.00  0.00    -0.082 A 
ATOM      9  C7  UNL d   1      -1.672   0.323   2.253  0.00  0.00     0.045 A 
ENDROOT
TORSDOF 0
ENDMDL
