MODEL 1
REMARK minimizedAffinity -5.35838556
REMARK minimizedRMSD -1
REMARK  0 active torsions:
REMARK  status: ('A' for Active; 'I' for Inactive)
ROOT
ATOM      1  C   UNL d   1      -0.553   1.039   3.485  0.00  0.00    -0.002 A 
ATOM      2  C1  UNL d   1       0.722   0.492   3.455  0.00  0.00     0.010 A 
ATOM      3  C2  UNL d   1       1.230  -0.061   2.278  0.00  0.00     0.041 A 
ATOM      4  C3  UNL d   1       0.428  -0.053   1.119  0.00  0.00    -0.075 A 
ATOM      5  S   UNL d   1       0.841  -0.674  -0.435  0.00  0.00     0.015 SA
ATOM      6  C4  UNL d   1      -0.665  -0.226  -1.096  0.00  0.00     0.022 A 
ATOM      7  C5  UNL d   1      -1.476   0.383  -0.168  0.00  0.00     0.026 A 
ATOM      8  C6  UNL d   1      -0.859   0.493   1.125  0.00  0.00    -0.082 A 
ATOM      9  C7  UNL d   1      -1.346   1.045   2.334  0.00  0.00     0.045 A 
ENDROOT
TORSDOF 0
ENDMDL
