MODEL 1
REMARK minimizedAffinity -4.0035758
REMARK minimizedRMSD -1
REMARK  0 active torsions:
REMARK  status: ('A' for Active; 'I' for Inactive)
ROOT
ATOM      1  C   UNL d   1      -0.616   1.187   3.174  0.00  0.00    -0.002 A 
ATOM      2  C1  UNL d   1       0.599   0.614   3.523  0.00  0.00     0.010 A 
ATOM      3  C2  UNL d   1       1.337  -0.112   2.587  0.00  0.00     0.041 A 
ATOM      4  C3  UNL d   1       0.830  -0.252   1.280  0.00  0.00    -0.075 A 
ATOM      5  S   UNL d   1       1.561  -1.095  -0.034  0.00  0.00     0.015 SA
ATOM      6  C4  UNL d   1       0.279  -0.714  -1.090  0.00  0.00     0.022 A 
ATOM      7  C5  UNL d   1      -0.692   0.038  -0.472  0.00  0.00     0.026 A 
ATOM      8  C6  UNL d   1      -0.390   0.318   0.904  0.00  0.00    -0.082 A 
ATOM      9  C7  UNL d   1      -1.115   1.047   1.877  0.00  0.00     0.045 A 
ENDROOT
TORSDOF 0
ENDMDL
