MODEL 1
REMARK minimizedAffinity -5.17825747
REMARK minimizedRMSD -1
REMARK  0 active torsions:
REMARK  status: ('A' for Active; 'I' for Inactive)
ROOT
ATOM      1  C   UNL d   1       1.334   0.780   3.282  0.00  0.00    -0.002 A 
ATOM      2  C1  UNL d   1       0.037   1.251   3.432  0.00  0.00     0.010 A 
ATOM      3  C2  UNL d   1      -0.893   1.110   2.401  0.00  0.00     0.041 A 
ATOM      4  C3  UNL d   1      -0.495   0.480   1.205  0.00  0.00    -0.075 A 
ATOM      5  S   UNL d   1      -1.463   0.196  -0.193  0.00  0.00     0.015 SA
ATOM      6  C4  UNL d   1      -0.179  -0.557  -1.022  0.00  0.00     0.022 A 
ATOM      7  C5  UNL d   1       0.969  -0.599  -0.266  0.00  0.00     0.026 A 
ATOM      8  C6  UNL d   1       0.805  -0.003   1.030  0.00  0.00    -0.082 A 
ATOM      9  C7  UNL d   1       1.726   0.156   2.094  0.00  0.00     0.045 A 
ENDROOT
TORSDOF 0
ENDMDL
