MODEL 1
REMARK minimizedAffinity 0.6432091
REMARK minimizedRMSD -1
REMARK  0 active torsions:
REMARK  status: ('A' for Active; 'I' for Inactive)
ROOT
ATOM      1  C   UNL d   1       1.638  -1.125  -0.628  0.00  0.00    -0.002 A 
ATOM      2  C1  UNL d   1       2.092  -1.063   0.682  0.00  0.00     0.010 A 
ATOM      3  C2  UNL d   1       1.259  -0.596   1.701  0.00  0.00     0.041 A 
ATOM      4  C3  UNL d   1      -0.051  -0.191   1.378  0.00  0.00    -0.075 A 
ATOM      5  S   UNL d   1      -1.248   0.414   2.461  0.00  0.00     0.015 SA
ATOM      6  C4  UNL d   1      -2.391   0.602   1.211  0.00  0.00     0.022 A 
ATOM      7  C5  UNL d   1      -1.888   0.218  -0.009  0.00  0.00     0.026 A 
ATOM      8  C6  UNL d   1      -0.531  -0.246   0.067  0.00  0.00    -0.082 A 
ATOM      9  C7  UNL d   1       0.338  -0.723  -0.944  0.00  0.00     0.045 A 
ENDROOT
TORSDOF 0
ENDMDL
