MODEL 1
REMARK minimizedAffinity -2.3347981
REMARK minimizedRMSD -1
REMARK  1 active torsions:
REMARK  status: ('A' for Active; 'I' for Inactive)
REMARK    1  A    between atoms: C1_2  and  C2_3 
ROOT
ATOM      1  C2  UNL d   1      -0.647   1.093  -0.999  0.00  0.00    -0.081 A 
ATOM      2  C3  UNL d   1      -1.646   1.096  -0.018  0.00  0.00     0.006 A 
ATOM      3  C4  UNL d   1      -1.470   0.388   1.174  0.00  0.00     0.002 A 
ATOM      4  C5  UNL d   1      -0.291  -0.326   1.408  0.00  0.00    -0.080 A 
ATOM      5  C6  UNL d   1      -0.077  -1.064   2.696  0.00  0.00     0.076 C 
ATOM      6  C7  UNL d   1       0.701  -0.343   0.421  0.00  0.00     0.002 A 
ATOM      7  C8  UNL d   1       0.525   0.363  -0.771  0.00  0.00     0.006 A 
ENDROOT
BRANCH   1   8
ATOM      8  C1  UNL d   1      -0.806   1.907  -2.257  0.00  0.00     0.054 C 
ATOM      9  C   UNL d   1      -1.232   3.334  -1.943  0.00  0.00     0.018 C 
ENDBRANCH   1   8
TORSDOF 1
ENDMDL
