MODEL 1
REMARK minimizedAffinity -5.31756544
REMARK minimizedRMSD -1
REMARK  1 active torsions:
REMARK  status: ('A' for Active; 'I' for Inactive)
REMARK    1  A    between atoms: C1_2  and  C2_3 
ROOT
ATOM      1  C2  UNL d   1      -0.022   0.149  -0.763  0.00  0.00    -0.081 A 
ATOM      2  C3  UNL d   1      -0.993   0.232   0.242  0.00  0.00     0.006 A 
ATOM      3  C4  UNL d   1      -0.656  -0.018   1.575  0.00  0.00     0.002 A 
ATOM      4  C5  UNL d   1       0.658  -0.347   1.925  0.00  0.00    -0.080 A 
ATOM      5  C6  UNL d   1       1.039  -0.588   3.356  0.00  0.00     0.076 C 
ATOM      6  C7  UNL d   1       1.624  -0.447   0.919  0.00  0.00     0.002 A 
ATOM      7  C8  UNL d   1       1.288  -0.197  -0.414  0.00  0.00     0.006 A 
ENDROOT
BRANCH   1   8
ATOM      8  C1  UNL d   1      -0.368   0.482  -2.192  0.00  0.00     0.054 C 
ATOM      9  C   UNL d   1      -0.773   1.941  -2.338  0.00  0.00     0.018 C 
ENDBRANCH   1   8
TORSDOF 1
ENDMDL
