MODEL 1
REMARK minimizedAffinity -5.70163774
REMARK minimizedRMSD -1
REMARK  1 active torsions:
REMARK  status: ('A' for Active; 'I' for Inactive)
REMARK    1  A    between atoms: C1_2  and  C2_3 
ROOT
ATOM      1  C2  UNL d   1      -0.370   0.518  -0.647  0.00  0.00    -0.081 A 
ATOM      2  C3  UNL d   1      -1.191   0.414   0.482  0.00  0.00     0.006 A 
ATOM      3  C4  UNL d   1      -0.672  -0.043   1.696  0.00  0.00     0.002 A 
ATOM      4  C5  UNL d   1       0.677  -0.397   1.802  0.00  0.00    -0.080 A 
ATOM      5  C6  UNL d   1       1.254  -0.860   3.107  0.00  0.00     0.076 C 
ATOM      6  C7  UNL d   1       1.494  -0.310   0.669  0.00  0.00     0.002 A 
ATOM      7  C8  UNL d   1       0.975   0.146  -0.544  0.00  0.00     0.006 A 
ENDROOT
BRANCH   1   8
ATOM      8  C1  UNL d   1      -0.912   1.071  -1.940  0.00  0.00     0.054 C 
ATOM      9  C   UNL d   1      -0.013   2.169  -2.492  0.00  0.00     0.018 C 
ENDBRANCH   1   8
TORSDOF 1
ENDMDL
