MODEL 1
REMARK minimizedAffinity -3.65816164
REMARK minimizedRMSD -1
REMARK  1 active torsions:
REMARK  status: ('A' for Active; 'I' for Inactive)
REMARK    1  A    between atoms: C1_2  and  C2_3 
ROOT
ATOM      1  C2  UNL d   1      -0.309   0.509  -1.094  0.00  0.00    -0.081 A 
ATOM      2  C3  UNL d   1      -1.137   0.495   0.034  0.00  0.00     0.006 A 
ATOM      3  C4  UNL d   1      -0.634   0.104   1.278  0.00  0.00     0.002 A 
ATOM      4  C5  UNL d   1       0.706  -0.271   1.415  0.00  0.00    -0.080 A 
ATOM      5  C6  UNL d   1       1.267  -0.664   2.749  0.00  0.00     0.076 C 
ATOM      6  C7  UNL d   1       1.530  -0.273   0.284  0.00  0.00     0.002 A 
ATOM      7  C8  UNL d   1       1.028   0.117  -0.959  0.00  0.00     0.006 A 
ENDROOT
BRANCH   1   8
ATOM      8  C1  UNL d   1      -0.831   0.992  -2.423  0.00  0.00     0.054 C 
ATOM      9  C   UNL d   1      -0.588   2.483  -2.605  0.00  0.00     0.018 C 
ENDBRANCH   1   8
TORSDOF 1
ENDMDL
