MODEL 1
REMARK minimizedAffinity -2.33010793
REMARK minimizedRMSD -1
REMARK  1 active torsions:
REMARK  status: ('A' for Active; 'I' for Inactive)
REMARK    1  A    between atoms: C1_2  and  C2_3 
ROOT
ATOM      1  C2  UNL d   1      -0.778   0.522  -0.499  0.00  0.00    -0.081 A 
ATOM      2  C3  UNL d   1       0.533   0.055  -0.655  0.00  0.00     0.006 A 
ATOM      3  C4  UNL d   1       1.221  -0.500   0.427  0.00  0.00     0.002 A 
ATOM      4  C5  UNL d   1       0.607  -0.605   1.680  0.00  0.00    -0.080 A 
ATOM      5  C6  UNL d   1       1.323  -1.226   2.842  0.00  0.00     0.076 C 
ATOM      6  C7  UNL d   1      -0.697  -0.122   1.840  0.00  0.00     0.002 A 
ATOM      7  C8  UNL d   1      -1.384   0.433   0.759  0.00  0.00     0.006 A 
ENDROOT
BRANCH   1   8
ATOM      8  C1  UNL d   1      -1.544   1.062  -1.679  0.00  0.00     0.054 C 
ATOM      9  C   UNL d   1      -1.006   2.416  -2.116  0.00  0.00     0.018 C 
ENDBRANCH   1   8
TORSDOF 1
ENDMDL
