MODEL 1
REMARK minimizedAffinity -4.32292509
REMARK minimizedRMSD -1
REMARK  1 active torsions:
REMARK  status: ('A' for Active; 'I' for Inactive)
REMARK    1  A    between atoms: C1_2  and  C2_3 
ROOT
ATOM      1  C2  UNL d   1       0.199  -0.103  -0.651  0.00  0.00    -0.081 A 
ATOM      2  C3  UNL d   1       1.468  -0.679  -0.518  0.00  0.00     0.006 A 
ATOM      3  C4  UNL d   1       1.943  -1.062   0.739  0.00  0.00     0.002 A 
ATOM      4  C5  UNL d   1       1.155  -0.883   1.881  0.00  0.00    -0.080 A 
ATOM      5  C6  UNL d   1       1.641  -1.318   3.231  0.00  0.00     0.076 C 
ATOM      6  C7  UNL d   1      -0.106  -0.291   1.749  0.00  0.00     0.002 A 
ATOM      7  C8  UNL d   1      -0.582   0.093   0.494  0.00  0.00     0.006 A 
ENDROOT
BRANCH   1   8
ATOM      8  C1  UNL d   1      -0.342   0.252  -2.013  0.00  0.00     0.054 C 
ATOM      9  C   UNL d   1      -0.996   1.627  -2.007  0.00  0.00     0.018 C 
ENDBRANCH   1   8
TORSDOF 1
ENDMDL
