MODEL 1
REMARK minimizedAffinity 1.93256795
REMARK minimizedRMSD -1
REMARK  0 active torsions:
REMARK  status: ('A' for Active; 'I' for Inactive)
ROOT
ATOM      1  C   UNL d   1       0.090   0.006   3.428  0.00  0.00     0.172 C 
ATOM      2  N   UNL d   1       0.128  -0.501   2.077  0.00  0.00    -0.070 N 
ATOM      3  C1  UNL d   1      -0.921  -1.072   1.408  0.00  0.00    -0.004 A 
ATOM      4  C2  UNL d   1      -0.480  -1.422   0.150  0.00  0.00    -0.047 A 
ATOM      5  C3  UNL d   1       0.883  -1.050   0.061  0.00  0.00    -0.047 A 
ATOM      6  C4  UNL d   1       1.233  -0.483   1.267  0.00  0.00    -0.004 A 
ENDROOT
TORSDOF 0
ENDMDL
