MODEL 1
REMARK minimizedAffinity -1.99622858
REMARK minimizedRMSD -1
REMARK  0 active torsions:
REMARK  status: ('A' for Active; 'I' for Inactive)
ROOT
ATOM      1  C   UNL d   1       1.812  -3.888  -0.142  0.00  0.00     0.172 C 
ATOM      2  N   UNL d   1       0.953  -2.746   0.068  0.00  0.00    -0.070 N 
ATOM      3  C1  UNL d   1       1.313  -1.579   0.688  0.00  0.00    -0.004 A 
ATOM      4  C2  UNL d   1       0.217  -0.745   0.687  0.00  0.00    -0.047 A 
ATOM      5  C3  UNL d   1      -0.839  -1.434   0.045  0.00  0.00    -0.047 A 
ATOM      6  C4  UNL d   1      -0.356  -2.670  -0.328  0.00  0.00    -0.004 A 
ENDROOT
TORSDOF 0
ENDMDL
