MODEL 1
REMARK minimizedAffinity 2.28181696
REMARK minimizedRMSD -1
REMARK  0 active torsions:
REMARK  status: ('A' for Active; 'I' for Inactive)
ROOT
ATOM      1  C   UNL d   1       2.708  -0.405   0.453  0.00  0.00     0.172 C 
ATOM      2  N   UNL d   1       1.427  -1.071   0.455  0.00  0.00    -0.070 N 
ATOM      3  C1  UNL d   1       1.160  -2.289  -0.113  0.00  0.00    -0.004 A 
ATOM      4  C2  UNL d   1      -0.171  -2.573   0.105  0.00  0.00    -0.047 A 
ATOM      5  C3  UNL d   1      -0.723  -1.488   0.826  0.00  0.00    -0.047 A 
ATOM      6  C4  UNL d   1       0.288  -0.573   1.030  0.00  0.00    -0.004 A 
ENDROOT
TORSDOF 0
ENDMDL
