MODEL 1
REMARK minimizedAffinity -0.235586688
REMARK minimizedRMSD -1
REMARK  0 active torsions:
REMARK  status: ('A' for Active; 'I' for Inactive)
ROOT
ATOM      1  C   UNL d   1       5.999   5.704  -1.150  0.00  0.00     0.172 C 
ATOM      2  N   UNL d   1       5.014   5.777  -0.097  0.00  0.00    -0.070 N 
ATOM      3  C1  UNL d   1       5.264   5.638   1.242  0.00  0.00    -0.004 A 
ATOM      4  C2  UNL d   1       4.067   5.773   1.911  0.00  0.00    -0.047 A 
ATOM      5  C3  UNL d   1       3.062   6.000   0.941  0.00  0.00    -0.047 A 
ATOM      6  C4  UNL d   1       3.676   5.997  -0.294  0.00  0.00    -0.004 A 
ENDROOT
TORSDOF 0
ENDMDL
