MODEL 1
REMARK minimizedAffinity -2.25837421
REMARK minimizedRMSD -1
REMARK  0 active torsions:
REMARK  status: ('A' for Active; 'I' for Inactive)
ROOT
ATOM      1  C   UNL d   1       2.299  -2.399  -0.637  0.00  0.00     0.172 C 
ATOM      2  N   UNL d   1       1.150  -1.839   0.034  0.00  0.00    -0.070 N 
ATOM      3  C1  UNL d   1       1.132  -0.668   0.743  0.00  0.00    -0.004 A 
ATOM      4  C2  UNL d   1      -0.146  -0.486   1.225  0.00  0.00    -0.047 A 
ATOM      5  C3  UNL d   1      -0.923  -1.586   0.791  0.00  0.00    -0.047 A 
ATOM      6  C4  UNL d   1      -0.096  -2.408   0.056  0.00  0.00    -0.004 A 
ENDROOT
TORSDOF 0
ENDMDL
