MODEL 1
REMARK minimizedAffinity -0.859672844
REMARK minimizedRMSD -1
REMARK  0 active torsions:
REMARK  status: ('A' for Active; 'I' for Inactive)
ROOT
ATOM      1  C   UNL d   1       2.120  -0.298   1.597  0.00  0.00     0.172 C 
ATOM      2  N   UNL d   1       1.019  -0.927   0.906  0.00  0.00    -0.070 N 
ATOM      3  C1  UNL d   1      -0.289  -0.524   0.954  0.00  0.00    -0.004 A 
ATOM      4  C2  UNL d   1      -1.024  -1.380   0.163  0.00  0.00    -0.047 A 
ATOM      5  C3  UNL d   1      -0.128  -2.332  -0.378  0.00  0.00    -0.047 A 
ATOM      6  C4  UNL d   1       1.130  -2.028   0.098  0.00  0.00    -0.004 A 
ENDROOT
TORSDOF 0
ENDMDL
