MODEL 1
REMARK minimizedAffinity -2.45500255
REMARK minimizedRMSD -1
REMARK  0 active torsions:
REMARK  status: ('A' for Active; 'I' for Inactive)
ROOT
ATOM      1  C   UNL d   1       2.187  -0.645   0.791  0.00  0.00     0.172 C 
ATOM      2  N   UNL d   1       0.894  -1.228   0.525  0.00  0.00    -0.070 N 
ATOM      3  C1  UNL d   1       0.672  -2.436  -0.082  0.00  0.00    -0.004 A 
ATOM      4  C2  UNL d   1      -0.691  -2.630  -0.149  0.00  0.00    -0.047 A 
ATOM      5  C3  UNL d   1      -1.309  -1.500   0.436  0.00  0.00    -0.047 A 
ATOM      6  C4  UNL d   1      -0.305  -0.648   0.845  0.00  0.00    -0.004 A 
ENDROOT
TORSDOF 0
ENDMDL
