MODEL 1
REMARK minimizedAffinity 0.024337627
REMARK minimizedRMSD -1
REMARK  0 active torsions:
REMARK  status: ('A' for Active; 'I' for Inactive)
ROOT
ATOM      1  C   UNL d   1       0.816  -3.564   0.109  0.00  0.00     0.172 C 
ATOM      2  N   UNL d   1       0.593  -2.213   0.566  0.00  0.00    -0.070 N 
ATOM      3  C1  UNL d   1       1.538  -1.393   1.124  0.00  0.00    -0.004 A 
ATOM      4  C2  UNL d   1       0.931  -0.192   1.423  0.00  0.00    -0.047 A 
ATOM      5  C3  UNL d   1      -0.425  -0.294   1.033  0.00  0.00    -0.047 A 
ATOM      6  C4  UNL d   1      -0.607  -1.555   0.506  0.00  0.00    -0.004 A 
ENDROOT
TORSDOF 0
ENDMDL
