MODEL 1
REMARK minimizedAffinity -0.993667662
REMARK minimizedRMSD -1
REMARK  0 active torsions:
REMARK  status: ('A' for Active; 'I' for Inactive)
ROOT
ATOM      1  C   UNL d   1       2.084  -3.505  -0.784  0.00  0.00     0.172 C 
ATOM      2  N   UNL d   1       1.213  -2.602  -0.068  0.00  0.00    -0.070 N 
ATOM      3  C1  UNL d   1       1.387  -1.249   0.047  0.00  0.00    -0.004 A 
ATOM      4  C2  UNL d   1       0.347  -0.753   0.804  0.00  0.00    -0.047 A 
ATOM      5  C3  UNL d   1      -0.480  -1.846   1.155  0.00  0.00    -0.047 A 
ATOM      6  C4  UNL d   1       0.079  -2.979   0.603  0.00  0.00    -0.004 A 
ENDROOT
TORSDOF 0
ENDMDL
