MODEL 1
REMARK minimizedAffinity 0.977189064
REMARK minimizedRMSD -1
REMARK  0 active torsions:
REMARK  status: ('A' for Active; 'I' for Inactive)
ROOT
ATOM      1  C   UNL d   1      -0.758  -1.867   1.110  0.00  0.00     0.172 C 
ATOM      2  N   UNL d   1       0.508  -2.233   0.519  0.00  0.00    -0.070 N 
ATOM      3  C1  UNL d   1       1.641  -1.464   0.520  0.00  0.00    -0.004 A 
ATOM      4  C2  UNL d   1       2.627  -2.165  -0.140  0.00  0.00    -0.047 A 
ATOM      5  C3  UNL d   1       2.067  -3.397  -0.552  0.00  0.00    -0.047 A 
ATOM      6  C4  UNL d   1       0.754  -3.413  -0.131  0.00  0.00    -0.004 A 
ENDROOT
TORSDOF 0
ENDMDL
