MODEL 1
REMARK minimizedAffinity 1.55321717
REMARK minimizedRMSD -1
REMARK  0 active torsions:
REMARK  status: ('A' for Active; 'I' for Inactive)
ROOT
ATOM      1  C   UNL d   1       1.560  -3.328  -0.706  0.00  0.00     0.172 C 
ATOM      2  N   UNL d   1       0.836  -2.253  -0.070  0.00  0.00    -0.070 N 
ATOM      3  C1  UNL d   1       1.182  -0.928  -0.103  0.00  0.00    -0.004 A 
ATOM      4  C2  UNL d   1       0.241  -0.228   0.620  0.00  0.00    -0.047 A 
ATOM      5  C3  UNL d   1      -0.703  -1.164   1.105  0.00  0.00    -0.047 A 
ATOM      6  C4  UNL d   1      -0.310  -2.410   0.663  0.00  0.00    -0.004 A 
ENDROOT
TORSDOF 0
ENDMDL
