MODEL 1
REMARK minimizedAffinity 0.323120743
REMARK minimizedRMSD -1
REMARK  0 active torsions:
REMARK  status: ('A' for Active; 'I' for Inactive)
ROOT
ATOM      1  C   UNL d   1       1.710  -3.546  -0.303  0.00  0.00     0.172 C 
ATOM      2  N   UNL d   1       0.974  -2.368   0.093  0.00  0.00    -0.070 N 
ATOM      3  C1  UNL d   1       1.519  -1.221   0.604  0.00  0.00    -0.004 A 
ATOM      4  C2  UNL d   1       0.489  -0.339   0.853  0.00  0.00    -0.047 A 
ATOM      5  C3  UNL d   1      -0.716  -0.980   0.480  0.00  0.00    -0.047 A 
ATOM      6  C4  UNL d   1      -0.387  -2.235   0.013  0.00  0.00    -0.004 A 
ENDROOT
TORSDOF 0
ENDMDL
