MODEL 1
REMARK minimizedAffinity 0.441081613
REMARK minimizedRMSD -1
REMARK  0 active torsions:
REMARK  status: ('A' for Active; 'I' for Inactive)
ROOT
ATOM      1  C   UNL d   1       2.698  -1.088  -0.067  0.00  0.00     0.172 C 
ATOM      2  N   UNL d   1       1.400  -1.649   0.226  0.00  0.00    -0.070 N 
ATOM      3  C1  UNL d   1       0.402  -1.028   0.927  0.00  0.00    -0.004 A 
ATOM      4  C2  UNL d   1      -0.671  -1.891   0.988  0.00  0.00    -0.047 A 
ATOM      5  C3  UNL d   1      -0.304  -3.072   0.300  0.00  0.00    -0.047 A 
ATOM      6  C4  UNL d   1       0.983  -2.895  -0.162  0.00  0.00    -0.004 A 
ENDROOT
TORSDOF 0
ENDMDL
