MODEL 1
REMARK minimizedAffinity -3.40282726
REMARK minimizedRMSD -1
REMARK  0 active torsions:
REMARK  status: ('A' for Active; 'I' for Inactive)
ROOT
ATOM      1  C   UNL d   1      -2.341  -0.140   2.626  0.00  0.00    -0.002 A 
ATOM      2  C1  UNL d   1      -1.203   0.017   3.405  0.00  0.00     0.010 A 
ATOM      3  C2  UNL d   1       0.053   0.145   2.810  0.00  0.00     0.041 A 
ATOM      4  C3  UNL d   1       0.148   0.115   1.405  0.00  0.00    -0.075 A 
ATOM      5  S   UNL d   1       1.580   0.254   0.456  0.00  0.00     0.015 SA
ATOM      6  C4  UNL d   1       0.716   0.109  -1.006  0.00  0.00     0.022 A 
ATOM      7  C5  UNL d   1      -0.634  -0.043  -0.794  0.00  0.00     0.026 A 
ATOM      8  C6  UNL d   1      -0.984  -0.042   0.599  0.00  0.00    -0.082 A 
ATOM      9  C7  UNL d   1      -2.243  -0.170   1.233  0.00  0.00     0.045 A 
ENDROOT
TORSDOF 0
ENDMDL
