MODEL 1
REMARK minimizedAffinity -2.04004622
REMARK minimizedRMSD -1
REMARK  0 active torsions:
REMARK  status: ('A' for Active; 'I' for Inactive)
ROOT
ATOM      1  C   UNL d   1      -0.068  -0.930  -1.209  0.00  0.00    -0.002 A 
ATOM      2  C1  UNL d   1       0.733   0.187  -1.021  0.00  0.00     0.010 A 
ATOM      3  C2  UNL d   1       0.692   0.895   0.182  0.00  0.00     0.041 A 
ATOM      4  C3  UNL d   1      -0.173   0.456   1.203  0.00  0.00    -0.075 A 
ATOM      5  S   UNL d   1      -0.389   1.165   2.759  0.00  0.00     0.015 SA
ATOM      6  C4  UNL d   1      -1.549   0.001   3.211  0.00  0.00     0.022 A 
ATOM      7  C5  UNL d   1      -1.778  -0.914   2.211  0.00  0.00     0.026 A 
ATOM      8  C6  UNL d   1      -0.989  -0.667   1.037  0.00  0.00    -0.082 A 
ATOM      9  C7  UNL d   1      -0.926  -1.363  -0.194  0.00  0.00     0.045 A 
ENDROOT
TORSDOF 0
ENDMDL
