MODEL 1
REMARK minimizedAffinity -5.09476948
REMARK minimizedRMSD -1
REMARK  0 active torsions:
REMARK  status: ('A' for Active; 'I' for Inactive)
ROOT
ATOM      1  C   UNL d   1      -1.671  -0.216   3.342  0.00  0.00    -0.002 A 
ATOM      2  C1  UNL d   1      -2.692   0.410   2.641  0.00  0.00     0.010 A 
ATOM      3  C2  UNL d   1      -2.573   0.642   1.270  0.00  0.00     0.041 A 
ATOM      4  C3  UNL d   1      -1.401   0.227   0.607  0.00  0.00    -0.075 A 
ATOM      5  S   UNL d   1      -1.035   0.405  -1.068  0.00  0.00     0.015 SA
ATOM      6  C4  UNL d   1       0.484  -0.347  -0.893  0.00  0.00     0.022 A 
ATOM      7  C5  UNL d   1       0.723  -0.731   0.405  0.00  0.00     0.026 A 
ATOM      8  C6  UNL d   1      -0.360  -0.406   1.291  0.00  0.00    -0.082 A 
ATOM      9  C7  UNL d   1      -0.510  -0.626   2.682  0.00  0.00     0.045 A 
ENDROOT
TORSDOF 0
ENDMDL
