MODEL 1
REMARK minimizedAffinity -4.79934597
REMARK minimizedRMSD -1
REMARK  0 active torsions:
REMARK  status: ('A' for Active; 'I' for Inactive)
ROOT
ATOM      1  C   UNL d   1      -1.024  -0.479   3.144  0.00  0.00    -0.002 A 
ATOM      2  C1  UNL d   1      -2.318  -0.108   2.807  0.00  0.00     0.010 A 
ATOM      3  C2  UNL d   1      -2.606   0.388   1.534  0.00  0.00     0.041 A 
ATOM      4  C3  UNL d   1      -1.562   0.505   0.596  0.00  0.00    -0.075 A 
ATOM      5  S   UNL d   1      -1.680   1.086  -1.023  0.00  0.00     0.015 SA
ATOM      6  C4  UNL d   1      -0.015   0.854  -1.306  0.00  0.00     0.022 A 
ATOM      7  C5  UNL d   1       0.630   0.347  -0.203  0.00  0.00     0.026 A 
ATOM      8  C6  UNL d   1      -0.251   0.137   0.911  0.00  0.00    -0.082 A 
ATOM      9  C7  UNL d   1       0.009  -0.362   2.210  0.00  0.00     0.045 A 
ENDROOT
TORSDOF 0
ENDMDL
