MODEL 1
REMARK minimizedAffinity -4.64688253
REMARK minimizedRMSD -1
REMARK  0 active torsions:
REMARK  status: ('A' for Active; 'I' for Inactive)
ROOT
ATOM      1  C   UNL d   1      -3.122  -0.114   2.913  0.00  0.00    -0.002 A 
ATOM      2  C1  UNL d   1      -3.533   0.221   1.631  0.00  0.00     0.010 A 
ATOM      3  C2  UNL d   1      -2.598   0.390   0.607  0.00  0.00     0.041 A 
ATOM      4  C3  UNL d   1      -1.231   0.214   0.897  0.00  0.00    -0.075 A 
ATOM      5  S   UNL d   1       0.092   0.369  -0.198  0.00  0.00     0.015 SA
ATOM      6  C4  UNL d   1       1.233  -0.007   1.011  0.00  0.00     0.022 A 
ATOM      7  C5  UNL d   1       0.637  -0.247   2.226  0.00  0.00     0.026 A 
ATOM      8  C6  UNL d   1      -0.793  -0.125   2.180  0.00  0.00    -0.082 A 
ATOM      9  C7  UNL d   1      -1.765  -0.289   3.196  0.00  0.00     0.045 A 
ENDROOT
TORSDOF 0
ENDMDL
