MODEL 1
REMARK minimizedAffinity -3.23935175
REMARK minimizedRMSD -1
REMARK  0 active torsions:
REMARK  status: ('A' for Active; 'I' for Inactive)
ROOT
ATOM      1  C   UNL d   1       0.288  -0.252  -1.899  0.00  0.00    -0.002 A 
ATOM      2  C1  UNL d   1       1.428   0.351  -1.388  0.00  0.00     0.010 A 
ATOM      3  C2  UNL d   1       1.557   0.576  -0.016  0.00  0.00     0.041 A 
ATOM      4  C3  UNL d   1       0.512   0.179   0.842  0.00  0.00    -0.075 A 
ATOM      5  S   UNL d   1       0.452   0.354   2.556  0.00  0.00     0.015 SA
ATOM      6  C4  UNL d   1      -1.089  -0.370   2.649  0.00  0.00     0.022 A 
ATOM      7  C5  UNL d   1      -1.560  -0.741   1.412  0.00  0.00     0.026 A 
ATOM      8  C6  UNL d   1      -0.645  -0.431   0.350  0.00  0.00    -0.082 A 
ATOM      9  C7  UNL d   1      -0.747  -0.645  -1.046  0.00  0.00     0.045 A 
ENDROOT
TORSDOF 0
ENDMDL
