MODEL 1
REMARK minimizedAffinity -4.11118174
REMARK minimizedRMSD -1
REMARK  0 active torsions:
REMARK  status: ('A' for Active; 'I' for Inactive)
ROOT
ATOM      1  C   UNL d   1      -1.780  -0.239   3.219  0.00  0.00    -0.002 A 
ATOM      2  C1  UNL d   1      -2.856   0.320   2.544  0.00  0.00     0.010 A 
ATOM      3  C2  UNL d   1      -2.761   0.625   1.185  0.00  0.00     0.041 A 
ATOM      4  C3  UNL d   1      -1.556   0.355   0.508  0.00  0.00    -0.075 A 
ATOM      5  S   UNL d   1      -1.210   0.644  -1.156  0.00  0.00     0.015 SA
ATOM      6  C4  UNL d   1       0.373   0.032  -1.011  0.00  0.00     0.022 A 
ATOM      7  C5  UNL d   1       0.649  -0.387   0.269  0.00  0.00     0.026 A 
ATOM      8  C6  UNL d   1      -0.458  -0.209   1.166  0.00  0.00    -0.082 A 
ATOM      9  C7  UNL d   1      -0.586  -0.506   2.544  0.00  0.00     0.045 A 
ENDROOT
TORSDOF 0
ENDMDL
