MODEL 1
REMARK minimizedAffinity -4.15242863
REMARK minimizedRMSD -1
REMARK  0 active torsions:
REMARK  status: ('A' for Active; 'I' for Inactive)
ROOT
ATOM      1  C   UNL d   1      -0.707  -0.745   3.344  0.00  0.00    -0.002 A 
ATOM      2  C1  UNL d   1      -1.997  -0.619   2.848  0.00  0.00     0.010 A 
ATOM      3  C2  UNL d   1      -2.215  -0.263   1.516  0.00  0.00     0.041 A 
ATOM      4  C3  UNL d   1      -1.103  -0.034   0.681  0.00  0.00    -0.075 A 
ATOM      5  S   UNL d   1      -1.128   0.412  -0.984  0.00  0.00     0.015 SA
ATOM      6  C4  UNL d   1       0.573   0.446  -1.077  0.00  0.00     0.022 A 
ATOM      7  C5  UNL d   1       1.162   0.127   0.124  0.00  0.00     0.026 A 
ATOM      8  C6  UNL d   1       0.205  -0.155   1.157  0.00  0.00    -0.082 A 
ATOM      9  C7  UNL d   1       0.393  -0.517   2.513  0.00  0.00     0.045 A 
ENDROOT
TORSDOF 0
ENDMDL
