MODEL 1
REMARK minimizedAffinity -6.20069647
REMARK minimizedRMSD -1
REMARK  0 active torsions:
REMARK  status: ('A' for Active; 'I' for Inactive)
ROOT
ATOM      1  C   UNL d   1      -2.002  -0.311   3.346  0.00  0.00    -0.002 A 
ATOM      2  C1  UNL d   1      -2.983  -0.090   2.390  0.00  0.00     0.010 A 
ATOM      3  C2  UNL d   1      -2.637   0.131   1.055  0.00  0.00     0.041 A 
ATOM      4  C3  UNL d   1      -1.276   0.123   0.693  0.00  0.00    -0.075 A 
ATOM      5  S   UNL d   1      -0.617   0.368  -0.881  0.00  0.00     0.015 SA
ATOM      6  C4  UNL d   1       0.982   0.184  -0.322  0.00  0.00     0.022 A 
ATOM      7  C5  UNL d   1       1.031  -0.059   1.030  0.00  0.00     0.026 A 
ATOM      8  C6  UNL d   1      -0.270  -0.099   1.638  0.00  0.00    -0.082 A 
ATOM      9  C7  UNL d   1      -0.652  -0.319   2.983  0.00  0.00     0.045 A 
ENDROOT
TORSDOF 0
ENDMDL
