MODEL 1
REMARK minimizedAffinity 1.72509289
REMARK minimizedRMSD -1
REMARK  1 active torsions:
REMARK  status: ('A' for Active; 'I' for Inactive)
REMARK    1  A    between atoms: C1_2  and  C2_3 
ROOT
ATOM      1  C2  UNL d   1       3.514  -5.980  -3.780  0.00  0.00    -0.076 A 
ATOM      2  C3  UNL d   1       4.752  -5.957  -3.114  0.00  0.00     0.004 A 
ATOM      3  C4  UNL d   1       5.950  -5.965  -3.826  0.00  0.00    -0.003 A 
ATOM      4  C5  UNL d   1       5.930  -5.995  -5.216  0.00  0.00     0.000 A 
ATOM      5  C6  UNL d   1       4.711  -6.000  -5.894  0.00  0.00     0.000 A 
ATOM      6  C7  UNL d   1       3.494  -5.976  -5.191  0.00  0.00    -0.073 A 
ATOM      7  C8  UNL d   1       2.209  -5.988  -5.973  0.00  0.00     0.078 C 
ENDROOT
BRANCH   1   8
ATOM      8  C1  UNL d   1       2.247  -5.997  -2.955  0.00  0.00     0.053 C 
ATOM      9  C   UNL d   1       2.525  -5.957  -1.460  0.00  0.00     0.018 C 
ENDBRANCH   1   8
TORSDOF 1
ENDMDL
