MODEL 1
REMARK minimizedAffinity 7.43775558
REMARK minimizedRMSD -1
REMARK  1 active torsions:
REMARK  status: ('A' for Active; 'I' for Inactive)
REMARK    1  A    between atoms: C1_2  and  C2_3 
ROOT
ATOM      1  C2  UNL d   1       2.183  -2.576   3.566  0.00  0.00    -0.076 A 
ATOM      2  C3  UNL d   1       2.915  -1.998   4.617  0.00  0.00     0.004 A 
ATOM      3  C4  UNL d   1       3.829  -2.751   5.353  0.00  0.00    -0.003 A 
ATOM      4  C5  UNL d   1       4.027  -4.093   5.048  0.00  0.00     0.000 A 
ATOM      5  C6  UNL d   1       3.322  -4.678   3.997  0.00  0.00     0.000 A 
ATOM      6  C7  UNL d   1       2.408  -3.929   3.235  0.00  0.00    -0.073 A 
ATOM      7  C8  UNL d   1       1.671  -4.612   2.116  0.00  0.00     0.078 C 
ENDROOT
BRANCH   1   8
ATOM      8  C1  UNL d   1       1.186  -1.717   2.821  0.00  0.00     0.053 C 
ATOM      9  C   UNL d   1       1.852  -0.596   2.039  0.00  0.00     0.018 C 
ENDBRANCH   1   8
TORSDOF 1
ENDMDL
