MODEL 1
REMARK minimizedAffinity 14.8510408
REMARK minimizedRMSD -1
REMARK  1 active torsions:
REMARK  status: ('A' for Active; 'I' for Inactive)
REMARK    1  A    between atoms: C1_2  and  C2_3 
ROOT
ATOM      1  C2  UNL d   1       3.205  -3.777  -1.608  0.00  0.00    -0.076 A 
ATOM      2  C3  UNL d   1       4.029  -4.027  -2.719  0.00  0.00     0.004 A 
ATOM      3  C4  UNL d   1       4.882  -5.129  -2.746  0.00  0.00    -0.003 A 
ATOM      4  C5  UNL d   1       4.924  -6.000  -1.663  0.00  0.00     0.000 A 
ATOM      5  C6  UNL d   1       4.100  -5.777  -0.560  0.00  0.00     0.000 A 
ATOM      6  C7  UNL d   1       3.223  -4.680  -0.523  0.00  0.00    -0.073 A 
ATOM      7  C8  UNL d   1       2.362  -4.485   0.694  0.00  0.00     0.078 C 
ENDROOT
BRANCH   1   8
ATOM      8  C1  UNL d   1       2.321  -2.551  -1.623  0.00  0.00     0.053 C 
ATOM      9  C   UNL d   1       2.943  -1.393  -2.389  0.00  0.00     0.018 C 
ENDBRANCH   1   8
TORSDOF 1
ENDMDL
