MODEL 1
REMARK minimizedAffinity -2.98209691
REMARK minimizedRMSD -1
REMARK  1 active torsions:
REMARK  status: ('A' for Active; 'I' for Inactive)
REMARK    1  A    between atoms: C1_2  and  C2_3 
ROOT
ATOM      1  C2  UNL d   1       3.420  -1.544   1.873  0.00  0.00    -0.076 A 
ATOM      2  C3  UNL d   1       3.225  -2.936   1.862  0.00  0.00     0.004 A 
ATOM      3  C4  UNL d   1       2.137  -3.513   2.515  0.00  0.00    -0.003 A 
ATOM      4  C5  UNL d   1       1.225  -2.708   3.188  0.00  0.00     0.000 A 
ATOM      5  C6  UNL d   1       1.393  -1.323   3.194  0.00  0.00     0.000 A 
ATOM      6  C7  UNL d   1       2.476  -0.724   2.528  0.00  0.00    -0.073 A 
ATOM      7  C8  UNL d   1       2.611   0.774   2.573  0.00  0.00     0.078 C 
ENDROOT
BRANCH   1   8
ATOM      8  C1  UNL d   1       4.633  -0.976   1.171  0.00  0.00     0.053 C 
ATOM      9  C   UNL d   1       5.908  -1.734   1.508  0.00  0.00     0.018 C 
ENDBRANCH   1   8
TORSDOF 1
ENDMDL
