MODEL 1
REMARK minimizedAffinity -0.0679421052
REMARK minimizedRMSD -1
REMARK  1 active torsions:
REMARK  status: ('A' for Active; 'I' for Inactive)
REMARK    1  A    between atoms: C1_2  and  C2_3 
ROOT
ATOM      1  C2  UNL d   1       3.002  -2.297   3.337  0.00  0.00    -0.076 A 
ATOM      2  C3  UNL d   1       3.163  -1.292   2.368  0.00  0.00     0.004 A 
ATOM      3  C4  UNL d   1       2.153  -1.011   1.450  0.00  0.00    -0.003 A 
ATOM      4  C5  UNL d   1       0.964  -1.731   1.486  0.00  0.00     0.000 A 
ATOM      5  C6  UNL d   1       0.780  -2.720   2.452  0.00  0.00     0.000 A 
ATOM      6  C7  UNL d   1       1.782  -3.004   3.395  0.00  0.00    -0.073 A 
ATOM      7  C8  UNL d   1       1.532  -4.085   4.411  0.00  0.00     0.078 C 
ENDROOT
BRANCH   1   8
ATOM      8  C1  UNL d   1       4.143  -2.575   4.289  0.00  0.00     0.053 C 
ATOM      9  C   UNL d   1       5.499  -2.246   3.685  0.00  0.00     0.018 C 
ENDBRANCH   1   8
TORSDOF 1
ENDMDL
