MODEL 1
REMARK minimizedAffinity -0.691408634
REMARK minimizedRMSD -1
REMARK  0 active torsions:
REMARK  status: ('A' for Active; 'I' for Inactive)
ROOT
ATOM      1  N1  IND d   1       1.310   4.432  -0.178  0.00  0.00    -0.196 N 
ATOM      2  C2  IND d   1       0.871   3.330   0.502  0.00  0.00     0.054 A 
ATOM      3  C3  IND d   1      -0.375   2.994   0.099  0.00  0.00    -0.031 A 
ATOM      4  C4  IND d   1      -1.840   4.050  -1.736  0.00  0.00     0.051 A 
ATOM      5  C5  IND d   1      -1.884   5.101  -2.608  0.00  0.00    -0.031 A 
ATOM      6  C6  IND d   1      -0.843   6.000  -2.718  0.00  0.00     0.015 A 
ATOM      7  C7  IND d   1       0.291   5.874  -1.966  0.00  0.00    -0.016 A 
ATOM      8  C8  IND d   1       0.335   4.811  -1.074  0.00  0.00    -0.047 A 
ATOM      9  C9  IND d   1      -0.736   3.920  -0.927  0.00  0.00    -0.096 A 
ATOM     10  HN1 IND d   1       2.068   4.823  -0.064  0.00  0.00     0.298 HD
ENDROOT
TORSDOF 0
ENDMDL
