MODEL 1
REMARK minimizedAffinity 5.5963316
REMARK minimizedRMSD -1
REMARK  0 active torsions:
REMARK  status: ('A' for Active; 'I' for Inactive)
ROOT
ATOM      1  N1  IND d   1       0.744   5.742  -2.168  0.00  0.00    -0.196 N 
ATOM      2  C2  IND d   1      -0.169   5.550  -3.168  0.00  0.00     0.054 A 
ATOM      3  C3  IND d   1      -0.877   4.420  -2.948  0.00  0.00    -0.031 A 
ATOM      4  C4  IND d   1      -0.776   2.787  -0.960  0.00  0.00     0.051 A 
ATOM      5  C5  IND d   1      -0.074   2.524   0.183  0.00  0.00    -0.031 A 
ATOM      6  C6  IND d   1       0.955   3.338   0.611  0.00  0.00     0.015 A 
ATOM      7  C7  IND d   1       1.315   4.457  -0.086  0.00  0.00    -0.016 A 
ATOM      8  C8  IND d   1       0.609   4.723  -1.251  0.00  0.00    -0.047 A 
ATOM      9  C9  IND d   1      -0.408   3.878  -1.712  0.00  0.00    -0.096 A 
ATOM     10  HN1 IND d   1       1.307   6.390  -2.121  0.00  0.00     0.298 HD
ENDROOT
TORSDOF 0
ENDMDL
