MODEL 1
REMARK minimizedAffinity 0.777247787
REMARK minimizedRMSD -1
REMARK  0 active torsions:
REMARK  status: ('A' for Active; 'I' for Inactive)
ROOT
ATOM      1  N1  IND d   1      -4.746   4.950  -5.244  0.00  0.00    -0.196 N 
ATOM      2  C2  IND d   1      -4.502   6.000  -4.402  0.00  0.00     0.054 A 
ATOM      3  C3  IND d   1      -4.798   5.659  -3.128  0.00  0.00    -0.031 A 
ATOM      4  C4  IND d   1      -5.599   3.403  -2.181  0.00  0.00     0.051 A 
ATOM      5  C5  IND d   1      -6.000   2.155  -2.567  0.00  0.00    -0.031 A 
ATOM      6  C6  IND d   1      -6.000   1.765  -3.890  0.00  0.00     0.015 A 
ATOM      7  C7  IND d   1      -5.587   2.610  -4.882  0.00  0.00    -0.016 A 
ATOM      8  C8  IND d   1      -5.187   3.881  -4.495  0.00  0.00    -0.047 A 
ATOM      9  C9  IND d   1      -5.225   4.296  -3.157  0.00  0.00    -0.096 A 
ATOM     10  HN1 IND d   1      -4.642   4.957  -6.097  0.00  0.00     0.298 HD
ENDROOT
TORSDOF 0
ENDMDL
