MODEL 1
REMARK minimizedAffinity 6.50348949
REMARK minimizedRMSD -1
REMARK  0 active torsions:
REMARK  status: ('A' for Active; 'I' for Inactive)
ROOT
ATOM      1  N1  IND d   1      -6.000  -1.884   6.000  0.00  0.00    -0.196 N 
ATOM      2  C2  IND d   1      -5.220  -3.007   5.989  0.00  0.00     0.054 A 
ATOM      3  C3  IND d   1      -4.277  -2.915   5.024  0.00  0.00    -0.031 A 
ATOM      4  C4  IND d   1      -3.765  -0.971   3.417  0.00  0.00     0.051 A 
ATOM      5  C5  IND d   1      -4.229   0.253   3.025  0.00  0.00    -0.031 A 
ATOM      6  C6  IND d   1      -5.328   0.841   3.619  0.00  0.00     0.015 A 
ATOM      7  C7  IND d   1      -5.999   0.228   4.639  0.00  0.00    -0.016 A 
ATOM      8  C8  IND d   1      -5.535  -1.018   5.034  0.00  0.00    -0.047 A 
ATOM      9  C9  IND d   1      -4.447  -1.638   4.407  0.00  0.00    -0.096 A 
ATOM     10  HN1 IND d   1      -6.668  -1.742   6.522  0.00  0.00     0.298 HD
ENDROOT
TORSDOF 0
ENDMDL
