MODEL 1
REMARK minimizedAffinity 4.68942976
REMARK minimizedRMSD -1
REMARK  0 active torsions:
REMARK  status: ('A' for Active; 'I' for Inactive)
ROOT
ATOM      1  N1  IND d   1      -0.376   2.185  -0.012  0.00  0.00    -0.196 N 
ATOM      2  C2  IND d   1       0.072   2.422   1.257  0.00  0.00     0.054 A 
ATOM      3  C3  IND d   1       0.131   3.751   1.495  0.00  0.00    -0.031 A 
ATOM      4  C4  IND d   1      -0.556   5.715  -0.022  0.00  0.00     0.051 A 
ATOM      5  C5  IND d   1      -0.988   6.000  -1.286  0.00  0.00    -0.031 A 
ATOM      6  C6  IND d   1      -1.247   5.006  -2.209  0.00  0.00     0.015 A 
ATOM      7  C7  IND d   1      -1.093   3.686  -1.896  0.00  0.00    -0.016 A 
ATOM      8  C8  IND d   1      -0.647   3.394  -0.615  0.00  0.00    -0.047 A 
ATOM      9  C9  IND d   1      -0.342   4.399   0.312  0.00  0.00    -0.096 A 
ATOM     10  HN1 IND d   1      -0.473   1.410  -0.374  0.00  0.00     0.298 HD
ENDROOT
TORSDOF 0
ENDMDL
