MODEL 1
REMARK minimizedAffinity 10.0888147
REMARK minimizedRMSD -1
REMARK  0 active torsions:
REMARK  status: ('A' for Active; 'I' for Inactive)
ROOT
ATOM      1  N1  IND d   1      -5.834   3.955  -3.572  0.00  0.00    -0.196 N 
ATOM      2  C2  IND d   1      -5.891   3.811  -2.213  0.00  0.00     0.054 A 
ATOM      3  C3  IND d   1      -5.993   2.505  -1.883  0.00  0.00    -0.031 A 
ATOM      4  C4  IND d   1      -5.981   0.427  -3.403  0.00  0.00     0.051 A 
ATOM      5  C5  IND d   1      -5.984   0.055  -4.718  0.00  0.00    -0.031 A 
ATOM      6  C6  IND d   1      -5.932   0.982  -5.739  0.00  0.00     0.015 A 
ATOM      7  C7  IND d   1      -5.865   2.322  -5.481  0.00  0.00    -0.016 A 
ATOM      8  C8  IND d   1      -5.870   2.704  -4.147  0.00  0.00    -0.047 A 
ATOM      9  C9  IND d   1      -5.964   1.770  -3.108  0.00  0.00    -0.096 A 
ATOM     10  HN1 IND d   1      -5.784   4.702  -3.995  0.00  0.00     0.298 HD
ENDROOT
TORSDOF 0
ENDMDL
