MODEL 1
REMARK minimizedAffinity 7.10591173
REMARK minimizedRMSD -1
REMARK  0 active torsions:
REMARK  status: ('A' for Active; 'I' for Inactive)
ROOT
ATOM      1  N1  IND d   1       1.890   4.832  -0.411  0.00  0.00    -0.196 N 
ATOM      2  C2  IND d   1       0.730   4.967  -1.122  0.00  0.00     0.054 A 
ATOM      3  C3  IND d   1      -0.281   4.322  -0.500  0.00  0.00    -0.031 A 
ATOM      4  C4  IND d   1      -0.283   3.065   1.746  0.00  0.00     0.051 A 
ATOM      5  C5  IND d   1       0.549   2.642   2.745  0.00  0.00    -0.031 A 
ATOM      6  C6  IND d   1       1.897   2.936   2.744  0.00  0.00     0.015 A 
ATOM      7  C7  IND d   1       2.464   3.677   1.746  0.00  0.00    -0.016 A 
ATOM      8  C8  IND d   1       1.623   4.102   0.727  0.00  0.00    -0.047 A 
ATOM      9  C9  IND d   1       0.262   3.770   0.700  0.00  0.00    -0.096 A 
ATOM     10  HN1 IND d   1       2.656   5.150  -0.635  0.00  0.00     0.298 HD
ENDROOT
TORSDOF 0
ENDMDL
