MODEL 1
REMARK minimizedAffinity 5.33703375
REMARK minimizedRMSD -1
REMARK  0 active torsions:
REMARK  status: ('A' for Active; 'I' for Inactive)
ROOT
ATOM      1  N1  IND d   1      -5.997   1.284  -1.927  0.00  0.00    -0.196 N 
ATOM      2  C2  IND d   1      -5.985   2.542  -1.392  0.00  0.00     0.054 A 
ATOM      3  C3  IND d   1      -5.929   3.471  -2.373  0.00  0.00    -0.031 A 
ATOM      4  C4  IND d   1      -5.954   3.154  -4.928  0.00  0.00     0.051 A 
ATOM      5  C5  IND d   1      -5.922   2.187  -5.894  0.00  0.00    -0.031 A 
ATOM      6  C6  IND d   1      -5.917   0.843  -5.580  0.00  0.00     0.015 A 
ATOM      7  C7  IND d   1      -5.954   0.414  -4.284  0.00  0.00    -0.016 A 
ATOM      8  C8  IND d   1      -5.979   1.392  -3.300  0.00  0.00    -0.047 A 
ATOM      9  C9  IND d   1      -5.942   2.758  -3.611  0.00  0.00    -0.096 A 
ATOM     10  HN1 IND d   1      -6.013   0.550  -1.481  0.00  0.00     0.298 HD
ENDROOT
TORSDOF 0
ENDMDL
