MODEL 1
REMARK minimizedAffinity 6.98435593
REMARK minimizedRMSD -1
REMARK  0 active torsions:
REMARK  status: ('A' for Active; 'I' for Inactive)
ROOT
ATOM      1  C2' OXE d   1       5.252  -0.135   1.716  0.00  0.00     0.078 C 
ATOM      2  C1' OXE d   1       4.337   1.782  -0.118  0.00  0.00     0.078 C 
ATOM      3  C1  OXE d   1       3.392   1.345   0.973  0.00  0.00    -0.078 A 
ATOM      4  C2  OXE d   1       3.832   0.372   1.838  0.00  0.00    -0.078 A 
ATOM      5  C3  OXE d   1       3.020  -0.029   2.895  0.00  0.00     0.003 A 
ATOM      6  C4  OXE d   1       1.704   0.438   2.995  0.00  0.00    -0.002 A 
ATOM      7  C5  OXE d   1       1.222   1.400   2.100  0.00  0.00    -0.002 A 
ATOM      8  C6  OXE d   1       2.065   1.894   1.111  0.00  0.00     0.003 A 
ENDROOT
TORSDOF 0
ENDMDL
