MODEL 1
REMARK minimizedAffinity -1.40661955
REMARK minimizedRMSD -1
REMARK  0 active torsions:
REMARK  status: ('A' for Active; 'I' for Inactive)
ROOT
ATOM      1  C2' OXE d   1      -5.999   4.976   1.771  0.00  0.00     0.078 C 
ATOM      2  C1' OXE d   1      -4.809   2.665   2.831  0.00  0.00     0.078 C 
ATOM      3  C1  OXE d   1      -5.109   3.799   3.779  0.00  0.00    -0.078 A 
ATOM      4  C2  OXE d   1      -5.648   4.944   3.243  0.00  0.00    -0.078 A 
ATOM      5  C3  OXE d   1      -5.995   6.000   4.082  0.00  0.00     0.003 A 
ATOM      6  C4  OXE d   1      -5.658   5.966   5.440  0.00  0.00    -0.002 A 
ATOM      7  C5  OXE d   1      -5.072   4.825   5.998  0.00  0.00    -0.002 A 
ATOM      8  C6  OXE d   1      -4.831   3.719   5.191  0.00  0.00     0.003 A 
ENDROOT
TORSDOF 0
ENDMDL
