MODEL 1
REMARK minimizedAffinity 11.338707
REMARK minimizedRMSD -1
REMARK  0 active torsions:
REMARK  status: ('A' for Active; 'I' for Inactive)
ROOT
ATOM      1  C2' OXE d   1       3.726   3.795   1.563  0.00  0.00     0.078 C 
ATOM      2  C1' OXE d   1       4.104   1.330   0.275  0.00  0.00     0.078 C 
ATOM      3  C1  OXE d   1       2.838   1.520   1.072  0.00  0.00    -0.078 A 
ATOM      4  C2  OXE d   1       2.683   2.712   1.738  0.00  0.00    -0.078 A 
ATOM      5  C3  OXE d   1       1.509   2.961   2.443  0.00  0.00     0.003 A 
ATOM      6  C4  OXE d   1       0.554   1.950   2.608  0.00  0.00    -0.002 A 
ATOM      7  C5  OXE d   1       0.711   0.715   1.971  0.00  0.00    -0.002 A 
ATOM      8  C6  OXE d   1       1.824   0.499   1.167  0.00  0.00     0.003 A 
ENDROOT
TORSDOF 0
ENDMDL
