MODEL 1
REMARK minimizedAffinity 11.7908287
REMARK minimizedRMSD -1
REMARK  0 active torsions:
REMARK  status: ('A' for Active; 'I' for Inactive)
ROOT
ATOM      1  C2' OXE d   1      -4.284   3.352   5.927  0.00  0.00     0.078 C 
ATOM      2  C1' OXE d   1      -4.325   2.042   3.445  0.00  0.00     0.078 C 
ATOM      3  C1  OXE d   1      -4.897   3.436   3.514  0.00  0.00    -0.078 A 
ATOM      4  C2  OXE d   1      -4.915   4.052   4.742  0.00  0.00    -0.078 A 
ATOM      5  C3  OXE d   1      -5.381   5.359   4.851  0.00  0.00     0.003 A 
ATOM      6  C4  OXE d   1      -5.972   5.995   3.753  0.00  0.00    -0.002 A 
ATOM      7  C5  OXE d   1      -6.000   5.370   2.501  0.00  0.00    -0.002 A 
ATOM      8  C6  OXE d   1      -5.429   4.110   2.356  0.00  0.00     0.003 A 
ENDROOT
TORSDOF 0
ENDMDL
