MODEL 1
REMARK minimizedAffinity 20.7370777
REMARK minimizedRMSD -1
REMARK  0 active torsions:
REMARK  status: ('A' for Active; 'I' for Inactive)
ROOT
ATOM      1  C2' OXE d   1      -4.068  -0.026   2.799  0.00  0.00     0.078 C 
ATOM      2  C1' OXE d   1      -3.326   2.679   2.890  0.00  0.00     0.078 C 
ATOM      3  C1  OXE d   1      -2.276   1.650   3.227  0.00  0.00    -0.078 A 
ATOM      4  C2  OXE d   1      -2.661   0.331   3.226  0.00  0.00    -0.078 A 
ATOM      5  C3  OXE d   1      -1.718  -0.662   3.476  0.00  0.00     0.003 A 
ATOM      6  C4  OXE d   1      -0.421  -0.323   3.880  0.00  0.00    -0.002 A 
ATOM      7  C5  OXE d   1      -0.020   1.016   3.927  0.00  0.00    -0.002 A 
ATOM      8  C6  OXE d   1      -0.921   2.011   3.563  0.00  0.00     0.003 A 
ENDROOT
TORSDOF 0
ENDMDL
