MODEL 1
REMARK minimizedAffinity 15.6010075
REMARK minimizedRMSD -1
REMARK  0 active torsions:
REMARK  status: ('A' for Active; 'I' for Inactive)
ROOT
ATOM      1  C2' OXE d   1      -6.000  -6.000  -2.863  0.00  0.00     0.078 C 
ATOM      2  C1' OXE d   1      -5.983  -3.196  -3.010  0.00  0.00     0.078 C 
ATOM      3  C1  OXE d   1      -4.655  -3.903  -2.889  0.00  0.00    -0.078 A 
ATOM      4  C2  OXE d   1      -4.676  -5.271  -2.771  0.00  0.00    -0.078 A 
ATOM      5  C3  OXE d   1      -3.477  -5.976  -2.711  0.00  0.00     0.003 A 
ATOM      6  C4  OXE d   1      -2.258  -5.295  -2.616  0.00  0.00    -0.002 A 
ATOM      7  C5  OXE d   1      -2.217  -3.898  -2.695  0.00  0.00    -0.002 A 
ATOM      8  C6  OXE d   1      -3.401  -3.191  -2.874  0.00  0.00     0.003 A 
ENDROOT
TORSDOF 0
ENDMDL
