MODEL 1
REMARK minimizedAffinity 3.12663221
REMARK minimizedRMSD -1
REMARK  0 active torsions:
REMARK  status: ('A' for Active; 'I' for Inactive)
ROOT
ATOM      1  C2' OXE d   1       0.667   3.752   1.113  0.00  0.00     0.078 C 
ATOM      2  C1' OXE d   1       3.354   4.495   1.444  0.00  0.00     0.078 C 
ATOM      3  C1  OXE d   1       3.041   3.025   1.316  0.00  0.00    -0.078 A 
ATOM      4  C2  OXE d   1       1.719   2.668   1.201  0.00  0.00    -0.078 A 
ATOM      5  C3  OXE d   1       1.380   1.329   1.025  0.00  0.00     0.003 A 
ATOM      6  C4  OXE d   1       2.358   0.332   1.118  0.00  0.00    -0.002 A 
ATOM      7  C5  OXE d   1       3.706   0.672   1.275  0.00  0.00    -0.002 A 
ATOM      8  C6  OXE d   1       4.068   2.013   1.332  0.00  0.00     0.003 A 
ENDROOT
TORSDOF 0
ENDMDL
