MODEL 1
REMARK minimizedAffinity 7.2038703
REMARK minimizedRMSD -1
REMARK  0 active torsions:
REMARK  status: ('A' for Active; 'I' for Inactive)
ROOT
ATOM      1  C2' OXE d   1       1.721   2.035   1.253  0.00  0.00     0.078 C 
ATOM      2  C1' OXE d   1      -0.044   4.127   1.877  0.00  0.00     0.078 C 
ATOM      3  C1  OXE d   1       1.427   4.450   1.792  0.00  0.00    -0.078 A 
ATOM      4  C2  OXE d   1       2.288   3.411   1.532  0.00  0.00    -0.078 A 
ATOM      5  C3  OXE d   1       3.649   3.663   1.388  0.00  0.00     0.003 A 
ATOM      6  C4  OXE d   1       4.167   4.936   1.657  0.00  0.00    -0.002 A 
ATOM      7  C5  OXE d   1       3.312   6.000   1.962  0.00  0.00    -0.002 A 
ATOM      8  C6  OXE d   1       1.938   5.783   1.992  0.00  0.00     0.003 A 
ENDROOT
TORSDOF 0
ENDMDL
