MODEL 1
REMARK minimizedAffinity 4.28009558
REMARK minimizedRMSD -1
REMARK  0 active torsions:
REMARK  status: ('A' for Active; 'I' for Inactive)
ROOT
ATOM      1  C2' OXE d   1       1.515   4.319  -3.731  0.00  0.00     0.078 C 
ATOM      2  C1' OXE d   1       1.512   5.986  -5.989  0.00  0.00     0.078 C 
ATOM      3  C1  OXE d   1       2.847   5.582  -5.414  0.00  0.00    -0.078 A 
ATOM      4  C2  OXE d   1       2.838   4.804  -4.282  0.00  0.00    -0.078 A 
ATOM      5  C3  OXE d   1       4.041   4.358  -3.743  0.00  0.00     0.003 A 
ATOM      6  C4  OXE d   1       5.261   4.820  -4.253  0.00  0.00    -0.002 A 
ATOM      7  C5  OXE d   1       5.291   5.645  -5.382  0.00  0.00    -0.002 A 
ATOM      8  C6  OXE d   1       4.097   6.000  -5.999  0.00  0.00     0.003 A 
ENDROOT
TORSDOF 0
ENDMDL
