MODEL 1
REMARK minimizedAffinity 10.7494946
REMARK minimizedRMSD -1
REMARK  0 active torsions:
REMARK  status: ('A' for Active; 'I' for Inactive)
ROOT
ATOM      1  C2' OXE d   1      -0.458  -1.787   1.109  0.00  0.00     0.078 C 
ATOM      2  C1' OXE d   1      -0.649  -0.367   3.523  0.00  0.00     0.078 C 
ATOM      3  C1  OXE d   1       0.377   0.091   2.517  0.00  0.00    -0.078 A 
ATOM      4  C2  OXE d   1       0.496  -0.639   1.359  0.00  0.00    -0.078 A 
ATOM      5  C3  OXE d   1       1.390  -0.227   0.374  0.00  0.00     0.003 A 
ATOM      6  C4  OXE d   1       2.275   0.829   0.617  0.00  0.00    -0.002 A 
ATOM      7  C5  OXE d   1       2.198   1.561   1.807  0.00  0.00    -0.002 A 
ATOM      8  C6  OXE d   1       1.229   1.232   2.747  0.00  0.00     0.003 A 
ENDROOT
TORSDOF 0
ENDMDL
