MODEL 1
REMARK minimizedAffinity -0.710331321
REMARK minimizedRMSD -1
REMARK  0 active torsions:
REMARK  status: ('A' for Active; 'I' for Inactive)
ROOT
ATOM      1  C2' OXE d   1       5.455   3.350  -4.031  0.00  0.00     0.078 C 
ATOM      2  C1' OXE d   1       5.998   5.758  -5.367  0.00  0.00     0.078 C 
ATOM      3  C1  OXE d   1       4.573   5.263  -5.360  0.00  0.00    -0.078 A 
ATOM      4  C2  OXE d   1       4.325   4.060  -4.744  0.00  0.00    -0.078 A 
ATOM      5  C3  OXE d   1       3.019   3.585  -4.662  0.00  0.00     0.003 A 
ATOM      6  C4  OXE d   1       1.982   4.243  -5.333  0.00  0.00    -0.002 A 
ATOM      7  C5  OXE d   1       2.220   5.449  -6.000  0.00  0.00    -0.002 A 
ATOM      8  C6  OXE d   1       3.499   5.993  -5.987  0.00  0.00     0.003 A 
ENDROOT
TORSDOF 0
ENDMDL
