MODEL 1
REMARK minimizedAffinity 17.9415684
REMARK minimizedRMSD -1
REMARK  0 active torsions:
REMARK  status: ('A' for Active; 'I' for Inactive)
ROOT
ATOM      1  C2' OXE d   1       0.179   3.300   1.527  0.00  0.00     0.078 C 
ATOM      2  C1' OXE d   1       0.539   1.496   3.648  0.00  0.00     0.078 C 
ATOM      3  C1  OXE d   1       1.559   1.488   2.537  0.00  0.00    -0.078 A 
ATOM      4  C2  OXE d   1       1.350   2.342   1.480  0.00  0.00    -0.078 A 
ATOM      5  C3  OXE d   1       2.289   2.413   0.455  0.00  0.00     0.003 A 
ATOM      6  C4  OXE d   1       3.363   1.516   0.414  0.00  0.00    -0.002 A 
ATOM      7  C5  OXE d   1       3.573   0.612   1.461  0.00  0.00    -0.002 A 
ATOM      8  C6  OXE d   1       2.706   0.614   2.548  0.00  0.00     0.003 A 
ENDROOT
TORSDOF 0
ENDMDL
