MODEL 1
REMARK minimizedAffinity 10.5247746
REMARK minimizedRMSD -1
REMARK  0 active torsions:
REMARK  status: ('A' for Active; 'I' for Inactive)
ROOT
ATOM      1  C2' OXE d   1      -3.316  -3.101  -0.034  0.00  0.00     0.078 C 
ATOM      2  C1' OXE d   1      -4.607  -4.724  -1.927  0.00  0.00     0.078 C 
ATOM      3  C1  OXE d   1      -3.478  -3.846  -2.406  0.00  0.00    -0.078 A 
ATOM      4  C2  OXE d   1      -2.883  -3.021  -1.482  0.00  0.00    -0.078 A 
ATOM      5  C3  OXE d   1      -1.801  -2.230  -1.860  0.00  0.00     0.003 A 
ATOM      6  C4  OXE d   1      -1.413  -2.154  -3.203  0.00  0.00    -0.002 A 
ATOM      7  C5  OXE d   1      -2.032  -2.957  -4.167  0.00  0.00    -0.002 A 
ATOM      8  C6  OXE d   1      -3.036  -3.838  -3.778  0.00  0.00     0.003 A 
ENDROOT
TORSDOF 0
ENDMDL
