MODEL 1
REMARK minimizedAffinity 11.3522606
REMARK minimizedRMSD -1
REMARK  0 active torsions:
REMARK  status: ('A' for Active; 'I' for Inactive)
ROOT
ATOM      1  C2' OXE d   1       4.529  -0.693   0.207  0.00  0.00     0.078 C 
ATOM      2  C1' OXE d   1       4.162   1.520  -1.481  0.00  0.00     0.078 C 
ATOM      3  C1  OXE d   1       3.280   1.411  -0.262  0.00  0.00    -0.078 A 
ATOM      4  C2  OXE d   1       3.435   0.301   0.533  0.00  0.00    -0.078 A 
ATOM      5  C3  OXE d   1       2.686   0.179   1.699  0.00  0.00     0.003 A 
ATOM      6  C4  OXE d   1       1.669   1.097   1.988  0.00  0.00    -0.002 A 
ATOM      7  C5  OXE d   1       1.468   2.214   1.170  0.00  0.00    -0.002 A 
ATOM      8  C6  OXE d   1       2.292   2.408   0.067  0.00  0.00     0.003 A 
ENDROOT
TORSDOF 0
ENDMDL
