MODEL 1
REMARK minimizedAffinity 4.25073767
REMARK minimizedRMSD -1
REMARK  0 active torsions:
REMARK  status: ('A' for Active; 'I' for Inactive)
ROOT
ATOM      1  C2' OXE d   1      -3.360  -2.847  -2.910  0.00  0.00     0.078 C 
ATOM      2  C1' OXE d   1      -0.945  -3.617  -4.117  0.00  0.00     0.078 C 
ATOM      3  C1  OXE d   1      -0.903  -3.186  -2.673  0.00  0.00    -0.078 A 
ATOM      4  C2  OXE d   1      -2.082  -2.766  -2.103  0.00  0.00    -0.078 A 
ATOM      5  C3  OXE d   1      -2.109  -2.410  -0.758  0.00  0.00     0.003 A 
ATOM      6  C4  OXE d   1      -0.920  -2.328  -0.022  0.00  0.00    -0.002 A 
ATOM      7  C5  OXE d   1       0.297  -2.713  -0.595  0.00  0.00    -0.002 A 
ATOM      8  C6  OXE d   1       0.316  -3.184  -1.903  0.00  0.00     0.003 A 
ENDROOT
TORSDOF 0
ENDMDL
