MODEL 1
REMARK minimizedAffinity 13.5296259
REMARK minimizedRMSD -1
REMARK  0 active torsions:
REMARK  status: ('A' for Active; 'I' for Inactive)
ROOT
ATOM      1  C2' OXE d   1      -3.088  -3.373  -2.418  0.00  0.00     0.078 C 
ATOM      2  C1' OXE d   1      -1.023  -1.478  -2.261  0.00  0.00     0.078 C 
ATOM      3  C1  OXE d   1      -1.271  -2.139  -3.594  0.00  0.00    -0.078 A 
ATOM      4  C2  OXE d   1      -2.253  -3.099  -3.650  0.00  0.00    -0.078 A 
ATOM      5  C3  OXE d   1      -2.560  -3.700  -4.867  0.00  0.00     0.003 A 
ATOM      6  C4  OXE d   1      -1.776  -3.449  -6.000  0.00  0.00    -0.002 A 
ATOM      7  C5  OXE d   1      -0.745  -2.504  -5.955  0.00  0.00    -0.002 A 
ATOM      8  C6  OXE d   1      -0.508  -1.810  -4.773  0.00  0.00     0.003 A 
ENDROOT
TORSDOF 0
ENDMDL
