MODEL 1
REMARK minimizedAffinity -3.54717422
REMARK minimizedRMSD -1
REMARK  3 active torsions:
REMARK  status: ('A' for Active; 'I' for Inactive)
REMARK    1  A    between atoms: C3'_2  and  C2'_3 
REMARK    2  A    between atoms: C2'_3  and  C1'_4 
REMARK    3  A    between atoms: C1'_4  and  C1_5 
ROOT
ATOM      1  C1  N4B d   1      -0.223  -0.058   0.077  0.00  0.00    -0.075 A 
ATOM      2  C2  N4B d   1      -1.404  -0.504   0.710  0.00  0.00     0.002 A 
ATOM      3  C3  N4B d   1      -1.838   0.104   1.862  0.00  0.00     0.002 A 
ATOM      4  C4  N4B d   1      -1.100   1.144   2.408  0.00  0.00    -0.004 A 
ATOM      5  C5  N4B d   1       0.026   1.586   1.777  0.00  0.00     0.002 A 
ATOM      6  C6  N4B d   1       0.472   0.986   0.616  0.00  0.00     0.002 A 
ENDROOT
BRANCH   1   7
ATOM      7  C1' N4B d   1       0.337  -0.748  -1.137  0.00  0.00     0.057 C 
BRANCH   7   8
ATOM      8  C2' N4B d   1       1.180   0.244  -1.933  0.00  0.00     0.009 C 
BRANCH   8   9
ATOM      9  C3' N4B d   1       0.729   0.340  -3.380  0.00  0.00     0.004 C 
ATOM     10  C4' N4B d   1       1.148   1.622  -4.036  0.00  0.00     0.003 C 
ENDBRANCH   8   9
ENDBRANCH   7   8
ENDBRANCH   1   7
TORSDOF 3
ENDMDL
