MODEL 1
REMARK minimizedAffinity -5.01150084
REMARK minimizedRMSD -1
REMARK  3 active torsions:
REMARK  status: ('A' for Active; 'I' for Inactive)
REMARK    1  A    between atoms: C3'_2  and  C2'_3 
REMARK    2  A    between atoms: C2'_3  and  C1'_4 
REMARK    3  A    between atoms: C1'_4  and  C1_5 
ROOT
ATOM      1  C1  N4B d   1       0.687  -0.030  -1.622  0.00  0.00    -0.075 A 
ATOM      2  C2  N4B d   1      -0.043  -0.519  -2.728  0.00  0.00     0.002 A 
ATOM      3  C3  N4B d   1       0.273  -0.100  -3.998  0.00  0.00     0.002 A 
ATOM      4  C4  N4B d   1       1.297   0.817  -4.183  0.00  0.00    -0.004 A 
ATOM      5  C5  N4B d   1       2.014   1.264  -3.112  0.00  0.00     0.002 A 
ATOM      6  C6  N4B d   1       1.710   0.848  -1.831  0.00  0.00     0.002 A 
ENDROOT
BRANCH   1   7
ATOM      7  C1' N4B d   1       0.323  -0.393  -0.208  0.00  0.00     0.057 C 
BRANCH   7   8
ATOM      8  C2' N4B d   1      -1.090   0.101   0.087  0.00  0.00     0.009 C 
BRANCH   8   9
ATOM      9  C3' N4B d   1      -1.110   1.129   1.206  0.00  0.00     0.004 C 
ATOM     10  C4' N4B d   1      -1.619   0.569   2.500  0.00  0.00     0.003 C 
ENDBRANCH   8   9
ENDBRANCH   7   8
ENDBRANCH   1   7
TORSDOF 3
ENDMDL
