MODEL 1
REMARK minimizedAffinity -4.38919401
REMARK minimizedRMSD -1
REMARK  3 active torsions:
REMARK  status: ('A' for Active; 'I' for Inactive)
REMARK    1  A    between atoms: C3'_2  and  C2'_3 
REMARK    2  A    between atoms: C2'_3  and  C1'_4 
REMARK    3  A    between atoms: C1'_4  and  C1_5 
ROOT
ATOM      1  C1  N4B d   1       0.270  -0.338  -0.475  0.00  0.00    -0.075 A 
ATOM      2  C2  N4B d   1       0.963  -0.084   0.729  0.00  0.00     0.002 A 
ATOM      3  C3  N4B d   1       0.294   0.440   1.808  0.00  0.00     0.002 A 
ATOM      4  C4  N4B d   1      -1.057   0.734   1.701  0.00  0.00    -0.004 A 
ATOM      5  C5  N4B d   1      -1.724   0.463   0.543  0.00  0.00     0.002 A 
ATOM      6  C6  N4B d   1      -1.065  -0.068  -0.549  0.00  0.00     0.002 A 
ENDROOT
BRANCH   1   7
ATOM      7  C1' N4B d   1       0.977  -0.829  -1.709  0.00  0.00     0.057 C 
BRANCH   7   8
ATOM      8  C2' N4B d   1       1.402   0.368  -2.554  0.00  0.00     0.009 C 
BRANCH   8   9
ATOM      9  C3' N4B d   1       1.219   0.109  -4.039  0.00  0.00     0.004 C 
ATOM     10  C4' N4B d   1       0.541   1.244  -4.747  0.00  0.00     0.003 C 
ENDBRANCH   8   9
ENDBRANCH   7   8
ENDBRANCH   1   7
TORSDOF 3
ENDMDL
