MODEL 1
REMARK minimizedAffinity -5.61276913
REMARK minimizedRMSD -1
REMARK  3 active torsions:
REMARK  status: ('A' for Active; 'I' for Inactive)
REMARK    1  A    between atoms: C3'_2  and  C2'_3 
REMARK    2  A    between atoms: C2'_3  and  C1'_4 
REMARK    3  A    between atoms: C1'_4  and  C1_5 
ROOT
ATOM      1  C1  N4B d   1       0.235  -0.262   0.163  0.00  0.00    -0.075 A 
ATOM      2  C2  N4B d   1      -1.170  -0.159   0.260  0.00  0.00     0.002 A 
ATOM      3  C3  N4B d   1      -1.736   0.576   1.273  0.00  0.00     0.002 A 
ATOM      4  C4  N4B d   1      -0.922   1.198   2.207  0.00  0.00    -0.004 A 
ATOM      5  C5  N4B d   1       0.435   1.115   2.091  0.00  0.00     0.002 A 
ATOM      6  C6  N4B d   1       1.018   0.383   1.077  0.00  0.00     0.002 A 
ENDROOT
BRANCH   1   7
ATOM      7  C1' N4B d   1       0.899  -1.124  -0.875  0.00  0.00     0.057 C 
BRANCH   7   8
ATOM      8  C2' N4B d   1       0.229  -0.887  -2.226  0.00  0.00     0.009 C 
BRANCH   8   9
ATOM      9  C3' N4B d   1       0.977   0.139  -3.059  0.00  0.00     0.004 C 
ATOM     10  C4' N4B d   1       0.118   0.770  -4.113  0.00  0.00     0.003 C 
ENDBRANCH   8   9
ENDBRANCH   7   8
ENDBRANCH   1   7
TORSDOF 3
ENDMDL
