MODEL 1
REMARK minimizedAffinity -1.00656235
REMARK minimizedRMSD -1
REMARK  0 active torsions:
REMARK  status: ('A' for Active; 'I' for Inactive)
ROOT
ATOM      1  C   UNL d   1       1.812   2.564   0.384  0.00  0.00     0.172 C 
ATOM      2  N   UNL d   1       1.548   3.714   1.216  0.00  0.00    -0.070 N 
ATOM      3  C1  UNL d   1       0.446   4.523   1.133  0.00  0.00    -0.004 A 
ATOM      4  C2  UNL d   1       0.568   5.502   2.095  0.00  0.00    -0.047 A 
ATOM      5  C3  UNL d   1       1.785   5.274   2.780  0.00  0.00    -0.047 A 
ATOM      6  C4  UNL d   1       2.371   4.161   2.215  0.00  0.00    -0.004 A 
ENDROOT
TORSDOF 0
ENDMDL
