MODEL 1
REMARK minimizedAffinity 2.40797257
REMARK minimizedRMSD -1
REMARK  0 active torsions:
REMARK  status: ('A' for Active; 'I' for Inactive)
ROOT
ATOM      1  C   UNL d   1      -5.193   4.512   1.477  0.00  0.00     0.172 C 
ATOM      2  N   UNL d   1      -5.358   4.853   2.870  0.00  0.00    -0.070 N 
ATOM      3  C1  UNL d   1      -6.000   4.089   3.808  0.00  0.00    -0.004 A 
ATOM      4  C2  UNL d   1      -5.940   4.759   5.011  0.00  0.00    -0.047 A 
ATOM      5  C3  UNL d   1      -5.239   5.967   4.788  0.00  0.00    -0.047 A 
ATOM      6  C4  UNL d   1      -4.890   6.000   3.455  0.00  0.00    -0.004 A 
ENDROOT
TORSDOF 0
ENDMDL
