MODEL 1
REMARK minimizedAffinity 7.39121532
REMARK minimizedRMSD -1
REMARK  0 active torsions:
REMARK  status: ('A' for Active; 'I' for Inactive)
ROOT
ATOM      1  C   UNL d   1      -4.940   5.984   5.947  0.00  0.00     0.172 C 
ATOM      2  N   UNL d   1      -5.169   5.485   4.611  0.00  0.00    -0.070 N 
ATOM      3  C1  UNL d   1      -4.628   5.999   3.463  0.00  0.00    -0.004 A 
ATOM      4  C2  UNL d   1      -5.089   5.246   2.405  0.00  0.00    -0.047 A 
ATOM      5  C3  UNL d   1      -5.938   4.245   2.936  0.00  0.00    -0.047 A 
ATOM      6  C4  UNL d   1      -5.970   4.417   4.304  0.00  0.00    -0.004 A 
ENDROOT
TORSDOF 0
ENDMDL
