MODEL 1
REMARK minimizedAffinity 4.96280909
REMARK minimizedRMSD -1
REMARK  0 active torsions:
REMARK  status: ('A' for Active; 'I' for Inactive)
ROOT
ATOM      1  C   UNL d   1       5.563   5.562   3.437  0.00  0.00     0.172 C 
ATOM      2  N   UNL d   1       4.147   5.679   3.177  0.00  0.00    -0.070 N 
ATOM      3  C1  UNL d   1       3.580   5.979   1.967  0.00  0.00    -0.004 A 
ATOM      4  C2  UNL d   1       2.212   5.997   2.135  0.00  0.00    -0.047 A 
ATOM      5  C3  UNL d   1       1.948   5.698   3.493  0.00  0.00    -0.047 A 
ATOM      6  C4  UNL d   1       3.164   5.506   4.115  0.00  0.00    -0.004 A 
ENDROOT
TORSDOF 0
ENDMDL
