MODEL 1
REMARK minimizedAffinity 4.08785963
REMARK minimizedRMSD -1
REMARK  0 active torsions:
REMARK  status: ('A' for Active; 'I' for Inactive)
ROOT
ATOM      1  C   UNL d   1      -5.984   4.820   5.088  0.00  0.00     0.172 C 
ATOM      2  N   UNL d   1      -5.535   5.048   3.735  0.00  0.00    -0.070 N 
ATOM      3  C1  UNL d   1      -4.629   5.996   3.343  0.00  0.00    -0.004 A 
ATOM      4  C2  UNL d   1      -4.470   5.891   1.978  0.00  0.00    -0.047 A 
ATOM      5  C3  UNL d   1      -5.311   4.843   1.534  0.00  0.00    -0.047 A 
ATOM      6  C4  UNL d   1      -5.959   4.338   2.642  0.00  0.00    -0.004 A 
ENDROOT
TORSDOF 0
ENDMDL
