MODEL 1
REMARK minimizedAffinity -1.76897454
REMARK minimizedRMSD -1
REMARK  0 active torsions:
REMARK  status: ('A' for Active; 'I' for Inactive)
ROOT
ATOM      1  C   UNL d   1      -0.615  -3.021  -2.710  0.00  0.00     0.172 C 
ATOM      2  N   UNL d   1      -1.711  -2.897  -3.641  0.00  0.00    -0.070 N 
ATOM      3  C1  UNL d   1      -2.268  -1.720  -4.066  0.00  0.00    -0.004 A 
ATOM      4  C2  UNL d   1      -3.283  -2.027  -4.947  0.00  0.00    -0.047 A 
ATOM      5  C3  UNL d   1      -3.338  -3.437  -5.054  0.00  0.00    -0.047 A 
ATOM      6  C4  UNL d   1      -2.355  -3.950  -4.235  0.00  0.00    -0.004 A 
ENDROOT
TORSDOF 0
ENDMDL
