MODEL 1
REMARK minimizedAffinity 6.96524668
REMARK minimizedRMSD -1
REMARK  0 active torsions:
REMARK  status: ('A' for Active; 'I' for Inactive)
ROOT
ATOM      1  C   UNL d   1      -4.149   0.791  -0.028  0.00  0.00     0.172 C 
ATOM      2  N   UNL d   1      -4.894  -0.160  -0.818  0.00  0.00    -0.070 N 
ATOM      3  C1  UNL d   1      -5.274   0.009  -2.123  0.00  0.00    -0.004 A 
ATOM      4  C2  UNL d   1      -5.963  -1.119  -2.512  0.00  0.00    -0.047 A 
ATOM      5  C3  UNL d   1      -6.000  -1.997  -1.402  0.00  0.00    -0.047 A 
ATOM      6  C4  UNL d   1      -5.331  -1.378  -0.367  0.00  0.00    -0.004 A 
ENDROOT
TORSDOF 0
ENDMDL
