MODEL 1
REMARK minimizedAffinity 4.23265362
REMARK minimizedRMSD -1
REMARK  0 active torsions:
REMARK  status: ('A' for Active; 'I' for Inactive)
ROOT
ATOM      1  C   UNL d   1       2.978   0.756   0.015  0.00  0.00     0.172 C 
ATOM      2  N   UNL d   1       4.139   1.498  -0.416  0.00  0.00    -0.070 N 
ATOM      3  C1  UNL d   1       4.519   1.704  -1.715  0.00  0.00    -0.004 A 
ATOM      4  C2  UNL d   1       5.673   2.457  -1.704  0.00  0.00    -0.047 A 
ATOM      5  C3  UNL d   1       5.999   2.711  -0.350  0.00  0.00    -0.047 A 
ATOM      6  C4  UNL d   1       5.033   2.107   0.426  0.00  0.00    -0.004 A 
ENDROOT
TORSDOF 0
ENDMDL
