MODEL 1
REMARK minimizedAffinity 6.56881571
REMARK minimizedRMSD -1
REMARK  0 active torsions:
REMARK  status: ('A' for Active; 'I' for Inactive)
ROOT
ATOM      1  C   UNL d   1       3.051   0.833  -0.401  0.00  0.00     0.172 C 
ATOM      2  N   UNL d   1       4.156   1.500  -1.048  0.00  0.00    -0.070 N 
ATOM      3  C1  UNL d   1       5.135   2.219  -0.417  0.00  0.00    -0.004 A 
ATOM      4  C2  UNL d   1       6.000   2.692  -1.380  0.00  0.00    -0.047 A 
ATOM      5  C3  UNL d   1       5.523   2.242  -2.634  0.00  0.00    -0.047 A 
ATOM      6  C4  UNL d   1       4.380   1.506  -2.400  0.00  0.00    -0.004 A 
ENDROOT
TORSDOF 0
ENDMDL
