MODEL 1
REMARK minimizedAffinity 2.8651886
REMARK minimizedRMSD -1
REMARK  0 active torsions:
REMARK  status: ('A' for Active; 'I' for Inactive)
ROOT
ATOM      1  C   UNL d   1       5.508  -4.882  -0.614  0.00  0.00     0.077 C 
ATOM      2  C1  UNL d   1       4.521  -4.112   0.213  0.00  0.00    -0.074 A 
ATOM      3  C2  UNL d   1       3.318  -3.660  -0.340  0.00  0.00    -0.005 A 
ATOM      4  C3  UNL d   1       2.406  -2.953   0.444  0.00  0.00     0.006 A 
ATOM      5  C4  UNL d   1       2.687  -2.691   1.785  0.00  0.00    -0.005 A 
ATOM      6  C5  UNL d   1       3.885  -3.136   2.355  0.00  0.00    -0.074 A 
ATOM      7  C6  UNL d   1       4.198  -2.871   3.798  0.00  0.00     0.077 C 
ATOM      8  C7  UNL d   1       4.793  -3.852   1.563  0.00  0.00    -0.001 A 
ENDROOT
TORSDOF 0
ENDMDL
