MODEL 1
REMARK minimizedAffinity -2.30388117
REMARK minimizedRMSD -1
REMARK  0 active torsions:
REMARK  status: ('A' for Active; 'I' for Inactive)
ROOT
ATOM      1  C   UNL d   1      -3.372  -1.510  -2.107  0.00  0.00     0.077 C 
ATOM      2  C1  UNL d   1      -3.663  -0.874  -3.434  0.00  0.00    -0.074 A 
ATOM      3  C2  UNL d   1      -4.922  -1.002  -4.031  0.00  0.00    -0.005 A 
ATOM      4  C3  UNL d   1      -5.181  -0.397  -5.261  0.00  0.00     0.006 A 
ATOM      5  C4  UNL d   1      -4.187   0.340  -5.905  0.00  0.00    -0.005 A 
ATOM      6  C5  UNL d   1      -2.923   0.479  -5.323  0.00  0.00    -0.074 A 
ATOM      7  C6  UNL d   1      -1.846   1.276  -5.997  0.00  0.00     0.077 C 
ATOM      8  C7  UNL d   1      -2.672  -0.125  -4.084  0.00  0.00    -0.001 A 
ENDROOT
TORSDOF 0
ENDMDL
