MODEL 1
REMARK minimizedAffinity 11.3970528
REMARK minimizedRMSD -1
REMARK  0 active torsions:
REMARK  status: ('A' for Active; 'I' for Inactive)
ROOT
ATOM      1  C   UNL d   1       4.448   1.350  -4.551  0.00  0.00     0.077 C 
ATOM      2  C1  UNL d   1       4.606   2.782  -4.970  0.00  0.00    -0.074 A 
ATOM      3  C2  UNL d   1       5.772   3.220  -5.607  0.00  0.00    -0.005 A 
ATOM      4  C3  UNL d   1       5.901   4.552  -5.999  0.00  0.00     0.006 A 
ATOM      5  C4  UNL d   1       4.867   5.458  -5.760  0.00  0.00    -0.005 A 
ATOM      6  C5  UNL d   1       3.693   5.038  -5.125  0.00  0.00    -0.074 A 
ATOM      7  C6  UNL d   1       2.569   5.997  -4.869  0.00  0.00     0.077 C 
ATOM      8  C7  UNL d   1       3.569   3.696  -4.740  0.00  0.00    -0.001 A 
ENDROOT
TORSDOF 0
ENDMDL
