MODEL 1
REMARK minimizedAffinity 7.66674137
REMARK minimizedRMSD -1
REMARK  0 active torsions:
REMARK  status: ('A' for Active; 'I' for Inactive)
ROOT
ATOM      1  C   UNL d   1       5.162   4.805  -5.648  0.00  0.00     0.077 C 
ATOM      2  C1  UNL d   1       3.665   4.804  -5.734  0.00  0.00    -0.074 A 
ATOM      3  C2  UNL d   1       2.953   5.998  -5.891  0.00  0.00    -0.005 A 
ATOM      4  C3  UNL d   1       1.561   5.981  -5.980  0.00  0.00     0.006 A 
ATOM      5  C4  UNL d   1       0.868   4.772  -5.912  0.00  0.00    -0.005 A 
ATOM      6  C5  UNL d   1       1.562   3.568  -5.756  0.00  0.00    -0.074 A 
ATOM      7  C6  UNL d   1       0.833   2.259  -5.692  0.00  0.00     0.077 C 
ATOM      8  C7  UNL d   1       2.961   3.593  -5.675  0.00  0.00    -0.001 A 
ENDROOT
TORSDOF 0
ENDMDL
