MODEL 1
REMARK minimizedAffinity 7.78980112
REMARK minimizedRMSD -1
REMARK  0 active torsions:
REMARK  status: ('A' for Active; 'I' for Inactive)
ROOT
ATOM      1  C   UNL d   1       0.669   5.251  -5.620  0.00  0.00     0.077 C 
ATOM      2  C1  UNL d   1       2.145   4.986  -5.627  0.00  0.00    -0.074 A 
ATOM      3  C2  UNL d   1       3.054   5.991  -5.972  0.00  0.00    -0.005 A 
ATOM      4  C3  UNL d   1       4.425   5.732  -5.965  0.00  0.00     0.006 A 
ATOM      5  C4  UNL d   1       4.900   4.468  -5.612  0.00  0.00    -0.005 A 
ATOM      6  C5  UNL d   1       4.006   3.451  -5.262  0.00  0.00    -0.074 A 
ATOM      7  C6  UNL d   1       4.499   2.090  -4.871  0.00  0.00     0.077 C 
ATOM      8  C7  UNL d   1       2.630   3.721  -5.266  0.00  0.00    -0.001 A 
ENDROOT
TORSDOF 0
ENDMDL
