MODEL 1
REMARK minimizedAffinity 5.29196692
REMARK minimizedRMSD -1
REMARK  0 active torsions:
REMARK  status: ('A' for Active; 'I' for Inactive)
ROOT
ATOM      1  C   UNL d   1       1.716   2.284   3.573  0.00  0.00     0.077 C 
ATOM      2  C1  UNL d   1       0.977   1.025   3.229  0.00  0.00    -0.074 A 
ATOM      3  C2  UNL d   1      -0.284   0.760   3.773  0.00  0.00    -0.005 A 
ATOM      4  C3  UNL d   1      -0.963  -0.411   3.436  0.00  0.00     0.006 A 
ATOM      5  C4  UNL d   1      -0.389  -1.327   2.553  0.00  0.00    -0.005 A 
ATOM      6  C5  UNL d   1       0.871  -1.079   1.999  0.00  0.00    -0.074 A 
ATOM      7  C6  UNL d   1       1.497  -2.048   1.041  0.00  0.00     0.077 C 
ATOM      8  C7  UNL d   1       1.544   0.103   2.337  0.00  0.00    -0.001 A 
ENDROOT
TORSDOF 0
ENDMDL
