MODEL 1
REMARK minimizedAffinity 8.61916924
REMARK minimizedRMSD -1
REMARK  0 active torsions:
REMARK  status: ('A' for Active; 'I' for Inactive)
ROOT
ATOM      1  C   UNL d   1       5.819   1.103  -4.770  0.00  0.00     0.077 C 
ATOM      2  C1  UNL d   1       4.997   2.286  -5.189  0.00  0.00    -0.074 A 
ATOM      3  C2  UNL d   1       3.614   2.175  -5.361  0.00  0.00    -0.005 A 
ATOM      4  C3  UNL d   1       2.861   3.286  -5.742  0.00  0.00     0.006 A 
ATOM      5  C4  UNL d   1       3.484   4.517  -5.954  0.00  0.00    -0.005 A 
ATOM      6  C5  UNL d   1       4.866   4.647  -5.786  0.00  0.00    -0.074 A 
ATOM      7  C6  UNL d   1       5.549   5.965  -6.000  0.00  0.00     0.077 C 
ATOM      8  C7  UNL d   1       5.614   3.528  -5.396  0.00  0.00    -0.001 A 
ENDROOT
TORSDOF 0
ENDMDL
