MODEL 1
REMARK minimizedAffinity 13.6658592
REMARK minimizedRMSD -1
REMARK  0 active torsions:
REMARK  status: ('A' for Active; 'I' for Inactive)
ROOT
ATOM      1  C   UNL d   1       0.880   4.813  -5.591  0.00  0.00     0.077 C 
ATOM      2  C1  UNL d   1       2.379   4.827  -5.647  0.00  0.00    -0.074 A 
ATOM      3  C2  UNL d   1       3.076   5.998  -5.960  0.00  0.00    -0.005 A 
ATOM      4  C3  UNL d   1       4.470   5.998  -5.998  0.00  0.00     0.006 A 
ATOM      5  C4  UNL d   1       5.180   4.828  -5.724  0.00  0.00    -0.005 A 
ATOM      6  C5  UNL d   1       4.501   3.648  -5.408  0.00  0.00    -0.074 A 
ATOM      7  C6  UNL d   1       5.249   2.384  -5.101  0.00  0.00     0.077 C 
ATOM      8  C7  UNL d   1       3.100   3.658  -5.365  0.00  0.00    -0.001 A 
ENDROOT
TORSDOF 0
ENDMDL
