MODEL 1
REMARK minimizedAffinity 10.2066984
REMARK minimizedRMSD -1
REMARK  0 active torsions:
REMARK  status: ('A' for Active; 'I' for Inactive)
ROOT
ATOM      1  C   UNL d   1       2.288  -2.666   0.418  0.00  0.00     0.077 C 
ATOM      2  C1  UNL d   1       3.353  -3.670   0.748  0.00  0.00    -0.074 A 
ATOM      3  C2  UNL d   1       4.024  -4.365  -0.263  0.00  0.00    -0.005 A 
ATOM      4  C3  UNL d   1       5.018  -5.288   0.058  0.00  0.00     0.006 A 
ATOM      5  C4  UNL d   1       5.352  -5.525   1.392  0.00  0.00    -0.005 A 
ATOM      6  C5  UNL d   1       4.693  -4.839   2.417  0.00  0.00    -0.074 A 
ATOM      7  C6  UNL d   1       5.046  -5.075   3.856  0.00  0.00     0.077 C 
ATOM      8  C7  UNL d   1       3.699  -3.908   2.086  0.00  0.00    -0.001 A 
ENDROOT
TORSDOF 0
ENDMDL
