MODEL 1
REMARK minimizedAffinity 6.63574696
REMARK minimizedRMSD -1
REMARK  0 active torsions:
REMARK  status: ('A' for Active; 'I' for Inactive)
ROOT
ATOM      1  C   UNL d   1       2.108   5.818  -5.387  0.00  0.00     0.077 C 
ATOM      2  C1  UNL d   1       3.466   5.195  -5.516  0.00  0.00    -0.074 A 
ATOM      3  C2  UNL d   1       4.580   5.965  -5.865  0.00  0.00    -0.005 A 
ATOM      4  C3  UNL d   1       5.839   5.374  -5.972  0.00  0.00     0.006 A 
ATOM      5  C4  UNL d   1       5.996   4.008  -5.731  0.00  0.00    -0.005 A 
ATOM      6  C5  UNL d   1       4.894   3.222  -5.380  0.00  0.00    -0.074 A 
ATOM      7  C6  UNL d   1       5.047   1.755  -5.108  0.00  0.00     0.077 C 
ATOM      8  C7  UNL d   1       3.634   3.825  -5.268  0.00  0.00    -0.001 A 
ENDROOT
TORSDOF 0
ENDMDL
