MODEL 1
REMARK minimizedAffinity -4.76375818
REMARK minimizedRMSD -1
REMARK  3 active torsions:
REMARK  status: ('A' for Active; 'I' for Inactive)
REMARK    1  A    between atoms: C3'_2  and  C2'_3 
REMARK    2  A    between atoms: C2'_3  and  C1'_4 
REMARK    3  A    between atoms: C1'_4  and  C1_5 
ROOT
ATOM      1  C1  N4B d   1      -0.971  -0.187   1.301  0.00  0.00    -0.075 A 
ATOM      2  C2  N4B d   1      -0.163   0.121   0.185  0.00  0.00     0.002 A 
ATOM      3  C3  N4B d   1       0.738  -0.803  -0.287  0.00  0.00     0.002 A 
ATOM      4  C4  N4B d   1       0.859  -2.029   0.350  0.00  0.00    -0.004 A 
ATOM      5  C5  N4B d   1       0.057  -2.328   1.411  0.00  0.00     0.002 A 
ATOM      6  C6  N4B d   1      -0.855  -1.411   1.894  0.00  0.00     0.002 A 
ENDROOT
BRANCH   1   7
ATOM      7  C1' N4B d   1      -1.909   0.822   1.905  0.00  0.00     0.057 C 
BRANCH   7   8
ATOM      8  C2' N4B d   1      -3.224   0.134   2.261  0.00  0.00     0.009 C 
BRANCH   8   9
ATOM      9  C3' N4B d   1      -4.426   0.898   1.733  0.00  0.00     0.004 C 
ATOM     10  C4' N4B d   1      -4.365   2.364   2.043  0.00  0.00     0.003 C 
ENDBRANCH   8   9
ENDBRANCH   7   8
ENDBRANCH   1   7
TORSDOF 3
ENDMDL
