MODEL 1
REMARK minimizedAffinity 0.658019543
REMARK minimizedRMSD -1
REMARK  3 active torsions:
REMARK  status: ('A' for Active; 'I' for Inactive)
REMARK    1  A    between atoms: C3'_2  and  C2'_3 
REMARK    2  A    between atoms: C2'_3  and  C1'_4 
REMARK    3  A    between atoms: C1'_4  and  C1_5 
ROOT
ATOM      1  C1  N4B d   1      -0.597  -0.286  -1.607  0.00  0.00    -0.075 A 
ATOM      2  C2  N4B d   1      -0.955   0.568  -2.673  0.00  0.00     0.002 A 
ATOM      3  C3  N4B d   1      -1.246   0.041  -3.907  0.00  0.00     0.002 A 
ATOM      4  C4  N4B d   1      -1.168  -1.330  -4.103  0.00  0.00    -0.004 A 
ATOM      5  C5  N4B d   1      -0.847  -2.150  -3.061  0.00  0.00     0.002 A 
ATOM      6  C6  N4B d   1      -0.555  -1.634  -1.814  0.00  0.00     0.002 A 
ENDROOT
BRANCH   1   7
ATOM      7  C1' N4B d   1      -0.187   0.250  -0.262  0.00  0.00     0.057 C 
BRANCH   7   8
ATOM      8  C2' N4B d   1      -1.269  -0.080   0.761  0.00  0.00     0.009 C 
BRANCH   8   9
ATOM      9  C3' N4B d   1      -1.997   1.164   1.239  0.00  0.00     0.004 C 
ATOM     10  C4' N4B d   1      -3.405   0.883   1.672  0.00  0.00     0.003 C 
ENDBRANCH   8   9
ENDBRANCH   7   8
ENDBRANCH   1   7
TORSDOF 3
ENDMDL
