MODEL 1
REMARK minimizedAffinity -4.23739719
REMARK minimizedRMSD -1
REMARK  3 active torsions:
REMARK  status: ('A' for Active; 'I' for Inactive)
REMARK    1  A    between atoms: C3'_2  and  C2'_3 
REMARK    2  A    between atoms: C2'_3  and  C1'_4 
REMARK    3  A    between atoms: C1'_4  and  C1_5 
ROOT
ATOM      1  C1  N4B d   1       0.557  -1.537  -0.786  0.00  0.00    -0.075 A 
ATOM      2  C2  N4B d   1       1.740  -2.114  -0.275  0.00  0.00     0.002 A 
ATOM      3  C3  N4B d   1       2.530  -1.404   0.595  0.00  0.00     0.002 A 
ATOM      4  C4  N4B d   1       2.169  -0.113   0.952  0.00  0.00    -0.004 A 
ATOM      5  C5  N4B d   1       1.012   0.428   0.474  0.00  0.00     0.002 A 
ATOM      6  C6  N4B d   1       0.206  -0.276  -0.398  0.00  0.00     0.002 A 
ENDROOT
BRANCH   1   7
ATOM      7  C1' N4B d   1      -0.295  -2.242  -1.806  0.00  0.00     0.057 C 
BRANCH   7   8
ATOM      8  C2' N4B d   1      -0.873  -1.213  -2.773  0.00  0.00     0.009 C 
BRANCH   8   9
ATOM      9  C3' N4B d   1      -0.817  -1.692  -4.213  0.00  0.00     0.004 C 
ATOM     10  C4' N4B d   1      -1.443  -3.041  -4.402  0.00  0.00     0.003 C 
ENDBRANCH   8   9
ENDBRANCH   7   8
ENDBRANCH   1   7
TORSDOF 3
ENDMDL
