MODEL 1
REMARK minimizedAffinity 2.55054069
REMARK minimizedRMSD -1
REMARK  3 active torsions:
REMARK  status: ('A' for Active; 'I' for Inactive)
REMARK    1  A    between atoms: C3'_2  and  C2'_3 
REMARK    2  A    between atoms: C2'_3  and  C1'_4 
REMARK    3  A    between atoms: C1'_4  and  C1_5 
ROOT
ATOM      1  C1  N4B d   1      -0.883  -0.381  -1.515  0.00  0.00    -0.075 A 
ATOM      2  C2  N4B d   1      -0.714  -1.496  -2.365  0.00  0.00     0.002 A 
ATOM      3  C3  N4B d   1      -1.164  -1.445  -3.661  0.00  0.00     0.002 A 
ATOM      4  C4  N4B d   1      -1.799  -0.302  -4.123  0.00  0.00    -0.004 A 
ATOM      5  C5  N4B d   1      -1.935   0.780  -3.303  0.00  0.00     0.002 A 
ATOM      6  C6  N4B d   1      -1.484   0.745  -1.999  0.00  0.00     0.002 A 
ENDROOT
BRANCH   1   7
ATOM      7  C1' N4B d   1      -0.484  -0.420  -0.065  0.00  0.00     0.057 C 
BRANCH   7   8
ATOM      8  C2' N4B d   1       0.886   0.231   0.096  0.00  0.00     0.009 C 
BRANCH   8   9
ATOM      9  C3' N4B d   1       0.801   1.748   0.073  0.00  0.00     0.004 C 
ATOM     10  C4' N4B d   1       0.350   2.324   1.382  0.00  0.00     0.003 C 
ENDBRANCH   8   9
ENDBRANCH   7   8
ENDBRANCH   1   7
TORSDOF 3
ENDMDL
