MODEL 1
REMARK minimizedAffinity -4.66365862
REMARK minimizedRMSD -1
REMARK  3 active torsions:
REMARK  status: ('A' for Active; 'I' for Inactive)
REMARK    1  A    between atoms: C3'_2  and  C2'_3 
REMARK    2  A    between atoms: C2'_3  and  C1'_4 
REMARK    3  A    between atoms: C1'_4  and  C1_5 
ROOT
ATOM      1  C1  N4B d   1       0.271   0.617   0.660  0.00  0.00    -0.075 A 
ATOM      2  C2  N4B d   1       0.888   1.765   0.116  0.00  0.00     0.002 A 
ATOM      3  C3  N4B d   1       2.159   2.110   0.504  0.00  0.00     0.002 A 
ATOM      4  C4  N4B d   1       2.823   1.337   1.445  0.00  0.00    -0.004 A 
ATOM      5  C5  N4B d   1       2.230   0.216   1.947  0.00  0.00     0.002 A 
ATOM      6  C6  N4B d   1       0.954  -0.146   1.563  0.00  0.00     0.002 A 
ENDROOT
BRANCH   1   7
ATOM      7  C1' N4B d   1      -1.150   0.247   0.331  0.00  0.00     0.057 C 
BRANCH   7   8
ATOM      8  C2' N4B d   1      -1.868  -0.169   1.611  0.00  0.00     0.009 C 
BRANCH   8   9
ATOM      9  C3' N4B d   1      -3.267   0.418   1.694  0.00  0.00     0.004 C 
ATOM     10  C4' N4B d   1      -3.442   1.338   2.865  0.00  0.00     0.003 C 
ENDBRANCH   8   9
ENDBRANCH   7   8
ENDBRANCH   1   7
TORSDOF 3
ENDMDL
