MODEL 1
REMARK minimizedAffinity -1.21973765
REMARK minimizedRMSD -1
REMARK  3 active torsions:
REMARK  status: ('A' for Active; 'I' for Inactive)
REMARK    1  A    between atoms: C3'_2  and  C2'_3 
REMARK    2  A    between atoms: C2'_3  and  C1'_4 
REMARK    3  A    between atoms: C1'_4  and  C1_5 
ROOT
ATOM      1  C1  N4B d   1       0.139   0.479   0.256  0.00  0.00    -0.075 A 
ATOM      2  C2  N4B d   1       0.847  -0.494   0.995  0.00  0.00     0.002 A 
ATOM      3  C3  N4B d   1       2.063  -0.182   1.552  0.00  0.00     0.002 A 
ATOM      4  C4  N4B d   1       2.597   1.084   1.368  0.00  0.00    -0.004 A 
ATOM      5  C5  N4B d   1       1.895   2.026   0.674  0.00  0.00     0.002 A 
ATOM      6  C6  N4B d   1       0.670   1.728   0.113  0.00  0.00     0.002 A 
ENDROOT
BRANCH   1   7
ATOM      7  C1' N4B d   1      -1.153   0.159  -0.444  0.00  0.00     0.057 C 
BRANCH   7   8
ATOM      8  C2' N4B d   1      -0.858  -0.686  -1.680  0.00  0.00     0.009 C 
BRANCH   8   9
ATOM      9  C3' N4B d   1      -1.609  -0.187  -2.902  0.00  0.00     0.004 C 
ATOM     10  C4' N4B d   1      -1.301  -0.980  -4.137  0.00  0.00     0.003 C 
ENDBRANCH   8   9
ENDBRANCH   7   8
ENDBRANCH   1   7
TORSDOF 3
ENDMDL
