MODEL 1
REMARK minimizedAffinity -0.837557137
REMARK minimizedRMSD -1
REMARK  0 active torsions:
REMARK  status: ('A' for Active; 'I' for Inactive)
ROOT
ATOM      1  O1  BZF d   1       5.860   2.543   5.960  0.00  0.00    -0.204 OA
ATOM      2  C2  BZF d   1       5.840   3.489   4.953  0.00  0.00     0.174 A 
ATOM      3  C3  BZF d   1       5.925   2.901   3.743  0.00  0.00    -0.012 A 
ATOM      4  C3A BZF d   1       5.909   1.494   4.006  0.00  0.00    -0.107 A 
ATOM      5  C4  BZF d   1       5.951   0.389   3.205  0.00  0.00     0.055 A 
ATOM      6  C5  BZF d   1       5.993  -0.842   3.780  0.00  0.00    -0.016 A 
ATOM      7  C6  BZF d   1       5.999  -1.004   5.150  0.00  0.00     0.022 A 
ATOM      8  C7  BZF d   1       5.954   0.063   5.985  0.00  0.00     0.029 A 
ATOM      9  C7A BZF d   1       5.878   1.307   5.407  0.00  0.00     0.058 A 
ENDROOT
TORSDOF 0
ENDMDL
