MODEL 1
REMARK minimizedAffinity -3.43004346
REMARK minimizedRMSD -1
REMARK  0 active torsions:
REMARK  status: ('A' for Active; 'I' for Inactive)
ROOT
ATOM      1  O1  BZF d   1       6.000  -0.584   3.743  0.00  0.00    -0.204 OA
ATOM      2  C2  BZF d   1       5.980  -1.267   4.945  0.00  0.00     0.174 A 
ATOM      3  C3  BZF d   1       5.997  -0.407   5.983  0.00  0.00    -0.012 A 
ATOM      4  C3A BZF d   1       5.936   0.896   5.395  0.00  0.00    -0.107 A 
ATOM      5  C4  BZF d   1       5.905   2.160   5.912  0.00  0.00     0.055 A 
ATOM      6  C5  BZF d   1       5.921   3.221   5.064  0.00  0.00    -0.016 A 
ATOM      7  C6  BZF d   1       5.972   3.056   3.695  0.00  0.00     0.022 A 
ATOM      8  C7  BZF d   1       5.998   1.822   3.135  0.00  0.00     0.029 A 
ATOM      9  C7A BZF d   1       5.949   0.747   3.989  0.00  0.00     0.058 A 
ENDROOT
TORSDOF 0
ENDMDL
