MODEL 1
REMARK minimizedAffinity -2.07893848
REMARK minimizedRMSD -1
REMARK  0 active torsions:
REMARK  status: ('A' for Active; 'I' for Inactive)
ROOT
ATOM      1  O1  BZF d   1       5.736  -0.977   4.164  0.00  0.00    -0.204 OA
ATOM      2  C2  BZF d   1       5.274  -1.144   5.456  0.00  0.00     0.174 A 
ATOM      3  C3  BZF d   1       4.935   0.042   6.000  0.00  0.00    -0.012 A 
ATOM      4  C3A BZF d   1       5.115   1.001   4.954  0.00  0.00    -0.107 A 
ATOM      5  C4  BZF d   1       4.926   2.352   4.875  0.00  0.00     0.055 A 
ATOM      6  C5  BZF d   1       5.265   3.000   3.730  0.00  0.00    -0.016 A 
ATOM      7  C6  BZF d   1       5.799   2.332   2.648  0.00  0.00     0.022 A 
ATOM      8  C7  BZF d   1       6.000   0.992   2.677  0.00  0.00     0.029 A 
ATOM      9  C7A BZF d   1       5.628   0.329   3.820  0.00  0.00     0.058 A 
ENDROOT
TORSDOF 0
ENDMDL
