MODEL 1
REMARK minimizedAffinity -4.32801247
REMARK minimizedRMSD -1
REMARK  0 active torsions:
REMARK  status: ('A' for Active; 'I' for Inactive)
ROOT
ATOM      1  O1  BZF d   1       5.998   2.129   5.804  0.00  0.00    -0.204 OA
ATOM      2  C2  BZF d   1       5.970   3.154   4.877  0.00  0.00     0.174 A 
ATOM      3  C3  BZF d   1       5.780   2.668   3.633  0.00  0.00    -0.012 A 
ATOM      4  C3A BZF d   1       5.592   1.260   3.803  0.00  0.00    -0.107 A 
ATOM      5  C4  BZF d   1       5.344   0.234   2.936  0.00  0.00     0.055 A 
ATOM      6  C5  BZF d   1       5.286  -1.036   3.415  0.00  0.00    -0.016 A 
ATOM      7  C6  BZF d   1       5.475  -1.317   4.753  0.00  0.00     0.022 A 
ATOM      8  C7  BZF d   1       5.718  -0.332   5.652  0.00  0.00     0.029 A 
ATOM      9  C7A BZF d   1       5.744   0.956   5.176  0.00  0.00     0.058 A 
ENDROOT
TORSDOF 0
ENDMDL
