MODEL 1
REMARK minimizedAffinity -2.16343832
REMARK minimizedRMSD -1
REMARK  0 active torsions:
REMARK  status: ('A' for Active; 'I' for Inactive)
ROOT
ATOM      1  O1  BZF d   1       5.945   1.109   5.999  0.00  0.00    -0.204 OA
ATOM      2  C2  BZF d   1       5.955  -0.253   5.769  0.00  0.00     0.174 A 
ATOM      3  C3  BZF d   1       5.922  -0.515   4.446  0.00  0.00    -0.012 A 
ATOM      4  C3A BZF d   1       5.982   0.764   3.807  0.00  0.00    -0.107 A 
ATOM      5  C4  BZF d   1       6.000   1.160   2.501  0.00  0.00     0.055 A 
ATOM      6  C5  BZF d   1       5.988   2.489   2.214  0.00  0.00    -0.016 A 
ATOM      7  C6  BZF d   1       5.953   3.446   3.207  0.00  0.00     0.022 A 
ATOM      8  C7  BZF d   1       5.940   3.101   4.517  0.00  0.00     0.029 A 
ATOM      9  C7A BZF d   1       5.985   1.760   4.811  0.00  0.00     0.058 A 
ENDROOT
TORSDOF 0
ENDMDL
