MODEL 1
REMARK minimizedAffinity -1.44141757
REMARK minimizedRMSD -1
REMARK  0 active torsions:
REMARK  status: ('A' for Active; 'I' for Inactive)
ROOT
ATOM      1  O1  BZF d   1       5.802   3.592   4.877  0.00  0.00    -0.204 OA
ATOM      2  C2  BZF d   1       6.000   4.366   3.749  0.00  0.00     0.174 A 
ATOM      3  C3  BZF d   1       5.998   3.601   2.638  0.00  0.00    -0.012 A 
ATOM      4  C3A BZF d   1       5.694   2.279   3.092  0.00  0.00    -0.107 A 
ATOM      5  C4  BZF d   1       5.535   1.081   2.455  0.00  0.00     0.055 A 
ATOM      6  C5  BZF d   1       5.314  -0.036   3.196  0.00  0.00    -0.016 A 
ATOM      7  C6  BZF d   1       5.251   0.006   4.573  0.00  0.00     0.022 A 
ATOM      8  C7  BZF d   1       5.397   1.172   5.249  0.00  0.00     0.029 A 
ATOM      9  C7A BZF d   1       5.587   2.308   4.502  0.00  0.00     0.058 A 
ENDROOT
TORSDOF 0
ENDMDL
