MODEL 1
REMARK minimizedAffinity 7.27572203
REMARK minimizedRMSD -1
REMARK  0 active torsions:
REMARK  status: ('A' for Active; 'I' for Inactive)
ROOT
ATOM      1  O1  BZF d   1       5.851   1.040   4.122  0.00  0.00    -0.204 OA
ATOM      2  C2  BZF d   1       5.867   0.733   2.775  0.00  0.00     0.174 A 
ATOM      3  C3  BZF d   1       5.869   1.856   2.029  0.00  0.00    -0.012 A 
ATOM      4  C3A BZF d   1       5.947   2.932   2.969  0.00  0.00    -0.107 A 
ATOM      5  C4  BZF d   1       6.000   4.291   2.839  0.00  0.00     0.055 A 
ATOM      6  C5  BZF d   1       5.997   5.062   3.958  0.00  0.00    -0.016 A 
ATOM      7  C6  BZF d   1       5.937   4.510   5.220  0.00  0.00     0.022 A 
ATOM      8  C7  BZF d   1       5.888   3.167   5.400  0.00  0.00     0.029 A 
ATOM      9  C7A BZF d   1       5.924   2.384   4.272  0.00  0.00     0.058 A 
ENDROOT
TORSDOF 0
ENDMDL
