MODEL 1
REMARK minimizedAffinity -1.82167792
REMARK minimizedRMSD -1
REMARK  0 active torsions:
REMARK  status: ('A' for Active; 'I' for Inactive)
ROOT
ATOM      1  O1  BZF d   1       5.943   2.684   4.375  0.00  0.00    -0.204 OA
ATOM      2  C2  BZF d   1       5.938   2.776   2.997  0.00  0.00     0.174 A 
ATOM      3  C3  BZF d   1       5.999   1.552   2.435  0.00  0.00    -0.012 A 
ATOM      4  C3A BZF d   1       5.952   0.632   3.530  0.00  0.00    -0.107 A 
ATOM      5  C4  BZF d   1       5.961  -0.731   3.613  0.00  0.00     0.055 A 
ATOM      6  C5  BZF d   1       5.978  -1.318   4.838  0.00  0.00    -0.016 A 
ATOM      7  C6  BZF d   1       5.991  -0.574   6.000  0.00  0.00     0.022 A 
ATOM      8  C7  BZF d   1       5.977   0.781   5.969  0.00  0.00     0.029 A 
ATOM      9  C7A BZF d   1       5.927   1.377   4.732  0.00  0.00     0.058 A 
ENDROOT
TORSDOF 0
ENDMDL
