MODEL 1
REMARK minimizedAffinity -1.26969242
REMARK minimizedRMSD -1
REMARK  0 active torsions:
REMARK  status: ('A' for Active; 'I' for Inactive)
ROOT
ATOM      1  O1  BZF d   1       5.925   0.927   6.000  0.00  0.00    -0.204 OA
ATOM      2  C2  BZF d   1       5.915  -0.449   5.887  0.00  0.00     0.174 A 
ATOM      3  C3  BZF d   1       5.881  -0.824   4.592  0.00  0.00    -0.012 A 
ATOM      4  C3A BZF d   1       5.963   0.395   3.846  0.00  0.00    -0.107 A 
ATOM      5  C4  BZF d   1       5.990   0.678   2.510  0.00  0.00     0.055 A 
ATOM      6  C5  BZF d   1       6.000   1.976   2.111  0.00  0.00    -0.016 A 
ATOM      7  C6  BZF d   1       5.977   3.016   3.018  0.00  0.00     0.022 A 
ATOM      8  C7  BZF d   1       5.955   2.784   4.353  0.00  0.00     0.029 A 
ATOM      9  C7A BZF d   1       5.979   1.473   4.761  0.00  0.00     0.058 A 
ENDROOT
TORSDOF 0
ENDMDL
