MODEL 1
REMARK minimizedAffinity -2.7757113
REMARK minimizedRMSD -1
REMARK  0 active torsions:
REMARK  status: ('A' for Active; 'I' for Inactive)
ROOT
ATOM      1  O1  BZF d   1       5.997  -0.788   6.000  0.00  0.00    -0.204 OA
ATOM      2  C2  BZF d   1       5.674  -1.814   5.132  0.00  0.00     0.174 A 
ATOM      3  C3  BZF d   1       5.242  -1.324   3.952  0.00  0.00    -0.012 A 
ATOM      4  C3A BZF d   1       5.386   0.096   4.059  0.00  0.00    -0.107 A 
ATOM      5  C4  BZF d   1       5.138   1.132   3.204  0.00  0.00     0.055 A 
ATOM      6  C5  BZF d   1       5.316   2.406   3.642  0.00  0.00    -0.016 A 
ATOM      7  C6  BZF d   1       5.736   2.681   4.927  0.00  0.00     0.022 A 
ATOM      8  C7  BZF d   1       6.000   1.686   5.809  0.00  0.00     0.029 A 
ATOM      9  C7A BZF d   1       5.852   0.397   5.360  0.00  0.00     0.058 A 
ENDROOT
TORSDOF 0
ENDMDL
