MODEL 1
REMARK minimizedAffinity -2.93945551
REMARK minimizedRMSD -1
REMARK  0 active torsions:
REMARK  status: ('A' for Active; 'I' for Inactive)
ROOT
ATOM      1  O1  BZF d   1       5.781  -0.288   5.997  0.00  0.00    -0.204 OA
ATOM      2  C2  BZF d   1       5.922  -1.415   5.212  0.00  0.00     0.174 A 
ATOM      3  C3  BZF d   1       5.976  -1.085   3.905  0.00  0.00    -0.012 A 
ATOM      4  C3A BZF d   1       5.954   0.345   3.878  0.00  0.00    -0.107 A 
ATOM      5  C4  BZF d   1       5.999   1.266   2.870  0.00  0.00     0.055 A 
ATOM      6  C5  BZF d   1       5.884   2.585   3.175  0.00  0.00    -0.016 A 
ATOM      7  C6  BZF d   1       5.718   3.018   4.474  0.00  0.00     0.022 A 
ATOM      8  C7  BZF d   1       5.672   2.143   5.508  0.00  0.00     0.029 A 
ATOM      9  C7A BZF d   1       5.821   0.811   5.206  0.00  0.00     0.058 A 
ENDROOT
TORSDOF 0
ENDMDL
