MODEL 1
REMARK minimizedAffinity 0.931614757
REMARK minimizedRMSD -1
REMARK  0 active torsions:
REMARK  status: ('A' for Active; 'I' for Inactive)
ROOT
ATOM      1  O1  BZF d   1       5.997  -1.995   3.902  0.00  0.00    -0.204 OA
ATOM      2  C2  BZF d   1       5.969  -2.268   5.256  0.00  0.00     0.174 A 
ATOM      3  C3  BZF d   1       5.975  -1.127   5.975  0.00  0.00    -0.012 A 
ATOM      4  C3A BZF d   1       5.915  -0.074   5.009  0.00  0.00    -0.107 A 
ATOM      5  C4  BZF d   1       5.877   1.288   5.106  0.00  0.00     0.055 A 
ATOM      6  C5  BZF d   1       5.897   2.032   3.969  0.00  0.00    -0.016 A 
ATOM      7  C6  BZF d   1       5.960   1.448   2.720  0.00  0.00     0.022 A 
ATOM      8  C7  BZF d   1       5.994   0.101   2.574  0.00  0.00     0.029 A 
ATOM      9  C7A BZF d   1       5.941  -0.654   3.720  0.00  0.00     0.058 A 
ENDROOT
TORSDOF 0
ENDMDL
