MODEL 1
REMARK minimizedAffinity -2.65434432
REMARK minimizedRMSD -1
REMARK  0 active torsions:
REMARK  status: ('A' for Active; 'I' for Inactive)
ROOT
ATOM      1  O1  BZF d   1       5.893  -0.530   6.000  0.00  0.00    -0.204 OA
ATOM      2  C2  BZF d   1       5.442  -1.471   5.095  0.00  0.00     0.174 A 
ATOM      3  C3  BZF d   1       4.927  -0.875   4.000  0.00  0.00    -0.012 A 
ATOM      4  C3A BZF d   1       5.150   0.525   4.195  0.00  0.00    -0.107 A 
ATOM      5  C4  BZF d   1       4.875   1.633   3.445  0.00  0.00     0.055 A 
ATOM      6  C5  BZF d   1       5.155   2.861   3.954  0.00  0.00    -0.016 A 
ATOM      7  C6  BZF d   1       5.704   3.019   5.209  0.00  0.00     0.022 A 
ATOM      8  C7  BZF d   1       5.999   1.950   5.988  0.00  0.00     0.029 A 
ATOM      9  C7A BZF d   1       5.748   0.706   5.464  0.00  0.00     0.058 A 
ENDROOT
TORSDOF 0
ENDMDL
