MODEL 1
REMARK minimizedAffinity -2.14722013
REMARK minimizedRMSD -1
REMARK  0 active torsions:
REMARK  status: ('A' for Active; 'I' for Inactive)
ROOT
ATOM      1  O1  BZF d   1       5.930  -0.796   3.782  0.00  0.00    -0.204 OA
ATOM      2  C2  BZF d   1       5.926  -1.363   5.042  0.00  0.00     0.174 A 
ATOM      3  C3  BZF d   1       5.996  -0.412   5.995  0.00  0.00    -0.012 A 
ATOM      4  C3A BZF d   1       5.954   0.832   5.289  0.00  0.00    -0.107 A 
ATOM      5  C4  BZF d   1       5.973   2.138   5.687  0.00  0.00     0.055 A 
ATOM      6  C5  BZF d   1       5.993   3.116   4.744  0.00  0.00    -0.016 A 
ATOM      7  C6  BZF d   1       6.000   2.824   3.396  0.00  0.00     0.022 A 
ATOM      8  C7  BZF d   1       5.977   1.543   2.952  0.00  0.00     0.029 A 
ATOM      9  C7A BZF d   1       5.923   0.554   3.903  0.00  0.00     0.058 A 
ENDROOT
TORSDOF 0
ENDMDL
