MODEL 1
REMARK minimizedAffinity -1.80296266
REMARK minimizedRMSD -1
REMARK  0 active torsions:
REMARK  status: ('A' for Active; 'I' for Inactive)
ROOT
ATOM      1  O1  BZF d   1       5.950   0.030   5.683  0.00  0.00    -0.204 OA
ATOM      2  C2  BZF d   1       5.947  -1.196   5.047  0.00  0.00     0.174 A 
ATOM      3  C3  BZF d   1       5.910  -1.041   3.708  0.00  0.00    -0.012 A 
ATOM      4  C3A BZF d   1       5.981   0.371   3.491  0.00  0.00    -0.107 A 
ATOM      5  C4  BZF d   1       6.000   1.148   2.368  0.00  0.00     0.055 A 
ATOM      6  C5  BZF d   1       6.000   2.501   2.501  0.00  0.00    -0.016 A 
ATOM      7  C6  BZF d   1       5.976   3.109   3.739  0.00  0.00     0.022 A 
ATOM      8  C7  BZF d   1       5.961   2.379   4.882  0.00  0.00     0.029 A 
ATOM      9  C7A BZF d   1       5.995   1.012   4.751  0.00  0.00     0.058 A 
ENDROOT
TORSDOF 0
ENDMDL
