MODEL 1
REMARK minimizedAffinity -3.77573943
REMARK minimizedRMSD -1
REMARK  0 active torsions:
REMARK  status: ('A' for Active; 'I' for Inactive)
ROOT
ATOM      1  O1  BZF d   1       5.924   2.485   5.622  0.00  0.00    -0.204 OA
ATOM      2  C2  BZF d   1       6.000   3.290   4.501  0.00  0.00     0.174 A 
ATOM      3  C3  BZF d   1       5.990   2.546   3.376  0.00  0.00    -0.012 A 
ATOM      4  C3A BZF d   1       5.809   1.197   3.819  0.00  0.00    -0.107 A 
ATOM      5  C4  BZF d   1       5.702   0.001   3.167  0.00  0.00     0.055 A 
ATOM      6  C5  BZF d   1       5.606  -1.141   3.896  0.00  0.00    -0.016 A 
ATOM      7  C6  BZF d   1       5.618  -1.126   5.276  0.00  0.00     0.022 A 
ATOM      8  C7  BZF d   1       5.717   0.036   5.966  0.00  0.00     0.029 A 
ATOM      9  C7A BZF d   1       5.782   1.195   5.233  0.00  0.00     0.058 A 
ENDROOT
TORSDOF 0
ENDMDL
