MODEL 1
REMARK minimizedAffinity 2.51019788
REMARK minimizedRMSD -1
REMARK  0 active torsions:
REMARK  status: ('A' for Active; 'I' for Inactive)
ROOT
ATOM      1  O1  BZF d   1       5.971   2.962   4.829  0.00  0.00    -0.204 OA
ATOM      2  C2  BZF d   1       5.954   3.366   3.508  0.00  0.00     0.174 A 
ATOM      3  C3  BZF d   1       5.995   2.302   2.681  0.00  0.00    -0.012 A 
ATOM      4  C3A BZF d   1       5.948   1.157   3.538  0.00  0.00    -0.107 A 
ATOM      5  C4  BZF d   1       5.942  -0.189   3.308  0.00  0.00     0.055 A 
ATOM      6  C5  BZF d   1       5.964  -1.040   4.367  0.00  0.00    -0.016 A 
ATOM      7  C6  BZF d   1       5.997  -0.581   5.667  0.00  0.00     0.022 A 
ATOM      8  C7  BZF d   1       5.999   0.745   5.946  0.00  0.00     0.029 A 
ATOM      9  C7A BZF d   1       5.943   1.608   4.878  0.00  0.00     0.058 A 
ENDROOT
TORSDOF 0
ENDMDL
