MODEL 1
REMARK minimizedAffinity 0.163945064
REMARK minimizedRMSD -1
REMARK  0 active torsions:
REMARK  status: ('A' for Active; 'I' for Inactive)
ROOT
ATOM      1  O1  BZF d   1       5.884  -1.224   3.694  0.00  0.00    -0.204 OA
ATOM      2  C2  BZF d   1       5.886  -1.966   4.859  0.00  0.00     0.174 A 
ATOM      3  C3  BZF d   1       5.975  -1.162   5.938  0.00  0.00    -0.012 A 
ATOM      4  C3A BZF d   1       5.940   0.170   5.419  0.00  0.00    -0.107 A 
ATOM      5  C4  BZF d   1       5.978   1.406   6.000  0.00  0.00     0.055 A 
ATOM      6  C5  BZF d   1       5.999   2.508   5.206  0.00  0.00    -0.016 A 
ATOM      7  C6  BZF d   1       5.991   2.413   3.830  0.00  0.00     0.022 A 
ATOM      8  C7  BZF d   1       5.949   1.209   3.208  0.00  0.00     0.029 A 
ATOM      9  C7A BZF d   1       5.893   0.094   4.008  0.00  0.00     0.058 A 
ENDROOT
TORSDOF 0
ENDMDL
