MODEL 1
REMARK minimizedAffinity 0.963226855
REMARK minimizedRMSD -1
REMARK  0 active torsions:
REMARK  status: ('A' for Active; 'I' for Inactive)
ROOT
ATOM      1  C   UNL d   1      -1.142   0.001  -1.032  0.00  0.00     0.020 A 
ATOM      2  C1  UNL d   1      -0.171   0.785  -0.410  0.00  0.00     0.020 A 
ATOM      3  C2  UNL d   1      -0.463   1.438   0.789  0.00  0.00     0.034 A 
ATOM      4  C3  UNL d   1      -1.730   1.309   1.370  0.00  0.00     0.017 A 
ATOM      5  C4  UNL d   1      -2.704   0.521   0.745  0.00  0.00     0.017 A 
ATOM      6  C5  UNL d   1      -2.406  -0.130  -0.456  0.00  0.00     0.034 A 
ATOM      7 Cl   UNL d   1      -4.290   0.314   1.401  0.00  0.00    -0.070 Cl
ATOM      8 Cl1  UNL d   1      -2.023   2.144   2.853  0.00  0.00    -0.070 Cl
ENDROOT
TORSDOF 0
ENDMDL
