MODEL 1
REMARK minimizedAffinity 10.6738796
REMARK minimizedRMSD -1
REMARK  0 active torsions:
REMARK  status: ('A' for Active; 'I' for Inactive)
ROOT
ATOM      1  C   UNL d   1       1.657   1.923   1.137  0.00  0.00     0.020 A 
ATOM      2  C1  UNL d   1       0.985   1.766  -0.074  0.00  0.00     0.020 A 
ATOM      3  C2  UNL d   1       1.079   0.561  -0.773  0.00  0.00     0.034 A 
ATOM      4  C3  UNL d   1       1.847  -0.491  -0.262  0.00  0.00     0.017 A 
ATOM      5  C4  UNL d   1       2.522  -0.332   0.953  0.00  0.00     0.017 A 
ATOM      6  C5  UNL d   1       2.425   0.876   1.650  0.00  0.00     0.034 A 
ATOM      7 Cl   UNL d   1       3.490  -1.585   1.647  0.00  0.00    -0.070 Cl
ATOM      8 Cl1  UNL d   1       1.919  -1.953  -1.180  0.00  0.00    -0.070 Cl
ENDROOT
TORSDOF 0
ENDMDL
