MODEL 1
REMARK minimizedAffinity 5.74187803
REMARK minimizedRMSD -1
REMARK  0 active torsions:
REMARK  status: ('A' for Active; 'I' for Inactive)
ROOT
ATOM      1  C   UNL d   1       1.770   2.057   0.500  0.00  0.00     0.020 A 
ATOM      2  C1  UNL d   1       0.517   2.091  -0.111  0.00  0.00     0.020 A 
ATOM      3  C2  UNL d   1      -0.032   0.922  -0.644  0.00  0.00     0.034 A 
ATOM      4  C3  UNL d   1       0.673  -0.285  -0.567  0.00  0.00     0.017 A 
ATOM      5  C4  UNL d   1       1.930  -0.317   0.046  0.00  0.00     0.017 A 
ATOM      6  C5  UNL d   1       2.475   0.856   0.578  0.00  0.00     0.034 A 
ATOM      7 Cl   UNL d   1       2.859  -1.769   0.179  0.00  0.00    -0.070 Cl
ATOM      8 Cl1  UNL d   1      -0.066  -1.691  -1.247  0.00  0.00    -0.070 Cl
ENDROOT
TORSDOF 0
ENDMDL
