MODEL 1
REMARK minimizedAffinity 4.01859093
REMARK minimizedRMSD -1
REMARK  0 active torsions:
REMARK  status: ('A' for Active; 'I' for Inactive)
ROOT
ATOM      1  C   UNL d   1       0.317   2.407  -0.136  0.00  0.00     0.020 A 
ATOM      2  C1  UNL d   1       1.337   2.014   0.729  0.00  0.00     0.020 A 
ATOM      3  C2  UNL d   1       1.025   1.526   2.000  0.00  0.00     0.034 A 
ATOM      4  C3  UNL d   1      -0.310   1.430   2.409  0.00  0.00     0.017 A 
ATOM      5  C4  UNL d   1      -1.333   1.825   1.540  0.00  0.00     0.017 A 
ATOM      6  C5  UNL d   1      -1.015   2.312   0.268  0.00  0.00     0.034 A 
ATOM      7 Cl   UNL d   1      -3.004   1.736   1.974  0.00  0.00    -0.070 Cl
ATOM      8 Cl1  UNL d   1      -0.622   0.818   3.995  0.00  0.00    -0.070 Cl
ENDROOT
TORSDOF 0
ENDMDL
