MODEL 1
REMARK minimizedAffinity 2.09484673
REMARK minimizedRMSD -1
REMARK  0 active torsions:
REMARK  status: ('A' for Active; 'I' for Inactive)
ROOT
ATOM      1  C   UNL d   1       0.136  -1.093  -0.520  0.00  0.00     0.020 A 
ATOM      2  C1  UNL d   1      -0.172  -2.150  -1.376  0.00  0.00     0.020 A 
ATOM      3  C2  UNL d   1       0.843  -2.780  -2.099  0.00  0.00     0.034 A 
ATOM      4  C3  UNL d   1       2.170  -2.355  -1.967  0.00  0.00     0.017 A 
ATOM      5  C4  UNL d   1       2.478  -1.294  -1.107  0.00  0.00     0.017 A 
ATOM      6  C5  UNL d   1       1.457  -0.667  -0.386  0.00  0.00     0.034 A 
ATOM      7 Cl   UNL d   1       4.091  -0.714  -0.891  0.00  0.00    -0.070 Cl
ATOM      8 Cl1  UNL d   1       3.374  -3.181  -2.891  0.00  0.00    -0.070 Cl
ENDROOT
TORSDOF 0
ENDMDL
