MODEL 1
REMARK minimizedAffinity 0.0440553874
REMARK minimizedRMSD -1
REMARK  0 active torsions:
REMARK  status: ('A' for Active; 'I' for Inactive)
ROOT
ATOM      1  C   UNL d   1       1.413  -2.352  -0.681  0.00  0.00     0.020 A 
ATOM      2  C1  UNL d   1       0.189  -1.779  -0.339  0.00  0.00     0.020 A 
ATOM      3  C2  UNL d   1       0.082  -0.394  -0.195  0.00  0.00     0.034 A 
ATOM      4  C3  UNL d   1       1.201   0.423  -0.394  0.00  0.00     0.017 A 
ATOM      5  C4  UNL d   1       2.429  -0.153  -0.737  0.00  0.00     0.017 A 
ATOM      6  C5  UNL d   1       2.531  -1.540  -0.880  0.00  0.00     0.034 A 
ATOM      7 Cl   UNL d   1       3.854   0.790  -0.998  0.00  0.00    -0.070 Cl
ATOM      8 Cl1  UNL d   1       0.996   2.127  -0.199  0.00  0.00    -0.070 Cl
ENDROOT
TORSDOF 0
ENDMDL
