MODEL 1
REMARK minimizedAffinity 0.364068121
REMARK minimizedRMSD -1
REMARK  0 active torsions:
REMARK  status: ('A' for Active; 'I' for Inactive)
ROOT
ATOM      1  C   UNL d   1       2.400  -1.323  -1.251  0.00  0.00     0.020 A 
ATOM      2  C1  UNL d   1       2.978  -0.067  -1.073  0.00  0.00     0.020 A 
ATOM      3  C2  UNL d   1       2.259   0.949  -0.440  0.00  0.00     0.034 A 
ATOM      4  C3  UNL d   1       0.958   0.711   0.017  0.00  0.00     0.017 A 
ATOM      5  C4  UNL d   1       0.378  -0.551  -0.162  0.00  0.00     0.017 A 
ATOM      6  C5  UNL d   1       1.103  -1.565  -0.796  0.00  0.00     0.034 A 
ATOM      7 Cl   UNL d   1      -1.222  -0.921   0.376  0.00  0.00    -0.070 Cl
ATOM      8 Cl1  UNL d   1       0.127   2.013   0.791  0.00  0.00    -0.070 Cl
ENDROOT
TORSDOF 0
ENDMDL
