MODEL 1
REMARK minimizedAffinity -0.479884446
REMARK minimizedRMSD -1
REMARK  0 active torsions:
REMARK  status: ('A' for Active; 'I' for Inactive)
ROOT
ATOM      1  C   UNL d   1       1.051  -2.723  -1.103  0.00  0.00     0.020 A 
ATOM      2  C1  UNL d   1      -0.190  -2.095  -1.002  0.00  0.00     0.020 A 
ATOM      3  C2  UNL d   1      -0.259  -0.720  -0.768  0.00  0.00     0.034 A 
ATOM      4  C3  UNL d   1       0.914   0.032  -0.634  0.00  0.00     0.017 A 
ATOM      5  C4  UNL d   1       2.159  -0.599  -0.736  0.00  0.00     0.017 A 
ATOM      6  C5  UNL d   1       2.223  -1.976  -0.970  0.00  0.00     0.034 A 
ATOM      7 Cl   UNL d   1       3.649   0.262  -0.582  0.00  0.00    -0.070 Cl
ATOM      8 Cl1  UNL d   1       0.752   1.728  -0.346  0.00  0.00    -0.070 Cl
ENDROOT
TORSDOF 0
ENDMDL
