MODEL 1
REMARK minimizedAffinity 11.8734989
REMARK minimizedRMSD -1
REMARK  0 active torsions:
REMARK  status: ('A' for Active; 'I' for Inactive)
ROOT
ATOM      1  C   UNL d   1       1.580  -1.071   0.210  0.00  0.00     0.020 A 
ATOM      2  C1  UNL d   1       1.956  -2.273  -0.389  0.00  0.00     0.020 A 
ATOM      3  C2  UNL d   1       1.165  -2.828  -1.397  0.00  0.00     0.034 A 
ATOM      4  C3  UNL d   1      -0.006  -2.181  -1.810  0.00  0.00     0.017 A 
ATOM      5  C4  UNL d   1      -0.382  -0.975  -1.208  0.00  0.00     0.017 A 
ATOM      6  C5  UNL d   1       0.414  -0.424  -0.199  0.00  0.00     0.034 A 
ATOM      7 Cl   UNL d   1      -1.812  -0.118  -1.664  0.00  0.00    -0.070 Cl
ATOM      8 Cl1  UNL d   1      -0.936  -2.925  -3.062  0.00  0.00    -0.070 Cl
ENDROOT
TORSDOF 0
ENDMDL
