MODEL 1
REMARK minimizedAffinity 5.17533255
REMARK minimizedRMSD -1
REMARK  1 active torsions:
REMARK  status: ('A' for Active; 'I' for Inactive)
REMARK    1  A    between atoms: C1_2  and  C2_3 
ROOT
ATOM      1  C2  UNL d   1       0.832   1.896   0.892  0.00  0.00    -0.077 A 
ATOM      2  C3  UNL d   1       0.495   0.749   0.160  0.00  0.00     0.002 A 
ATOM      3  C4  UNL d   1      -0.110  -0.339   0.791  0.00  0.00     0.002 A 
ATOM      4  C5  UNL d   1      -0.387  -0.289   2.156  0.00  0.00    -0.004 A 
ATOM      5  C6  UNL d   1      -0.054   0.846   2.893  0.00  0.00     0.002 A 
ATOM      6  C7  UNL d   1       0.552   1.934   2.264  0.00  0.00     0.002 A 
ENDROOT
BRANCH   1   7
ATOM      7  C1  UNL d   1       1.439   3.090   0.203  0.00  0.00     0.055 C 
ATOM      8  C   UNL d   1       2.821   2.768  -0.348  0.00  0.00     0.019 C 
ENDBRANCH   1   7
TORSDOF 1
ENDMDL
