MODEL 1
REMARK minimizedAffinity 7.11378384
REMARK minimizedRMSD -1
REMARK  1 active torsions:
REMARK  status: ('A' for Active; 'I' for Inactive)
REMARK    1  A    between atoms: C1_2  and  C2_3 
ROOT
ATOM      1  C2  UNL d   1      -2.323  -1.730  -3.532  0.00  0.00    -0.077 A 
ATOM      2  C3  UNL d   1      -2.409  -1.075  -4.769  0.00  0.00     0.002 A 
ATOM      3  C4  UNL d   1      -1.255  -0.805  -5.507  0.00  0.00     0.002 A 
ATOM      4  C5  UNL d   1      -0.008  -1.190  -5.019  0.00  0.00    -0.004 A 
ATOM      5  C6  UNL d   1       0.088  -1.840  -3.790  0.00  0.00     0.002 A 
ATOM      6  C7  UNL d   1      -1.064  -2.109  -3.050  0.00  0.00     0.002 A 
ENDROOT
BRANCH   1   7
ATOM      7  C1  UNL d   1      -3.570  -2.065  -2.757  0.00  0.00     0.055 C 
ATOM      8  C   UNL d   1      -3.437  -1.667  -1.295  0.00  0.00     0.019 C 
ENDBRANCH   1   7
TORSDOF 1
ENDMDL
