MODEL 1
REMARK minimizedAffinity 0.779082298
REMARK minimizedRMSD -1
REMARK  1 active torsions:
REMARK  status: ('A' for Active; 'I' for Inactive)
REMARK    1  A    between atoms: C1_2  and  C2_3 
ROOT
ATOM      1  C2  UNL d   1       5.156   3.816  -4.591  0.00  0.00    -0.077 A 
ATOM      2  C3  UNL d   1       5.997   4.690  -5.294  0.00  0.00     0.002 A 
ATOM      3  C4  UNL d   1       5.463   5.773  -5.996  0.00  0.00     0.002 A 
ATOM      4  C5  UNL d   1       4.087   5.994  -5.997  0.00  0.00    -0.004 A 
ATOM      5  C6  UNL d   1       3.242   5.130  -5.302  0.00  0.00     0.002 A 
ATOM      6  C7  UNL d   1       3.774   4.046  -4.602  0.00  0.00     0.002 A 
ENDROOT
BRANCH   1   7
ATOM      7  C1  UNL d   1       5.734   2.677  -3.793  0.00  0.00     0.055 C 
ATOM      8  C   UNL d   1       5.778   1.395  -4.611  0.00  0.00     0.019 C 
ENDBRANCH   1   7
TORSDOF 1
ENDMDL
