MODEL 1
REMARK minimizedAffinity -0.835611284
REMARK minimizedRMSD -1
REMARK  1 active torsions:
REMARK  status: ('A' for Active; 'I' for Inactive)
REMARK    1  A    between atoms: C1_2  and  C2_3 
ROOT
ATOM      1  C2  UNL d   1       3.165   4.940  -5.377  0.00  0.00    -0.077 A 
ATOM      2  C3  UNL d   1       4.023   5.999  -5.708  0.00  0.00     0.002 A 
ATOM      3  C4  UNL d   1       5.351   5.993  -5.277  0.00  0.00     0.002 A 
ATOM      4  C5  UNL d   1       5.834   4.929  -4.518  0.00  0.00    -0.004 A 
ATOM      5  C6  UNL d   1       4.989   3.872  -4.183  0.00  0.00     0.002 A 
ATOM      6  C7  UNL d   1       3.661   3.877  -4.611  0.00  0.00     0.002 A 
ENDROOT
BRANCH   1   7
ATOM      7  C1  UNL d   1       1.746   4.921  -5.882  0.00  0.00     0.055 C 
ATOM      8  C   UNL d   1       0.897   5.976  -5.187  0.00  0.00     0.019 C 
ENDBRANCH   1   7
TORSDOF 1
ENDMDL
