MODEL 1
REMARK minimizedAffinity 7.46498203
REMARK minimizedRMSD -1
REMARK  1 active torsions:
REMARK  status: ('A' for Active; 'I' for Inactive)
REMARK    1  A    between atoms: C1_2  and  C2_3 
ROOT
ATOM      1  C2  UNL d   1       0.786   1.227   0.473  0.00  0.00    -0.077 A 
ATOM      2  C3  UNL d   1       1.530   0.861  -0.658  0.00  0.00     0.002 A 
ATOM      3  C4  UNL d   1       2.096   1.838  -1.478  0.00  0.00     0.002 A 
ATOM      4  C5  UNL d   1       1.927   3.188  -1.175  0.00  0.00    -0.004 A 
ATOM      5  C6  UNL d   1       1.187   3.562  -0.054  0.00  0.00     0.002 A 
ATOM      6  C7  UNL d   1       0.620   2.586   0.766  0.00  0.00     0.002 A 
ENDROOT
BRANCH   1   7
ATOM      7  C1  UNL d   1       0.217   0.173   1.386  0.00  0.00     0.055 C 
ATOM      8  C   UNL d   1      -0.370   0.792   2.647  0.00  0.00     0.019 C 
ENDBRANCH   1   7
TORSDOF 1
ENDMDL
