MODEL 1
REMARK minimizedAffinity 1.24333632
REMARK minimizedRMSD -1
REMARK  1 active torsions:
REMARK  status: ('A' for Active; 'I' for Inactive)
REMARK    1  A    between atoms: C1_2  and  C2_3 
ROOT
ATOM      1  C2  UNL d   1       0.373   5.178  -4.942  0.00  0.00    -0.077 A 
ATOM      2  C3  UNL d   1      -0.050   5.595  -3.672  0.00  0.00     0.002 A 
ATOM      3  C4  UNL d   1      -1.370   6.000  -3.465  0.00  0.00     0.002 A 
ATOM      4  C5  UNL d   1      -2.279   5.987  -4.522  0.00  0.00    -0.004 A 
ATOM      5  C6  UNL d   1      -1.867   5.575  -5.789  0.00  0.00     0.002 A 
ATOM      6  C7  UNL d   1      -0.548   5.172  -5.998  0.00  0.00     0.002 A 
ENDROOT
BRANCH   1   7
ATOM      7  C1  UNL d   1       1.783   4.694  -5.156  0.00  0.00     0.055 C 
ATOM      8  C   UNL d   1       2.793   5.805  -4.907  0.00  0.00     0.019 C 
ENDBRANCH   1   7
TORSDOF 1
ENDMDL
