MODEL 1
REMARK minimizedAffinity 5.66530752
REMARK minimizedRMSD -1
REMARK  1 active torsions:
REMARK  status: ('A' for Active; 'I' for Inactive)
REMARK    1  A    between atoms: C1_2  and  C2_3 
ROOT
ATOM      1  C2  UNL d   1       1.872   5.402  -5.495  0.00  0.00    -0.077 A 
ATOM      2  C3  UNL d   1       1.874   4.268  -4.671  0.00  0.00     0.002 A 
ATOM      3  C4  UNL d   1       3.078   3.743  -4.195  0.00  0.00     0.002 A 
ATOM      4  C5  UNL d   1       4.286   4.347  -4.535  0.00  0.00    -0.004 A 
ATOM      5  C6  UNL d   1       4.295   5.474  -5.356  0.00  0.00     0.002 A 
ATOM      6  C7  UNL d   1       3.093   6.000  -5.833  0.00  0.00     0.002 A 
ENDROOT
BRANCH   1   7
ATOM      7  C1  UNL d   1       0.573   5.999  -5.969  0.00  0.00     0.055 C 
ATOM      8  C   UNL d   1      -0.473   5.997  -4.863  0.00  0.00     0.019 C 
ENDBRANCH   1   7
TORSDOF 1
ENDMDL
