MODEL 1
REMARK minimizedAffinity -2.78132296
REMARK minimizedRMSD -1
REMARK  1 active torsions:
REMARK  status: ('A' for Active; 'I' for Inactive)
REMARK    1  A    between atoms: C1_2  and  C2_3 
ROOT
ATOM      1  C2  UNL d   1       0.618   5.418  -5.254  0.00  0.00    -0.077 A 
ATOM      2  C3  UNL d   1      -0.605   5.407  -5.939  0.00  0.00     0.002 A 
ATOM      3  C4  UNL d   1      -1.795   5.690  -5.265  0.00  0.00     0.002 A 
ATOM      4  C5  UNL d   1      -1.773   5.989  -3.904  0.00  0.00    -0.004 A 
ATOM      5  C6  UNL d   1      -0.562   6.000  -3.213  0.00  0.00     0.002 A 
ATOM      6  C7  UNL d   1       0.628   5.717  -3.885  0.00  0.00     0.002 A 
ENDROOT
BRANCH   1   7
ATOM      7  C1  UNL d   1       1.907   5.162  -5.989  0.00  0.00     0.055 C 
ATOM      8  C   UNL d   1       3.044   5.999  -5.421  0.00  0.00     0.019 C 
ENDBRANCH   1   7
TORSDOF 1
ENDMDL
