MODEL 1
REMARK minimizedAffinity -3.14377546
REMARK minimizedRMSD -1
REMARK  1 active torsions:
REMARK  status: ('A' for Active; 'I' for Inactive)
REMARK    1  A    between atoms: C1_2  and  C2_3 
ROOT
ATOM      1  C2  UNL d   1       1.113   5.657  -5.154  0.00  0.00    -0.077 A 
ATOM      2  C3  UNL d   1       1.182   5.995  -3.795  0.00  0.00     0.002 A 
ATOM      3  C4  UNL d   1       0.032   5.974  -3.003  0.00  0.00     0.002 A 
ATOM      4  C5  UNL d   1      -1.193   5.612  -3.560  0.00  0.00    -0.004 A 
ATOM      5  C6  UNL d   1      -1.272   5.276  -4.911  0.00  0.00     0.002 A 
ATOM      6  C7  UNL d   1      -0.124   5.298  -5.704  0.00  0.00     0.002 A 
ENDROOT
BRANCH   1   7
ATOM      7  C1  UNL d   1       2.360   5.631  -5.998  0.00  0.00     0.055 C 
ATOM      8  C   UNL d   1       3.590   5.999  -5.181  0.00  0.00     0.019 C 
ENDBRANCH   1   7
TORSDOF 1
ENDMDL
