MODEL 1
REMARK minimizedAffinity 7.81566429
REMARK minimizedRMSD -1
REMARK  1 active torsions:
REMARK  status: ('A' for Active; 'I' for Inactive)
REMARK    1  A    between atoms: C1_2  and  C2_3 
ROOT
ATOM      1  C2  UNL d   1       1.524   1.614  -0.414  0.00  0.00    -0.077 A 
ATOM      2  C3  UNL d   1       0.682   0.823  -1.209  0.00  0.00     0.002 A 
ATOM      3  C4  UNL d   1      -0.018  -0.246  -0.648  0.00  0.00     0.002 A 
ATOM      4  C5  UNL d   1       0.112  -0.532   0.710  0.00  0.00    -0.004 A 
ATOM      5  C6  UNL d   1       0.949   0.248   1.508  0.00  0.00     0.002 A 
ATOM      6  C7  UNL d   1       1.651   1.317   0.949  0.00  0.00     0.002 A 
ENDROOT
BRANCH   1   7
ATOM      7  C1  UNL d   1       2.243   2.798  -1.007  0.00  0.00     0.055 C 
ATOM      8  C   UNL d   1       3.547   3.078  -0.274  0.00  0.00     0.019 C 
ENDBRANCH   1   7
TORSDOF 1
ENDMDL
