MODEL 1
REMARK minimizedAffinity 8.33757019
REMARK minimizedRMSD -1
REMARK  1 active torsions:
REMARK  status: ('A' for Active; 'I' for Inactive)
REMARK    1  A    between atoms: C1_2  and  C2_3 
ROOT
ATOM      1  C2  UNL d   1      -1.665   0.798   2.346  0.00  0.00    -0.077 A 
ATOM      2  C3  UNL d   1      -2.544   0.931   1.261  0.00  0.00     0.002 A 
ATOM      3  C4  UNL d   1      -2.132   0.586  -0.028  0.00  0.00     0.002 A 
ATOM      4  C5  UNL d   1      -0.844   0.102  -0.243  0.00  0.00    -0.004 A 
ATOM      5  C6  UNL d   1       0.038  -0.031   0.828  0.00  0.00     0.002 A 
ATOM      6  C7  UNL d   1      -0.371   0.314   2.117  0.00  0.00     0.002 A 
ENDROOT
BRANCH   1   7
ATOM      7  C1  UNL d   1      -2.123   1.123   3.743  0.00  0.00     0.055 C 
ATOM      8  C   UNL d   1      -1.071   0.740   4.774  0.00  0.00     0.019 C 
ENDBRANCH   1   7
TORSDOF 1
ENDMDL
