MODEL 1
REMARK minimizedAffinity -3.42303824
REMARK minimizedRMSD -1
REMARK  1 active torsions:
REMARK  status: ('A' for Active; 'I' for Inactive)
REMARK    1  A    between atoms: C1_2  and  C2_3 
ROOT
ATOM      1  C2  UNL d   1       0.404   5.460  -4.066  0.00  0.00    -0.077 A 
ATOM      2  C3  UNL d   1       1.699   5.998  -4.054  0.00  0.00     0.002 A 
ATOM      3  C4  UNL d   1       2.638   5.599  -5.007  0.00  0.00     0.002 A 
ATOM      4  C5  UNL d   1       2.292   4.664  -5.980  0.00  0.00    -0.004 A 
ATOM      5  C6  UNL d   1       1.008   4.122  -5.999  0.00  0.00     0.002 A 
ATOM      6  C7  UNL d   1       0.068   4.519  -5.047  0.00  0.00     0.002 A 
ENDROOT
BRANCH   1   7
ATOM      7  C1  UNL d   1      -0.625   5.926  -3.070  0.00  0.00     0.055 C 
ATOM      8  C   UNL d   1      -2.016   5.966  -3.688  0.00  0.00     0.019 C 
ENDBRANCH   1   7
TORSDOF 1
ENDMDL
