MODEL 1
REMARK minimizedAffinity 1.06584525
REMARK minimizedRMSD -1
REMARK  1 active torsions:
REMARK  status: ('A' for Active; 'I' for Inactive)
REMARK    1  A    between atoms: C1_2  and  C2_3 
ROOT
ATOM      1  C2  UNL d   1       2.064   5.974  -5.268  0.00  0.00    -0.077 A 
ATOM      2  C3  UNL d   1       2.030   5.974  -3.867  0.00  0.00     0.002 A 
ATOM      3  C4  UNL d   1       0.808   5.988  -3.190  0.00  0.00     0.002 A 
ATOM      4  C5  UNL d   1      -0.387   5.997  -3.907  0.00  0.00    -0.004 A 
ATOM      5  C6  UNL d   1      -0.363   6.000  -5.301  0.00  0.00     0.002 A 
ATOM      6  C7  UNL d   1       0.857   5.987  -5.978  0.00  0.00     0.002 A 
ENDROOT
BRANCH   1   7
ATOM      7  C1  UNL d   1       3.380   5.910  -5.999  0.00  0.00     0.055 C 
ATOM      8  C   UNL d   1       4.527   5.603  -5.048  0.00  0.00     0.019 C 
ENDBRANCH   1   7
TORSDOF 1
ENDMDL
