MODEL 1
REMARK minimizedAffinity 8.36510658
REMARK minimizedRMSD -1
REMARK  0 active torsions:
REMARK  status: ('A' for Active; 'I' for Inactive)
ROOT
ATOM      1  C   UNL d   1       1.826  -5.988  -4.798  0.00  0.00     0.020 A 
ATOM      2  C1  UNL d   1       0.626  -5.996  -4.087  0.00  0.00     0.020 A 
ATOM      3  C2  UNL d   1       0.643  -5.999  -2.691  0.00  0.00     0.034 A 
ATOM      4  C3  UNL d   1       1.861  -5.994  -2.001  0.00  0.00     0.017 A 
ATOM      5  C4  UNL d   1       3.064  -5.986  -2.716  0.00  0.00     0.017 A 
ATOM      6  C5  UNL d   1       3.042  -5.983  -4.114  0.00  0.00     0.034 A 
ATOM      7 Cl   UNL d   1       4.606  -5.980  -1.935  0.00  0.00    -0.070 Cl
ATOM      8 Cl1  UNL d   1       1.806  -5.998  -0.274  0.00  0.00    -0.070 Cl
ENDROOT
TORSDOF 0
ENDMDL
