MODEL 1
REMARK minimizedAffinity 3.97426033
REMARK minimizedRMSD -1
REMARK  0 active torsions:
REMARK  status: ('A' for Active; 'I' for Inactive)
ROOT
ATOM      1  C   UNL d   1       1.491  -5.898  -4.860  0.00  0.00     0.020 A 
ATOM      2  C1  UNL d   1       2.303  -5.897  -5.993  0.00  0.00     0.020 A 
ATOM      3  C2  UNL d   1       3.693  -5.929  -5.856  0.00  0.00     0.034 A 
ATOM      4  C3  UNL d   1       4.274  -5.961  -4.583  0.00  0.00     0.017 A 
ATOM      5  C4  UNL d   1       3.457  -5.961  -3.446  0.00  0.00     0.017 A 
ATOM      6  C5  UNL d   1       2.067  -5.930  -3.589  0.00  0.00     0.034 A 
ATOM      7 Cl   UNL d   1       4.101  -6.000  -1.843  0.00  0.00    -0.070 Cl
ATOM      8 Cl1  UNL d   1       5.999  -5.999  -4.488  0.00  0.00    -0.070 Cl
ENDROOT
TORSDOF 0
ENDMDL
