MODEL 1
REMARK minimizedAffinity 9.39531136
REMARK minimizedRMSD -1
REMARK  0 active torsions:
REMARK  status: ('A' for Active; 'I' for Inactive)
ROOT
ATOM      1  C   UNL d   1       0.896  -5.996   5.679  0.00  0.00     0.020 A 
ATOM      2  C1  UNL d   1       0.013  -4.966   5.999  0.00  0.00     0.020 A 
ATOM      3  C2  UNL d   1       0.114  -3.733   5.351  0.00  0.00     0.034 A 
ATOM      4  C3  UNL d   1       1.100  -3.527   4.380  0.00  0.00     0.017 A 
ATOM      5  C4  UNL d   1       1.986  -4.562   4.059  0.00  0.00     0.017 A 
ATOM      6  C5  UNL d   1       1.880  -5.795   4.711  0.00  0.00     0.034 A 
ATOM      7 Cl   UNL d   1       3.229  -4.383   2.872  0.00  0.00    -0.070 Cl
ATOM      8 Cl1  UNL d   1       1.168  -1.977   3.619  0.00  0.00    -0.070 Cl
ENDROOT
TORSDOF 0
ENDMDL
