MODEL 1
REMARK minimizedAffinity 3.96873713
REMARK minimizedRMSD -1
REMARK  0 active torsions:
REMARK  status: ('A' for Active; 'I' for Inactive)
ROOT
ATOM      1  C   UNL d   1       0.408  -4.800   4.170  0.00  0.00     0.020 A 
ATOM      2  C1  UNL d   1       1.366  -5.339   5.027  0.00  0.00     0.020 A 
ATOM      3  C2  UNL d   1       2.629  -4.750   5.122  0.00  0.00     0.034 A 
ATOM      4  C3  UNL d   1       2.937  -3.619   4.359  0.00  0.00     0.017 A 
ATOM      5  C4  UNL d   1       1.975  -3.078   3.498  0.00  0.00     0.017 A 
ATOM      6  C5  UNL d   1       0.712  -3.671   3.407  0.00  0.00     0.034 A 
ATOM      7 Cl   UNL d   1       2.281  -1.683   2.525  0.00  0.00    -0.070 Cl
ATOM      8 Cl1  UNL d   1       4.518  -2.942   4.527  0.00  0.00    -0.070 Cl
ENDROOT
TORSDOF 0
ENDMDL
