MODEL 1
REMARK minimizedAffinity 9.03633499
REMARK minimizedRMSD -1
REMARK  0 active torsions:
REMARK  status: ('A' for Active; 'I' for Inactive)
ROOT
ATOM      1  C   UNL d   1       1.785  -3.974   4.449  0.00  0.00     0.020 A 
ATOM      2  C1  UNL d   1       2.099  -4.036   3.092  0.00  0.00     0.020 A 
ATOM      3  C2  UNL d   1       2.119  -2.868   2.326  0.00  0.00     0.034 A 
ATOM      4  C3  UNL d   1       1.825  -1.634   2.917  0.00  0.00     0.017 A 
ATOM      5  C4  UNL d   1       1.510  -1.573   4.279  0.00  0.00     0.017 A 
ATOM      6  C5  UNL d   1       1.492  -2.745   5.042  0.00  0.00     0.034 A 
ATOM      7 Cl   UNL d   1       1.136  -0.086   5.079  0.00  0.00    -0.070 Cl
ATOM      8 Cl1  UNL d   1       1.868  -0.230   1.910  0.00  0.00    -0.070 Cl
ENDROOT
TORSDOF 0
ENDMDL
