MODEL 1
REMARK minimizedAffinity 8.58623505
REMARK minimizedRMSD -1
REMARK  0 active torsions:
REMARK  status: ('A' for Active; 'I' for Inactive)
ROOT
ATOM      1  C   UNL d   1      -1.423   0.774  -0.545  0.00  0.00     0.020 A 
ATOM      2  C1  UNL d   1      -2.058   2.016  -0.527  0.00  0.00     0.020 A 
ATOM      3  C2  UNL d   1      -2.938   2.364  -1.553  0.00  0.00     0.034 A 
ATOM      4  C3  UNL d   1      -3.187   1.470  -2.602  0.00  0.00     0.017 A 
ATOM      5  C4  UNL d   1      -2.550   0.225  -2.618  0.00  0.00     0.017 A 
ATOM      6  C5  UNL d   1      -1.669  -0.119  -1.588  0.00  0.00     0.034 A 
ATOM      7 Cl   UNL d   1      -2.806  -0.931  -3.878  0.00  0.00    -0.070 Cl
ATOM      8 Cl1  UNL d   1      -4.288   1.967  -3.837  0.00  0.00    -0.070 Cl
ENDROOT
TORSDOF 0
ENDMDL
