MODEL 1
REMARK minimizedAffinity 4.44513226
REMARK minimizedRMSD -1
REMARK  0 active torsions:
REMARK  status: ('A' for Active; 'I' for Inactive)
ROOT
ATOM      1  C   UNL d   1       2.327  -1.855   3.593  0.00  0.00     0.020 A 
ATOM      2  C1  UNL d   1       2.115  -2.920   2.719  0.00  0.00     0.020 A 
ATOM      3  C2  UNL d   1       2.237  -2.728   1.341  0.00  0.00     0.034 A 
ATOM      4  C3  UNL d   1       2.571  -1.467   0.833  0.00  0.00     0.017 A 
ATOM      5  C4  UNL d   1       2.784  -0.399   1.712  0.00  0.00     0.017 A 
ATOM      6  C5  UNL d   1       2.661  -0.597   3.090  0.00  0.00     0.034 A 
ATOM      7 Cl   UNL d   1       3.200   1.186   1.160  0.00  0.00    -0.070 Cl
ATOM      8 Cl1  UNL d   1       2.705  -1.301  -0.881  0.00  0.00    -0.070 Cl
ENDROOT
TORSDOF 0
ENDMDL
