MODEL 1
REMARK minimizedAffinity 6.57663155
REMARK minimizedRMSD -1
REMARK  0 active torsions:
REMARK  status: ('A' for Active; 'I' for Inactive)
ROOT
ATOM      1  C   UNL d   1       1.106  -2.629   2.912  0.00  0.00     0.020 A 
ATOM      2  C1  UNL d   1       2.104  -1.703   2.613  0.00  0.00     0.020 A 
ATOM      3  C2  UNL d   1       3.359  -1.810   3.215  0.00  0.00     0.034 A 
ATOM      4  C3  UNL d   1       3.620  -2.847   4.119  0.00  0.00     0.017 A 
ATOM      5  C4  UNL d   1       2.618  -3.777   4.418  0.00  0.00     0.017 A 
ATOM      6  C5  UNL d   1       1.363  -3.664   3.812  0.00  0.00     0.034 A 
ATOM      7 Cl   UNL d   1       2.865  -5.083   5.522  0.00  0.00    -0.070 Cl
ATOM      8 Cl1  UNL d   1       5.195  -2.920   4.825  0.00  0.00    -0.070 Cl
ENDROOT
TORSDOF 0
ENDMDL
