MODEL 1
REMARK minimizedAffinity -0.695841491
REMARK minimizedRMSD -1
REMARK  0 active torsions:
REMARK  status: ('A' for Active; 'I' for Inactive)
ROOT
ATOM      1  C   UNL d   1       4.401   5.999  -0.571  0.00  0.00     0.172 C 
ATOM      2  N   UNL d   1       4.761   5.726  -1.942  0.00  0.00    -0.070 N 
ATOM      3  C1  UNL d   1       3.931   5.199  -2.896  0.00  0.00    -0.004 A 
ATOM      4  C2  UNL d   1       4.648   5.094  -4.068  0.00  0.00    -0.047 A 
ATOM      5  C3  UNL d   1       5.955   5.573  -3.809  0.00  0.00    -0.047 A 
ATOM      6  C4  UNL d   1       5.997   5.958  -2.486  0.00  0.00    -0.004 A 
ENDROOT
TORSDOF 0
ENDMDL
