MODEL 1
REMARK minimizedAffinity -0.285700142
REMARK minimizedRMSD -1
REMARK  0 active torsions:
REMARK  status: ('A' for Active; 'I' for Inactive)
ROOT
ATOM      1  C   UNL d   1       1.573  -2.143  -5.734  0.00  0.00     0.172 C 
ATOM      2  N   UNL d   1       2.759  -2.959  -5.840  0.00  0.00    -0.070 N 
ATOM      3  C1  UNL d   1       2.785  -4.327  -5.891  0.00  0.00    -0.004 A 
ATOM      4  C2  UNL d   1       4.102  -4.721  -5.991  0.00  0.00    -0.047 A 
ATOM      5  C3  UNL d   1       4.895  -3.549  -5.999  0.00  0.00    -0.047 A 
ATOM      6  C4  UNL d   1       4.038  -2.473  -5.904  0.00  0.00    -0.004 A 
ENDROOT
TORSDOF 0
ENDMDL
