MODEL 1
REMARK minimizedAffinity 3.01824594
REMARK minimizedRMSD -1
REMARK  0 active torsions:
REMARK  status: ('A' for Active; 'I' for Inactive)
ROOT
ATOM      1  C   UNL d   1       0.359   2.301  -2.973  0.00  0.00     0.172 C 
ATOM      2  N   UNL d   1       1.407   3.257  -2.699  0.00  0.00    -0.070 N 
ATOM      3  C1  UNL d   1       1.276   4.390  -1.941  0.00  0.00    -0.004 A 
ATOM      4  C2  UNL d   1       2.497   5.028  -1.922  0.00  0.00    -0.047 A 
ATOM      5  C3  UNL d   1       3.392   4.252  -2.696  0.00  0.00    -0.047 A 
ATOM      6  C4  UNL d   1       2.691   3.162  -3.165  0.00  0.00    -0.004 A 
ENDROOT
TORSDOF 0
ENDMDL
