MODEL 1
REMARK minimizedAffinity -0.273102671
REMARK minimizedRMSD -1
REMARK  0 active torsions:
REMARK  status: ('A' for Active; 'I' for Inactive)
ROOT
ATOM      1  C   UNL d   1       3.635  -2.902  -4.488  0.00  0.00     0.172 C 
ATOM      2  N   UNL d   1       4.480  -4.002  -4.889  0.00  0.00    -0.070 N 
ATOM      3  C1  UNL d   1       4.512  -5.239  -4.302  0.00  0.00    -0.004 A 
ATOM      4  C2  UNL d   1       5.445  -6.000  -4.972  0.00  0.00    -0.047 A 
ATOM      5  C3  UNL d   1       5.993  -5.192  -5.997  0.00  0.00    -0.047 A 
ATOM      6  C4  UNL d   1       5.378  -3.961  -5.922  0.00  0.00    -0.004 A 
ENDROOT
TORSDOF 0
ENDMDL
