MODEL 1
REMARK minimizedAffinity 8.31762886
REMARK minimizedRMSD -1
REMARK  0 active torsions:
REMARK  status: ('A' for Active; 'I' for Inactive)
ROOT
ATOM      1  C   UNL d   1      -4.222   3.643  -3.948  0.00  0.00     0.172 C 
ATOM      2  N   UNL d   1      -3.599   2.463  -3.395  0.00  0.00    -0.070 N 
ATOM      3  C1  UNL d   1      -2.646   1.699  -4.014  0.00  0.00    -0.004 A 
ATOM      4  C2  UNL d   1      -2.311   0.670  -3.161  0.00  0.00    -0.047 A 
ATOM      5  C3  UNL d   1      -3.091   0.819  -1.990  0.00  0.00    -0.047 A 
ATOM      6  C4  UNL d   1      -3.880   1.937  -2.162  0.00  0.00    -0.004 A 
ENDROOT
TORSDOF 0
ENDMDL
