MODEL 1
REMARK minimizedAffinity 2.72399473
REMARK minimizedRMSD -1
REMARK  0 active torsions:
REMARK  status: ('A' for Active; 'I' for Inactive)
ROOT
ATOM      1  C   UNL d   1      -2.572   0.499  -3.031  0.00  0.00     0.172 C 
ATOM      2  N   UNL d   1      -3.354   1.711  -2.955  0.00  0.00    -0.070 N 
ATOM      3  C1  UNL d   1      -3.565   2.590  -3.983  0.00  0.00    -0.004 A 
ATOM      4  C2  UNL d   1      -4.360   3.611  -3.508  0.00  0.00    -0.047 A 
ATOM      5  C3  UNL d   1      -4.635   3.337  -2.147  0.00  0.00    -0.047 A 
ATOM      6  C4  UNL d   1      -4.000   2.154  -1.831  0.00  0.00    -0.004 A 
ENDROOT
TORSDOF 0
ENDMDL
