MODEL 1
REMARK minimizedAffinity 7.39179564
REMARK minimizedRMSD -1
REMARK  0 active torsions:
REMARK  status: ('A' for Active; 'I' for Inactive)
ROOT
ATOM      1  C   UNL d   1      -2.531   0.746  -2.647  0.00  0.00     0.172 C 
ATOM      2  N   UNL d   1      -3.245   1.982  -2.869  0.00  0.00    -0.070 N 
ATOM      3  C1  UNL d   1      -4.195   2.515  -2.040  0.00  0.00    -0.004 A 
ATOM      4  C2  UNL d   1      -4.632   3.695  -2.603  0.00  0.00    -0.047 A 
ATOM      5  C3  UNL d   1      -3.921   3.876  -3.813  0.00  0.00    -0.047 A 
ATOM      6  C4  UNL d   1      -3.068   2.801  -3.953  0.00  0.00    -0.004 A 
ENDROOT
TORSDOF 0
ENDMDL
