MODEL 1
REMARK minimizedAffinity 4.6281147
REMARK minimizedRMSD -1
REMARK  2 active torsions:
REMARK  status: ('A' for Active; 'I' for Inactive)
REMARK    1  A    between atoms: C1_2  and  C2_3 
REMARK    2  A    between atoms: C2_3  and  C3_4 
ROOT
ATOM      1  C3  UNL d   1      -0.709  -1.599   4.427  0.00  0.00    -0.075 A 
ATOM      2  C4  UNL d   1      -1.249  -1.690   5.718  0.00  0.00     0.002 A 
ATOM      3  C5  UNL d   1      -2.259  -2.610   5.999  0.00  0.00     0.002 A 
ATOM      4  C6  UNL d   1      -2.749  -3.441   4.993  0.00  0.00    -0.004 A 
ATOM      5  C7  UNL d   1      -2.231  -3.347   3.703  0.00  0.00     0.002 A 
ATOM      6  C8  UNL d   1      -1.217  -2.430   3.420  0.00  0.00     0.002 A 
ENDROOT
BRANCH   1   7
ATOM      7  C2  UNL d   1       0.406  -0.626   4.123  0.00  0.00     0.056 C 
BRANCH   7   8
ATOM      8  C1  UNL d   1       0.782  -0.552   2.640  0.00  0.00     0.007 C 
ATOM      9  C   UNL d   1       1.154  -1.904   2.046  0.00  0.00     0.009 C 
ENDBRANCH   7   8
ENDBRANCH   1   7
TORSDOF 2
ENDMDL
