MODEL 1
REMARK minimizedAffinity 8.73907661
REMARK minimizedRMSD -1
REMARK  2 active torsions:
REMARK  status: ('A' for Active; 'I' for Inactive)
REMARK    1  A    between atoms: C1_2  and  C2_3 
REMARK    2  A    between atoms: C2_3  and  C3_4 
ROOT
ATOM      1  C3  UNL d   1       0.380  -4.670   3.018  0.00  0.00    -0.075 A 
ATOM      2  C4  UNL d   1       0.681  -3.940   1.859  0.00  0.00     0.002 A 
ATOM      3  C5  UNL d   1       0.085  -2.700   1.628  0.00  0.00     0.002 A 
ATOM      4  C6  UNL d   1      -0.826  -2.180   2.545  0.00  0.00    -0.004 A 
ATOM      5  C7  UNL d   1      -1.146  -2.904   3.691  0.00  0.00     0.002 A 
ATOM      6  C8  UNL d   1      -0.547  -4.143   3.928  0.00  0.00     0.002 A 
ENDROOT
BRANCH   1   7
ATOM      7  C2  UNL d   1       1.044  -5.999   3.289  0.00  0.00     0.056 C 
BRANCH   7   8
ATOM      8  C1  UNL d   1       2.568  -5.977   3.135  0.00  0.00     0.007 C 
ATOM      9  C   UNL d   1       3.307  -5.997   4.467  0.00  0.00     0.009 C 
ENDBRANCH   7   8
ENDBRANCH   1   7
TORSDOF 2
ENDMDL
