MODEL 1
REMARK minimizedAffinity 5.36241531
REMARK minimizedRMSD -1
REMARK  2 active torsions:
REMARK  status: ('A' for Active; 'I' for Inactive)
REMARK    1  A    between atoms: C1_2  and  C2_3 
REMARK    2  A    between atoms: C2_3  and  C3_4 
ROOT
ATOM      1  C3  UNL d   1       0.606  -1.058   3.463  0.00  0.00    -0.075 A 
ATOM      2  C4  UNL d   1       1.236  -0.613   4.635  0.00  0.00     0.002 A 
ATOM      3  C5  UNL d   1       0.490  -0.356   5.786  0.00  0.00     0.002 A 
ATOM      4  C6  UNL d   1      -0.892  -0.529   5.778  0.00  0.00    -0.004 A 
ATOM      5  C7  UNL d   1      -1.530  -0.955   4.615  0.00  0.00     0.002 A 
ATOM      6  C8  UNL d   1      -0.786  -1.217   3.463  0.00  0.00     0.002 A 
ENDROOT
BRANCH   1   7
ATOM      7  C2  UNL d   1       1.410  -1.366   2.223  0.00  0.00     0.056 C 
BRANCH   7   8
ATOM      8  C1  UNL d   1       1.001  -2.666   1.522  0.00  0.00     0.007 C 
ATOM      9  C   UNL d   1       1.430  -3.917   2.277  0.00  0.00     0.009 C 
ENDBRANCH   7   8
ENDBRANCH   1   7
TORSDOF 2
ENDMDL
