MODEL 1
REMARK minimizedAffinity 17.3417854
REMARK minimizedRMSD -1
REMARK  2 active torsions:
REMARK  status: ('A' for Active; 'I' for Inactive)
REMARK    1  A    between atoms: C1_2  and  C2_3 
REMARK    2  A    between atoms: C2_3  and  C3_4 
ROOT
ATOM      1  C3  UNL d   1      -1.462  -2.498   3.436  0.00  0.00    -0.075 A 
ATOM      2  C4  UNL d   1      -1.433  -1.634   4.540  0.00  0.00     0.002 A 
ATOM      3  C5  UNL d   1      -0.472  -0.627   4.627  0.00  0.00     0.002 A 
ATOM      4  C6  UNL d   1       0.478  -0.477   3.619  0.00  0.00    -0.004 A 
ATOM      5  C7  UNL d   1       0.469  -1.340   2.526  0.00  0.00     0.002 A 
ATOM      6  C8  UNL d   1      -0.494  -2.346   2.434  0.00  0.00     0.002 A 
ENDROOT
BRANCH   1   7
ATOM      7  C2  UNL d   1      -2.518  -3.571   3.321  0.00  0.00     0.056 C 
BRANCH   7   8
ATOM      8  C1  UNL d   1      -3.404  -3.444   2.078  0.00  0.00     0.007 C 
ATOM      9  C   UNL d   1      -4.651  -2.603   2.312  0.00  0.00     0.009 C 
ENDBRANCH   7   8
ENDBRANCH   1   7
TORSDOF 2
ENDMDL
