MODEL 1
REMARK minimizedAffinity 11.5948544
REMARK minimizedRMSD -1
REMARK  2 active torsions:
REMARK  status: ('A' for Active; 'I' for Inactive)
REMARK    1  A    between atoms: C1_2  and  C2_3 
REMARK    2  A    between atoms: C2_3  and  C3_4 
ROOT
ATOM      1  C3  UNL d   1      -4.547  -4.662   0.631  0.00  0.00    -0.075 A 
ATOM      2  C4  UNL d   1      -3.409  -4.518   1.437  0.00  0.00     0.002 A 
ATOM      3  C5  UNL d   1      -3.487  -3.849   2.659  0.00  0.00     0.002 A 
ATOM      4  C6  UNL d   1      -4.698  -3.307   3.085  0.00  0.00    -0.004 A 
ATOM      5  C7  UNL d   1      -5.831  -3.430   2.284  0.00  0.00     0.002 A 
ATOM      6  C8  UNL d   1      -5.757  -4.103   1.063  0.00  0.00     0.002 A 
ENDROOT
BRANCH   1   7
ATOM      7  C2  UNL d   1      -4.476  -5.410  -0.679  0.00  0.00     0.056 C 
BRANCH   7   8
ATOM      8  C1  UNL d   1      -5.817  -5.996  -1.136  0.00  0.00     0.007 C 
ATOM      9  C   UNL d   1      -5.987  -5.995  -2.649  0.00  0.00     0.009 C 
ENDBRANCH   7   8
ENDBRANCH   1   7
TORSDOF 2
ENDMDL
