MODEL 1
REMARK minimizedAffinity 12.0924101
REMARK minimizedRMSD -1
REMARK  2 active torsions:
REMARK  status: ('A' for Active; 'I' for Inactive)
REMARK    1  A    between atoms: C1_2  and  C2_3 
REMARK    2  A    between atoms: C2_3  and  C3_4 
ROOT
ATOM      1  C3  UNL d   1       0.412  -0.236   4.375  0.00  0.00    -0.075 A 
ATOM      2  C4  UNL d   1       1.477   0.301   5.112  0.00  0.00     0.002 A 
ATOM      3  C5  UNL d   1       2.701   0.567   4.498  0.00  0.00     0.002 A 
ATOM      4  C6  UNL d   1       2.879   0.290   3.144  0.00  0.00    -0.004 A 
ATOM      5  C7  UNL d   1       1.833  -0.259   2.406  0.00  0.00     0.002 A 
ATOM      6  C8  UNL d   1       0.606  -0.522   3.017  0.00  0.00     0.002 A 
ENDROOT
BRANCH   1   7
ATOM      7  C2  UNL d   1      -0.925  -0.499   5.027  0.00  0.00     0.056 C 
BRANCH   7   8
ATOM      8  C1  UNL d   1      -1.670  -1.709   4.456  0.00  0.00     0.007 C 
ATOM      9  C   UNL d   1      -2.788  -2.208   5.362  0.00  0.00     0.009 C 
ENDBRANCH   7   8
ENDBRANCH   1   7
TORSDOF 2
ENDMDL
