MODEL 1
REMARK minimizedAffinity 5.08793068
REMARK minimizedRMSD -1
REMARK  2 active torsions:
REMARK  status: ('A' for Active; 'I' for Inactive)
REMARK    1  A    between atoms: C1_2  and  C2_3 
REMARK    2  A    between atoms: C2_3  and  C3_4 
ROOT
ATOM      1  C3  UNL d   1      -1.440   2.491  -1.757  0.00  0.00    -0.075 A 
ATOM      2  C4  UNL d   1      -0.654   3.153  -2.712  0.00  0.00     0.002 A 
ATOM      3  C5  UNL d   1       0.558   3.740  -2.348  0.00  0.00     0.002 A 
ATOM      4  C6  UNL d   1       0.994   3.684  -1.026  0.00  0.00    -0.004 A 
ATOM      5  C7  UNL d   1       0.213   3.044  -0.066  0.00  0.00     0.002 A 
ATOM      6  C8  UNL d   1      -0.998   2.451  -0.428  0.00  0.00     0.002 A 
ENDROOT
BRANCH   1   7
ATOM      7  C2  UNL d   1      -2.738   1.828  -2.150  0.00  0.00     0.056 C 
BRANCH   7   8
ATOM      8  C1  UNL d   1      -3.967   2.379  -1.419  0.00  0.00     0.007 C 
ATOM      9  C   UNL d   1      -5.284   1.933  -2.039  0.00  0.00     0.009 C 
ENDBRANCH   7   8
ENDBRANCH   1   7
TORSDOF 2
ENDMDL
