MODEL 1
REMARK minimizedAffinity 2.83878875
REMARK minimizedRMSD -1
REMARK  2 active torsions:
REMARK  status: ('A' for Active; 'I' for Inactive)
REMARK    1  A    between atoms: C1_2  and  C2_3 
REMARK    2  A    between atoms: C2_3  and  C3_4 
ROOT
ATOM      1  C3  UNL d   1       0.262  -0.888   3.539  0.00  0.00    -0.075 A 
ATOM      2  C4  UNL d   1      -0.002  -2.257   3.387  0.00  0.00     0.002 A 
ATOM      3  C5  UNL d   1       0.305  -2.910   2.193  0.00  0.00     0.002 A 
ATOM      4  C6  UNL d   1       0.870  -2.202   1.134  0.00  0.00    -0.004 A 
ATOM      5  C7  UNL d   1       1.121  -0.838   1.268  0.00  0.00     0.002 A 
ATOM      6  C8  UNL d   1       0.819  -0.184   2.463  0.00  0.00     0.002 A 
ENDROOT
BRANCH   1   7
ATOM      7  C2  UNL d   1      -0.041  -0.183   4.839  0.00  0.00     0.056 C 
BRANCH   7   8
ATOM      8  C1  UNL d   1      -0.370  -1.128   6.000  0.00  0.00     0.007 C 
ATOM      9  C   UNL d   1      -1.817  -1.600   5.998  0.00  0.00     0.009 C 
ENDBRANCH   7   8
ENDBRANCH   1   7
TORSDOF 2
ENDMDL
