MODEL 1
REMARK minimizedAffinity 8.04798031
REMARK minimizedRMSD -1
REMARK  2 active torsions:
REMARK  status: ('A' for Active; 'I' for Inactive)
REMARK    1  A    between atoms: C1_2  and  C2_3 
REMARK    2  A    between atoms: C2_3  and  C3_4 
ROOT
ATOM      1  C3  UNL d   1      -1.166  -2.463   3.329  0.00  0.00    -0.075 A 
ATOM      2  C4  UNL d   1      -0.780  -1.414   4.177  0.00  0.00     0.002 A 
ATOM      3  C5  UNL d   1       0.304  -0.599   3.848  0.00  0.00     0.002 A 
ATOM      4  C6  UNL d   1       1.020  -0.828   2.675  0.00  0.00    -0.004 A 
ATOM      5  C7  UNL d   1       0.657  -1.878   1.834  0.00  0.00     0.002 A 
ATOM      6  C8  UNL d   1      -0.430  -2.692   2.158  0.00  0.00     0.002 A 
ENDROOT
BRANCH   1   7
ATOM      7  C2  UNL d   1      -2.356  -3.330   3.664  0.00  0.00     0.056 C 
BRANCH   7   8
ATOM      8  C1  UNL d   1      -3.238  -3.672   2.459  0.00  0.00     0.007 C 
ATOM      9  C   UNL d   1      -4.686  -3.231   2.631  0.00  0.00     0.009 C 
ENDBRANCH   7   8
ENDBRANCH   1   7
TORSDOF 2
ENDMDL
