MODEL 1
REMARK minimizedAffinity 11.3216581
REMARK minimizedRMSD -1
REMARK  2 active torsions:
REMARK  status: ('A' for Active; 'I' for Inactive)
REMARK    1  A    between atoms: C1_2  and  C2_3 
REMARK    2  A    between atoms: C2_3  and  C3_4 
ROOT
ATOM      1  C3  UNL d   1      -0.925  -1.981   2.934  0.00  0.00    -0.075 A 
ATOM      2  C4  UNL d   1      -0.238  -2.302   1.754  0.00  0.00     0.002 A 
ATOM      3  C5  UNL d   1       0.854  -1.539   1.340  0.00  0.00     0.002 A 
ATOM      4  C6  UNL d   1       1.266  -0.442   2.092  0.00  0.00    -0.004 A 
ATOM      5  C7  UNL d   1       0.581  -0.103   3.257  0.00  0.00     0.002 A 
ATOM      6  C8  UNL d   1      -0.509  -0.867   3.677  0.00  0.00     0.002 A 
ENDROOT
BRANCH   1   7
ATOM      7  C2  UNL d   1      -2.090  -2.820   3.403  0.00  0.00     0.056 C 
BRANCH   7   8
ATOM      8  C1  UNL d   1      -3.081  -3.187   2.294  0.00  0.00     0.007 C 
ATOM      9  C   UNL d   1      -4.406  -2.444   2.403  0.00  0.00     0.009 C 
ENDBRANCH   7   8
ENDBRANCH   1   7
TORSDOF 2
ENDMDL
