MODEL 1
REMARK minimizedAffinity 19.0634899
REMARK minimizedRMSD -1
REMARK  2 active torsions:
REMARK  status: ('A' for Active; 'I' for Inactive)
REMARK    1  A    between atoms: C1_2  and  C2_3 
REMARK    2  A    between atoms: C2_3  and  C3_4 
ROOT
ATOM      1  C3  UNL d   1      -1.626   3.679  -3.374  0.00  0.00    -0.075 A 
ATOM      2  C4  UNL d   1      -1.974   3.409  -4.705  0.00  0.00     0.002 A 
ATOM      3  C5  UNL d   1      -1.945   4.421  -5.664  0.00  0.00     0.002 A 
ATOM      4  C6  UNL d   1      -1.579   5.716  -5.304  0.00  0.00    -0.004 A 
ATOM      5  C7  UNL d   1      -1.247   6.000  -3.981  0.00  0.00     0.002 A 
ATOM      6  C8  UNL d   1      -1.271   4.988  -3.020  0.00  0.00     0.002 A 
ENDROOT
BRANCH   1   7
ATOM      7  C2  UNL d   1      -1.627   2.582  -2.336  0.00  0.00     0.056 C 
BRANCH   7   8
ATOM      8  C1  UNL d   1      -0.252   2.307  -1.719  0.00  0.00     0.007 C 
ATOM      9  C   UNL d   1      -0.067   2.955  -0.353  0.00  0.00     0.009 C 
ENDBRANCH   7   8
ENDBRANCH   1   7
TORSDOF 2
ENDMDL
