MODEL 1
REMARK minimizedAffinity 17.6166534
REMARK minimizedRMSD -1
REMARK  2 active torsions:
REMARK  status: ('A' for Active; 'I' for Inactive)
REMARK    1  A    between atoms: C1_2  and  C2_3 
REMARK    2  A    between atoms: C2_3  and  C3_4 
ROOT
ATOM      1  C3  UNL d   1      -1.566   2.975  -2.470  0.00  0.00    -0.075 A 
ATOM      2  C4  UNL d   1      -1.983   4.272  -2.138  0.00  0.00     0.002 A 
ATOM      3  C5  UNL d   1      -3.338   4.604  -2.145  0.00  0.00     0.002 A 
ATOM      4  C6  UNL d   1      -4.290   3.649  -2.493  0.00  0.00    -0.004 A 
ATOM      5  C7  UNL d   1      -3.886   2.362  -2.841  0.00  0.00     0.002 A 
ATOM      6  C8  UNL d   1      -2.532   2.026  -2.830  0.00  0.00     0.002 A 
ENDROOT
BRANCH   1   7
ATOM      7  C2  UNL d   1      -0.103   2.601  -2.435  0.00  0.00     0.056 C 
BRANCH   7   8
ATOM      8  C1  UNL d   1       0.717   3.386  -1.407  0.00  0.00     0.007 C 
ATOM      9  C   UNL d   1       1.052   2.577  -0.161  0.00  0.00     0.009 C 
ENDBRANCH   7   8
ENDBRANCH   1   7
TORSDOF 2
ENDMDL
