MODEL 1
REMARK minimizedAffinity 4.45334625
REMARK minimizedRMSD -1
REMARK  2 active torsions:
REMARK  status: ('A' for Active; 'I' for Inactive)
REMARK    1  A    between atoms: C1_2  and  C2_3 
REMARK    2  A    between atoms: C2_3  and  C3_4 
ROOT
ATOM      1  C3  UNL d   1       2.105  -0.704   1.063  0.00  0.00    -0.075 A 
ATOM      2  C4  UNL d   1       3.036  -1.355   0.241  0.00  0.00     0.002 A 
ATOM      3  C5  UNL d   1       3.095  -2.748   0.203  0.00  0.00     0.002 A 
ATOM      4  C6  UNL d   1       2.234  -3.507   0.993  0.00  0.00    -0.004 A 
ATOM      5  C7  UNL d   1       1.316  -2.870   1.826  0.00  0.00     0.002 A 
ATOM      6  C8  UNL d   1       1.252  -1.476   1.862  0.00  0.00     0.002 A 
ENDROOT
BRANCH   1   7
ATOM      7  C2  UNL d   1       2.016   0.804   1.086  0.00  0.00     0.056 C 
BRANCH   7   8
ATOM      8  C1  UNL d   1       1.531   1.420  -0.230  0.00  0.00     0.007 C 
ATOM      9  C   UNL d   1       0.645   2.642  -0.030  0.00  0.00     0.009 C 
ENDBRANCH   7   8
ENDBRANCH   1   7
TORSDOF 2
ENDMDL
