MODEL 1
REMARK minimizedAffinity 13.5520191
REMARK minimizedRMSD -1
REMARK  2 active torsions:
REMARK  status: ('A' for Active; 'I' for Inactive)
REMARK    1  A    between atoms: C1_2  and  C2_3 
REMARK    2  A    between atoms: C2_3  and  C3_4 
ROOT
ATOM      1  C3  UNL d   1      -2.335   3.466  -3.730  0.00  0.00    -0.075 A 
ATOM      2  C4  UNL d   1      -2.259   4.757  -3.189  0.00  0.00     0.002 A 
ATOM      3  C5  UNL d   1      -2.271   5.877  -4.021  0.00  0.00     0.002 A 
ATOM      4  C6  UNL d   1      -2.347   5.719  -5.404  0.00  0.00    -0.004 A 
ATOM      5  C7  UNL d   1      -2.406   4.441  -5.953  0.00  0.00     0.002 A 
ATOM      6  C8  UNL d   1      -2.399   3.319  -5.122  0.00  0.00     0.002 A 
ENDROOT
BRANCH   1   7
ATOM      7  C2  UNL d   1      -2.353   2.252  -2.833  0.00  0.00     0.056 C 
BRANCH   7   8
ATOM      8  C1  UNL d   1      -0.963   1.682  -2.527  0.00  0.00     0.007 C 
ATOM      9  C   UNL d   1      -0.323   2.295  -1.288  0.00  0.00     0.009 C 
ENDBRANCH   7   8
ENDBRANCH   1   7
TORSDOF 2
ENDMDL
