MODEL 1
REMARK minimizedAffinity 12.0152283
REMARK minimizedRMSD -1
REMARK  2 active torsions:
REMARK  status: ('A' for Active; 'I' for Inactive)
REMARK    1  A    between atoms: C1_2  and  C2_3 
REMARK    2  A    between atoms: C2_3  and  C3_4 
ROOT
ATOM      1  C3  UNL d   1       2.318  -1.708   0.812  0.00  0.00    -0.075 A 
ATOM      2  C4  UNL d   1       1.126  -2.129   1.420  0.00  0.00     0.002 A 
ATOM      3  C5  UNL d   1       0.610  -1.441   2.519  0.00  0.00     0.002 A 
ATOM      4  C6  UNL d   1       1.283  -0.333   3.029  0.00  0.00    -0.004 A 
ATOM      5  C7  UNL d   1       2.476   0.085   2.443  0.00  0.00     0.002 A 
ATOM      6  C8  UNL d   1       2.992  -0.599   1.340  0.00  0.00     0.002 A 
ENDROOT
BRANCH   1   7
ATOM      7  C2  UNL d   1       2.866  -2.430  -0.396  0.00  0.00     0.056 C 
BRANCH   7   8
ATOM      8  C1  UNL d   1       2.132  -3.733  -0.730  0.00  0.00     0.007 C 
ATOM      9  C   UNL d   1       1.502  -3.729  -2.116  0.00  0.00     0.009 C 
ENDBRANCH   7   8
ENDBRANCH   1   7
TORSDOF 2
ENDMDL
