MODEL 1
REMARK minimizedAffinity 15.3386326
REMARK minimizedRMSD -1
REMARK  2 active torsions:
REMARK  status: ('A' for Active; 'I' for Inactive)
REMARK    1  A    between atoms: C1_2  and  C2_3 
REMARK    2  A    between atoms: C2_3  and  C3_4 
ROOT
ATOM      1  C3  UNL d   1      -4.050  -4.704   1.044  0.00  0.00    -0.075 A 
ATOM      2  C4  UNL d   1      -5.129  -3.812   1.120  0.00  0.00     0.002 A 
ATOM      3  C5  UNL d   1      -5.135  -2.786   2.066  0.00  0.00     0.002 A 
ATOM      4  C6  UNL d   1      -4.069  -2.646   2.952  0.00  0.00    -0.004 A 
ATOM      5  C7  UNL d   1      -3.000  -3.537   2.896  0.00  0.00     0.002 A 
ATOM      6  C8  UNL d   1      -2.989  -4.561   1.948  0.00  0.00     0.002 A 
ENDROOT
BRANCH   1   7
ATOM      7  C2  UNL d   1      -4.024  -5.798   0.003  0.00  0.00     0.056 C 
BRANCH   7   8
ATOM      8  C1  UNL d   1      -5.245  -5.807  -0.923  0.00  0.00     0.007 C 
ATOM      9  C   UNL d   1      -4.885  -5.994  -2.390  0.00  0.00     0.009 C 
ENDBRANCH   7   8
ENDBRANCH   1   7
TORSDOF 2
ENDMDL
