MODEL 1
REMARK minimizedAffinity 1.47120547
REMARK minimizedRMSD -1
REMARK  0 active torsions:
REMARK  status: ('A' for Active; 'I' for Inactive)
ROOT
ATOM      1  C1  DEN d   1      -3.964  -5.967  -3.666  0.00  0.00     0.130 A 
ATOM      2  C2  DEN d   1      -3.974  -5.988  -2.206  0.00  0.00    -0.031 A 
ATOM      3  C3  DEN d   1      -2.573  -5.999  -1.739  0.00  0.00     0.027 A 
ATOM      4  C4  DEN d   1      -0.401  -5.980  -3.129  0.00  0.00     0.027 A 
ATOM      5  C5  DEN d   1       0.115  -5.974  -4.407  0.00  0.00    -0.003 A 
ATOM      6  C6  DEN d   1      -0.686  -5.999  -5.517  0.00  0.00     0.001 A 
ATOM      7  C7  DEN d   1      -2.048  -5.986  -5.372  0.00  0.00     0.017 A 
ATOM      8  C8  DEN d   1      -2.576  -6.000  -4.088  0.00  0.00    -0.094 A 
ATOM      9  C9  DEN d   1      -1.749  -5.962  -2.977  0.00  0.00    -0.072 A 
ENDROOT
TORSDOF 0
ENDMDL
