MODEL 1
REMARK minimizedAffinity 4.20889616
REMARK minimizedRMSD -1
REMARK  0 active torsions:
REMARK  status: ('A' for Active; 'I' for Inactive)
ROOT
ATOM      1  C1  DEN d   1      -2.312  -6.000  -1.487  0.00  0.00     0.130 A 
ATOM      2  C2  DEN d   1      -3.658  -5.999  -2.052  0.00  0.00    -0.031 A 
ATOM      3  C3  DEN d   1      -3.536  -5.979  -3.524  0.00  0.00     0.027 A 
ATOM      4  C4  DEN d   1      -1.403  -5.954  -4.974  0.00  0.00     0.027 A 
ATOM      5  C5  DEN d   1      -0.026  -5.936  -4.945  0.00  0.00    -0.003 A 
ATOM      6  C6  DEN d   1       0.679  -5.905  -3.772  0.00  0.00     0.001 A 
ATOM      7  C7  DEN d   1       0.010  -5.936  -2.577  0.00  0.00     0.017 A 
ATOM      8  C8  DEN d   1      -1.378  -5.946  -2.598  0.00  0.00    -0.094 A 
ATOM      9  C9  DEN d   1      -2.073  -5.989  -3.794  0.00  0.00    -0.072 A 
ENDROOT
TORSDOF 0
ENDMDL
