MODEL 1
REMARK minimizedAffinity -3.71675825
REMARK minimizedRMSD -1
REMARK  0 active torsions:
REMARK  status: ('A' for Active; 'I' for Inactive)
ROOT
ATOM      1  C1  DEN d   1      -4.082  -6.000  -3.364  0.00  0.00     0.130 A 
ATOM      2  C2  DEN d   1      -4.053  -5.981  -1.904  0.00  0.00    -0.031 A 
ATOM      3  C3  DEN d   1      -2.641  -5.930  -1.476  0.00  0.00     0.027 A 
ATOM      4  C4  DEN d   1      -0.507  -5.875  -2.924  0.00  0.00     0.027 A 
ATOM      5  C5  DEN d   1      -0.026  -5.886  -4.215  0.00  0.00    -0.003 A 
ATOM      6  C6  DEN d   1      -0.855  -5.970  -5.302  0.00  0.00     0.001 A 
ATOM      7  C7  DEN d   1      -2.212  -6.000  -5.121  0.00  0.00     0.017 A 
ATOM      8  C8  DEN d   1      -2.705  -5.996  -3.822  0.00  0.00    -0.094 A 
ATOM      9  C9  DEN d   1      -1.851  -5.899  -2.736  0.00  0.00    -0.072 A 
ENDROOT
TORSDOF 0
ENDMDL
