MODEL 1
REMARK minimizedAffinity 12.3258591
REMARK minimizedRMSD -1
REMARK  0 active torsions:
REMARK  status: ('A' for Active; 'I' for Inactive)
ROOT
ATOM      1  C1  DEN d   1      -1.718  -5.963  -5.373  0.00  0.00     0.130 A 
ATOM      2  C2  DEN d   1      -0.396  -5.905  -5.991  0.00  0.00    -0.031 A 
ATOM      3  C3  DEN d   1       0.612  -5.891  -4.912  0.00  0.00     0.027 A 
ATOM      4  C4  DEN d   1       0.256  -5.958  -2.358  0.00  0.00     0.027 A 
ATOM      5  C5  DEN d   1      -0.689  -5.999  -1.357  0.00  0.00    -0.003 A 
ATOM      6  C6  DEN d   1      -2.033  -5.997  -1.622  0.00  0.00     0.001 A 
ATOM      7  C7  DEN d   1      -2.469  -5.998  -2.920  0.00  0.00     0.017 A 
ATOM      8  C8  DEN d   1      -1.522  -5.949  -3.935  0.00  0.00    -0.094 A 
ATOM      9  C9  DEN d   1      -0.168  -5.964  -3.647  0.00  0.00    -0.072 A 
ENDROOT
TORSDOF 0
ENDMDL
