MODEL 1
REMARK minimizedAffinity -2.02466202
REMARK minimizedRMSD -1
REMARK  0 active torsions:
REMARK  status: ('A' for Active; 'I' for Inactive)
ROOT
ATOM      1  C1  DEN d   1      -1.093  -5.976  -5.964  0.00  0.00     0.130 A 
ATOM      2  C2  DEN d   1       0.367  -5.956  -6.000  0.00  0.00    -0.031 A 
ATOM      3  C3  DEN d   1       0.859  -5.957  -4.607  0.00  0.00     0.027 A 
ATOM      4  C4  DEN d   1      -0.492  -5.991  -2.410  0.00  0.00     0.027 A 
ATOM      5  C5  DEN d   1      -1.760  -6.000  -1.872  0.00  0.00    -0.003 A 
ATOM      6  C6  DEN d   1      -2.885  -5.967  -2.652  0.00  0.00     0.001 A 
ATOM      7  C7  DEN d   1      -2.764  -5.969  -4.017  0.00  0.00     0.017 A 
ATOM      8  C8  DEN d   1      -1.489  -5.953  -4.567  0.00  0.00    -0.094 A 
ATOM      9  C9  DEN d   1      -0.364  -5.999  -3.761  0.00  0.00    -0.072 A 
ENDROOT
TORSDOF 0
ENDMDL
