MODEL 1
REMARK minimizedAffinity -0.70705694
REMARK minimizedRMSD -1
REMARK  0 active torsions:
REMARK  status: ('A' for Active; 'I' for Inactive)
ROOT
ATOM      1  C1  DEN d   1      -3.283  -5.119  -3.751  0.00  0.00     0.130 A 
ATOM      2  C2  DEN d   1      -3.469  -5.567  -2.373  0.00  0.00    -0.031 A 
ATOM      3  C3  DEN d   1      -2.155  -5.993  -1.850  0.00  0.00     0.027 A 
ATOM      4  C4  DEN d   1       0.138  -5.997  -3.031  0.00  0.00     0.027 A 
ATOM      5  C5  DEN d   1       0.794  -5.717  -4.209  0.00  0.00    -0.003 A 
ATOM      6  C6  DEN d   1       0.138  -5.253  -5.319  0.00  0.00     0.001 A 
ATOM      7  C7  DEN d   1      -1.210  -5.013  -5.259  0.00  0.00     0.017 A 
ATOM      8  C8  DEN d   1      -1.880  -5.301  -4.077  0.00  0.00    -0.094 A 
ATOM      9  C9  DEN d   1      -1.196  -5.757  -2.963  0.00  0.00    -0.072 A 
ENDROOT
TORSDOF 0
ENDMDL
