MODEL 1
REMARK minimizedAffinity 1.13238227
REMARK minimizedRMSD -1
REMARK  0 active torsions:
REMARK  status: ('A' for Active; 'I' for Inactive)
ROOT
ATOM      1  C1  DEN d   1       0.139   2.156   0.424  0.00  0.00     0.130 A 
ATOM      2  C2  DEN d   1       0.770   0.840   0.468  0.00  0.00    -0.031 A 
ATOM      3  C3  DEN d   1       0.977   0.386  -0.922  0.00  0.00     0.027 A 
ATOM      4  C4  DEN d   1       0.389   1.590  -3.126  0.00  0.00     0.027 A 
ATOM      5  C5  DEN d   1      -0.171   2.724  -3.671  0.00  0.00    -0.003 A 
ATOM      6  C6  DEN d   1      -0.693   3.726  -2.895  0.00  0.00     0.001 A 
ATOM      7  C7  DEN d   1      -0.625   3.632  -1.530  0.00  0.00     0.017 A 
ATOM      8  C8  DEN d   1      -0.069   2.488  -0.974  0.00  0.00    -0.094 A 
ATOM      9  C9  DEN d   1       0.464   1.492  -1.775  0.00  0.00    -0.072 A 
ENDROOT
TORSDOF 0
ENDMDL
