MODEL 1
REMARK minimizedAffinity 4.55993319
REMARK minimizedRMSD -1
REMARK  0 active torsions:
REMARK  status: ('A' for Active; 'I' for Inactive)
ROOT
ATOM      1  C1  DEN d   1       0.180  -5.578  -6.000  0.00  0.00     0.130 A 
ATOM      2  C2  DEN d   1       1.597  -5.804  -5.729  0.00  0.00    -0.031 A 
ATOM      3  C3  DEN d   1       1.758  -6.000  -4.274  0.00  0.00     0.027 A 
ATOM      4  C4  DEN d   1      -0.040  -5.981  -2.425  0.00  0.00     0.027 A 
ATOM      5  C5  DEN d   1      -1.383  -5.818  -2.168  0.00  0.00    -0.003 A 
ATOM      6  C6  DEN d   1      -2.287  -5.532  -3.156  0.00  0.00     0.001 A 
ATOM      7  C7  DEN d   1      -1.866  -5.445  -4.457  0.00  0.00     0.017 A 
ATOM      8  C8  DEN d   1      -0.512  -5.601  -4.724  0.00  0.00    -0.094 A 
ATOM      9  C9  DEN d   1       0.384  -5.902  -3.712  0.00  0.00    -0.072 A 
ENDROOT
TORSDOF 0
ENDMDL
