MODEL 1
REMARK minimizedAffinity 0.178882629
REMARK minimizedRMSD -1
REMARK  0 active torsions:
REMARK  status: ('A' for Active; 'I' for Inactive)
ROOT
ATOM      1  C1  DEN d   1      -0.440  -5.986  -1.873  0.00  0.00     0.130 A 
ATOM      2  C2  DEN d   1      -1.895  -5.960  -1.750  0.00  0.00    -0.031 A 
ATOM      3  C3  DEN d   1      -2.468  -5.955  -3.110  0.00  0.00     0.027 A 
ATOM      4  C4  DEN d   1      -1.251  -5.988  -5.384  0.00  0.00     0.027 A 
ATOM      5  C5  DEN d   1      -0.018  -6.000  -5.997  0.00  0.00    -0.003 A 
ATOM      6  C6  DEN d   1       1.152  -5.974  -5.285  0.00  0.00     0.001 A 
ATOM      7  C7  DEN d   1       1.113  -5.980  -3.916  0.00  0.00     0.017 A 
ATOM      8  C8  DEN d   1      -0.127  -5.961  -3.291  0.00  0.00    -0.094 A 
ATOM      9  C9  DEN d   1      -1.298  -5.999  -4.028  0.00  0.00    -0.072 A 
ENDROOT
TORSDOF 0
ENDMDL
