MODEL 1
REMARK minimizedAffinity 5.7088294
REMARK minimizedRMSD -1
REMARK  0 active torsions:
REMARK  status: ('A' for Active; 'I' for Inactive)
ROOT
ATOM      1  C1  DEN d   1      -1.656  -5.973  -5.620  0.00  0.00     0.130 A 
ATOM      2  C2  DEN d   1      -0.247  -5.912  -5.999  0.00  0.00    -0.031 A 
ATOM      3  C3  DEN d   1       0.558  -5.890  -4.761  0.00  0.00     0.027 A 
ATOM      4  C4  DEN d   1      -0.236  -5.946  -2.308  0.00  0.00     0.027 A 
ATOM      5  C5  DEN d   1      -1.341  -5.987  -1.486  0.00  0.00    -0.003 A 
ATOM      6  C6  DEN d   1      -2.618  -5.991  -1.980  0.00  0.00     0.001 A 
ATOM      7  C7  DEN d   1      -2.822  -6.000  -3.335  0.00  0.00     0.017 A 
ATOM      8  C8  DEN d   1      -1.713  -5.951  -4.170  0.00  0.00    -0.094 A 
ATOM      9  C9  DEN d   1      -0.430  -5.960  -3.651  0.00  0.00    -0.072 A 
ENDROOT
TORSDOF 0
ENDMDL
