MODEL 1
REMARK minimizedAffinity -1.43735397
REMARK minimizedRMSD -1
REMARK  0 active torsions:
REMARK  status: ('A' for Active; 'I' for Inactive)
ROOT
ATOM      1  C1  DEN d   1       1.319  -6.000  -4.327  0.00  0.00     0.130 A 
ATOM      2  C2  DEN d   1       1.103  -5.883  -5.767  0.00  0.00    -0.031 A 
ATOM      3  C3  DEN d   1      -0.345  -5.717  -5.999  0.00  0.00     0.027 A 
ATOM      4  C4  DEN d   1      -2.265  -5.625  -4.279  0.00  0.00     0.027 A 
ATOM      5  C5  DEN d   1      -2.575  -5.691  -2.938  0.00  0.00    -0.003 A 
ATOM      6  C6  DEN d   1      -1.621  -5.898  -1.977  0.00  0.00     0.001 A 
ATOM      7  C7  DEN d   1      -0.303  -6.000  -2.340  0.00  0.00     0.017 A 
ATOM      8  C8  DEN d   1       0.016  -5.941  -3.690  0.00  0.00    -0.094 A 
ATOM      9  C9  DEN d   1      -0.961  -5.720  -4.645  0.00  0.00    -0.072 A 
ENDROOT
TORSDOF 0
ENDMDL
