MODEL 1
REMARK minimizedAffinity -0.871580422
REMARK minimizedRMSD -1
REMARK  0 active torsions:
REMARK  status: ('A' for Active; 'I' for Inactive)
ROOT
ATOM      1  C1  DEN d   1      -1.156  -5.975  -5.974  0.00  0.00     0.130 A 
ATOM      2  C2  DEN d   1       0.288  -5.940  -5.756  0.00  0.00    -0.031 A 
ATOM      3  C3  DEN d   1       0.530  -5.932  -4.300  0.00  0.00     0.027 A 
ATOM      4  C4  DEN d   1      -1.181  -5.976  -2.370  0.00  0.00     0.027 A 
ATOM      5  C5  DEN d   1      -2.523  -5.997  -2.060  0.00  0.00    -0.003 A 
ATOM      6  C6  DEN d   1      -3.495  -5.979  -3.024  0.00  0.00     0.001 A 
ATOM      7  C7  DEN d   1      -3.140  -5.983  -4.347  0.00  0.00     0.017 A 
ATOM      8  C8  DEN d   1      -1.789  -5.954  -4.668  0.00  0.00    -0.094 A 
ATOM      9  C9  DEN d   1      -0.821  -5.986  -3.678  0.00  0.00    -0.072 A 
ENDROOT
TORSDOF 0
ENDMDL
