MODEL 1
REMARK minimizedAffinity 4.08076096
REMARK minimizedRMSD -1
REMARK  0 active torsions:
REMARK  status: ('A' for Active; 'I' for Inactive)
ROOT
ATOM      1  C1  DEN d   1      -0.214  -5.560  -4.606  0.00  0.00     0.130 A 
ATOM      2  C2  DEN d   1      -0.655  -5.644  -5.995  0.00  0.00    -0.031 A 
ATOM      3  C3  DEN d   1      -2.119  -5.832  -5.999  0.00  0.00     0.027 A 
ATOM      4  C4  DEN d   1      -3.740  -5.996  -3.999  0.00  0.00     0.027 A 
ATOM      5  C5  DEN d   1      -3.831  -5.992  -2.625  0.00  0.00    -0.003 A 
ATOM      6  C6  DEN d   1      -2.728  -5.879  -1.821  0.00  0.00     0.001 A 
ATOM      7  C7  DEN d   1      -1.490  -5.720  -2.385  0.00  0.00     0.017 A 
ATOM      8  C8  DEN d   1      -1.389  -5.730  -3.770  0.00  0.00    -0.094 A 
ATOM      9  C9  DEN d   1      -2.517  -5.833  -4.566  0.00  0.00    -0.072 A 
ENDROOT
TORSDOF 0
ENDMDL
