MODEL 1
REMARK minimizedAffinity 1.21139491
REMARK minimizedRMSD -1
REMARK  0 active torsions:
REMARK  status: ('A' for Active; 'I' for Inactive)
ROOT
ATOM      1  C1  DEN d   1      -0.554  -6.000  -5.740  0.00  0.00     0.130 A 
ATOM      2  C2  DEN d   1       0.902  -5.970  -5.633  0.00  0.00    -0.031 A 
ATOM      3  C3  DEN d   1       1.254  -5.955  -4.199  0.00  0.00     0.027 A 
ATOM      4  C4  DEN d   1      -0.306  -5.982  -2.145  0.00  0.00     0.027 A 
ATOM      5  C5  DEN d   1      -1.620  -5.995  -1.734  0.00  0.00    -0.003 A 
ATOM      6  C6  DEN d   1      -2.663  -5.977  -2.622  0.00  0.00     0.001 A 
ATOM      7  C7  DEN d   1      -2.409  -5.990  -3.968  0.00  0.00     0.017 A 
ATOM      8  C8  DEN d   1      -1.087  -5.969  -4.390  0.00  0.00    -0.094 A 
ATOM      9  C9  DEN d   1      -0.046  -6.000  -3.477  0.00  0.00    -0.072 A 
ENDROOT
TORSDOF 0
ENDMDL
