MODEL 1
REMARK minimizedAffinity -2.15092278
REMARK minimizedRMSD -1
REMARK  1 active torsions:
REMARK  status: ('A' for Active; 'I' for Inactive)
REMARK    1  A    between atoms: N_2  and  C1_3 
ROOT
ATOM      1  C1  UNL d   1       0.416  -0.700   0.235  0.00  0.00     0.143 A 
ATOM      2  C2  UNL d   1       0.549   0.607   0.717  0.00  0.00    -0.057 A 
ATOM      3  C3  UNL d   1      -0.453   1.198   1.496  0.00  0.00     0.033 A 
ATOM      4  C4  UNL d   1      -1.623   0.502   1.782  0.00  0.00    -0.042 A 
ATOM      5  C5  UNL d   1      -1.787  -0.789   1.292  0.00  0.00     0.033 A 
ATOM      6  C6  UNL d   1      -0.780  -1.377   0.521  0.00  0.00    -0.057 A 
ENDROOT
BRANCH   1   7
ATOM      7  N   UNL d   1       1.333  -1.308  -0.626  0.00  0.00    -0.732 N 
ATOM      8  C   UNL d   1       0.942  -2.440  -1.439  0.00  0.00     0.284 C 
ATOM      9  H3  UNL d   1       1.919  -0.632  -1.110  0.00  0.00     0.395 HD
ENDBRANCH   1   7
TORSDOF 1
ENDMDL
