MODEL 1
REMARK minimizedAffinity -1.03571141
REMARK minimizedRMSD -1
REMARK  1 active torsions:
REMARK  status: ('A' for Active; 'I' for Inactive)
REMARK    1  A    between atoms: N_2  and  C1_3 
ROOT
ATOM      1  C1  UNL d   1      -0.504  -0.157   0.596  0.00  0.00     0.143 A 
ATOM      2  C2  UNL d   1      -1.291   0.998   0.657  0.00  0.00    -0.057 A 
ATOM      3  C3  UNL d   1      -1.277   1.828   1.784  0.00  0.00     0.033 A 
ATOM      4  C4  UNL d   1      -0.494   1.501   2.886  0.00  0.00    -0.042 A 
ATOM      5  C5  UNL d   1       0.277   0.344   2.858  0.00  0.00     0.033 A 
ATOM      6  C6  UNL d   1       0.264  -0.477   1.726  0.00  0.00    -0.057 A 
ENDROOT
BRANCH   1   7
ATOM      7  N   UNL d   1      -0.549  -1.074  -0.457  0.00  0.00    -0.732 N 
ATOM      8  C   UNL d   1       0.669  -1.647  -0.988  0.00  0.00     0.284 C 
ATOM      9  H3  UNL d   1      -1.313  -1.739  -0.360  0.00  0.00     0.395 HD
ENDBRANCH   1   7
TORSDOF 1
ENDMDL
