MODEL 1
REMARK minimizedAffinity -4.83585835
REMARK minimizedRMSD -1
REMARK  1 active torsions:
REMARK  status: ('A' for Active; 'I' for Inactive)
REMARK    1  A    between atoms: N_2  and  C1_3 
ROOT
ATOM      1  C1  UNL d   1      -0.515  -1.701  -0.117  0.00  0.00     0.143 A 
ATOM      2  C2  UNL d   1      -0.862  -2.993  -0.524  0.00  0.00    -0.057 A 
ATOM      3  C3  UNL d   1      -0.240  -3.601  -1.622  0.00  0.00     0.033 A 
ATOM      4  C4  UNL d   1       0.722  -2.912  -2.352  0.00  0.00    -0.042 A 
ATOM      5  C5  UNL d   1       1.065  -1.617  -1.981  0.00  0.00     0.033 A 
ATOM      6  C6  UNL d   1       0.446  -1.018  -0.880  0.00  0.00    -0.057 A 
ENDROOT
BRANCH   1   7
ATOM      7  N   UNL d   1      -1.166  -1.006   0.905  0.00  0.00    -0.732 N 
ATOM      8  C   UNL d   1      -0.691   0.293   1.331  0.00  0.00     0.284 C 
ATOM      9  H3  UNL d   1      -2.178  -1.078   0.840  0.00  0.00     0.395 HD
ENDBRANCH   1   7
TORSDOF 1
ENDMDL
