MODEL 1
REMARK minimizedAffinity -2.16282248
REMARK minimizedRMSD -1
REMARK  1 active torsions:
REMARK  status: ('A' for Active; 'I' for Inactive)
REMARK    1  A    between atoms: N_2  and  C1_3 
ROOT
ATOM      1  C1  UNL d   1      -0.012   0.349  -0.351  0.00  0.00     0.143 A 
ATOM      2  C2  UNL d   1       0.094   1.689  -0.738  0.00  0.00    -0.057 A 
ATOM      3  C3  UNL d   1      -0.367   2.722   0.088  0.00  0.00     0.033 A 
ATOM      4  C4  UNL d   1      -0.969   2.429   1.307  0.00  0.00    -0.042 A 
ATOM      5  C5  UNL d   1      -1.107   1.103   1.701  0.00  0.00     0.033 A 
ATOM      6  C6  UNL d   1      -0.640   0.077   0.875  0.00  0.00    -0.057 A 
ENDROOT
BRANCH   1   7
ATOM      7  N   UNL d   1       0.337  -0.727  -1.170  0.00  0.00    -0.732 N 
ATOM      8  C   UNL d   1       0.682  -2.010  -0.596  0.00  0.00     0.284 C 
ATOM      9  H3  UNL d   1      -0.247  -0.788  -2.002  0.00  0.00     0.395 HD
ENDBRANCH   1   7
TORSDOF 1
ENDMDL
