MODEL 1
REMARK minimizedAffinity -2.63809252
REMARK minimizedRMSD -1
REMARK  1 active torsions:
REMARK  status: ('A' for Active; 'I' for Inactive)
REMARK    1  A    between atoms: N_2  and  C1_3 
ROOT
ATOM      1  C1  UNL d   1      -0.501  -1.549   0.148  0.00  0.00     0.143 A 
ATOM      2  C2  UNL d   1       0.571  -0.813  -0.368  0.00  0.00    -0.057 A 
ATOM      3  C3  UNL d   1       1.499  -1.395  -1.240  0.00  0.00     0.033 A 
ATOM      4  C4  UNL d   1       1.386  -2.737  -1.590  0.00  0.00    -0.042 A 
ATOM      5  C5  UNL d   1       0.343  -3.494  -1.069  0.00  0.00     0.033 A 
ATOM      6  C6  UNL d   1      -0.584  -2.905  -0.204  0.00  0.00    -0.057 A 
ENDROOT
BRANCH   1   7
ATOM      7  N   UNL d   1      -1.399  -1.054   1.097  0.00  0.00    -0.732 N 
ATOM      8  C   UNL d   1      -1.023   0.036   1.970  0.00  0.00     0.284 C 
ATOM      9  H3  UNL d   1      -2.348  -0.988   0.735  0.00  0.00     0.395 HD
ENDBRANCH   1   7
TORSDOF 1
ENDMDL
