MODEL 1
REMARK minimizedAffinity -4.68870974
REMARK minimizedRMSD -1
REMARK  1 active torsions:
REMARK  status: ('A' for Active; 'I' for Inactive)
REMARK    1  A    between atoms: N_2  and  C1_3 
ROOT
ATOM      1  C1  UNL d   1      -0.297   0.654  -0.103  0.00  0.00     0.143 A 
ATOM      2  C2  UNL d   1      -1.341   0.554   0.823  0.00  0.00    -0.057 A 
ATOM      3  C3  UNL d   1      -2.025   1.690   1.272  0.00  0.00     0.033 A 
ATOM      4  C4  UNL d   1      -1.656   2.954   0.824  0.00  0.00    -0.042 A 
ATOM      5  C5  UNL d   1      -0.604   3.080  -0.076  0.00  0.00     0.033 A 
ATOM      6  C6  UNL d   1       0.070   1.941  -0.527  0.00  0.00    -0.057 A 
ENDROOT
BRANCH   1   7
ATOM      7  N   UNL d   1       0.486  -0.428  -0.513  0.00  0.00    -0.732 N 
ATOM      8  C   UNL d   1       1.930  -0.350  -0.474  0.00  0.00     0.284 C 
ATOM      9  H3  UNL d   1       0.109  -1.320  -0.201  0.00  0.00     0.395 HD
ENDBRANCH   1   7
TORSDOF 1
ENDMDL
