MODEL 1
REMARK minimizedAffinity -3.19785357
REMARK minimizedRMSD -1
REMARK  1 active torsions:
REMARK  status: ('A' for Active; 'I' for Inactive)
REMARK    1  A    between atoms: N_2  and  C1_3 
ROOT
ATOM      1  C1  UNL d   1       0.056  -0.296   0.054  0.00  0.00     0.143 A 
ATOM      2  C2  UNL d   1      -0.099   1.044   0.427  0.00  0.00    -0.057 A 
ATOM      3  C3  UNL d   1      -1.007   1.421   1.423  0.00  0.00     0.033 A 
ATOM      4  C4  UNL d   1      -1.802   0.464   2.046  0.00  0.00    -0.042 A 
ATOM      5  C5  UNL d   1      -1.683  -0.871   1.674  0.00  0.00     0.033 A 
ATOM      6  C6  UNL d   1      -0.769  -1.241   0.683  0.00  0.00    -0.057 A 
ENDROOT
BRANCH   1   7
ATOM      7  N   UNL d   1       0.871  -0.722  -0.997  0.00  0.00    -0.732 N 
ATOM      8  C   UNL d   1       0.663  -2.014  -1.614  0.00  0.00     0.284 C 
ATOM      9  H3  UNL d   1       1.076   0.026  -1.657  0.00  0.00     0.395 HD
ENDBRANCH   1   7
TORSDOF 1
ENDMDL
