MODEL 1
REMARK minimizedAffinity -3.43399906
REMARK minimizedRMSD -1
REMARK  1 active torsions:
REMARK  status: ('A' for Active; 'I' for Inactive)
REMARK    1  A    between atoms: N_2  and  C1_3 
ROOT
ATOM      1  C1  UNL d   1       0.303  -0.820   0.187  0.00  0.00     0.143 A 
ATOM      2  C2  UNL d   1      -0.238   0.460   0.355  0.00  0.00    -0.057 A 
ATOM      3  C3  UNL d   1      -0.951   0.800   1.511  0.00  0.00     0.033 A 
ATOM      4  C4  UNL d   1      -1.161  -0.145   2.510  0.00  0.00    -0.042 A 
ATOM      5  C5  UNL d   1      -0.654  -1.430   2.353  0.00  0.00     0.033 A 
ATOM      6  C6  UNL d   1       0.063  -1.762   1.199  0.00  0.00    -0.057 A 
ENDROOT
BRANCH   1   7
ATOM      7  N   UNL d   1       0.937  -1.248  -0.982  0.00  0.00    -0.732 N 
ATOM      8  C   UNL d   1       0.227  -2.054  -1.952  0.00  0.00     0.284 C 
ATOM      9  H3  UNL d   1       1.526  -0.527  -1.391  0.00  0.00     0.395 HD
ENDBRANCH   1   7
TORSDOF 1
ENDMDL
