MODEL 1
REMARK minimizedAffinity -1.88178098
REMARK minimizedRMSD -1
REMARK  1 active torsions:
REMARK  status: ('A' for Active; 'I' for Inactive)
REMARK    1  A    between atoms: N_2  and  C1_3 
ROOT
ATOM      1  C1  UNL d   1       0.429   1.556  -0.075  0.00  0.00     0.143 A 
ATOM      2  C2  UNL d   1       1.089   0.326  -0.178  0.00  0.00    -0.057 A 
ATOM      3  C3  UNL d   1       0.796  -0.730   0.694  0.00  0.00     0.033 A 
ATOM      4  C4  UNL d   1      -0.145  -0.564   1.705  0.00  0.00    -0.042 A 
ATOM      5  C5  UNL d   1      -0.795   0.657   1.841  0.00  0.00     0.033 A 
ATOM      6  C6  UNL d   1      -0.503   1.705   0.964  0.00  0.00    -0.057 A 
ENDROOT
BRANCH   1   7
ATOM      7  N   UNL d   1       0.746   2.675  -0.848  0.00  0.00    -0.732 N 
ATOM      8  C   UNL d   1       0.364   4.002  -0.415  0.00  0.00     0.284 C 
ATOM      9  H3  UNL d   1       1.680   2.621  -1.246  0.00  0.00     0.395 HD
ENDBRANCH   1   7
TORSDOF 1
ENDMDL
