MODEL 1
REMARK minimizedAffinity -3.13911319
REMARK minimizedRMSD -1
REMARK  1 active torsions:
REMARK  status: ('A' for Active; 'I' for Inactive)
REMARK    1  A    between atoms: N_2  and  C1_3 
ROOT
ATOM      1  C1  UNL d   1      -0.090   2.178   0.155  0.00  0.00     0.143 A 
ATOM      2  C2  UNL d   1       0.400   0.914  -0.190  0.00  0.00    -0.057 A 
ATOM      3  C3  UNL d   1       0.083  -0.220   0.567  0.00  0.00     0.033 A 
ATOM      4  C4  UNL d   1      -0.711  -0.104   1.704  0.00  0.00    -0.042 A 
ATOM      5  C5  UNL d   1      -1.189   1.146   2.080  0.00  0.00     0.033 A 
ATOM      6  C6  UNL d   1      -0.873   2.274   1.316  0.00  0.00    -0.057 A 
ENDROOT
BRANCH   1   7
ATOM      7  N   UNL d   1       0.270   3.358  -0.500  0.00  0.00    -0.732 N 
ATOM      8  C   UNL d   1       0.653   4.533   0.253  0.00  0.00     0.284 C 
ATOM      9  H3  UNL d   1       0.845   3.186  -1.322  0.00  0.00     0.395 HD
ENDBRANCH   1   7
TORSDOF 1
ENDMDL
