MODEL 1
REMARK minimizedAffinity -4.11616325
REMARK minimizedRMSD -1
REMARK  1 active torsions:
REMARK  status: ('A' for Active; 'I' for Inactive)
REMARK    1  A    between atoms: N_2  and  C1_3 
ROOT
ATOM      1  C1  UNL d   1       0.659  -2.018  -1.178  0.00  0.00     0.143 A 
ATOM      2  C2  UNL d   1       0.914  -0.642  -1.142  0.00  0.00    -0.057 A 
ATOM      3  C3  UNL d   1       0.346   0.176  -0.158  0.00  0.00     0.033 A 
ATOM      4  C4  UNL d   1      -0.512  -0.364   0.794  0.00  0.00    -0.042 A 
ATOM      5  C5  UNL d   1      -0.800  -1.724   0.763  0.00  0.00     0.033 A 
ATOM      6  C6  UNL d   1      -0.224  -2.537  -0.218  0.00  0.00    -0.057 A 
ENDROOT
BRANCH   1   7
ATOM      7  N   UNL d   1       1.115  -2.867  -2.189  0.00  0.00    -0.732 N 
ATOM      8  C   UNL d   1       0.704  -2.666  -3.562  0.00  0.00     0.284 C 
ATOM      9  H3  UNL d   1       2.097  -3.109  -2.080  0.00  0.00     0.395 HD
ENDBRANCH   1   7
TORSDOF 1
ENDMDL
