MODEL 1
REMARK minimizedAffinity -3.92998195
REMARK minimizedRMSD -1
REMARK  1 active torsions:
REMARK  status: ('A' for Active; 'I' for Inactive)
REMARK    1  A    between atoms: N_2  and  C1_3 
ROOT
ATOM      1  C1  UNL d   1      -0.361   1.973   0.332  0.00  0.00     0.143 A 
ATOM      2  C2  UNL d   1      -0.623   2.223   1.683  0.00  0.00    -0.057 A 
ATOM      3  C3  UNL d   1      -0.259   3.436   2.281  0.00  0.00     0.033 A 
ATOM      4  C4  UNL d   1       0.401   4.412   1.541  0.00  0.00    -0.042 A 
ATOM      5  C5  UNL d   1       0.694   4.175   0.203  0.00  0.00     0.033 A 
ATOM      6  C6  UNL d   1       0.323   2.964  -0.389  0.00  0.00    -0.057 A 
ENDROOT
BRANCH   1   7
ATOM      7  N   UNL d   1      -0.608   0.749  -0.295  0.00  0.00    -0.732 N 
ATOM      8  C   UNL d   1       0.149  -0.430   0.066  0.00  0.00     0.284 C 
ATOM      9  H3  UNL d   1      -1.602   0.579  -0.435  0.00  0.00     0.395 HD
ENDBRANCH   1   7
TORSDOF 1
ENDMDL
