MODEL 1
REMARK minimizedAffinity -4.84231758
REMARK minimizedRMSD -1
REMARK  1 active torsions:
REMARK  status: ('A' for Active; 'I' for Inactive)
REMARK    1  A    between atoms: N_2  and  C1_3 
ROOT
ATOM      1  C1  UNL d   1       0.099   0.675   0.038  0.00  0.00     0.143 A 
ATOM      2  C2  UNL d   1      -0.700   0.693   1.186  0.00  0.00    -0.057 A 
ATOM      3  C3  UNL d   1      -1.372   1.855   1.585  0.00  0.00     0.033 A 
ATOM      4  C4  UNL d   1      -1.234   3.031   0.855  0.00  0.00    -0.042 A 
ATOM      5  C5  UNL d   1      -0.425   3.043  -0.276  0.00  0.00     0.033 A 
ATOM      6  C6  UNL d   1       0.239   1.878  -0.673  0.00  0.00    -0.057 A 
ENDROOT
BRANCH   1   7
ATOM      7  N   UNL d   1       0.871  -0.421  -0.355  0.00  0.00    -0.732 N 
ATOM      8  C   UNL d   1       0.294  -1.480  -1.155  0.00  0.00     0.284 C 
ATOM      9  H3  UNL d   1       1.811  -0.152  -0.637  0.00  0.00     0.395 HD
ENDBRANCH   1   7
TORSDOF 1
ENDMDL
