MODEL 1
REMARK minimizedAffinity 3.774472
REMARK minimizedRMSD -1
REMARK  1 active torsions:
REMARK  status: ('A' for Active; 'I' for Inactive)
REMARK    1  A    between atoms: C1_2  and  C2_3 
ROOT
ATOM      1  C2  UNL d   1      -0.352   4.284  -0.671  0.00  0.00    -0.073 A 
ATOM      2  C3  UNL d   1      -0.351   3.251  -1.615  0.00  0.00    -0.002 A 
ATOM      3  C4  UNL d   1      -0.337   1.919  -1.202  0.00  0.00     0.004 A 
ATOM      4  C5  UNL d   1      -0.331   1.605   0.158  0.00  0.00    -0.004 A 
ATOM      5  C6  UNL d   1      -0.344   2.624   1.116  0.00  0.00    -0.075 A 
ATOM      6  C7  UNL d   1      -0.336   2.303   2.582  0.00  0.00     0.076 C 
ATOM      7  C8  UNL d   1      -0.356   3.960   0.693  0.00  0.00     0.001 A 
ENDROOT
BRANCH   1   8
ATOM      8  C1  UNL d   1      -0.374   5.725  -1.113  0.00  0.00     0.053 C 
ATOM      9  C   UNL d   1      -1.479   5.995  -2.122  0.00  0.00     0.018 C 
ENDBRANCH   1   8
TORSDOF 1
ENDMDL
