MODEL 1
REMARK minimizedAffinity 2.21494961
REMARK minimizedRMSD -1
REMARK  1 active torsions:
REMARK  status: ('A' for Active; 'I' for Inactive)
REMARK    1  A    between atoms: C1_2  and  C2_3 
ROOT
ATOM      1  C2  UNL d   1       4.241  -3.262  -2.120  0.00  0.00    -0.073 A 
ATOM      2  C3  UNL d   1       3.853  -4.065  -3.199  0.00  0.00    -0.002 A 
ATOM      3  C4  UNL d   1       4.165  -5.425  -3.214  0.00  0.00     0.004 A 
ATOM      4  C5  UNL d   1       4.861  -5.997  -2.150  0.00  0.00    -0.004 A 
ATOM      5  C6  UNL d   1       5.247  -5.215  -1.057  0.00  0.00    -0.075 A 
ATOM      6  C7  UNL d   1       5.998  -5.815   0.095  0.00  0.00     0.076 C 
ATOM      7  C8  UNL d   1       4.932  -3.849  -1.050  0.00  0.00     0.001 A 
ENDROOT
BRANCH   1   8
ATOM      8  C1  UNL d   1       3.901  -1.795  -2.096  0.00  0.00     0.053 C 
ATOM      9  C   UNL d   1       3.740  -1.224  -3.496  0.00  0.00     0.018 C 
ENDBRANCH   1   8
TORSDOF 1
ENDMDL
