MODEL 1
REMARK minimizedAffinity 7.02936125
REMARK minimizedRMSD -1
REMARK  1 active torsions:
REMARK  status: ('A' for Active; 'I' for Inactive)
REMARK    1  A    between atoms: C1_2  and  C2_3 
ROOT
ATOM      1  C2  UNL d   1       3.404  -3.326  -0.775  0.00  0.00    -0.073 A 
ATOM      2  C3  UNL d   1       2.551  -3.499   0.321  0.00  0.00    -0.002 A 
ATOM      3  C4  UNL d   1       1.549  -4.470   0.288  0.00  0.00     0.004 A 
ATOM      4  C5  UNL d   1       1.394  -5.281  -0.836  0.00  0.00    -0.004 A 
ATOM      5  C6  UNL d   1       2.244  -5.131  -1.937  0.00  0.00    -0.075 A 
ATOM      6  C7  UNL d   1       2.089  -5.994  -3.155  0.00  0.00     0.076 C 
ATOM      7  C8  UNL d   1       3.246  -4.152  -1.897  0.00  0.00     0.001 A 
ENDROOT
BRANCH   1   8
ATOM      8  C1  UNL d   1       4.491  -2.283  -0.742  0.00  0.00     0.053 C 
ATOM      9  C   UNL d   1       5.753  -2.752  -1.449  0.00  0.00     0.018 C 
ENDBRANCH   1   8
TORSDOF 1
ENDMDL
