MODEL 1
REMARK minimizedAffinity 2.81462526
REMARK minimizedRMSD -1
REMARK  1 active torsions:
REMARK  status: ('A' for Active; 'I' for Inactive)
REMARK    1  A    between atoms: C1_2  and  C2_3 
ROOT
ATOM      1  C2  UNL d   1       3.296  -5.090  -1.505  0.00  0.00    -0.073 A 
ATOM      2  C3  UNL d   1       3.493  -5.238  -2.882  0.00  0.00    -0.002 A 
ATOM      3  C4  UNL d   1       4.383  -4.404  -3.561  0.00  0.00     0.004 A 
ATOM      4  C5  UNL d   1       5.089  -3.420  -2.868  0.00  0.00    -0.004 A 
ATOM      5  C6  UNL d   1       4.915  -3.265  -1.490  0.00  0.00    -0.075 A 
ATOM      6  C7  UNL d   1       5.665  -2.210  -0.731  0.00  0.00     0.076 C 
ATOM      7  C8  UNL d   1       4.017  -4.105  -0.816  0.00  0.00     0.001 A 
ENDROOT
BRANCH   1   8
ATOM      8  C1  UNL d   1       2.341  -5.993  -0.767  0.00  0.00     0.053 C 
ATOM      9  C   UNL d   1       1.038  -5.288  -0.427  0.00  0.00     0.018 C 
ENDBRANCH   1   8
TORSDOF 1
ENDMDL
