MODEL 1
REMARK minimizedAffinity -2.85947084
REMARK minimizedRMSD -1
REMARK  1 active torsions:
REMARK  status: ('A' for Active; 'I' for Inactive)
REMARK    1  A    between atoms: C1_2  and  C2_3 
ROOT
ATOM      1  C2  UNL d   1      -1.260   4.526  -0.671  0.00  0.00    -0.073 A 
ATOM      2  C3  UNL d   1      -1.866   4.916  -1.871  0.00  0.00    -0.002 A 
ATOM      3  C4  UNL d   1      -3.055   5.646  -1.856  0.00  0.00     0.004 A 
ATOM      4  C5  UNL d   1      -3.646   5.999  -0.643  0.00  0.00    -0.004 A 
ATOM      5  C6  UNL d   1      -3.050   5.629   0.567  0.00  0.00    -0.075 A 
ATOM      6  C7  UNL d   1      -3.674   5.999   1.880  0.00  0.00     0.076 C 
ATOM      7  C8  UNL d   1      -1.857   4.893   0.543  0.00  0.00     0.001 A 
ENDROOT
BRANCH   1   8
ATOM      8  C1  UNL d   1       0.027   3.743  -0.683  0.00  0.00     0.053 C 
ATOM      9  C   UNL d   1      -0.218   2.244  -0.746  0.00  0.00     0.018 C 
ENDBRANCH   1   8
TORSDOF 1
ENDMDL
