MODEL 1
REMARK minimizedAffinity -0.216667518
REMARK minimizedRMSD -1
REMARK  1 active torsions:
REMARK  status: ('A' for Active; 'I' for Inactive)
REMARK    1  A    between atoms: C1_2  and  C2_3 
ROOT
ATOM      1  C2  UNL d   1      -5.523  -1.447   2.144  0.00  0.00    -0.073 A 
ATOM      2  C3  UNL d   1      -5.648  -0.219   2.803  0.00  0.00    -0.002 A 
ATOM      3  C4  UNL d   1      -5.888  -0.178   4.178  0.00  0.00     0.004 A 
ATOM      4  C5  UNL d   1      -5.999  -1.362   4.906  0.00  0.00    -0.004 A 
ATOM      5  C6  UNL d   1      -5.865  -2.599   4.267  0.00  0.00    -0.075 A 
ATOM      6  C7  UNL d   1      -5.984  -3.882   5.036  0.00  0.00     0.076 C 
ATOM      7  C8  UNL d   1      -5.627  -2.632   2.886  0.00  0.00     0.001 A 
ENDROOT
BRANCH   1   8
ATOM      8  C1  UNL d   1      -5.257  -1.496   0.661  0.00  0.00     0.053 C 
ATOM      9  C   UNL d   1      -5.294  -0.113   0.030  0.00  0.00     0.018 C 
ENDBRANCH   1   8
TORSDOF 1
ENDMDL
