MODEL 1
REMARK minimizedAffinity -3.18548608
REMARK minimizedRMSD -1
REMARK  0 active torsions:
REMARK  status: ('A' for Active; 'I' for Inactive)
ROOT
ATOM      1  C   UNL d   1       1.068  -0.780  -0.698  0.00  0.00     0.020 A 
ATOM      2  C1  UNL d   1       0.513   0.411  -1.162  0.00  0.00     0.020 A 
ATOM      3  C2  UNL d   1      -0.409   1.105  -0.375  0.00  0.00     0.034 A 
ATOM      4  C3  UNL d   1      -0.779   0.608   0.880  0.00  0.00     0.017 A 
ATOM      5  C4  UNL d   1      -0.221  -0.588   1.345  0.00  0.00     0.017 A 
ATOM      6  C5  UNL d   1       0.702  -1.279   0.553  0.00  0.00     0.034 A 
ATOM      7 Cl   UNL d   1      -0.628  -1.264   2.883  0.00  0.00    -0.070 Cl
ATOM      8 Cl1  UNL d   1      -1.924   1.518   1.799  0.00  0.00    -0.070 Cl
ENDROOT
TORSDOF 0
ENDMDL
