MODEL 1
REMARK minimizedAffinity -3.21199036
REMARK minimizedRMSD -1
REMARK  0 active torsions:
REMARK  status: ('A' for Active; 'I' for Inactive)
ROOT
ATOM      1  C   UNL d   1       1.006  -0.478  -0.361  0.00  0.00     0.020 A 
ATOM      2  C1  UNL d   1       0.261  -0.850   0.758  0.00  0.00     0.020 A 
ATOM      3  C2  UNL d   1      -0.694   0.023   1.283  0.00  0.00     0.034 A 
ATOM      4  C3  UNL d   1      -0.907   1.272   0.690  0.00  0.00     0.017 A 
ATOM      5  C4  UNL d   1      -0.159   1.645  -0.433  0.00  0.00     0.017 A 
ATOM      6  C5  UNL d   1       0.796   0.767  -0.955  0.00  0.00     0.034 A 
ATOM      7 Cl   UNL d   1      -0.365   3.170  -1.219  0.00  0.00    -0.070 Cl
ATOM      8 Cl1  UNL d   1      -2.104   2.301   1.392  0.00  0.00    -0.070 Cl
ENDROOT
TORSDOF 0
ENDMDL
