MODEL 1
REMARK minimizedAffinity -4.18850327
REMARK minimizedRMSD -1
REMARK  0 active torsions:
REMARK  status: ('A' for Active; 'I' for Inactive)
ROOT
ATOM      1  C   UNL d   1      -1.138   2.374   0.939  0.00  0.00     0.020 A 
ATOM      2  C1  UNL d   1      -0.720   2.236  -0.384  0.00  0.00     0.020 A 
ATOM      3  C2  UNL d   1      -0.137   1.041  -0.811  0.00  0.00     0.034 A 
ATOM      4  C3  UNL d   1       0.029  -0.021   0.085  0.00  0.00     0.017 A 
ATOM      5  C4  UNL d   1      -0.392   0.118   1.413  0.00  0.00     0.017 A 
ATOM      6  C5  UNL d   1      -0.975   1.317   1.835  0.00  0.00     0.034 A 
ATOM      7 Cl   UNL d   1      -0.221  -1.148   2.577  0.00  0.00    -0.070 Cl
ATOM      8 Cl1  UNL d   1       0.756  -1.470  -0.512  0.00  0.00    -0.070 Cl
ENDROOT
TORSDOF 0
ENDMDL
