MODEL 1
REMARK minimizedAffinity -1.36719656
REMARK minimizedRMSD -1
REMARK  0 active torsions:
REMARK  status: ('A' for Active; 'I' for Inactive)
ROOT
ATOM      1  C   UNL d   1       0.510  -0.859  -0.112  0.00  0.00     0.020 A 
ATOM      2  C1  UNL d   1      -0.203  -1.053   1.070  0.00  0.00     0.020 A 
ATOM      3  C2  UNL d   1      -1.014  -0.033   1.571  0.00  0.00     0.034 A 
ATOM      4  C3  UNL d   1      -1.115   1.185   0.890  0.00  0.00     0.017 A 
ATOM      5  C4  UNL d   1      -0.399   1.379  -0.297  0.00  0.00     0.017 A 
ATOM      6  C5  UNL d   1       0.413   0.354  -0.794  0.00  0.00     0.034 A 
ATOM      7 Cl   UNL d   1      -0.472   2.855  -1.194  0.00  0.00    -0.070 Cl
ATOM      8 Cl1  UNL d   1      -2.138   2.402   1.567  0.00  0.00    -0.070 Cl
ENDROOT
TORSDOF 0
ENDMDL
