MODEL 1
REMARK minimizedAffinity -2.37621021
REMARK minimizedRMSD -1
REMARK  0 active torsions:
REMARK  status: ('A' for Active; 'I' for Inactive)
ROOT
ATOM      1  C   UNL d   1      -1.426   1.757  -0.051  0.00  0.00     0.020 A 
ATOM      2  C1  UNL d   1      -1.628   1.776   1.329  0.00  0.00     0.020 A 
ATOM      3  C2  UNL d   1      -1.022   0.812   2.137  0.00  0.00     0.034 A 
ATOM      4  C3  UNL d   1      -0.211  -0.175   1.566  0.00  0.00     0.017 A 
ATOM      5  C4  UNL d   1      -0.008  -0.193   0.181  0.00  0.00     0.017 A 
ATOM      6  C5  UNL d   1      -0.617   0.775  -0.623  0.00  0.00     0.034 A 
ATOM      7 Cl   UNL d   1       0.980  -1.380  -0.596  0.00  0.00    -0.070 Cl
ATOM      8 Cl1  UNL d   1       0.508  -1.336   2.625  0.00  0.00    -0.070 Cl
ENDROOT
TORSDOF 0
ENDMDL
