MODEL 1
REMARK minimizedAffinity -0.154353797
REMARK minimizedRMSD -1
REMARK  0 active torsions:
REMARK  status: ('A' for Active; 'I' for Inactive)
ROOT
ATOM      1  C   UNL d   1      -1.845   1.690  -0.341  0.00  0.00     0.020 A 
ATOM      2  C1  UNL d   1      -1.447   1.952   0.970  0.00  0.00     0.020 A 
ATOM      3  C2  UNL d   1      -0.491   1.140   1.585  0.00  0.00     0.034 A 
ATOM      4  C3  UNL d   1       0.069   0.062   0.890  0.00  0.00     0.017 A 
ATOM      5  C4  UNL d   1      -0.330  -0.200  -0.426  0.00  0.00     0.017 A 
ATOM      6  C5  UNL d   1      -1.287   0.616  -1.037  0.00  0.00     0.034 A 
ATOM      7 Cl   UNL d   1       0.317  -1.511  -1.348  0.00  0.00    -0.070 Cl
ATOM      8 Cl1  UNL d   1       1.246  -0.899   1.712  0.00  0.00    -0.070 Cl
ENDROOT
TORSDOF 0
ENDMDL
