MODEL 1
REMARK minimizedAffinity -5.23997593
REMARK minimizedRMSD -1
REMARK  0 active torsions:
REMARK  status: ('A' for Active; 'I' for Inactive)
ROOT
ATOM      1  C   UNL d   1      -1.458   2.728   0.613  0.00  0.00     0.020 A 
ATOM      2  C1  UNL d   1      -1.640   1.501   1.248  0.00  0.00     0.020 A 
ATOM      3  C2  UNL d   1      -0.859   0.402   0.881  0.00  0.00     0.034 A 
ATOM      4  C3  UNL d   1       0.107   0.530  -0.123  0.00  0.00     0.017 A 
ATOM      5  C4  UNL d   1       0.288   1.762  -0.761  0.00  0.00     0.017 A 
ATOM      6  C5  UNL d   1      -0.496   2.859  -0.389  0.00  0.00     0.034 A 
ATOM      7 Cl   UNL d   1       1.460   1.997  -2.009  0.00  0.00    -0.070 Cl
ATOM      8 Cl1  UNL d   1       1.037  -0.870  -0.526  0.00  0.00    -0.070 Cl
ENDROOT
TORSDOF 0
ENDMDL
