MODEL 1
REMARK minimizedAffinity -4.09918308
REMARK minimizedRMSD -1
REMARK  0 active torsions:
REMARK  status: ('A' for Active; 'I' for Inactive)
ROOT
ATOM      1  C   UNL d   1       1.436  -0.718  -0.132  0.00  0.00     0.020 A 
ATOM      2  C1  UNL d   1       0.607  -0.936   0.968  0.00  0.00     0.020 A 
ATOM      3  C2  UNL d   1      -0.383  -0.006   1.292  0.00  0.00     0.034 A 
ATOM      4  C3  UNL d   1      -0.547   1.146   0.514  0.00  0.00     0.017 A 
ATOM      5  C4  UNL d   1       0.285   1.364  -0.590  0.00  0.00     0.017 A 
ATOM      6  C5  UNL d   1       1.275   0.429  -0.909  0.00  0.00     0.034 A 
ATOM      7 Cl   UNL d   1       0.143   2.762  -1.596  0.00  0.00    -0.070 Cl
ATOM      8 Cl1  UNL d   1      -1.792   2.254   0.972  0.00  0.00    -0.070 Cl
ENDROOT
TORSDOF 0
ENDMDL
