MODEL 1
REMARK minimizedAffinity -2.88361931
REMARK minimizedRMSD -1
REMARK  0 active torsions:
REMARK  status: ('A' for Active; 'I' for Inactive)
ROOT
ATOM      1  C   UNL d   1      -0.494   0.600  -0.178  0.00  0.00     0.020 A 
ATOM      2  C1  UNL d   1       0.099  -0.111   0.865  0.00  0.00     0.020 A 
ATOM      3  C2  UNL d   1       0.865  -1.245   0.590  0.00  0.00     0.034 A 
ATOM      4  C3  UNL d   1       1.040  -1.673  -0.732  0.00  0.00     0.017 A 
ATOM      5  C4  UNL d   1       0.444  -0.959  -1.778  0.00  0.00     0.017 A 
ATOM      6  C5  UNL d   1      -0.322   0.176  -1.496  0.00  0.00     0.034 A 
ATOM      7 Cl   UNL d   1       0.615  -1.425  -3.433  0.00  0.00    -0.070 Cl
ATOM      8 Cl1  UNL d   1       2.000  -3.084  -0.999  0.00  0.00    -0.070 Cl
ENDROOT
TORSDOF 0
ENDMDL
