MODEL 1
REMARK minimizedAffinity -4.73852396
REMARK minimizedRMSD -1
REMARK  0 active torsions:
REMARK  status: ('A' for Active; 'I' for Inactive)
ROOT
ATOM      1  C   UNL d   1      -1.791   2.814   1.212  0.00  0.00     0.020 A 
ATOM      2  C1  UNL d   1      -1.200   3.073  -0.024  0.00  0.00     0.020 A 
ATOM      3  C2  UNL d   1      -0.393   2.107  -0.629  0.00  0.00     0.034 A 
ATOM      4  C3  UNL d   1      -0.176   0.877   0.002  0.00  0.00     0.017 A 
ATOM      5  C4  UNL d   1      -0.769   0.618   1.243  0.00  0.00     0.017 A 
ATOM      6  C5  UNL d   1      -1.576   1.589   1.844  0.00  0.00     0.034 A 
ATOM      7 Cl   UNL d   1      -0.547  -0.877   2.083  0.00  0.00    -0.070 Cl
ATOM      8 Cl1  UNL d   1       0.832  -0.273  -0.803  0.00  0.00    -0.070 Cl
ENDROOT
TORSDOF 0
ENDMDL
