MODEL 1
REMARK minimizedAffinity -3.22573614
REMARK minimizedRMSD -1
REMARK  0 active torsions:
REMARK  status: ('A' for Active; 'I' for Inactive)
ROOT
ATOM      1  C   UNL d   1       0.388   0.804  -1.230  0.00  0.00     0.020 A 
ATOM      2  C1  UNL d   1       1.095  -0.382  -1.042  0.00  0.00     0.020 A 
ATOM      3  C2  UNL d   1       1.060  -1.029   0.195  0.00  0.00     0.034 A 
ATOM      4  C3  UNL d   1       0.315  -0.489   1.250  0.00  0.00     0.017 A 
ATOM      5  C4  UNL d   1      -0.395   0.702   1.061  0.00  0.00     0.017 A 
ATOM      6  C5  UNL d   1      -0.356   1.345  -0.180  0.00  0.00     0.034 A 
ATOM      7 Cl   UNL d   1      -1.336   1.429   2.315  0.00  0.00    -0.070 Cl
ATOM      8 Cl1  UNL d   1       0.316  -1.341   2.753  0.00  0.00    -0.070 Cl
ENDROOT
TORSDOF 0
ENDMDL
