MODEL 1
REMARK minimizedAffinity -3.15970039
REMARK minimizedRMSD -1
REMARK  0 active torsions:
REMARK  status: ('A' for Active; 'I' for Inactive)
ROOT
ATOM      1  C   UNL d   1      -0.857   1.346   2.723  0.00  0.00     0.020 A 
ATOM      2  C1  UNL d   1      -0.335   0.058   2.837  0.00  0.00     0.020 A 
ATOM      3  C2  UNL d   1       0.057  -0.640   1.693  0.00  0.00     0.034 A 
ATOM      4  C3  UNL d   1      -0.072  -0.051   0.430  0.00  0.00     0.017 A 
ATOM      5  C4  UNL d   1      -0.596   1.242   0.316  0.00  0.00     0.017 A 
ATOM      6  C5  UNL d   1      -0.986   1.937   1.465  0.00  0.00     0.034 A 
ATOM      7 Cl   UNL d   1      -0.785   2.034  -1.208  0.00  0.00    -0.070 Cl
ATOM      8 Cl1  UNL d   1       0.433  -0.973  -0.942  0.00  0.00    -0.070 Cl
ENDROOT
TORSDOF 0
ENDMDL
