MODEL 1
REMARK minimizedAffinity -3.10343909
REMARK minimizedRMSD -1
REMARK  0 active torsions:
REMARK  status: ('A' for Active; 'I' for Inactive)
ROOT
ATOM      1  C   UNL d   1       0.389  -0.720  -0.941  0.00  0.00     0.020 A 
ATOM      2  C1  UNL d   1       1.303  -0.907   0.095  0.00  0.00     0.020 A 
ATOM      3  C2  UNL d   1       1.117  -0.253   1.316  0.00  0.00     0.034 A 
ATOM      4  C3  UNL d   1       0.016   0.590   1.503  0.00  0.00     0.017 A 
ATOM      5  C4  UNL d   1      -0.901   0.776   0.462  0.00  0.00     0.017 A 
ATOM      6  C5  UNL d   1      -0.711   0.120  -0.758  0.00  0.00     0.034 A 
ATOM      7 Cl   UNL d   1      -2.284   1.801   0.618  0.00  0.00    -0.070 Cl
ATOM      8 Cl1  UNL d   1      -0.151   1.365   3.038  0.00  0.00    -0.070 Cl
ENDROOT
TORSDOF 0
ENDMDL
