MODEL 1
REMARK minimizedAffinity -3.45119262
REMARK minimizedRMSD -1
REMARK  0 active torsions:
REMARK  status: ('A' for Active; 'I' for Inactive)
ROOT
ATOM      1  C   UNL d   1      -1.571   1.448   0.101  0.00  0.00     0.020 A 
ATOM      2  C1  UNL d   1      -2.262   0.305  -0.299  0.00  0.00     0.020 A 
ATOM      3  C2  UNL d   1      -1.567  -0.772  -0.853  0.00  0.00     0.034 A 
ATOM      4  C3  UNL d   1      -0.177  -0.708  -1.009  0.00  0.00     0.017 A 
ATOM      5  C4  UNL d   1       0.515   0.440  -0.606  0.00  0.00     0.017 A 
ATOM      6  C5  UNL d   1      -0.186   1.515  -0.052  0.00  0.00     0.034 A 
ATOM      7 Cl   UNL d   1       2.229   0.592  -0.766  0.00  0.00    -0.070 Cl
ATOM      8 Cl1  UNL d   1       0.618  -2.078  -1.701  0.00  0.00    -0.070 Cl
ENDROOT
TORSDOF 0
ENDMDL
