MODEL 1
REMARK minimizedAffinity -4.02881575
REMARK minimizedRMSD -1
REMARK  0 active torsions:
REMARK  status: ('A' for Active; 'I' for Inactive)
ROOT
ATOM      1  C   UNL d   1      -1.698   2.168  -0.093  0.00  0.00     0.020 A 
ATOM      2  C1  UNL d   1      -1.718   2.234   1.300  0.00  0.00     0.020 A 
ATOM      3  C2  UNL d   1      -0.950   1.343   2.053  0.00  0.00     0.034 A 
ATOM      4  C3  UNL d   1      -0.159   0.382   1.414  0.00  0.00     0.017 A 
ATOM      5  C4  UNL d   1      -0.139   0.316   0.016  0.00  0.00     0.017 A 
ATOM      6  C5  UNL d   1      -0.910   1.210  -0.733  0.00  0.00     0.034 A 
ATOM      7 Cl   UNL d   1       0.812  -0.843  -0.844  0.00  0.00    -0.070 Cl
ATOM      8 Cl1  UNL d   1       0.765  -0.688   2.407  0.00  0.00    -0.070 Cl
ENDROOT
TORSDOF 0
ENDMDL
