MODEL 1
REMARK minimizedAffinity -3.06064844
REMARK minimizedRMSD -1
REMARK  0 active torsions:
REMARK  status: ('A' for Active; 'I' for Inactive)
ROOT
ATOM      1  C   UNL d   1      -1.086   0.227   2.070  0.00  0.00     0.020 A 
ATOM      2  C1  UNL d   1      -1.646   1.493   1.898  0.00  0.00     0.020 A 
ATOM      3  C2  UNL d   1      -1.196   2.320   0.867  0.00  0.00     0.034 A 
ATOM      4  C3  UNL d   1      -0.183   1.884   0.005  0.00  0.00     0.017 A 
ATOM      5  C4  UNL d   1       0.378   0.614   0.179  0.00  0.00     0.017 A 
ATOM      6  C5  UNL d   1      -0.076  -0.211   1.213  0.00  0.00     0.034 A 
ATOM      7 Cl   UNL d   1       1.631   0.006  -0.844  0.00  0.00    -0.070 Cl
ATOM      8 Cl1  UNL d   1       0.324   2.960  -1.248  0.00  0.00    -0.070 Cl
ENDROOT
TORSDOF 0
ENDMDL
