MODEL 1
REMARK minimizedAffinity -1.76504183
REMARK minimizedRMSD -1
REMARK  0 active torsions:
REMARK  status: ('A' for Active; 'I' for Inactive)
ROOT
ATOM      1  C   UNL d   1       1.196   1.237  -1.501  0.00  0.00     0.020 A 
ATOM      2  C1  UNL d   1       1.583  -0.072  -1.219  0.00  0.00     0.020 A 
ATOM      3  C2  UNL d   1       0.776  -0.881  -0.416  0.00  0.00     0.034 A 
ATOM      4  C3  UNL d   1      -0.422  -0.382   0.107  0.00  0.00     0.017 A 
ATOM      5  C4  UNL d   1      -0.810   0.932  -0.177  0.00  0.00     0.017 A 
ATOM      6  C5  UNL d   1       0.002   1.738  -0.981  0.00  0.00     0.034 A 
ATOM      7 Cl   UNL d   1      -2.275   1.619   0.432  0.00  0.00    -0.070 Cl
ATOM      8 Cl1  UNL d   1      -1.371  -1.439   1.091  0.00  0.00    -0.070 Cl
ENDROOT
TORSDOF 0
ENDMDL
