MODEL 1
REMARK minimizedAffinity -5.4399128
REMARK minimizedRMSD -1
REMARK  0 active torsions:
REMARK  status: ('A' for Active; 'I' for Inactive)
ROOT
ATOM      1  C   UNL d   1      -2.220   1.526   1.330  0.00  0.00     0.020 A 
ATOM      2  C1  UNL d   1      -1.914   0.223   1.720  0.00  0.00     0.020 A 
ATOM      3  C2  UNL d   1      -0.868  -0.464   1.100  0.00  0.00     0.034 A 
ATOM      4  C3  UNL d   1      -0.125   0.152   0.087  0.00  0.00     0.017 A 
ATOM      5  C4  UNL d   1      -0.433   1.460  -0.304  0.00  0.00     0.017 A 
ATOM      6  C5  UNL d   1      -1.481   2.144   0.320  0.00  0.00     0.034 A 
ATOM      7 Cl   UNL d   1       0.440   2.286  -1.546  0.00  0.00    -0.070 Cl
ATOM      8 Cl1  UNL d   1       1.155  -0.756  -0.636  0.00  0.00    -0.070 Cl
ENDROOT
TORSDOF 0
ENDMDL
