MODEL 1
REMARK minimizedAffinity 2.18517852
REMARK minimizedRMSD -1
REMARK  1 active torsions:
REMARK  status: ('A' for Active; 'I' for Inactive)
REMARK    1  A    between atoms: N_2  and  C1_3 
ROOT
ATOM      1  C1  UNL d   1       1.266  -0.207  -0.969  0.00  0.00     0.143 A 
ATOM      2  C2  UNL d   1       1.717   1.065  -1.337  0.00  0.00    -0.057 A 
ATOM      3  C3  UNL d   1       1.732   2.124  -0.420  0.00  0.00     0.033 A 
ATOM      4  C4  UNL d   1       1.266   1.935   0.877  0.00  0.00    -0.042 A 
ATOM      5  C5  UNL d   1       0.789   0.685   1.257  0.00  0.00     0.033 A 
ATOM      6  C6  UNL d   1       0.784  -0.369   0.339  0.00  0.00    -0.057 A 
ENDROOT
BRANCH   1   7
ATOM      7  N   UNL d   1       1.134  -1.274  -1.862  0.00  0.00    -0.732 N 
ATOM      8  C   UNL d   1       2.204  -1.603  -2.779  0.00  0.00     0.284 C 
ATOM      9  H3  UNL d   1       0.687  -2.083  -1.437  0.00  0.00     0.395 HD
ENDBRANCH   1   7
TORSDOF 1
ENDMDL
