MODEL 1
REMARK minimizedAffinity 3.2732811
REMARK minimizedRMSD -1
REMARK  1 active torsions:
REMARK  status: ('A' for Active; 'I' for Inactive)
REMARK    1  A    between atoms: N_2  and  C1_3 
ROOT
ATOM      1  C1  UNL d   1       2.820   4.858  -5.698  0.00  0.00     0.143 A 
ATOM      2  C2  UNL d   1       2.069   5.999  -6.000  0.00  0.00    -0.057 A 
ATOM      3  C3  UNL d   1       0.670   5.977  -5.967  0.00  0.00     0.033 A 
ATOM      4  C4  UNL d   1      -0.007   4.801  -5.661  0.00  0.00    -0.042 A 
ATOM      5  C5  UNL d   1       0.719   3.648  -5.382  0.00  0.00     0.033 A 
ATOM      6  C6  UNL d   1       2.116   3.678  -5.409  0.00  0.00    -0.057 A 
ENDROOT
BRANCH   1   7
ATOM      7  N   UNL d   1       4.211   4.790  -5.809  0.00  0.00    -0.732 N 
ATOM      8  C   UNL d   1       4.995   5.992  -5.999  0.00  0.00     0.284 C 
ATOM      9  H3  UNL d   1       4.621   4.126  -5.157  0.00  0.00     0.395 HD
ENDBRANCH   1   7
TORSDOF 1
ENDMDL
