MODEL 1
REMARK minimizedAffinity -0.999685585
REMARK minimizedRMSD -1
REMARK  1 active torsions:
REMARK  status: ('A' for Active; 'I' for Inactive)
REMARK    1  A    between atoms: N_2  and  C1_3 
ROOT
ATOM      1  C1  UNL d   1      -0.607   6.000  -4.047  0.00  0.00     0.143 A 
ATOM      2  C2  UNL d   1      -1.894   5.984  -4.594  0.00  0.00    -0.057 A 
ATOM      3  C3  UNL d   1      -3.031   5.995  -3.776  0.00  0.00     0.033 A 
ATOM      4  C4  UNL d   1      -2.899   5.992  -2.392  0.00  0.00    -0.042 A 
ATOM      5  C5  UNL d   1      -1.629   5.982  -1.826  0.00  0.00     0.033 A 
ATOM      6  C6  UNL d   1      -0.498   5.978  -2.647  0.00  0.00    -0.057 A 
ENDROOT
BRANCH   1   7
ATOM      7  N   UNL d   1       0.562   5.891  -4.804  0.00  0.00    -0.732 N 
ATOM      8  C   UNL d   1       0.647   4.944  -5.896  0.00  0.00     0.284 C 
ATOM      9  H3  UNL d   1       0.980   6.796  -5.006  0.00  0.00     0.395 HD
ENDBRANCH   1   7
TORSDOF 1
ENDMDL
