MODEL 1
REMARK minimizedAffinity 1.80764663
REMARK minimizedRMSD -1
REMARK  1 active torsions:
REMARK  status: ('A' for Active; 'I' for Inactive)
REMARK    1  A    between atoms: N_2  and  C1_3 
ROOT
ATOM      1  C1  UNL d   1       0.855   0.403   0.776  0.00  0.00     0.143 A 
ATOM      2  C2  UNL d   1       0.638   0.785   2.105  0.00  0.00    -0.057 A 
ATOM      3  C3  UNL d   1       0.796   2.115   2.512  0.00  0.00     0.033 A 
ATOM      4  C4  UNL d   1       1.204   3.084   1.602  0.00  0.00    -0.042 A 
ATOM      5  C5  UNL d   1       1.449   2.722   0.282  0.00  0.00     0.033 A 
ATOM      6  C6  UNL d   1       1.283   1.394  -0.121  0.00  0.00    -0.057 A 
ENDROOT
BRANCH   1   7
ATOM      7  N   UNL d   1       0.810  -0.920   0.330  0.00  0.00    -0.732 N 
ATOM      8  C   UNL d   1      -0.296  -1.782   0.691  0.00  0.00     0.284 C 
ATOM      9  H3  UNL d   1       1.113  -1.015  -0.636  0.00  0.00     0.395 HD
ENDBRANCH   1   7
TORSDOF 1
ENDMDL
