MODEL 1
REMARK minimizedAffinity -1.00751424
REMARK minimizedRMSD -1
REMARK  1 active torsions:
REMARK  status: ('A' for Active; 'I' for Inactive)
REMARK    1  A    between atoms: N_2  and  C1_3 
ROOT
ATOM      1  C1  UNL d   1      -0.182   5.999  -4.925  0.00  0.00     0.143 A 
ATOM      2  C2  UNL d   1      -1.541   5.983  -5.254  0.00  0.00    -0.057 A 
ATOM      3  C3  UNL d   1      -2.529   5.996  -4.261  0.00  0.00     0.033 A 
ATOM      4  C4  UNL d   1      -2.171   5.997  -2.917  0.00  0.00    -0.042 A 
ATOM      5  C5  UNL d   1      -0.826   5.987  -2.566  0.00  0.00     0.033 A 
ATOM      6  C6  UNL d   1       0.155   5.980  -3.563  0.00  0.00    -0.057 A 
ENDROOT
BRANCH   1   7
ATOM      7  N   UNL d   1       0.847   5.887  -5.864  0.00  0.00    -0.732 N 
ATOM      8  C   UNL d   1       2.232   5.963  -5.452  0.00  0.00     0.284 C 
ATOM      9  H3  UNL d   1       0.659   5.170  -6.562  0.00  0.00     0.395 HD
ENDBRANCH   1   7
TORSDOF 1
ENDMDL
