MODEL 1
REMARK minimizedAffinity 3.28336167
REMARK minimizedRMSD -1
REMARK  1 active torsions:
REMARK  status: ('A' for Active; 'I' for Inactive)
REMARK    1  A    between atoms: N_2  and  C1_3 
ROOT
ATOM      1  C1  UNL d   1       1.013   0.379   3.395  0.00  0.00     0.143 A 
ATOM      2  C2  UNL d   1       1.701   0.325   2.178  0.00  0.00    -0.057 A 
ATOM      3  C3  UNL d   1       1.017   0.338   0.956  0.00  0.00     0.033 A 
ATOM      4  C4  UNL d   1      -0.373   0.377   0.931  0.00  0.00    -0.042 A 
ATOM      5  C5  UNL d   1      -1.079   0.406   2.128  0.00  0.00     0.033 A 
ATOM      6  C6  UNL d   1      -0.390   0.399   3.345  0.00  0.00    -0.057 A 
ENDROOT
BRANCH   1   7
ATOM      7  N   UNL d   1       1.630   0.269   4.643  0.00  0.00    -0.732 N 
ATOM      8  C   UNL d   1       1.180   1.070   5.761  0.00  0.00     0.284 C 
ATOM      9  H3  UNL d   1       1.851  -0.694   4.884  0.00  0.00     0.395 HD
ENDBRANCH   1   7
TORSDOF 1
ENDMDL
