MODEL 1
REMARK minimizedAffinity 4.00993586
REMARK minimizedRMSD -1
REMARK  1 active torsions:
REMARK  status: ('A' for Active; 'I' for Inactive)
REMARK    1  A    between atoms: N_2  and  C1_3 
ROOT
ATOM      1  C1  UNL d   1       2.705   4.887  -5.533  0.00  0.00     0.143 A 
ATOM      2  C2  UNL d   1       1.884   6.000  -5.747  0.00  0.00    -0.057 A 
ATOM      3  C3  UNL d   1       0.542   5.999  -5.348  0.00  0.00     0.033 A 
ATOM      4  C4  UNL d   1      -0.013   4.871  -4.753  0.00  0.00    -0.042 A 
ATOM      5  C5  UNL d   1       0.778   3.745  -4.553  0.00  0.00     0.033 A 
ATOM      6  C6  UNL d   1       2.119   3.754  -4.948  0.00  0.00    -0.057 A 
ENDROOT
BRANCH   1   7
ATOM      7  N   UNL d   1       4.019   4.791  -5.996  0.00  0.00    -0.732 N 
ATOM      8  C   UNL d   1       4.905   5.934  -5.944  0.00  0.00     0.284 C 
ATOM      9  H3  UNL d   1       4.460   3.912  -5.734  0.00  0.00     0.395 HD
ENDBRANCH   1   7
TORSDOF 1
ENDMDL
