MODEL 1
REMARK minimizedAffinity 2.12944961
REMARK minimizedRMSD -1
REMARK  1 active torsions:
REMARK  status: ('A' for Active; 'I' for Inactive)
REMARK    1  A    between atoms: N_2  and  C1_3 
ROOT
ATOM      1  C1  UNL d   1       0.469   0.927   1.099  0.00  0.00     0.143 A 
ATOM      2  C2  UNL d   1      -0.898   0.786   1.358  0.00  0.00    -0.057 A 
ATOM      3  C3  UNL d   1      -1.604  -0.349   0.939  0.00  0.00     0.033 A 
ATOM      4  C4  UNL d   1      -0.957  -1.352   0.225  0.00  0.00    -0.042 A 
ATOM      5  C5  UNL d   1       0.396  -1.222  -0.066  0.00  0.00     0.033 A 
ATOM      6  C6  UNL d   1       1.096  -0.090   0.361  0.00  0.00    -0.057 A 
ENDROOT
BRANCH   1   7
ATOM      7  N   UNL d   1       1.204   2.075   1.403  0.00  0.00    -0.732 N 
ATOM      8  C   UNL d   1       1.229   3.198   0.491  0.00  0.00     0.284 C 
ATOM      9  H3  UNL d   1       1.127   2.337   2.383  0.00  0.00     0.395 HD
ENDBRANCH   1   7
TORSDOF 1
ENDMDL
