MODEL 1
REMARK minimizedAffinity 2.76571107
REMARK minimizedRMSD -1
REMARK  1 active torsions:
REMARK  status: ('A' for Active; 'I' for Inactive)
REMARK    1  A    between atoms: N_2  and  C1_3 
ROOT
ATOM      1  C1  UNL d   1       0.874   1.989   1.307  0.00  0.00     0.143 A 
ATOM      2  C2  UNL d   1       0.132   1.970   2.493  0.00  0.00    -0.057 A 
ATOM      3  C3  UNL d   1      -0.366   0.771   3.019  0.00  0.00     0.033 A 
ATOM      4  C4  UNL d   1      -0.154  -0.430   2.351  0.00  0.00    -0.042 A 
ATOM      5  C5  UNL d   1       0.560  -0.432   1.158  0.00  0.00     0.033 A 
ATOM      6  C6  UNL d   1       1.060   0.767   0.641  0.00  0.00    -0.057 A 
ENDROOT
BRANCH   1   7
ATOM      7  N   UNL d   1       1.312   3.159   0.682  0.00  0.00    -0.732 N 
ATOM      8  C   UNL d   1       0.637   3.662  -0.495  0.00  0.00     0.284 C 
ATOM      9  H3  UNL d   1       1.577   3.880   1.349  0.00  0.00     0.395 HD
ENDBRANCH   1   7
TORSDOF 1
ENDMDL
