MODEL 1
REMARK minimizedAffinity -3.07553029
REMARK minimizedRMSD -1
REMARK  1 active torsions:
REMARK  status: ('A' for Active; 'I' for Inactive)
REMARK    1  A    between atoms: N_2  and  C1_3 
ROOT
ATOM      1  C1  UNL d   1      -2.721   1.631  -2.507  0.00  0.00     0.143 A 
ATOM      2  C2  UNL d   1      -3.339   2.388  -1.505  0.00  0.00    -0.057 A 
ATOM      3  C3  UNL d   1      -3.769   3.698  -1.746  0.00  0.00     0.033 A 
ATOM      4  C4  UNL d   1      -3.562   4.287  -2.989  0.00  0.00    -0.042 A 
ATOM      5  C5  UNL d   1      -2.927   3.563  -3.992  0.00  0.00     0.033 A 
ATOM      6  C6  UNL d   1      -2.506   2.252  -3.747  0.00  0.00    -0.057 A 
ENDROOT
BRANCH   1   7
ATOM      7  N   UNL d   1      -2.183   0.359  -2.300  0.00  0.00    -0.732 N 
ATOM      8  C   UNL d   1      -2.152  -0.222  -0.975  0.00  0.00     0.284 C 
ATOM      9  H3  UNL d   1      -2.440  -0.296  -3.035  0.00  0.00     0.395 HD
ENDBRANCH   1   7
TORSDOF 1
ENDMDL
