MODEL 1
REMARK minimizedAffinity -0.937952518
REMARK minimizedRMSD -1
REMARK  1 active torsions:
REMARK  status: ('A' for Active; 'I' for Inactive)
REMARK    1  A    between atoms: N_2  and  C1_3 
ROOT
ATOM      1  C1  UNL d   1      -3.040   4.166  -2.894  0.00  0.00     0.143 A 
ATOM      2  C2  UNL d   1      -3.038   3.176  -3.882  0.00  0.00    -0.057 A 
ATOM      3  C3  UNL d   1      -3.056   1.816  -3.547  0.00  0.00     0.033 A 
ATOM      4  C4  UNL d   1      -3.045   1.422  -2.213  0.00  0.00    -0.042 A 
ATOM      5  C5  UNL d   1      -3.021   2.389  -1.215  0.00  0.00     0.033 A 
ATOM      6  C6  UNL d   1      -3.011   3.745  -1.555  0.00  0.00    -0.057 A 
ENDROOT
BRANCH   1   7
ATOM      7  N   UNL d   1      -2.924   5.532  -3.162  0.00  0.00    -0.732 N 
ATOM      8  C   UNL d   1      -2.658   6.000  -4.505  0.00  0.00     0.284 C 
ATOM      9  H3  UNL d   1      -3.611   6.087  -2.657  0.00  0.00     0.395 HD
ENDBRANCH   1   7
TORSDOF 1
ENDMDL
