MODEL 1
REMARK minimizedAffinity -3.20883226
REMARK minimizedRMSD -1
REMARK  1 active torsions:
REMARK  status: ('A' for Active; 'I' for Inactive)
REMARK    1  A    between atoms: N_2  and  C1_3 
ROOT
ATOM      1  C1  UNL d   1      -2.320   3.397  -3.383  0.00  0.00     0.143 A 
ATOM      2  C2  UNL d   1      -3.021   4.328  -2.609  0.00  0.00    -0.057 A 
ATOM      3  C3  UNL d   1      -3.309   5.608  -3.097  0.00  0.00     0.033 A 
ATOM      4  C4  UNL d   1      -2.874   5.991  -4.361  0.00  0.00    -0.042 A 
ATOM      5  C5  UNL d   1      -2.154   5.091  -5.139  0.00  0.00     0.033 A 
ATOM      6  C6  UNL d   1      -1.875   3.812  -4.648  0.00  0.00    -0.057 A 
ENDROOT
BRANCH   1   7
ATOM      7  N   UNL d   1      -1.917   2.143  -2.916  0.00  0.00    -0.732 N 
ATOM      8  C   UNL d   1      -2.847   1.036  -2.882  0.00  0.00     0.284 C 
ATOM      9  H3  UNL d   1      -0.983   1.893  -3.234  0.00  0.00     0.395 HD
ENDBRANCH   1   7
TORSDOF 1
ENDMDL
