MODEL 1
REMARK minimizedAffinity 1.70774913
REMARK minimizedRMSD -1
REMARK  1 active torsions:
REMARK  status: ('A' for Active; 'I' for Inactive)
REMARK    1  A    between atoms: N_2  and  C1_3 
ROOT
ATOM      1  C1  UNL d   1      -3.767   3.605  -2.365  0.00  0.00     0.143 A 
ATOM      2  C2  UNL d   1      -2.863   3.168  -3.339  0.00  0.00    -0.057 A 
ATOM      3  C3  UNL d   1      -2.458   4.007  -4.383  0.00  0.00     0.033 A 
ATOM      4  C4  UNL d   1      -2.974   5.294  -4.489  0.00  0.00    -0.042 A 
ATOM      5  C5  UNL d   1      -3.893   5.742  -3.547  0.00  0.00     0.033 A 
ATOM      6  C6  UNL d   1      -4.288   4.901  -2.502  0.00  0.00    -0.057 A 
ENDROOT
BRANCH   1   7
ATOM      7  N   UNL d   1      -4.283   2.786  -1.358  0.00  0.00    -0.732 N 
ATOM      8  C   UNL d   1      -5.711   2.690  -1.146  0.00  0.00     0.284 C 
ATOM      9  H3  UNL d   1      -3.792   1.897  -1.291  0.00  0.00     0.395 HD
ENDBRANCH   1   7
TORSDOF 1
ENDMDL
