MODEL 1
REMARK minimizedAffinity 2.71659064
REMARK minimizedRMSD -1
REMARK  1 active torsions:
REMARK  status: ('A' for Active; 'I' for Inactive)
REMARK    1  A    between atoms: N_2  and  C1_3 
ROOT
ATOM      1  C1  UNL d   1      -3.712   3.250  -1.305  0.00  0.00     0.143 A 
ATOM      2  C2  UNL d   1      -3.389   2.454  -2.409  0.00  0.00    -0.057 A 
ATOM      3  C3  UNL d   1      -2.550   2.928  -3.425  0.00  0.00     0.033 A 
ATOM      4  C4  UNL d   1      -2.040   4.221  -3.367  0.00  0.00    -0.042 A 
ATOM      5  C5  UNL d   1      -2.367   5.038  -2.291  0.00  0.00     0.033 A 
ATOM      6  C6  UNL d   1      -3.201   4.557  -1.277  0.00  0.00    -0.057 A 
ENDROOT
BRANCH   1   7
ATOM      7  N   UNL d   1      -4.619   2.871  -0.312  0.00  0.00    -0.732 N 
ATOM      8  C   UNL d   1      -5.968   3.394  -0.309  0.00  0.00     0.284 C 
ATOM      9  H3  UNL d   1      -4.556   1.881  -0.085  0.00  0.00     0.395 HD
ENDBRANCH   1   7
TORSDOF 1
ENDMDL
