MODEL 1
REMARK minimizedAffinity 11.863699
REMARK minimizedRMSD -1
REMARK  3 active torsions:
REMARK  status: ('A' for Active; 'I' for Inactive)
REMARK    1  A    between atoms: C3'_2  and  C2'_3 
REMARK    2  A    between atoms: C2'_3  and  C1'_4 
REMARK    3  A    between atoms: C1'_4  and  C1_5 
ROOT
ATOM      1  C1  N4B d   1      -2.271  -3.504  -3.758  0.00  0.00    -0.075 A 
ATOM      2  C2  N4B d   1      -2.958  -4.454  -2.969  0.00  0.00     0.002 A 
ATOM      3  C3  N4B d   1      -2.253  -5.361  -2.217  0.00  0.00     0.002 A 
ATOM      4  C4  N4B d   1      -0.866  -5.350  -2.252  0.00  0.00    -0.004 A 
ATOM      5  C5  N4B d   1      -0.210  -4.413  -2.996  0.00  0.00     0.002 A 
ATOM      6  C6  N4B d   1      -0.906  -3.493  -3.754  0.00  0.00     0.002 A 
ENDROOT
BRANCH   1   7
ATOM      7  C1' N4B d   1      -2.999  -2.548  -4.663  0.00  0.00     0.057 C 
BRANCH   7   8
ATOM      8  C2' N4B d   1      -3.417  -3.282  -5.934  0.00  0.00     0.009 C 
BRANCH   8   9
ATOM      9  C3' N4B d   1      -4.884  -3.674  -5.907  0.00  0.00     0.004 C 
ATOM     10  C4' N4B d   1      -5.803  -2.493  -6.000  0.00  0.00     0.003 C 
ENDBRANCH   8   9
ENDBRANCH   7   8
ENDBRANCH   1   7
TORSDOF 3
ENDMDL
