MODEL 1
REMARK minimizedAffinity 13.2923546
REMARK minimizedRMSD -1
REMARK  3 active torsions:
REMARK  status: ('A' for Active; 'I' for Inactive)
REMARK    1  A    between atoms: C3'_2  and  C2'_3 
REMARK    2  A    between atoms: C2'_3  and  C1'_4 
REMARK    3  A    between atoms: C1'_4  and  C1_5 
ROOT
ATOM      1  C1  N4B d   1       0.492  -3.190  -1.977  0.00  0.00    -0.075 A 
ATOM      2  C2  N4B d   1       1.308  -3.830  -1.018  0.00  0.00     0.002 A 
ATOM      3  C3  N4B d   1       2.244  -3.106  -0.321  0.00  0.00     0.002 A 
ATOM      4  C4  N4B d   1       2.395  -1.752  -0.579  0.00  0.00    -0.004 A 
ATOM      5  C5  N4B d   1       1.586  -1.137  -1.489  0.00  0.00     0.002 A 
ATOM      6  C6  N4B d   1       0.638  -1.851  -2.194  0.00  0.00     0.002 A 
ENDROOT
BRANCH   1   7
ATOM      7  C1' N4B d   1      -0.487  -3.957  -2.825  0.00  0.00     0.057 C 
BRANCH   7   8
ATOM      8  C2' N4B d   1      -1.602  -3.017  -3.275  0.00  0.00     0.009 C 
BRANCH   8   9
ATOM      9  C3' N4B d   1      -2.869  -3.773  -3.636  0.00  0.00     0.004 C 
ATOM     10  C4' N4B d   1      -3.604  -3.156  -4.788  0.00  0.00     0.003 C 
ENDBRANCH   8   9
ENDBRANCH   7   8
ENDBRANCH   1   7
TORSDOF 3
ENDMDL
