MODEL 1
REMARK minimizedAffinity 3.31120729
REMARK minimizedRMSD -1
REMARK  3 active torsions:
REMARK  status: ('A' for Active; 'I' for Inactive)
REMARK    1  A    between atoms: C3'_2  and  C2'_3 
REMARK    2  A    between atoms: C2'_3  and  C1'_4 
REMARK    3  A    between atoms: C1'_4  and  C1_5 
ROOT
ATOM      1  C1  N4B d   1      -3.389  -4.599  -4.279  0.00  0.00    -0.075 A 
ATOM      2  C2  N4B d   1      -4.448  -5.534  -4.282  0.00  0.00     0.002 A 
ATOM      3  C3  N4B d   1      -5.510  -5.365  -5.136  0.00  0.00     0.002 A 
ATOM      4  C4  N4B d   1      -5.545  -4.263  -5.978  0.00  0.00    -0.004 A 
ATOM      5  C5  N4B d   1      -4.506  -3.379  -5.987  0.00  0.00     0.002 A 
ATOM      6  C6  N4B d   1      -3.430  -3.539  -5.138  0.00  0.00     0.002 A 
ENDROOT
BRANCH   1   7
ATOM      7  C1' N4B d   1      -2.248  -4.695  -3.304  0.00  0.00     0.057 C 
BRANCH   7   8
ATOM      8  C2' N4B d   1      -0.988  -4.126  -3.950  0.00  0.00     0.009 C 
BRANCH   8   9
ATOM      9  C3' N4B d   1       0.242  -4.347  -3.086  0.00  0.00     0.004 C 
ATOM     10  C4' N4B d   1       0.438  -3.265  -2.067  0.00  0.00     0.003 C 
ENDBRANCH   8   9
ENDBRANCH   7   8
ENDBRANCH   1   7
TORSDOF 3
ENDMDL
