MODEL 1
REMARK minimizedAffinity 18.1741886
REMARK minimizedRMSD -1
REMARK  3 active torsions:
REMARK  status: ('A' for Active; 'I' for Inactive)
REMARK    1  A    between atoms: C3'_2  and  C2'_3 
REMARK    2  A    between atoms: C2'_3  and  C1'_4 
REMARK    3  A    between atoms: C1'_4  and  C1_5 
ROOT
ATOM      1  C1  N4B d   1       2.586  -0.813  -0.887  0.00  0.00    -0.075 A 
ATOM      2  C2  N4B d   1       2.296   0.236  -1.786  0.00  0.00     0.002 A 
ATOM      3  C3  N4B d   1       2.924   1.450  -1.650  0.00  0.00     0.002 A 
ATOM      4  C4  N4B d   1       3.828   1.643  -0.616  0.00  0.00    -0.004 A 
ATOM      5  C5  N4B d   1       4.122   0.616   0.232  0.00  0.00     0.002 A 
ATOM      6  C6  N4B d   1       3.501  -0.611   0.105  0.00  0.00     0.002 A 
ENDROOT
BRANCH   1   7
ATOM      7  C1' N4B d   1       1.861  -2.130  -0.943  0.00  0.00     0.057 C 
BRANCH   7   8
ATOM      8  C2' N4B d   1       0.664  -2.003  -1.880  0.00  0.00     0.009 C 
BRANCH   8   9
ATOM      9  C3' N4B d   1       0.250  -3.346  -2.458  0.00  0.00     0.004 C 
ATOM     10  C4' N4B d   1      -1.230  -3.451  -2.680  0.00  0.00     0.003 C 
ENDBRANCH   8   9
ENDBRANCH   7   8
ENDBRANCH   1   7
TORSDOF 3
ENDMDL
