MODEL 1
REMARK minimizedAffinity 20.5583878
REMARK minimizedRMSD -1
REMARK  3 active torsions:
REMARK  status: ('A' for Active; 'I' for Inactive)
REMARK    1  A    between atoms: C3'_2  and  C2'_3 
REMARK    2  A    between atoms: C2'_3  and  C1'_4 
REMARK    3  A    between atoms: C1'_4  and  C1_5 
ROOT
ATOM      1  C1  N4B d   1      -2.511  -3.711  -3.828  0.00  0.00    -0.075 A 
ATOM      2  C2  N4B d   1      -3.034  -4.780  -3.067  0.00  0.00     0.002 A 
ATOM      3  C3  N4B d   1      -2.193  -5.558  -2.309  0.00  0.00     0.002 A 
ATOM      4  C4  N4B d   1      -0.831  -5.299  -2.310  0.00  0.00    -0.004 A 
ATOM      5  C5  N4B d   1      -0.338  -4.248  -3.028  0.00  0.00     0.002 A 
ATOM      6  C6  N4B d   1      -1.171  -3.456  -3.791  0.00  0.00     0.002 A 
ENDROOT
BRANCH   1   7
ATOM      7  C1' N4B d   1      -3.379  -2.887  -4.739  0.00  0.00     0.057 C 
BRANCH   7   8
ATOM      8  C2' N4B d   1      -3.885  -3.766  -5.879  0.00  0.00     0.009 C 
BRANCH   8   9
ATOM      9  C3' N4B d   1      -5.399  -3.739  -5.989  0.00  0.00     0.004 C 
ATOM     10  C4' N4B d   1      -5.997  -2.470  -5.459  0.00  0.00     0.003 C 
ENDBRANCH   8   9
ENDBRANCH   7   8
ENDBRANCH   1   7
TORSDOF 3
ENDMDL
