MODEL 1
REMARK minimizedAffinity 12.8979645
REMARK minimizedRMSD -1
REMARK  3 active torsions:
REMARK  status: ('A' for Active; 'I' for Inactive)
REMARK    1  A    between atoms: C3'_2  and  C2'_3 
REMARK    2  A    between atoms: C2'_3  and  C1'_4 
REMARK    3  A    between atoms: C1'_4  and  C1_5 
ROOT
ATOM      1  C1  N4B d   1      -2.283  -0.284   2.663  0.00  0.00    -0.075 A 
ATOM      2  C2  N4B d   1      -1.025  -0.857   2.956  0.00  0.00     0.002 A 
ATOM      3  C3  N4B d   1       0.099  -0.070   2.980  0.00  0.00     0.002 A 
ATOM      4  C4  N4B d   1      -0.005   1.284   2.698  0.00  0.00    -0.004 A 
ATOM      5  C5  N4B d   1      -1.227   1.835   2.441  0.00  0.00     0.002 A 
ATOM      6  C6  N4B d   1      -2.366   1.055   2.417  0.00  0.00     0.002 A 
ENDROOT
BRANCH   1   7
ATOM      7  C1' N4B d   1      -3.527  -1.120   2.541  0.00  0.00     0.057 C 
BRANCH   7   8
ATOM      8  C2' N4B d   1      -4.435  -0.514   1.475  0.00  0.00     0.009 C 
BRANCH   8   9
ATOM      9  C3' N4B d   1      -5.541  -1.469   1.060  0.00  0.00     0.004 C 
ATOM     10  C4' N4B d   1      -5.996  -2.353   2.182  0.00  0.00     0.003 C 
ENDBRANCH   8   9
ENDBRANCH   7   8
ENDBRANCH   1   7
TORSDOF 3
ENDMDL
