MODEL 1
REMARK minimizedAffinity 3.52245879
REMARK minimizedRMSD -1
REMARK  3 active torsions:
REMARK  status: ('A' for Active; 'I' for Inactive)
REMARK    1  A    between atoms: C3'_2  and  C2'_3 
REMARK    2  A    between atoms: C2'_3  and  C1'_4 
REMARK    3  A    between atoms: C1'_4  and  C1_5 
ROOT
ATOM      1  C1  N4B d   1      -3.717  -4.051  -4.909  0.00  0.00    -0.075 A 
ATOM      2  C2  N4B d   1      -3.692  -5.380  -5.388  0.00  0.00     0.002 A 
ATOM      3  C3  N4B d   1      -4.823  -5.933  -5.936  0.00  0.00     0.002 A 
ATOM      4  C4  N4B d   1      -5.990  -5.188  -5.999  0.00  0.00    -0.004 A 
ATOM      5  C5  N4B d   1      -6.000  -3.897  -5.558  0.00  0.00     0.002 A 
ATOM      6  C6  N4B d   1      -4.870  -3.326  -5.008  0.00  0.00     0.002 A 
ENDROOT
BRANCH   1   7
ATOM      7  C1' N4B d   1      -2.531  -3.431  -4.223  0.00  0.00     0.057 C 
BRANCH   7   8
ATOM      8  C2' N4B d   1      -1.251  -4.045  -4.784  0.00  0.00     0.009 C 
BRANCH   8   9
ATOM      9  C3' N4B d   1      -0.441  -4.751  -3.710  0.00  0.00     0.004 C 
ATOM     10  C4' N4B d   1      -1.287  -5.243  -2.574  0.00  0.00     0.003 C 
ENDBRANCH   8   9
ENDBRANCH   7   8
ENDBRANCH   1   7
TORSDOF 3
ENDMDL
