MODEL 1
REMARK minimizedAffinity 9.49647045
REMARK minimizedRMSD -1
REMARK  3 active torsions:
REMARK  status: ('A' for Active; 'I' for Inactive)
REMARK    1  A    between atoms: C3'_2  and  C2'_3 
REMARK    2  A    between atoms: C2'_3  and  C1'_4 
REMARK    3  A    between atoms: C1'_4  and  C1_5 
ROOT
ATOM      1  C1  N4B d   1      -3.434  -4.273  -3.511  0.00  0.00    -0.075 A 
ATOM      2  C2  N4B d   1      -2.065  -4.111  -3.202  0.00  0.00     0.002 A 
ATOM      3  C3  N4B d   1      -1.482  -4.893  -2.236  0.00  0.00     0.002 A 
ATOM      4  C4  N4B d   1      -2.248  -5.827  -1.555  0.00  0.00    -0.004 A 
ATOM      5  C5  N4B d   1      -3.563  -5.995  -1.877  0.00  0.00     0.002 A 
ATOM      6  C6  N4B d   1      -4.162  -5.219  -2.848  0.00  0.00     0.002 A 
ENDROOT
BRANCH   1   7
ATOM      7  C1' N4B d   1      -4.136  -3.382  -4.499  0.00  0.00     0.057 C 
BRANCH   7   8
ATOM      8  C2' N4B d   1      -5.605  -3.785  -4.581  0.00  0.00     0.009 C 
BRANCH   8   9
ATOM      9  C3' N4B d   1      -5.970  -4.327  -5.952  0.00  0.00     0.004 C 
ATOM     10  C4' N4B d   1      -5.982  -5.826  -6.000  0.00  0.00     0.003 C 
ENDBRANCH   8   9
ENDBRANCH   7   8
ENDBRANCH   1   7
TORSDOF 3
ENDMDL
