MODEL 1
REMARK minimizedAffinity 12.5615492
REMARK minimizedRMSD -1
REMARK  3 active torsions:
REMARK  status: ('A' for Active; 'I' for Inactive)
REMARK    1  A    between atoms: C3'_2  and  C2'_3 
REMARK    2  A    between atoms: C2'_3  and  C1'_4 
REMARK    3  A    between atoms: C1'_4  and  C1_5 
ROOT
ATOM      1  C1  N4B d   1      -2.044   0.696   2.895  0.00  0.00    -0.075 A 
ATOM      2  C2  N4B d   1      -1.320  -0.493   3.133  0.00  0.00     0.002 A 
ATOM      3  C3  N4B d   1       0.053  -0.470   3.147  0.00  0.00     0.002 A 
ATOM      4  C4  N4B d   1       0.722   0.721   2.908  0.00  0.00    -0.004 A 
ATOM      5  C5  N4B d   1       0.015   1.870   2.704  0.00  0.00     0.002 A 
ATOM      6  C6  N4B d   1      -1.365   1.863   2.691  0.00  0.00     0.002 A 
ENDROOT
BRANCH   1   7
ATOM      7  C1' N4B d   1      -3.544   0.705   2.786  0.00  0.00     0.057 C 
BRANCH   7   8
ATOM      8  C2' N4B d   1      -3.985  -0.433   1.870  0.00  0.00     0.009 C 
BRANCH   8   9
ATOM      9  C3' N4B d   1      -4.836  -1.456   2.603  0.00  0.00     0.004 C 
ATOM     10  C4' N4B d   1      -6.000  -1.935   1.788  0.00  0.00     0.003 C 
ENDBRANCH   8   9
ENDBRANCH   7   8
ENDBRANCH   1   7
TORSDOF 3
ENDMDL
