MODEL 1
REMARK minimizedAffinity 1.41529942
REMARK minimizedRMSD -1
REMARK  3 active torsions:
REMARK  status: ('A' for Active; 'I' for Inactive)
REMARK    1  A    between atoms: C3'_2  and  C2'_3 
REMARK    2  A    between atoms: C2'_3  and  C1'_4 
REMARK    3  A    between atoms: C1'_4  and  C1_5 
ROOT
ATOM      1  C1  N4B d   1      -3.647  -4.484  -4.422  0.00  0.00    -0.075 A 
ATOM      2  C2  N4B d   1      -4.088  -5.586  -5.187  0.00  0.00     0.002 A 
ATOM      3  C3  N4B d   1      -5.251  -5.498  -5.912  0.00  0.00     0.002 A 
ATOM      4  C4  N4B d   1      -5.997  -4.330  -5.872  0.00  0.00    -0.004 A 
ATOM      5  C5  N4B d   1      -5.552  -3.261  -5.150  0.00  0.00     0.002 A 
ATOM      6  C6  N4B d   1      -4.382  -3.334  -4.420  0.00  0.00     0.002 A 
ENDROOT
BRANCH   1   7
ATOM      7  C1' N4B d   1      -2.428  -4.563  -3.545  0.00  0.00     0.057 C 
BRANCH   7   8
ATOM      8  C2' N4B d   1      -1.204  -4.135  -4.350  0.00  0.00     0.009 C 
BRANCH   8   9
ATOM      9  C3' N4B d   1       0.071  -4.210  -3.528  0.00  0.00     0.004 C 
ATOM     10  C4' N4B d   1       0.345  -5.588  -3.004  0.00  0.00     0.003 C 
ENDBRANCH   8   9
ENDBRANCH   7   8
ENDBRANCH   1   7
TORSDOF 3
ENDMDL
