MODEL 1
REMARK minimizedAffinity 4.36308861
REMARK minimizedRMSD -1
REMARK  3 active torsions:
REMARK  status: ('A' for Active; 'I' for Inactive)
REMARK    1  A    between atoms: C3'_2  and  C2'_3 
REMARK    2  A    between atoms: C2'_3  and  C1'_4 
REMARK    3  A    between atoms: C1'_4  and  C1_5 
ROOT
ATOM      1  C1  N4B d   1      -2.497  -3.931  -4.291  0.00  0.00    -0.075 A 
ATOM      2  C2  N4B d   1      -1.097  -3.749  -4.288  0.00  0.00     0.002 A 
ATOM      3  C3  N4B d   1      -0.319  -4.421  -3.377  0.00  0.00     0.002 A 
ATOM      4  C4  N4B d   1      -0.919  -5.262  -2.451  0.00  0.00    -0.004 A 
ATOM      5  C5  N4B d   1      -2.270  -5.452  -2.478  0.00  0.00     0.002 A 
ATOM      6  C6  N4B d   1      -3.063  -4.786  -3.390  0.00  0.00     0.002 A 
ENDROOT
BRANCH   1   7
ATOM      7  C1' N4B d   1      -3.397  -3.153  -5.211  0.00  0.00     0.057 C 
BRANCH   7   8
ATOM      8  C2' N4B d   1      -4.852  -3.440  -4.851  0.00  0.00     0.009 C 
BRANCH   8   9
ATOM      9  C3' N4B d   1      -5.605  -4.087  -6.000  0.00  0.00     0.004 C 
ATOM     10  C4' N4B d   1      -5.493  -5.582  -5.999  0.00  0.00     0.003 C 
ENDBRANCH   8   9
ENDBRANCH   7   8
ENDBRANCH   1   7
TORSDOF 3
ENDMDL
