MODEL 1
REMARK minimizedAffinity 5.75831747
REMARK minimizedRMSD -1
REMARK  3 active torsions:
REMARK  status: ('A' for Active; 'I' for Inactive)
REMARK    1  A    between atoms: C3'_2  and  C2'_3 
REMARK    2  A    between atoms: C2'_3  and  C1'_4 
REMARK    3  A    between atoms: C1'_4  and  C1_5 
ROOT
ATOM      1  C1  N4B d   1      -3.475  -3.629  -3.776  0.00  0.00    -0.075 A 
ATOM      2  C2  N4B d   1      -3.577  -4.854  -3.080  0.00  0.00     0.002 A 
ATOM      3  C3  N4B d   1      -2.458  -5.420  -2.520  0.00  0.00     0.002 A 
ATOM      4  C4  N4B d   1      -1.230  -4.793  -2.658  0.00  0.00    -0.004 A 
ATOM      5  C5  N4B d   1      -1.144  -3.597  -3.310  0.00  0.00     0.002 A 
ATOM      6  C6  N4B d   1      -2.261  -3.014  -3.874  0.00  0.00     0.002 A 
ENDROOT
BRANCH   1   7
ATOM      7  C1' N4B d   1      -4.655  -3.015  -4.479  0.00  0.00     0.057 C 
BRANCH   7   8
ATOM      8  C2' N4B d   1      -4.770  -3.611  -5.879  0.00  0.00     0.009 C 
BRANCH   8   9
ATOM      9  C3' N4B d   1      -5.953  -4.556  -6.000  0.00  0.00     0.004 C 
ATOM     10  C4' N4B d   1      -5.545  -5.999  -5.999  0.00  0.00     0.003 C 
ENDBRANCH   8   9
ENDBRANCH   7   8
ENDBRANCH   1   7
TORSDOF 3
ENDMDL
