MODEL 1
REMARK minimizedAffinity 0.30921784
REMARK minimizedRMSD -1
REMARK  3 active torsions:
REMARK  status: ('A' for Active; 'I' for Inactive)
REMARK    1  A    between atoms: C3'_2  and  C2'_3 
REMARK    2  A    between atoms: C2'_3  and  C1'_4 
REMARK    3  A    between atoms: C1'_4  and  C1_5 
ROOT
ATOM      1  C1  N4B d   1       1.748  -4.015  -2.436  0.00  0.00    -0.075 A 
ATOM      2  C2  N4B d   1       1.390  -2.809  -1.795  0.00  0.00     0.002 A 
ATOM      3  C3  N4B d   1       2.242  -2.236  -0.883  0.00  0.00     0.002 A 
ATOM      4  C4  N4B d   1       3.445  -2.859  -0.583  0.00  0.00    -0.004 A 
ATOM      5  C5  N4B d   1       3.795  -4.010  -1.226  0.00  0.00     0.002 A 
ATOM      6  C6  N4B d   1       2.950  -4.595  -2.147  0.00  0.00     0.002 A 
ENDROOT
BRANCH   1   7
ATOM      7  C1' N4B d   1       0.812  -4.724  -3.376  0.00  0.00     0.057 C 
BRANCH   7   8
ATOM      8  C2' N4B d   1      -0.616  -4.589  -2.856  0.00  0.00     0.009 C 
BRANCH   8   9
ATOM      9  C3' N4B d   1      -1.596  -4.253  -3.967  0.00  0.00     0.004 C 
ATOM     10  C4' N4B d   1      -3.026  -4.455  -3.562  0.00  0.00     0.003 C 
ENDBRANCH   8   9
ENDBRANCH   7   8
ENDBRANCH   1   7
TORSDOF 3
ENDMDL
