MODEL 1
REMARK minimizedAffinity -3.46528792
REMARK minimizedRMSD -1
REMARK  2 active torsions:
REMARK  status: ('A' for Active; 'I' for Inactive)
REMARK    1  A    between atoms: C2'_3  and  C1'_4 
REMARK    2  A    between atoms: C1'_4  and  C1_5 
ROOT
ATOM      1  C1  I4B d   1       0.742  -1.168   0.151  0.00  0.00    -0.075 A 
ATOM      2  C2  I4B d   1       1.724  -1.683  -0.657  0.00  0.00     0.003 A 
ATOM      3  C3  I4B d   1       2.989  -2.019  -0.116  0.00  0.00     0.002 A 
ATOM      4  C4  I4B d   1       3.244  -1.776   1.218  0.00  0.00    -0.004 A 
ATOM      5  C5  I4B d   1       2.239  -1.275   2.041  0.00  0.00     0.002 A 
ATOM      6  C6  I4B d   1       0.976  -0.980   1.507  0.00  0.00     0.003 A 
ENDROOT
BRANCH   1   7
ATOM      7  C1' I4B d   1      -0.571  -0.794  -0.460  0.00  0.00     0.060 C 
BRANCH   7   8
ATOM      8  C2' I4B d   1      -0.797   0.684  -0.214  0.00  0.00    -0.013 C 
ATOM      9  C4' I4B d   1      -1.669   0.908   0.993  0.00  0.00     0.013 C 
ATOM     10  C3' I4B d   1       0.543   1.335  -0.042  0.00  0.00     0.013 C 
ENDBRANCH   7   8
ENDBRANCH   1   7
TORSDOF 2
ENDMDL
