MODEL 1
REMARK minimizedAffinity -2.24008703
REMARK minimizedRMSD -1
REMARK  2 active torsions:
REMARK  status: ('A' for Active; 'I' for Inactive)
REMARK    1  A    between atoms: C2'_3  and  C1'_4 
REMARK    2  A    between atoms: C1'_4  and  C1_5 
ROOT
ATOM      1  C1  I4B d   1       0.208  -0.035   0.045  0.00  0.00    -0.075 A 
ATOM      2  C2  I4B d   1       1.118   0.668   0.795  0.00  0.00     0.003 A 
ATOM      3  C3  I4B d   1       1.284   2.059   0.594  0.00  0.00     0.002 A 
ATOM      4  C4  I4B d   1       0.561   2.695  -0.395  0.00  0.00    -0.004 A 
ATOM      5  C5  I4B d   1      -0.378   1.985  -1.139  0.00  0.00     0.002 A 
ATOM      6  C6  I4B d   1      -0.565   0.614  -0.909  0.00  0.00     0.003 A 
ENDROOT
BRANCH   1   7
ATOM      7  C1' I4B d   1       0.081  -1.510   0.260  0.00  0.00     0.060 C 
BRANCH   7   8
ATOM      8  C2' I4B d   1       0.702  -2.210  -0.931  0.00  0.00    -0.013 C 
ATOM      9  C4' I4B d   1       2.177  -2.437  -0.723  0.00  0.00     0.013 C 
ATOM     10  C3' I4B d   1      -0.022  -3.508  -1.134  0.00  0.00     0.013 C 
ENDBRANCH   7   8
ENDBRANCH   1   7
TORSDOF 2
ENDMDL
