MODEL 1
REMARK minimizedAffinity -4.42756081
REMARK minimizedRMSD -1
REMARK  2 active torsions:
REMARK  status: ('A' for Active; 'I' for Inactive)
REMARK    1  A    between atoms: C2'_3  and  C1'_4 
REMARK    2  A    between atoms: C1'_4  and  C1_5 
ROOT
ATOM      1  C1  I4B d   1       0.259   0.791   0.068  0.00  0.00    -0.075 A 
ATOM      2  C2  I4B d   1       0.279  -0.582   0.050  0.00  0.00     0.003 A 
ATOM      3  C3  I4B d   1       1.476  -1.281   0.337  0.00  0.00     0.002 A 
ATOM      4  C4  I4B d   1       2.634  -0.572   0.586  0.00  0.00    -0.004 A 
ATOM      5  C5  I4B d   1       2.607   0.819   0.626  0.00  0.00     0.002 A 
ATOM      6  C6  I4B d   1       1.409   1.505   0.378  0.00  0.00     0.003 A 
ENDROOT
BRANCH   1   7
ATOM      7  C1' I4B d   1      -1.015   1.497  -0.272  0.00  0.00     0.060 C 
BRANCH   7   8
ATOM      8  C2' I4B d   1      -2.149   0.778   0.428  0.00  0.00    -0.013 C 
ATOM      9  C4' I4B d   1      -2.681   1.589   1.581  0.00  0.00     0.013 C 
ATOM     10  C3' I4B d   1      -3.222   0.508  -0.584  0.00  0.00     0.013 C 
ENDBRANCH   7   8
ENDBRANCH   1   7
TORSDOF 2
ENDMDL
