MODEL 1
REMARK minimizedAffinity -4.86974907
REMARK minimizedRMSD -1
REMARK  2 active torsions:
REMARK  status: ('A' for Active; 'I' for Inactive)
REMARK    1  A    between atoms: C2'_3  and  C1'_4 
REMARK    2  A    between atoms: C1'_4  and  C1_5 
ROOT
ATOM      1  C1  I4B d   1      -0.146   0.388  -0.043  0.00  0.00    -0.075 A 
ATOM      2  C2  I4B d   1      -0.138  -0.860  -0.616  0.00  0.00     0.003 A 
ATOM      3  C3  I4B d   1       0.896  -1.778  -0.312  0.00  0.00     0.002 A 
ATOM      4  C4  I4B d   1       1.923  -1.392   0.525  0.00  0.00    -0.004 A 
ATOM      5  C5  I4B d   1       1.901  -0.135   1.123  0.00  0.00     0.002 A 
ATOM      6  C6  I4B d   1       0.854   0.756   0.848  0.00  0.00     0.003 A 
ENDROOT
BRANCH   1   7
ATOM      7  C1' I4B d   1      -1.235   1.344  -0.412  0.00  0.00     0.060 C 
BRANCH   7   8
ATOM      8  C2' I4B d   1      -2.467   0.982   0.394  0.00  0.00    -0.013 C 
ATOM      9  C4' I4B d   1      -2.812   2.067   1.379  0.00  0.00     0.013 C 
ATOM     10  C3' I4B d   1      -3.594   0.743  -0.566  0.00  0.00     0.013 C 
ENDBRANCH   7   8
ENDBRANCH   1   7
TORSDOF 2
ENDMDL
