MODEL 1
REMARK minimizedAffinity -1.66668308
REMARK minimizedRMSD -1
REMARK  2 active torsions:
REMARK  status: ('A' for Active; 'I' for Inactive)
REMARK    1  A    between atoms: C2'_3  and  C1'_4 
REMARK    2  A    between atoms: C1'_4  and  C1_5 
ROOT
ATOM      1  C1  I4B d   1       0.235  -0.298   0.605  0.00  0.00    -0.075 A 
ATOM      2  C2  I4B d   1       0.698  -0.911  -0.533  0.00  0.00     0.003 A 
ATOM      3  C3  I4B d   1       1.970  -1.532  -0.540  0.00  0.00     0.002 A 
ATOM      4  C4  I4B d   1       2.762  -1.474   0.588  0.00  0.00    -0.004 A 
ATOM      5  C5  I4B d   1       2.282  -0.872   1.748  0.00  0.00     0.002 A 
ATOM      6  C6  I4B d   1       1.005  -0.291   1.761  0.00  0.00     0.003 A 
ENDROOT
BRANCH   1   7
ATOM      7  C1' I4B d   1      -1.099   0.377   0.568  0.00  0.00     0.060 C 
BRANCH   7   8
ATOM      8  C2' I4B d   1      -1.781   0.136   1.899  0.00  0.00    -0.013 C 
ATOM      9  C4' I4B d   1      -3.085   0.884   1.987  0.00  0.00     0.013 C 
ATOM     10  C3' I4B d   1      -1.993  -1.341   2.049  0.00  0.00     0.013 C 
ENDBRANCH   7   8
ENDBRANCH   1   7
TORSDOF 2
ENDMDL
