MODEL 1
REMARK minimizedAffinity -4.75498629
REMARK minimizedRMSD -1
REMARK  2 active torsions:
REMARK  status: ('A' for Active; 'I' for Inactive)
REMARK    1  A    between atoms: C2'_3  and  C1'_4 
REMARK    2  A    between atoms: C1'_4  and  C1_5 
ROOT
ATOM      1  C1  I4B d   1      -0.847   0.351  -0.165  0.00  0.00    -0.075 A 
ATOM      2  C2  I4B d   1       0.112   1.244   0.242  0.00  0.00     0.003 A 
ATOM      3  C3  I4B d   1       1.450   0.818   0.427  0.00  0.00     0.002 A 
ATOM      4  C4  I4B d   1       1.771  -0.512   0.244  0.00  0.00    -0.004 A 
ATOM      5  C5  I4B d   1       0.802  -1.411  -0.190  0.00  0.00     0.002 A 
ATOM      6  C6  I4B d   1      -0.513  -0.975  -0.408  0.00  0.00     0.003 A 
ENDROOT
BRANCH   1   7
ATOM      7  C1' I4B d   1      -2.257   0.828  -0.318  0.00  0.00     0.060 C 
BRANCH   7   8
ATOM      8  C2' I4B d   1      -2.982   0.570   0.987  0.00  0.00    -0.013 C 
ATOM      9  C4' I4B d   1      -3.373   1.861   1.658  0.00  0.00     0.013 C 
ATOM     10  C3' I4B d   1      -4.186  -0.272   0.690  0.00  0.00     0.013 C 
ENDBRANCH   7   8
ENDBRANCH   1   7
TORSDOF 2
ENDMDL
