MODEL 1
REMARK minimizedAffinity -2.85181737
REMARK minimizedRMSD -1
REMARK  2 active torsions:
REMARK  status: ('A' for Active; 'I' for Inactive)
REMARK    1  A    between atoms: C2'_3  and  C1'_4 
REMARK    2  A    between atoms: C1'_4  and  C1_5 
ROOT
ATOM      1  C1  I4B d   1      -0.398   0.403  -0.132  0.00  0.00    -0.075 A 
ATOM      2  C2  I4B d   1       0.678   0.859   0.588  0.00  0.00     0.003 A 
ATOM      3  C3  I4B d   1       1.785   0.010   0.830  0.00  0.00     0.002 A 
ATOM      4  C4  I4B d   1       1.752  -1.294   0.381  0.00  0.00    -0.004 A 
ATOM      5  C5  I4B d   1       0.671  -1.748  -0.369  0.00  0.00     0.002 A 
ATOM      6  C6  I4B d   1      -0.406  -0.890  -0.638  0.00  0.00     0.003 A 
ENDROOT
BRANCH   1   7
ATOM      7  C1' I4B d   1      -1.564   1.316  -0.342  0.00  0.00     0.060 C 
BRANCH   7   8
ATOM      8  C2' I4B d   1      -2.721   0.793   0.485  0.00  0.00    -0.013 C 
ATOM      9  C4' I4B d   1      -3.072   1.746   1.596  0.00  0.00     0.013 C 
ATOM     10  C3' I4B d   1      -3.887   0.579  -0.434  0.00  0.00     0.013 C 
ENDBRANCH   7   8
ENDBRANCH   1   7
TORSDOF 2
ENDMDL
