MODEL 1
REMARK minimizedAffinity -3.04973006
REMARK minimizedRMSD -1
REMARK  2 active torsions:
REMARK  status: ('A' for Active; 'I' for Inactive)
REMARK    1  A    between atoms: C2'_3  and  C1'_4 
REMARK    2  A    between atoms: C1'_4  and  C1_5 
ROOT
ATOM      1  C1  I4B d   1      -0.770  -0.006  -0.103  0.00  0.00    -0.075 A 
ATOM      2  C2  I4B d   1       0.367   0.611   0.356  0.00  0.00     0.003 A 
ATOM      3  C3  I4B d   1       1.561  -0.130   0.525  0.00  0.00     0.002 A 
ATOM      4  C4  I4B d   1       1.561  -1.487   0.271  0.00  0.00    -0.004 A 
ATOM      5  C5  I4B d   1       0.413  -2.106  -0.216  0.00  0.00     0.002 A 
ATOM      6  C6  I4B d   1      -0.757  -1.359  -0.416  0.00  0.00     0.003 A 
ENDROOT
BRANCH   1   7
ATOM      7  C1' I4B d   1      -2.023   0.800  -0.237  0.00  0.00     0.060 C 
BRANCH   7   8
ATOM      8  C2' I4B d   1      -2.701   0.839   1.117  0.00  0.00    -0.013 C 
ATOM      9  C4' I4B d   1      -2.604   2.208   1.737  0.00  0.00     0.013 C 
ATOM     10  C3' I4B d   1      -4.132   0.429   0.931  0.00  0.00     0.013 C 
ENDBRANCH   7   8
ENDBRANCH   1   7
TORSDOF 2
ENDMDL
