MODEL 1
REMARK minimizedAffinity -5.58475876
REMARK minimizedRMSD -1
REMARK  1 active torsions:
REMARK  status: ('A' for Active; 'I' for Inactive)
REMARK    1  A    between atoms: C1_2  and  C2_3 
ROOT
ATOM      1  C2  UNL d   1      -0.611  -0.565   0.871  0.00  0.00    -0.081 A 
ATOM      2  C3  UNL d   1       0.224   0.317   0.174  0.00  0.00     0.006 A 
ATOM      3  C4  UNL d   1       1.612   0.170   0.226  0.00  0.00     0.002 A 
ATOM      4  C5  UNL d   1       2.188  -0.866   0.969  0.00  0.00    -0.080 A 
ATOM      5  C6  UNL d   1       3.675  -1.054   1.009  0.00  0.00     0.076 C 
ATOM      6  C7  UNL d   1       1.355  -1.738   1.679  0.00  0.00     0.002 A 
ATOM      7  C8  UNL d   1      -0.033  -1.590   1.628  0.00  0.00     0.006 A 
ENDROOT
BRANCH   1   8
ATOM      8  C1  UNL d   1      -2.110  -0.448   0.764  0.00  0.00     0.054 C 
ATOM      9  C   UNL d   1      -2.535  -0.048  -0.641  0.00  0.00     0.018 C 
ENDBRANCH   1   8
TORSDOF 1
ENDMDL
