MODEL 1
REMARK minimizedAffinity -6.08072948
REMARK minimizedRMSD -1
REMARK  1 active torsions:
REMARK  status: ('A' for Active; 'I' for Inactive)
REMARK    1  A    between atoms: C1_2  and  C2_3 
ROOT
ATOM      1  C2  UNL d   1       0.662   0.291  -0.550  0.00  0.00    -0.081 A 
ATOM      2  C3  UNL d   1       0.992  -0.131  -1.844  0.00  0.00     0.006 A 
ATOM      3  C4  UNL d   1      -0.012  -0.424  -2.770  0.00  0.00     0.002 A 
ATOM      4  C5  UNL d   1      -1.360  -0.295  -2.421  0.00  0.00    -0.080 A 
ATOM      5  C6  UNL d   1      -2.447  -0.578  -3.415  0.00  0.00     0.076 C 
ATOM      6  C7  UNL d   1      -1.690   0.109  -1.122  0.00  0.00     0.002 A 
ATOM      7  C8  UNL d   1      -0.687   0.403  -0.196  0.00  0.00     0.006 A 
ENDROOT
BRANCH   1   8
ATOM      8  C1  UNL d   1       1.742   0.670   0.431  0.00  0.00     0.054 C 
ATOM      9  C   UNL d   1       2.660  -0.507   0.726  0.00  0.00     0.018 C 
ENDBRANCH   1   8
TORSDOF 1
ENDMDL
