MODEL 1
REMARK minimizedAffinity 17.9374104
REMARK minimizedRMSD -1
REMARK  0 active torsions:
REMARK  status: ('A' for Active; 'I' for Inactive)
ROOT
ATOM      1  C   UNL d   1       5.931   0.027  -6.000  0.00  0.00     0.020 A 
ATOM      2  C1  UNL d   1       5.562  -1.317  -5.956  0.00  0.00     0.020 A 
ATOM      3  C2  UNL d   1       4.497  -1.722  -5.149  0.00  0.00     0.034 A 
ATOM      4  C3  UNL d   1       3.798  -0.783  -4.383  0.00  0.00     0.017 A 
ATOM      5  C4  UNL d   1       4.169   0.565  -4.427  0.00  0.00     0.017 A 
ATOM      6  C5  UNL d   1       5.236   0.966  -5.237  0.00  0.00     0.034 A 
ATOM      7 Cl   UNL d   1       3.353   1.782  -3.510  0.00  0.00    -0.070 Cl
ATOM      8 Cl1  UNL d   1       2.491  -1.356  -3.408  0.00  0.00    -0.070 Cl
ENDROOT
TORSDOF 0
ENDMDL
