MODEL 1
REMARK minimizedAffinity -0.65709579
REMARK minimizedRMSD -1
REMARK  0 active torsions:
REMARK  status: ('A' for Active; 'I' for Inactive)
ROOT
ATOM      1  C   UNL d   1      -5.593   3.267   1.798  0.00  0.00     0.020 A 
ATOM      2  C1  UNL d   1      -4.640   2.251   1.870  0.00  0.00     0.020 A 
ATOM      3  C2  UNL d   1      -4.091   1.725   0.699  0.00  0.00     0.034 A 
ATOM      4  C3  UNL d   1      -4.495   2.213  -0.549  0.00  0.00     0.017 A 
ATOM      5  C4  UNL d   1      -5.451   3.232  -0.620  0.00  0.00     0.017 A 
ATOM      6  C5  UNL d   1      -5.998   3.756   0.555  0.00  0.00     0.034 A 
ATOM      7 Cl   UNL d   1      -5.999   3.886  -2.124  0.00  0.00    -0.070 Cl
ATOM      8 Cl1  UNL d   1      -3.775   1.515  -1.956  0.00  0.00    -0.070 Cl
ENDROOT
TORSDOF 0
ENDMDL
