MODEL 1
REMARK minimizedAffinity 9.67451477
REMARK minimizedRMSD -1
REMARK  0 active torsions:
REMARK  status: ('A' for Active; 'I' for Inactive)
ROOT
ATOM      1  C   UNL d   1       0.980  -2.006   2.572  0.00  0.00     0.020 A 
ATOM      2  C1  UNL d   1       1.231  -0.829   1.868  0.00  0.00     0.020 A 
ATOM      3  C2  UNL d   1       1.400  -0.867   0.483  0.00  0.00     0.034 A 
ATOM      4  C3  UNL d   1       1.319  -2.084  -0.203  0.00  0.00     0.017 A 
ATOM      5  C4  UNL d   1       1.066  -3.265   0.504  0.00  0.00     0.017 A 
ATOM      6  C5  UNL d   1       0.897  -3.221   1.891  0.00  0.00     0.034 A 
ATOM      7 Cl   UNL d   1       0.951  -4.804  -0.273  0.00  0.00    -0.070 Cl
ATOM      8 Cl1  UNL d   1       1.538  -2.056  -1.917  0.00  0.00    -0.070 Cl
ENDROOT
TORSDOF 0
ENDMDL
