MODEL 1
REMARK minimizedAffinity -1.72587717
REMARK minimizedRMSD -1
REMARK  0 active torsions:
REMARK  status: ('A' for Active; 'I' for Inactive)
ROOT
ATOM      1  C   UNL d   1      -5.258  -4.146  -1.753  0.00  0.00     0.020 A 
ATOM      2  C1  UNL d   1      -4.780  -5.446  -1.911  0.00  0.00     0.020 A 
ATOM      3  C2  UNL d   1      -4.671  -6.000  -3.189  0.00  0.00     0.034 A 
ATOM      4  C3  UNL d   1      -5.042  -5.253  -4.313  0.00  0.00     0.017 A 
ATOM      5  C4  UNL d   1      -5.522  -3.948  -4.153  0.00  0.00     0.017 A 
ATOM      6  C5  UNL d   1      -5.628  -3.399  -2.871  0.00  0.00     0.034 A 
ATOM      7 Cl   UNL d   1      -5.998  -2.965  -5.492  0.00  0.00    -0.070 Cl
ATOM      8 Cl1  UNL d   1      -4.881  -6.000  -5.862  0.00  0.00    -0.070 Cl
ENDROOT
TORSDOF 0
ENDMDL
