MODEL 1
REMARK minimizedAffinity 8.4209671
REMARK minimizedRMSD -1
REMARK  0 active torsions:
REMARK  status: ('A' for Active; 'I' for Inactive)
ROOT
ATOM      1  C   UNL d   1       0.926  -1.446   4.376  0.00  0.00     0.020 A 
ATOM      2  C1  UNL d   1       0.617  -0.521   3.380  0.00  0.00     0.020 A 
ATOM      3  C2  UNL d   1       0.811  -0.850   2.037  0.00  0.00     0.034 A 
ATOM      4  C3  UNL d   1       1.314  -2.108   1.686  0.00  0.00     0.017 A 
ATOM      5  C4  UNL d   1       1.623  -3.037   2.687  0.00  0.00     0.017 A 
ATOM      6  C5  UNL d   1       1.428  -2.701   4.030  0.00  0.00     0.034 A 
ATOM      7 Cl   UNL d   1       2.248  -4.608   2.331  0.00  0.00    -0.070 Cl
ATOM      8 Cl1  UNL d   1       1.528  -2.448   0.005  0.00  0.00    -0.070 Cl
ENDROOT
TORSDOF 0
ENDMDL
