MODEL 1
REMARK minimizedAffinity 6.54857349
REMARK minimizedRMSD -1
REMARK  0 active torsions:
REMARK  status: ('A' for Active; 'I' for Inactive)
ROOT
ATOM      1  C   UNL d   1       1.153  -1.498   3.291  0.00  0.00     0.020 A 
ATOM      2  C1  UNL d   1       0.555  -2.461   2.479  0.00  0.00     0.020 A 
ATOM      3  C2  UNL d   1       1.304  -3.544   2.014  0.00  0.00     0.034 A 
ATOM      4  C3  UNL d   1       2.654  -3.667   2.360  0.00  0.00     0.017 A 
ATOM      5  C4  UNL d   1       3.253  -2.700   3.175  0.00  0.00     0.017 A 
ATOM      6  C5  UNL d   1       2.499  -1.617   3.638  0.00  0.00     0.034 A 
ATOM      7 Cl   UNL d   1       4.915  -2.783   3.644  0.00  0.00    -0.070 Cl
ATOM      8 Cl1  UNL d   1       3.519  -5.032   1.749  0.00  0.00    -0.070 Cl
ENDROOT
TORSDOF 0
ENDMDL
