MODEL 1
REMARK minimizedAffinity 2.84459519
REMARK minimizedRMSD -1
REMARK  0 active torsions:
REMARK  status: ('A' for Active; 'I' for Inactive)
ROOT
ATOM      1  C   UNL d   1       1.253  -1.516   4.213  0.00  0.00     0.020 A 
ATOM      2  C1  UNL d   1       1.403  -1.334   2.839  0.00  0.00     0.020 A 
ATOM      3  C2  UNL d   1       2.653  -1.516   2.243  0.00  0.00     0.034 A 
ATOM      4  C3  UNL d   1       3.757  -1.882   3.022  0.00  0.00     0.017 A 
ATOM      5  C4  UNL d   1       3.605  -2.065   4.401  0.00  0.00     0.017 A 
ATOM      6  C5  UNL d   1       2.352  -1.881   4.992  0.00  0.00     0.034 A 
ATOM      7 Cl   UNL d   1       4.921  -2.516   5.426  0.00  0.00    -0.070 Cl
ATOM      8 Cl1  UNL d   1       5.273  -2.091   2.218  0.00  0.00    -0.070 Cl
ENDROOT
TORSDOF 0
ENDMDL
