MODEL 1
REMARK minimizedAffinity 2.007236
REMARK minimizedRMSD -1
REMARK  0 active torsions:
REMARK  status: ('A' for Active; 'I' for Inactive)
ROOT
ATOM      1  C   UNL d   1       0.670  -2.043   3.020  0.00  0.00     0.020 A 
ATOM      2  C1  UNL d   1       1.686  -1.522   2.220  0.00  0.00     0.020 A 
ATOM      3  C2  UNL d   1       2.942  -2.131   2.200  0.00  0.00     0.034 A 
ATOM      4  C3  UNL d   1       3.186  -3.267   2.982  0.00  0.00     0.017 A 
ATOM      5  C4  UNL d   1       2.166  -3.790   3.784  0.00  0.00     0.017 A 
ATOM      6  C5  UNL d   1       0.910  -3.175   3.800  0.00  0.00     0.034 A 
ATOM      7 Cl   UNL d   1       2.391  -5.187   4.776  0.00  0.00    -0.070 Cl
ATOM      8 Cl1  UNL d   1       4.763  -3.970   2.908  0.00  0.00    -0.070 Cl
ENDROOT
TORSDOF 0
ENDMDL
