MODEL 1
REMARK minimizedAffinity 9.06832504
REMARK minimizedRMSD -1
REMARK  0 active torsions:
REMARK  status: ('A' for Active; 'I' for Inactive)
ROOT
ATOM      1  C   UNL d   1      -5.969  -5.985  -5.058  0.00  0.00     0.020 A 
ATOM      2  C1  UNL d   1      -5.994  -4.954  -5.997  0.00  0.00     0.020 A 
ATOM      3  C2  UNL d   1      -5.480  -3.698  -5.668  0.00  0.00     0.034 A 
ATOM      4  C3  UNL d   1      -4.939  -3.469  -4.398  0.00  0.00     0.017 A 
ATOM      5  C4  UNL d   1      -4.915  -4.504  -3.456  0.00  0.00     0.017 A 
ATOM      6  C5  UNL d   1      -5.431  -5.760  -3.790  0.00  0.00     0.034 A 
ATOM      7 Cl   UNL d   1      -4.265  -4.297  -1.868  0.00  0.00    -0.070 Cl
ATOM      8 Cl1  UNL d   1      -4.321  -1.891  -4.060  0.00  0.00    -0.070 Cl
ENDROOT
TORSDOF 0
ENDMDL
