MODEL 1
REMARK minimizedAffinity -1.09043014
REMARK minimizedRMSD -1
REMARK  0 active torsions:
REMARK  status: ('A' for Active; 'I' for Inactive)
ROOT
ATOM      1  C   UNL d   1      -5.510  -4.805  -5.983  0.00  0.00     0.020 A 
ATOM      2  C1  UNL d   1      -5.518  -6.000  -5.264  0.00  0.00     0.020 A 
ATOM      3  C2  UNL d   1      -5.196  -5.999  -3.905  0.00  0.00     0.034 A 
ATOM      4  C3  UNL d   1      -4.865  -4.802  -3.261  0.00  0.00     0.017 A 
ATOM      5  C4  UNL d   1      -4.856  -3.603  -3.983  0.00  0.00     0.017 A 
ATOM      6  C5  UNL d   1      -5.179  -3.610  -5.344  0.00  0.00     0.034 A 
ATOM      7 Cl   UNL d   1      -4.458  -2.086  -3.258  0.00  0.00    -0.070 Cl
ATOM      8 Cl1  UNL d   1      -4.478  -4.875  -1.578  0.00  0.00    -0.070 Cl
ENDROOT
TORSDOF 0
ENDMDL
