MODEL 1
REMARK minimizedAffinity 5.79226637
REMARK minimizedRMSD -1
REMARK  0 active torsions:
REMARK  status: ('A' for Active; 'I' for Inactive)
ROOT
ATOM      1  C   UNL d   1       1.531  -1.531   1.902  0.00  0.00     0.020 A 
ATOM      2  C1  UNL d   1       0.693  -1.998   2.914  0.00  0.00     0.020 A 
ATOM      3  C2  UNL d   1       1.217  -2.769   3.954  0.00  0.00     0.034 A 
ATOM      4  C3  UNL d   1       2.583  -3.074   3.985  0.00  0.00     0.017 A 
ATOM      5  C4  UNL d   1       3.423  -2.605   2.969  0.00  0.00     0.017 A 
ATOM      6  C5  UNL d   1       2.893  -1.834   1.930  0.00  0.00     0.034 A 
ATOM      7 Cl   UNL d   1       5.118  -2.941   2.939  0.00  0.00    -0.070 Cl
ATOM      8 Cl1  UNL d   1       3.162  -4.032   5.302  0.00  0.00    -0.070 Cl
ENDROOT
TORSDOF 0
ENDMDL
