MODEL 1
REMARK minimizedAffinity -1.0435313
REMARK minimizedRMSD -1
REMARK  2 active torsions:
REMARK  status: ('A' for Active; 'I' for Inactive)
REMARK    1  A    between atoms: C1_2  and  C2_3 
REMARK    2  A    between atoms: C2_3  and  C3_4 
ROOT
ATOM      1  C3  UNL d   1       1.068   2.382  -1.112  0.00  0.00    -0.075 A 
ATOM      2  C4  UNL d   1       1.156   2.120   0.263  0.00  0.00     0.002 A 
ATOM      3  C5  UNL d   1       1.030   0.817   0.745  0.00  0.00     0.002 A 
ATOM      4  C6  UNL d   1       0.806  -0.237  -0.137  0.00  0.00    -0.004 A 
ATOM      5  C7  UNL d   1       0.700   0.013  -1.503  0.00  0.00     0.002 A 
ATOM      6  C8  UNL d   1       0.829   1.316  -1.990  0.00  0.00     0.002 A 
ENDROOT
BRANCH   1   7
ATOM      7  C2  UNL d   1       1.232   3.786  -1.643  0.00  0.00     0.056 C 
BRANCH   7   8
ATOM      8  C1  UNL d   1       1.598   4.819  -0.573  0.00  0.00     0.007 C 
ATOM      9  C   UNL d   1       2.387   6.000  -1.123  0.00  0.00     0.009 C 
ENDBRANCH   7   8
ENDBRANCH   1   7
TORSDOF 2
ENDMDL
