MODEL 1
REMARK minimizedAffinity -0.348469675
REMARK minimizedRMSD -1
REMARK  2 active torsions:
REMARK  status: ('A' for Active; 'I' for Inactive)
REMARK    1  A    between atoms: C1_2  and  C2_3 
REMARK    2  A    between atoms: C2_3  and  C3_4 
ROOT
ATOM      1  C3  UNL d   1       1.207   2.337  -0.837  0.00  0.00    -0.075 A 
ATOM      2  C4  UNL d   1       1.040   2.344   0.555  0.00  0.00     0.002 A 
ATOM      3  C5  UNL d   1       0.815   1.154   1.248  0.00  0.00     0.002 A 
ATOM      4  C6  UNL d   1       0.744  -0.054   0.558  0.00  0.00    -0.004 A 
ATOM      5  C7  UNL d   1       0.892  -0.071  -0.827  0.00  0.00     0.002 A 
ATOM      6  C8  UNL d   1       1.122   1.118  -1.522  0.00  0.00     0.002 A 
ENDROOT
BRANCH   1   7
ATOM      7  C2  UNL d   1       1.481   3.618  -1.589  0.00  0.00     0.056 C 
BRANCH   7   8
ATOM      8  C1  UNL d   1       1.544   4.863  -0.698  0.00  0.00     0.007 C 
ATOM      9  C   UNL d   1       2.356   5.997  -1.308  0.00  0.00     0.009 C 
ENDBRANCH   7   8
ENDBRANCH   1   7
TORSDOF 2
ENDMDL
