MODEL 1
REMARK minimizedAffinity 1.06759083
REMARK minimizedRMSD -1
REMARK  2 active torsions:
REMARK  status: ('A' for Active; 'I' for Inactive)
REMARK    1  A    between atoms: C1_2  and  C2_3 
REMARK    2  A    between atoms: C2_3  and  C3_4 
ROOT
ATOM      1  C3  UNL d   1       1.646   0.508  -1.964  0.00  0.00    -0.075 A 
ATOM      2  C4  UNL d   1       0.994   1.555  -1.295  0.00  0.00     0.002 A 
ATOM      3  C5  UNL d   1       1.293   1.838   0.039  0.00  0.00     0.002 A 
ATOM      4  C6  UNL d   1       2.237   1.074   0.721  0.00  0.00    -0.004 A 
ATOM      5  C7  UNL d   1       2.878   0.021   0.071  0.00  0.00     0.002 A 
ATOM      6  C8  UNL d   1       2.584  -0.262  -1.264  0.00  0.00     0.002 A 
ENDROOT
BRANCH   1   7
ATOM      7  C2  UNL d   1       1.348   0.216  -3.415  0.00  0.00     0.056 C 
BRANCH   7   8
ATOM      8  C1  UNL d   1       1.921  -1.116  -3.913  0.00  0.00     0.007 C 
ATOM      9  C   UNL d   1       1.913  -1.242  -5.430  0.00  0.00     0.009 C 
ENDBRANCH   7   8
ENDBRANCH   1   7
TORSDOF 2
ENDMDL
