MODEL 1
REMARK minimizedAffinity -4.96311331
REMARK minimizedRMSD -1
REMARK  2 active torsions:
REMARK  status: ('A' for Active; 'I' for Inactive)
REMARK    1  A    between atoms: C1_2  and  C2_3 
REMARK    2  A    between atoms: C2_3  and  C3_4 
ROOT
ATOM      1  C3  UNL d   1       1.085   1.267  -0.725  0.00  0.00    -0.075 A 
ATOM      2  C4  UNL d   1       1.151   1.475   0.661  0.00  0.00     0.002 A 
ATOM      3  C5  UNL d   1       1.233   2.767   1.181  0.00  0.00     0.002 A 
ATOM      4  C6  UNL d   1       1.260   3.865   0.324  0.00  0.00    -0.004 A 
ATOM      5  C7  UNL d   1       1.211   3.670  -1.055  0.00  0.00     0.002 A 
ATOM      6  C8  UNL d   1       1.125   2.379  -1.577  0.00  0.00     0.002 A 
ENDROOT
BRANCH   1   7
ATOM      7  C2  UNL d   1       0.967  -0.127  -1.292  0.00  0.00     0.056 C 
BRANCH   7   8
ATOM      8  C1  UNL d   1       1.159  -1.240  -0.257  0.00  0.00     0.007 C 
ATOM      9  C   UNL d   1       0.551  -2.569  -0.685  0.00  0.00     0.009 C 
ENDBRANCH   7   8
ENDBRANCH   1   7
TORSDOF 2
ENDMDL
