MODEL 1
REMARK minimizedAffinity -4.32259417
REMARK minimizedRMSD -1
REMARK  2 active torsions:
REMARK  status: ('A' for Active; 'I' for Inactive)
REMARK    1  A    between atoms: C1_2  and  C2_3 
REMARK    2  A    between atoms: C2_3  and  C3_4 
ROOT
ATOM      1  C3  UNL d   1       1.222  -0.881  -1.008  0.00  0.00    -0.075 A 
ATOM      2  C4  UNL d   1       2.005  -1.326   0.067  0.00  0.00     0.002 A 
ATOM      3  C5  UNL d   1       1.897  -2.639   0.526  0.00  0.00     0.002 A 
ATOM      4  C6  UNL d   1       1.000  -3.519  -0.076  0.00  0.00    -0.004 A 
ATOM      5  C7  UNL d   1       0.206  -3.083  -1.134  0.00  0.00     0.002 A 
ATOM      6  C8  UNL d   1       0.315  -1.771  -1.598  0.00  0.00     0.002 A 
ENDROOT
BRANCH   1   7
ATOM      7  C2  UNL d   1       1.356   0.530  -1.528  0.00  0.00     0.056 C 
BRANCH   7   8
ATOM      8  C1  UNL d   1       0.263   1.483  -1.033  0.00  0.00     0.007 C 
ATOM      9  C   UNL d   1       0.749   2.447   0.042  0.00  0.00     0.009 C 
ENDBRANCH   7   8
ENDBRANCH   1   7
TORSDOF 2
ENDMDL
