MODEL 1
REMARK minimizedAffinity -2.74087238
REMARK minimizedRMSD -1
REMARK  2 active torsions:
REMARK  status: ('A' for Active; 'I' for Inactive)
REMARK    1  A    between atoms: C1_2  and  C2_3 
REMARK    2  A    between atoms: C2_3  and  C3_4 
ROOT
ATOM      1  C3  UNL d   1       0.804   0.396  -0.798  0.00  0.00    -0.075 A 
ATOM      2  C4  UNL d   1       0.783   0.822   0.538  0.00  0.00     0.002 A 
ATOM      3  C5  UNL d   1       0.933   2.173   0.853  0.00  0.00     0.002 A 
ATOM      4  C6  UNL d   1       1.116   3.111  -0.161  0.00  0.00    -0.004 A 
ATOM      5  C7  UNL d   1       1.155   2.697  -1.490  0.00  0.00     0.002 A 
ATOM      6  C8  UNL d   1       1.000   1.346  -1.808  0.00  0.00     0.002 A 
ENDROOT
BRANCH   1   7
ATOM      7  C2  UNL d   1       0.612  -1.061  -1.146  0.00  0.00     0.056 C 
BRANCH   7   8
ATOM      8  C1  UNL d   1       0.899  -2.023   0.012  0.00  0.00     0.007 C 
ATOM      9  C   UNL d   1       2.290  -2.639  -0.049  0.00  0.00     0.009 C 
ENDBRANCH   7   8
ENDBRANCH   1   7
TORSDOF 2
ENDMDL
