MODEL 1
REMARK minimizedAffinity -3.91736126
REMARK minimizedRMSD -1
REMARK  2 active torsions:
REMARK  status: ('A' for Active; 'I' for Inactive)
REMARK    1  A    between atoms: C1_2  and  C2_3 
REMARK    2  A    between atoms: C2_3  and  C3_4 
ROOT
ATOM      1  C3  UNL d   1       1.519   2.674  -0.186  0.00  0.00    -0.075 A 
ATOM      2  C4  UNL d   1       1.226   2.514  -1.549  0.00  0.00     0.002 A 
ATOM      3  C5  UNL d   1       1.188   1.242  -2.120  0.00  0.00     0.002 A 
ATOM      4  C6  UNL d   1       1.451   0.117  -1.342  0.00  0.00    -0.004 A 
ATOM      5  C7  UNL d   1       1.759   0.266   0.009  0.00  0.00     0.002 A 
ATOM      6  C8  UNL d   1       1.793   1.537   0.584  0.00  0.00     0.002 A 
ENDROOT
BRANCH   1   7
ATOM      7  C2  UNL d   1       1.532   4.046   0.445  0.00  0.00     0.056 C 
BRANCH   7   8
ATOM      8  C1  UNL d   1       1.491   5.198  -0.565  0.00  0.00     0.007 C 
ATOM      9  C   UNL d   1       2.837   5.888  -0.743  0.00  0.00     0.009 C 
ENDBRANCH   7   8
ENDBRANCH   1   7
TORSDOF 2
ENDMDL
