MODEL 1
REMARK minimizedAffinity 2.01982093
REMARK minimizedRMSD -1
REMARK  2 active torsions:
REMARK  status: ('A' for Active; 'I' for Inactive)
REMARK    1  A    between atoms: C1_2  and  C2_3 
REMARK    2  A    between atoms: C2_3  and  C3_4 
ROOT
ATOM      1  C3  UNL d   1       1.854   0.299  -0.699  0.00  0.00    -0.075 A 
ATOM      2  C4  UNL d   1       2.169   1.162  -1.758  0.00  0.00     0.002 A 
ATOM      3  C5  UNL d   1       1.658   2.460  -1.791  0.00  0.00     0.002 A 
ATOM      4  C6  UNL d   1       0.818   2.906  -0.773  0.00  0.00    -0.004 A 
ATOM      5  C7  UNL d   1       0.484   2.052   0.275  0.00  0.00     0.002 A 
ATOM      6  C8  UNL d   1       0.998   0.755   0.313  0.00  0.00     0.002 A 
ENDROOT
BRANCH   1   7
ATOM      7  C2  UNL d   1       2.428  -1.097  -0.642  0.00  0.00     0.056 C 
BRANCH   7   8
ATOM      8  C1  UNL d   1       3.799  -1.180   0.037  0.00  0.00     0.007 C 
ATOM      9  C   UNL d   1       4.365  -2.593   0.075  0.00  0.00     0.009 C 
ENDBRANCH   7   8
ENDBRANCH   1   7
TORSDOF 2
ENDMDL
