MODEL 1
REMARK minimizedAffinity -3.92341733
REMARK minimizedRMSD -1
REMARK  2 active torsions:
REMARK  status: ('A' for Active; 'I' for Inactive)
REMARK    1  A    between atoms: C1_2  and  C2_3 
REMARK    2  A    between atoms: C2_3  and  C3_4 
ROOT
ATOM      1  C3  UNL d   1       1.170   2.555  -1.110  0.00  0.00    -0.075 A 
ATOM      2  C4  UNL d   1       1.210   2.405   0.284  0.00  0.00     0.002 A 
ATOM      3  C5  UNL d   1       1.273   1.135   0.858  0.00  0.00     0.002 A 
ATOM      4  C6  UNL d   1       1.287   0.001   0.049  0.00  0.00    -0.004 A 
ATOM      5  C7  UNL d   1       1.230   0.137  -1.336  0.00  0.00     0.002 A 
ATOM      6  C8  UNL d   1       1.172   1.407  -1.914  0.00  0.00     0.002 A 
ENDROOT
BRANCH   1   7
ATOM      7  C2  UNL d   1       1.131   3.927  -1.739  0.00  0.00     0.056 C 
BRANCH   7   8
ATOM      8  C1  UNL d   1       2.205   4.885  -1.212  0.00  0.00     0.007 C 
ATOM      9  C   UNL d   1       1.639   6.000  -0.343  0.00  0.00     0.009 C 
ENDBRANCH   7   8
ENDBRANCH   1   7
TORSDOF 2
ENDMDL
