MODEL 1
REMARK minimizedAffinity -0.820227623
REMARK minimizedRMSD -1
REMARK  2 active torsions:
REMARK  status: ('A' for Active; 'I' for Inactive)
REMARK    1  A    between atoms: C1_2  and  C2_3 
REMARK    2  A    between atoms: C2_3  and  C3_4 
ROOT
ATOM      1  C3  UNL d   1       1.117   2.364  -1.061  0.00  0.00    -0.075 A 
ATOM      2  C4  UNL d   1       1.516   2.413   0.283  0.00  0.00     0.002 A 
ATOM      3  C5  UNL d   1       1.553   1.251   1.054  0.00  0.00     0.002 A 
ATOM      4  C6  UNL d   1       1.183   0.029   0.496  0.00  0.00    -0.004 A 
ATOM      5  C7  UNL d   1       0.769  -0.029  -0.833  0.00  0.00     0.002 A 
ATOM      6  C8  UNL d   1       0.735   1.131  -1.608  0.00  0.00     0.002 A 
ENDROOT
BRANCH   1   7
ATOM      7  C2  UNL d   1       1.103   3.613  -1.909  0.00  0.00     0.056 C 
BRANCH   7   8
ATOM      8  C1  UNL d   1       2.207   4.616  -1.560  0.00  0.00     0.007 C 
ATOM      9  C   UNL d   1       1.673   5.999  -1.209  0.00  0.00     0.009 C 
ENDBRANCH   7   8
ENDBRANCH   1   7
TORSDOF 2
ENDMDL
