MODEL 1
REMARK minimizedAffinity -4.29834032
REMARK minimizedRMSD -1
REMARK  2 active torsions:
REMARK  status: ('A' for Active; 'I' for Inactive)
REMARK    1  A    between atoms: C1_2  and  C2_3 
REMARK    2  A    between atoms: C2_3  and  C3_4 
ROOT
ATOM      1  C3  UNL d   1       1.249   2.319  -1.374  0.00  0.00    -0.075 A 
ATOM      2  C4  UNL d   1       1.400   1.233  -2.248  0.00  0.00     0.002 A 
ATOM      3  C5  UNL d   1       1.192  -0.072  -1.800  0.00  0.00     0.002 A 
ATOM      4  C6  UNL d   1       0.841  -0.308  -0.473  0.00  0.00    -0.004 A 
ATOM      5  C7  UNL d   1       0.704   0.762   0.409  0.00  0.00     0.002 A 
ATOM      6  C8  UNL d   1       0.907   2.069  -0.038  0.00  0.00     0.002 A 
ENDROOT
BRANCH   1   7
ATOM      7  C2  UNL d   1       1.444   3.735  -1.859  0.00  0.00     0.056 C 
BRANCH   7   8
ATOM      8  C1  UNL d   1       1.507   4.776  -0.737  0.00  0.00     0.007 C 
ATOM      9  C   UNL d   1       2.339   6.000  -1.098  0.00  0.00     0.009 C 
ENDBRANCH   7   8
ENDBRANCH   1   7
TORSDOF 2
ENDMDL
