MODEL 1
REMARK minimizedAffinity -4.72370577
REMARK minimizedRMSD -1
REMARK  2 active torsions:
REMARK  status: ('A' for Active; 'I' for Inactive)
REMARK    1  A    between atoms: C1_2  and  C2_3 
REMARK    2  A    between atoms: C2_3  and  C3_4 
ROOT
ATOM      1  C3  UNL d   1       1.150   2.481  -1.246  0.00  0.00    -0.075 A 
ATOM      2  C4  UNL d   1       0.577   1.426  -1.972  0.00  0.00     0.002 A 
ATOM      3  C5  UNL d   1       0.378   0.181  -1.375  0.00  0.00     0.002 A 
ATOM      4  C6  UNL d   1       0.757  -0.028  -0.051  0.00  0.00    -0.004 A 
ATOM      5  C7  UNL d   1       1.342   1.007   0.675  0.00  0.00     0.002 A 
ATOM      6  C8  UNL d   1       1.538   2.255   0.081  0.00  0.00     0.002 A 
ENDROOT
BRANCH   1   7
ATOM      7  C2  UNL d   1       1.341   3.839  -1.878  0.00  0.00     0.056 C 
BRANCH   7   8
ATOM      8  C1  UNL d   1       1.934   4.888  -0.933  0.00  0.00     0.007 C 
ATOM      9  C   UNL d   1       2.686   5.995  -1.660  0.00  0.00     0.009 C 
ENDBRANCH   7   8
ENDBRANCH   1   7
TORSDOF 2
ENDMDL
