MODEL 1
REMARK minimizedAffinity -0.179170012
REMARK minimizedRMSD -1
REMARK  2 active torsions:
REMARK  status: ('A' for Active; 'I' for Inactive)
REMARK    1  A    between atoms: C1_2  and  C2_3 
REMARK    2  A    between atoms: C2_3  and  C3_4 
ROOT
ATOM      1  C3  UNL d   1       1.515   2.289  -1.106  0.00  0.00    -0.075 A 
ATOM      2  C4  UNL d   1       1.775   2.062   0.254  0.00  0.00     0.002 A 
ATOM      3  C5  UNL d   1       1.540   0.809   0.820  0.00  0.00     0.002 A 
ATOM      4  C6  UNL d   1       1.035  -0.228   0.039  0.00  0.00    -0.004 A 
ATOM      5  C7  UNL d   1       0.757  -0.009  -1.308  0.00  0.00     0.002 A 
ATOM      6  C8  UNL d   1       0.995   1.243  -1.879  0.00  0.00     0.002 A 
ENDROOT
BRANCH   1   7
ATOM      7  C2  UNL d   1       1.794   3.635  -1.731  0.00  0.00     0.056 C 
BRANCH   7   8
ATOM      8  C1  UNL d   1       1.885   4.785  -0.723  0.00  0.00     0.007 C 
ATOM      9  C   UNL d   1       2.636   5.996  -1.260  0.00  0.00     0.009 C 
ENDBRANCH   7   8
ENDBRANCH   1   7
TORSDOF 2
ENDMDL
