MODEL 1
REMARK minimizedAffinity 0.468152851
REMARK minimizedRMSD -1
REMARK  2 active torsions:
REMARK  status: ('A' for Active; 'I' for Inactive)
REMARK    1  A    between atoms: C1_2  and  C2_3 
REMARK    2  A    between atoms: C2_3  and  C3_4 
ROOT
ATOM      1  C3  UNL d   1       1.341   2.225  -1.431  0.00  0.00    -0.075 A 
ATOM      2  C4  UNL d   1       1.485   2.063  -0.045  0.00  0.00     0.002 A 
ATOM      3  C5  UNL d   1       1.362   0.801   0.537  0.00  0.00     0.002 A 
ATOM      4  C6  UNL d   1       1.085  -0.311  -0.255  0.00  0.00    -0.004 A 
ATOM      5  C7  UNL d   1       0.924  -0.159  -1.631  0.00  0.00     0.002 A 
ATOM      6  C8  UNL d   1       1.050   1.102  -2.216  0.00  0.00     0.002 A 
ENDROOT
BRANCH   1   7
ATOM      7  C2  UNL d   1       1.501   3.583  -2.071  0.00  0.00     0.056 C 
BRANCH   7   8
ATOM      8  C1  UNL d   1       2.259   4.595  -1.205  0.00  0.00     0.007 C 
ATOM      9  C   UNL d   1       2.269   6.000  -1.792  0.00  0.00     0.009 C 
ENDBRANCH   7   8
ENDBRANCH   1   7
TORSDOF 2
ENDMDL
