MODEL 1
REMARK minimizedAffinity -5.10225821
REMARK minimizedRMSD -1
REMARK  0 active torsions:
REMARK  status: ('A' for Active; 'I' for Inactive)
ROOT
ATOM      1  C   UNL d   1      -1.337  -0.053  -0.898  0.00  0.00     0.078 C 
ATOM      2  C1  UNL d   1       0.043   0.016  -0.315  0.00  0.00    -0.077 A 
ATOM      3  C2  UNL d   1       0.481   1.158   0.367  0.00  0.00    -0.001 A 
ATOM      4  C3  UNL d   1       1.772   1.212   0.897  0.00  0.00     0.003 A 
ATOM      5  C4  UNL d   1       2.635   0.128   0.749  0.00  0.00    -0.005 A 
ATOM      6  C5  UNL d   1       2.208  -1.012   0.070  0.00  0.00     0.003 A 
ATOM      7  C6  UNL d   1       0.918  -1.068  -0.460  0.00  0.00    -0.001 A 
ENDROOT
TORSDOF 0
ENDMDL
