MODEL 1
REMARK minimizedAffinity -1.83428311
REMARK minimizedRMSD -1
REMARK  0 active torsions:
REMARK  status: ('A' for Active; 'I' for Inactive)
ROOT
ATOM      1  C   UNL d   1      -1.094   0.311  -0.010  0.00  0.00     0.078 C 
ATOM      2  C1  UNL d   1       0.354   0.667   0.153  0.00  0.00    -0.077 A 
ATOM      3  C2  UNL d   1       1.020   1.438  -0.808  0.00  0.00    -0.001 A 
ATOM      4  C3  UNL d   1       2.370   1.753  -0.648  0.00  0.00     0.003 A 
ATOM      5  C4  UNL d   1       3.067   1.300   0.470  0.00  0.00    -0.005 A 
ATOM      6  C5  UNL d   1       2.413   0.530   1.430  0.00  0.00     0.003 A 
ATOM      7  C6  UNL d   1       1.063   0.214   1.272  0.00  0.00    -0.001 A 
ENDROOT
TORSDOF 0
ENDMDL
