MODEL 1
REMARK minimizedAffinity -0.844811499
REMARK minimizedRMSD -1
REMARK  0 active torsions:
REMARK  status: ('A' for Active; 'I' for Inactive)
ROOT
ATOM      1  C   UNL d   1      -2.596   0.350  -2.375  0.00  0.00     0.078 C 
ATOM      2  C1  UNL d   1      -1.358   0.574  -1.559  0.00  0.00    -0.077 A 
ATOM      3  C2  UNL d   1      -0.159   0.973  -2.164  0.00  0.00    -0.001 A 
ATOM      4  C3  UNL d   1       0.988   1.169  -1.394  0.00  0.00     0.003 A 
ATOM      5  C4  UNL d   1       0.950   0.965  -0.016  0.00  0.00    -0.005 A 
ATOM      6  C5  UNL d   1      -0.238   0.565   0.594  0.00  0.00     0.003 A 
ATOM      7  C6  UNL d   1      -1.386   0.370  -0.174  0.00  0.00    -0.001 A 
ENDROOT
TORSDOF 0
ENDMDL
