MODEL 1
REMARK minimizedAffinity -5.045609
REMARK minimizedRMSD -1
REMARK  0 active torsions:
REMARK  status: ('A' for Active; 'I' for Inactive)
ROOT
ATOM      1  C   UNL d   1       3.045  -0.746   0.015  0.00  0.00     0.078 C 
ATOM      2  C1  UNL d   1       1.624  -0.293  -0.143  0.00  0.00    -0.077 A 
ATOM      3  C2  UNL d   1       0.709  -1.038  -0.898  0.00  0.00    -0.001 A 
ATOM      4  C3  UNL d   1      -0.608  -0.600  -1.044  0.00  0.00     0.003 A 
ATOM      5  C4  UNL d   1      -1.022   0.585  -0.439  0.00  0.00    -0.005 A 
ATOM      6  C5  UNL d   1      -0.119   1.334   0.312  0.00  0.00     0.003 A 
ATOM      7  C6  UNL d   1       1.199   0.898   0.459  0.00  0.00    -0.001 A 
ENDROOT
TORSDOF 0
ENDMDL
