MODEL 1
REMARK minimizedAffinity -5.07938576
REMARK minimizedRMSD -1
REMARK  0 active torsions:
REMARK  status: ('A' for Active; 'I' for Inactive)
ROOT
ATOM      1  C   UNL d   1      -1.650   0.677  -0.883  0.00  0.00     0.078 C 
ATOM      2  C1  UNL d   1      -0.350   0.357  -0.208  0.00  0.00    -0.077 A 
ATOM      3  C2  UNL d   1      -0.179  -0.840   0.498  0.00  0.00    -0.001 A 
ATOM      4  C3  UNL d   1       1.033  -1.121   1.130  0.00  0.00     0.003 A 
ATOM      5  C4  UNL d   1       2.084  -0.208   1.064  0.00  0.00    -0.005 A 
ATOM      6  C5  UNL d   1       1.923   0.987   0.366  0.00  0.00     0.003 A 
ATOM      7  C6  UNL d   1       0.711   1.269  -0.267  0.00  0.00    -0.001 A 
ENDROOT
TORSDOF 0
ENDMDL
