MODEL 1
REMARK minimizedAffinity -4.62846994
REMARK minimizedRMSD -1
REMARK  0 active torsions:
REMARK  status: ('A' for Active; 'I' for Inactive)
ROOT
ATOM      1  C   UNL d   1      -1.244   0.029  -0.075  0.00  0.00     0.078 C 
ATOM      2  C1  UNL d   1       0.047  -0.367   0.576  0.00  0.00    -0.077 A 
ATOM      3  C2  UNL d   1       0.109  -1.459   1.451  0.00  0.00    -0.001 A 
ATOM      4  C3  UNL d   1       1.315  -1.810   2.058  0.00  0.00     0.003 A 
ATOM      5  C4  UNL d   1       2.470  -1.074   1.798  0.00  0.00    -0.005 A 
ATOM      6  C5  UNL d   1       2.418   0.015   0.931  0.00  0.00     0.003 A 
ATOM      7  C6  UNL d   1       1.212   0.368   0.323  0.00  0.00    -0.001 A 
ENDROOT
TORSDOF 0
ENDMDL
