MODEL 1
REMARK minimizedAffinity -3.85370326
REMARK minimizedRMSD -1
REMARK  0 active torsions:
REMARK  status: ('A' for Active; 'I' for Inactive)
ROOT
ATOM      1  C   UNL d   1      -1.470   0.200  -0.887  0.00  0.00     0.078 C 
ATOM      2  C1  UNL d   1      -0.105   0.357  -0.288  0.00  0.00    -0.077 A 
ATOM      3  C2  UNL d   1       0.749   1.387  -0.699  0.00  0.00    -0.001 A 
ATOM      4  C3  UNL d   1       2.022   1.515  -0.139  0.00  0.00     0.003 A 
ATOM      5  C4  UNL d   1       2.452   0.615   0.834  0.00  0.00    -0.005 A 
ATOM      6  C5  UNL d   1       1.610  -0.415   1.248  0.00  0.00     0.003 A 
ATOM      7  C6  UNL d   1       0.337  -0.544   0.689  0.00  0.00    -0.001 A 
ENDROOT
TORSDOF 0
ENDMDL
