MODEL 1
REMARK minimizedAffinity 4.89029741
REMARK minimizedRMSD -1
REMARK  0 active torsions:
REMARK  status: ('A' for Active; 'I' for Inactive)
ROOT
ATOM      1  C   UNL d   1       6.000   5.205   4.171  0.00  0.00    -0.002 A 
ATOM      2  C1  UNL d   1       5.887   3.823   4.138  0.00  0.00     0.010 A 
ATOM      3  C2  UNL d   1       4.955   3.206   3.301  0.00  0.00     0.041 A 
ATOM      4  C3  UNL d   1       4.131   4.010   2.488  0.00  0.00    -0.075 A 
ATOM      5  S   UNL d   1       2.920   3.476   1.384  0.00  0.00     0.015 SA
ATOM      6  C4  UNL d   1       2.524   5.070   0.930  0.00  0.00     0.022 A 
ATOM      7  C5  UNL d   1       3.288   6.000   1.595  0.00  0.00     0.026 A 
ATOM      8  C6  UNL d   1       4.227   5.405   2.504  0.00  0.00    -0.082 A 
ATOM      9  C7  UNL d   1       5.181   6.000   3.364  0.00  0.00     0.045 A 
ENDROOT
TORSDOF 0
ENDMDL
