MODEL 1
REMARK minimizedAffinity 15.3626766
REMARK minimizedRMSD -1
REMARK  0 active torsions:
REMARK  status: ('A' for Active; 'I' for Inactive)
ROOT
ATOM      1  C   UNL d   1       5.934   5.950   3.803  0.00  0.00    -0.002 A 
ATOM      2  C1  UNL d   1       6.000   4.780   4.547  0.00  0.00     0.010 A 
ATOM      3  C2  UNL d   1       5.305   3.640   4.139  0.00  0.00     0.041 A 
ATOM      4  C3  UNL d   1       4.538   3.694   2.959  0.00  0.00    -0.075 A 
ATOM      5  S   UNL d   1       3.605   2.420   2.266  0.00  0.00     0.015 SA
ATOM      6  C4  UNL d   1       3.098   3.399   0.966  0.00  0.00     0.022 A 
ATOM      7  C5  UNL d   1       3.619   4.669   1.043  0.00  0.00     0.026 A 
ATOM      8  C6  UNL d   1       4.457   4.860   2.192  0.00  0.00    -0.082 A 
ATOM      9  C7  UNL d   1       5.172   6.000   2.632  0.00  0.00     0.045 A 
ENDROOT
TORSDOF 0
ENDMDL
