MODEL 1
REMARK minimizedAffinity 7.69654846
REMARK minimizedRMSD -1
REMARK  0 active torsions:
REMARK  status: ('A' for Active; 'I' for Inactive)
ROOT
ATOM      1  C   UNL d   1      -1.649  -6.000  -4.655  0.00  0.00    -0.002 A 
ATOM      2  C1  UNL d   1      -1.757  -5.035  -5.647  0.00  0.00     0.010 A 
ATOM      3  C2  UNL d   1      -1.566  -3.685  -5.348  0.00  0.00     0.041 A 
ATOM      4  C3  UNL d   1      -1.262  -3.316  -4.023  0.00  0.00    -0.075 A 
ATOM      5  S   UNL d   1      -0.986  -1.723  -3.424  0.00  0.00     0.015 SA
ATOM      6  C4  UNL d   1      -0.719  -2.285  -1.837  0.00  0.00     0.022 A 
ATOM      7  C5  UNL d   1      -0.833  -3.652  -1.749  0.00  0.00     0.026 A 
ATOM      8  C6  UNL d   1      -1.147  -4.269  -3.007  0.00  0.00    -0.082 A 
ATOM      9  C7  UNL d   1      -1.347  -5.630  -3.341  0.00  0.00     0.045 A 
ENDROOT
TORSDOF 0
ENDMDL
