MODEL 1
REMARK minimizedAffinity 10.7561274
REMARK minimizedRMSD -1
REMARK  0 active torsions:
REMARK  status: ('A' for Active; 'I' for Inactive)
ROOT
ATOM      1  C   UNL d   1       0.901   0.604   2.473  0.00  0.00    -0.002 A 
ATOM      2  C1  UNL d   1      -0.398   0.160   2.275  0.00  0.00     0.010 A 
ATOM      3  C2  UNL d   1      -0.837  -1.034   2.853  0.00  0.00     0.041 A 
ATOM      4  C3  UNL d   1       0.062  -1.779   3.641  0.00  0.00    -0.075 A 
ATOM      5  S   UNL d   1      -0.254  -3.270   4.448  0.00  0.00     0.015 SA
ATOM      6  C4  UNL d   1       1.329  -3.352   5.074  0.00  0.00     0.022 A 
ATOM      7  C5  UNL d   1       2.093  -2.277   4.687  0.00  0.00     0.026 A 
ATOM      8  C6  UNL d   1       1.375  -1.352   3.855  0.00  0.00    -0.082 A 
ATOM      9  C7  UNL d   1       1.789  -0.139   3.256  0.00  0.00     0.045 A 
ENDROOT
TORSDOF 0
ENDMDL
