MODEL 1
REMARK minimizedAffinity 11.120368
REMARK minimizedRMSD -1
REMARK  0 active torsions:
REMARK  status: ('A' for Active; 'I' for Inactive)
ROOT
ATOM      1  C   UNL d   1       2.250  -1.690   5.166  0.00  0.00    -0.002 A 
ATOM      2  C1  UNL d   1       1.765  -2.888   4.661  0.00  0.00     0.010 A 
ATOM      3  C2  UNL d   1       0.870  -2.897   3.590  0.00  0.00     0.041 A 
ATOM      4  C3  UNL d   1       0.468  -1.669   3.027  0.00  0.00    -0.075 A 
ATOM      5  S   UNL d   1      -0.618  -1.436   1.709  0.00  0.00     0.015 SA
ATOM      6  C4  UNL d   1      -0.463   0.260   1.784  0.00  0.00     0.022 A 
ATOM      7  C5  UNL d   1       0.393   0.656   2.785  0.00  0.00     0.026 A 
ATOM      8  C6  UNL d   1       0.944  -0.450   3.518  0.00  0.00    -0.082 A 
ATOM      9  C7  UNL d   1       1.849  -0.474   4.606  0.00  0.00     0.045 A 
ENDROOT
TORSDOF 0
ENDMDL
