MODEL 1
REMARK minimizedAffinity 21.2275734
REMARK minimizedRMSD -1
REMARK  0 active torsions:
REMARK  status: ('A' for Active; 'I' for Inactive)
ROOT
ATOM      1  C   UNL d   1      -0.929  -2.060  -1.239  0.00  0.00    -0.002 A 
ATOM      2  C1  UNL d   1      -1.862  -2.307  -2.236  0.00  0.00     0.010 A 
ATOM      3  C2  UNL d   1      -1.589  -1.972  -3.564  0.00  0.00     0.041 A 
ATOM      4  C3  UNL d   1      -0.348  -1.382  -3.876  0.00  0.00    -0.075 A 
ATOM      5  S   UNL d   1       0.206  -0.889  -5.432  0.00  0.00     0.015 SA
ATOM      6  C4  UNL d   1       1.695  -0.340  -4.811  0.00  0.00     0.022 A 
ATOM      7  C5  UNL d   1       1.784  -0.521  -3.451  0.00  0.00     0.026 A 
ATOM      8  C6  UNL d   1       0.608  -1.125  -2.889  0.00  0.00    -0.082 A 
ATOM      9  C7  UNL d   1       0.301  -1.474  -1.553  0.00  0.00     0.045 A 
ENDROOT
TORSDOF 0
ENDMDL
