MODEL 1
REMARK minimizedAffinity -3.01270914
REMARK minimizedRMSD -1
REMARK  0 active torsions:
REMARK  status: ('A' for Active; 'I' for Inactive)
ROOT
ATOM      1  C   UNL d   1       0.874  -2.287  -0.482  0.00  0.00     0.172 C 
ATOM      2  N   UNL d   1       1.640  -1.307   0.252  0.00  0.00    -0.070 N 
ATOM      3  C1  UNL d   1       1.148  -0.147   0.788  0.00  0.00    -0.004 A 
ATOM      4  C2  UNL d   1       2.191   0.508   1.406  0.00  0.00    -0.047 A 
ATOM      5  C3  UNL d   1       3.350  -0.286   1.235  0.00  0.00    -0.047 A 
ATOM      6  C4  UNL d   1       2.980  -1.403   0.517  0.00  0.00    -0.004 A 
ENDROOT
TORSDOF 0
ENDMDL
