MODEL 1
REMARK minimizedAffinity -3.20322418
REMARK minimizedRMSD -1
REMARK  0 active torsions:
REMARK  status: ('A' for Active; 'I' for Inactive)
ROOT
ATOM      1  C   UNL d   1       2.918  -0.357   0.359  0.00  0.00     0.172 C 
ATOM      2  N   UNL d   1       1.495  -0.266   0.129  0.00  0.00    -0.070 N 
ATOM      3  C1  UNL d   1       0.615  -1.314   0.151  0.00  0.00    -0.004 A 
ATOM      4  C2  UNL d   1      -0.642  -0.815  -0.115  0.00  0.00    -0.047 A 
ATOM      5  C3  UNL d   1      -0.512   0.581  -0.304  0.00  0.00    -0.047 A 
ATOM      6  C4  UNL d   1       0.821   0.894  -0.148  0.00  0.00    -0.004 A 
ENDROOT
TORSDOF 0
ENDMDL
