MODEL 1
REMARK minimizedAffinity -3.43592262
REMARK minimizedRMSD -1
REMARK  0 active torsions:
REMARK  status: ('A' for Active; 'I' for Inactive)
ROOT
ATOM      1  C   UNL d   1      -0.962   0.205  -0.540  0.00  0.00     0.172 C 
ATOM      2  N   UNL d   1       0.353   0.489  -0.014  0.00  0.00    -0.070 N 
ATOM      3  C1  UNL d   1       1.254  -0.441   0.429  0.00  0.00    -0.004 A 
ATOM      4  C2  UNL d   1       2.383   0.230   0.848  0.00  0.00    -0.047 A 
ATOM      5  C3  UNL d   1       2.151   1.612   0.651  0.00  0.00    -0.047 A 
ATOM      6  C4  UNL d   1       0.887   1.744   0.116  0.00  0.00    -0.004 A 
ENDROOT
TORSDOF 0
ENDMDL
