MODEL 1
REMARK minimizedAffinity -3.7104001
REMARK minimizedRMSD -1
REMARK  0 active torsions:
REMARK  status: ('A' for Active; 'I' for Inactive)
ROOT
ATOM      1  C   UNL d   1      -0.279   0.002  -0.038  0.00  0.00     0.172 C 
ATOM      2  N   UNL d   1       0.932  -0.488   0.576  0.00  0.00    -0.070 N 
ATOM      3  C1  UNL d   1       2.152   0.134   0.546  0.00  0.00    -0.004 A 
ATOM      4  C2  UNL d   1       3.044  -0.650   1.245  0.00  0.00    -0.047 A 
ATOM      5  C3  UNL d   1       2.336  -1.785   1.709  0.00  0.00    -0.047 A 
ATOM      6  C4  UNL d   1       1.032  -1.659   1.282  0.00  0.00    -0.004 A 
ENDROOT
TORSDOF 0
ENDMDL
