MODEL 1
REMARK minimizedAffinity -4.02377653
REMARK minimizedRMSD -1
REMARK  0 active torsions:
REMARK  status: ('A' for Active; 'I' for Inactive)
ROOT
ATOM      1  C   UNL d   1      -0.966   0.271   0.137  0.00  0.00     0.172 C 
ATOM      2  N   UNL d   1       0.443   0.034   0.347  0.00  0.00    -0.070 N 
ATOM      3  C1  UNL d   1       1.025  -1.189   0.550  0.00  0.00    -0.004 A 
ATOM      4  C2  UNL d   1       2.380  -0.990   0.707  0.00  0.00    -0.047 A 
ATOM      5  C3  UNL d   1       2.620   0.400   0.595  0.00  0.00    -0.047 A 
ATOM      6  C4  UNL d   1       1.404   1.010   0.372  0.00  0.00    -0.004 A 
ENDROOT
TORSDOF 0
ENDMDL
