MODEL 1
REMARK minimizedAffinity -3.56237578
REMARK minimizedRMSD -1
REMARK  0 active torsions:
REMARK  status: ('A' for Active; 'I' for Inactive)
ROOT
ATOM      1  C   UNL d   1      -0.704  -0.399   0.213  0.00  0.00     0.172 C 
ATOM      2  N   UNL d   1       0.737  -0.363   0.292  0.00  0.00    -0.070 N 
ATOM      3  C1  UNL d   1       1.577  -1.414   0.038  0.00  0.00    -0.004 A 
ATOM      4  C2  UNL d   1       2.870  -0.976   0.223  0.00  0.00    -0.047 A 
ATOM      5  C3  UNL d   1       2.805   0.386   0.603  0.00  0.00    -0.047 A 
ATOM      6  C4  UNL d   1       1.473   0.739   0.638  0.00  0.00    -0.004 A 
ENDROOT
TORSDOF 0
ENDMDL
