MODEL 1
REMARK minimizedAffinity -3.44076562
REMARK minimizedRMSD -1
REMARK  0 active torsions:
REMARK  status: ('A' for Active; 'I' for Inactive)
ROOT
ATOM      1  C   UNL d   1       2.790   0.075   0.395  0.00  0.00     0.172 C 
ATOM      2  N   UNL d   1       1.347   0.098   0.440  0.00  0.00    -0.070 N 
ATOM      3  C1  UNL d   1       0.543  -0.950   0.802  0.00  0.00    -0.004 A 
ATOM      4  C2  UNL d   1      -0.766  -0.527   0.715  0.00  0.00    -0.047 A 
ATOM      5  C3  UNL d   1      -0.748   0.821   0.285  0.00  0.00    -0.047 A 
ATOM      6  C4  UNL d   1       0.573   1.183   0.122  0.00  0.00    -0.004 A 
ENDROOT
TORSDOF 0
ENDMDL
