MODEL 1
REMARK minimizedAffinity -3.62860513
REMARK minimizedRMSD -1
REMARK  0 active torsions:
REMARK  status: ('A' for Active; 'I' for Inactive)
ROOT
ATOM      1  C   UNL d   1      -1.443  -1.116   1.135  0.00  0.00     0.172 C 
ATOM      2  N   UNL d   1      -0.152  -0.580   0.774  0.00  0.00    -0.070 N 
ATOM      3  C1  UNL d   1       0.153   0.749   0.645  0.00  0.00    -0.004 A 
ATOM      4  C2  UNL d   1       1.481   0.845   0.291  0.00  0.00    -0.047 A 
ATOM      5  C3  UNL d   1       1.993  -0.471   0.203  0.00  0.00    -0.047 A 
ATOM      6  C4  UNL d   1       0.961  -1.334   0.507  0.00  0.00    -0.004 A 
ENDROOT
TORSDOF 0
ENDMDL
