MODEL 1
REMARK minimizedAffinity 1.46083367
REMARK minimizedRMSD -1
REMARK  0 active torsions:
REMARK  status: ('A' for Active; 'I' for Inactive)
ROOT
ATOM      1  C   UNL d   1       1.297  -0.587  -1.045  0.00  0.00     0.124 A 
ATOM      2  C1  UNL d   1       0.881  -1.517  -0.103  0.00  0.00     0.062 A 
ATOM      3  C2  UNL d   1      -0.053  -1.161   0.867  0.00  0.00     0.162 A 
ATOM      4  C3  UNL d   1      -0.578   0.130   0.898  0.00  0.00    -0.034 A 
ATOM      5  C4  UNL d   1      -0.154   1.061  -0.053  0.00  0.00     0.162 A 
ATOM      6  C5  UNL d   1       0.779   0.701  -1.019  0.00  0.00     0.062 A 
ATOM      7  F   UNL d   1       1.180   1.601  -1.929  0.00  0.00    -0.097 F 
ATOM      8  F1  UNL d   1      -0.638   2.312  -0.051  0.00  0.00    -0.096 F 
ATOM      9  I   UNL d   1      -1.973   0.666   2.346  0.00  0.00    -0.060 I 
ATOM     10  F2  UNL d   1      -0.436  -2.081   1.765  0.00  0.00    -0.096 F 
ATOM     11  F3  UNL d   1       1.380  -2.761  -0.125  0.00  0.00    -0.097 F 
ATOM     12  F4  UNL d   1       2.196  -0.931  -1.977  0.00  0.00    -0.092 F 
ENDROOT
TORSDOF 0
ENDMDL
