MODEL 1
REMARK minimizedAffinity -1.33101344
REMARK minimizedRMSD -1
REMARK  0 active torsions:
REMARK  status: ('A' for Active; 'I' for Inactive)
ROOT
ATOM      1  C   UNL d   1       1.667  -0.664  -1.212  0.00  0.00     0.124 A 
ATOM      2  C1  UNL d   1       1.241   0.657  -1.202  0.00  0.00     0.062 A 
ATOM      3  C2  UNL d   1       0.265   1.070  -0.300  0.00  0.00     0.162 A 
ATOM      4  C3  UNL d   1      -0.290   0.162   0.602  0.00  0.00    -0.034 A 
ATOM      5  C4  UNL d   1       0.143  -1.165   0.585  0.00  0.00     0.162 A 
ATOM      6  C5  UNL d   1       1.119  -1.573  -0.319  0.00  0.00     0.062 A 
ATOM      7  F   UNL d   1       1.530  -2.849  -0.326  0.00  0.00    -0.097 F 
ATOM      8  F1  UNL d   1      -0.369  -2.064   1.438  0.00  0.00    -0.096 F 
ATOM      9  I   UNL d   1      -1.749   0.777   1.953  0.00  0.00    -0.060 I 
ATOM     10  F2  UNL d   1      -0.129   2.353  -0.313  0.00  0.00    -0.096 F 
ATOM     11  F3  UNL d   1       1.768   1.537  -2.065  0.00  0.00    -0.097 F 
ATOM     12  F4  UNL d   1       2.606  -1.059  -2.082  0.00  0.00    -0.092 F 
ENDROOT
TORSDOF 0
ENDMDL
