MODEL 1
REMARK minimizedAffinity -0.789767325
REMARK minimizedRMSD -1
REMARK  0 active torsions:
REMARK  status: ('A' for Active; 'I' for Inactive)
ROOT
ATOM      1  C   UNL d   1       2.028  -1.102  -1.344  0.00  0.00     0.124 A 
ATOM      2  C1  UNL d   1       1.325  -2.044  -0.606  0.00  0.00     0.062 A 
ATOM      3  C2  UNL d   1       0.317  -1.640   0.265  0.00  0.00     0.162 A 
ATOM      4  C3  UNL d   1       0.005  -0.287   0.402  0.00  0.00    -0.034 A 
ATOM      5  C4  UNL d   1       0.718   0.654  -0.343  0.00  0.00     0.162 A 
ATOM      6  C5  UNL d   1       1.724   0.246  -1.212  0.00  0.00     0.062 A 
ATOM      7  F   UNL d   1       2.402   1.157  -1.925  0.00  0.00    -0.097 F 
ATOM      8  F1  UNL d   1       0.444   1.963  -0.236  0.00  0.00    -0.096 F 
ATOM      9  I   UNL d   1      -1.501   0.321   1.703  0.00  0.00    -0.060 I 
ATOM     10  F2  UNL d   1      -0.346  -2.572   0.966  0.00  0.00    -0.096 F 
ATOM     11  F3  UNL d   1       1.617  -3.346  -0.731  0.00  0.00    -0.097 F 
ATOM     12  F4  UNL d   1       2.998  -1.493  -2.181  0.00  0.00    -0.092 F 
ENDROOT
TORSDOF 0
ENDMDL
