MODEL 1
REMARK minimizedAffinity -0.286185175
REMARK minimizedRMSD -1
REMARK  0 active torsions:
REMARK  status: ('A' for Active; 'I' for Inactive)
ROOT
ATOM      1  C   UNL d   1      -0.076   1.471  -0.762  0.00  0.00     0.124 A 
ATOM      2  C1  UNL d   1      -1.194   2.264  -0.545  0.00  0.00     0.062 A 
ATOM      3  C2  UNL d   1      -2.175   1.860   0.356  0.00  0.00     0.162 A 
ATOM      4  C3  UNL d   1      -2.042   0.656   1.048  0.00  0.00    -0.034 A 
ATOM      5  C4  UNL d   1      -0.915  -0.137   0.824  0.00  0.00     0.162 A 
ATOM      6  C5  UNL d   1       0.063   0.272  -0.078  0.00  0.00     0.062 A 
ATOM      7  F   UNL d   1       1.143  -0.496  -0.286  0.00  0.00    -0.097 F 
ATOM      8  F1  UNL d   1      -0.755  -1.300   1.472  0.00  0.00    -0.096 F 
ATOM      9  I   UNL d   1      -3.506   0.047   2.395  0.00  0.00    -0.060 I 
ATOM     10  F2  UNL d   1      -3.245   2.646   0.546  0.00  0.00    -0.096 F 
ATOM     11  F3  UNL d   1      -1.331   3.423  -1.206  0.00  0.00    -0.097 F 
ATOM     12  F4  UNL d   1       0.866   1.862  -1.630  0.00  0.00    -0.092 F 
ENDROOT
TORSDOF 0
ENDMDL
