MODEL 1
REMARK minimizedAffinity 0.536197841
REMARK minimizedRMSD -1
REMARK  0 active torsions:
REMARK  status: ('A' for Active; 'I' for Inactive)
ROOT
ATOM      1  C   UNL d   1       0.271   1.232  -0.862  0.00  0.00     0.124 A 
ATOM      2  C1  UNL d   1       0.427   0.471   0.288  0.00  0.00     0.062 A 
ATOM      3  C2  UNL d   1      -0.656   0.253   1.135  0.00  0.00     0.162 A 
ATOM      4  C3  UNL d   1      -1.905   0.797   0.834  0.00  0.00    -0.034 A 
ATOM      5  C4  UNL d   1      -2.053   1.562  -0.324  0.00  0.00     0.162 A 
ATOM      6  C5  UNL d   1      -0.968   1.776  -1.167  0.00  0.00     0.062 A 
ATOM      7  F   UNL d   1      -1.120   2.511  -2.279  0.00  0.00    -0.097 F 
ATOM      8  F1  UNL d   1      -3.240   2.099  -0.644  0.00  0.00    -0.096 F 
ATOM      9  I   UNL d   1      -3.527   0.474   2.098  0.00  0.00    -0.060 I 
ATOM     10  F2  UNL d   1      -0.477  -0.486   2.240  0.00  0.00    -0.096 F 
ATOM     11  F3  UNL d   1       1.623  -0.056   0.586  0.00  0.00    -0.097 F 
ATOM     12  F4  UNL d   1       1.315   1.440  -1.675  0.00  0.00    -0.092 F 
ENDROOT
TORSDOF 0
ENDMDL
