MODEL 1
REMARK minimizedAffinity -1.80466878
REMARK minimizedRMSD -1
REMARK  0 active torsions:
REMARK  status: ('A' for Active; 'I' for Inactive)
ROOT
ATOM      1  C   UNL d   1      -1.827  -0.058   2.021  0.00  0.00     0.124 A 
ATOM      2  C1  UNL d   1      -0.755  -0.902   1.767  0.00  0.00     0.062 A 
ATOM      3  C2  UNL d   1       0.120  -0.626   0.721  0.00  0.00     0.162 A 
ATOM      4  C3  UNL d   1      -0.072   0.500  -0.079  0.00  0.00    -0.034 A 
ATOM      5  C4  UNL d   1      -1.153   1.344   0.182  0.00  0.00     0.162 A 
ATOM      6  C5  UNL d   1      -2.025   1.064   1.229  0.00  0.00     0.062 A 
ATOM      7  F   UNL d   1      -3.060   1.881   1.473  0.00  0.00    -0.097 F 
ATOM      8  F1  UNL d   1      -1.367   2.436  -0.568  0.00  0.00    -0.096 F 
ATOM      9  I   UNL d   1       1.235   0.916  -1.645  0.00  0.00    -0.060 I 
ATOM     10  F2  UNL d   1       1.148  -1.459   0.498  0.00  0.00    -0.096 F 
ATOM     11  F3  UNL d   1      -0.562  -1.987   2.531  0.00  0.00    -0.097 F 
ATOM     12  F4  UNL d   1      -2.668  -0.326   3.028  0.00  0.00    -0.092 F 
ENDROOT
TORSDOF 0
ENDMDL
