MODEL 1
REMARK minimizedAffinity -1.4685055
REMARK minimizedRMSD -1
REMARK  0 active torsions:
REMARK  status: ('A' for Active; 'I' for Inactive)
ROOT
ATOM      1  C   UNL d   1       2.398  -1.156  -1.798  0.00  0.00     0.124 A 
ATOM      2  C1  UNL d   1       1.713  -2.118  -1.070  0.00  0.00     0.062 A 
ATOM      3  C2  UNL d   1       0.723  -1.740  -0.168  0.00  0.00     0.162 A 
ATOM      4  C3  UNL d   1       0.410  -0.392   0.010  0.00  0.00    -0.034 A 
ATOM      5  C4  UNL d   1       1.104   0.570  -0.726  0.00  0.00     0.162 A 
ATOM      6  C5  UNL d   1       2.093   0.187  -1.626  0.00  0.00     0.062 A 
ATOM      7  F   UNL d   1       2.754   1.118  -2.329  0.00  0.00    -0.097 F 
ATOM      8  F1  UNL d   1       0.829   1.874  -0.579  0.00  0.00    -0.096 F 
ATOM      9  I   UNL d   1      -1.070   0.177   1.358  0.00  0.00    -0.060 I 
ATOM     10  F2  UNL d   1       0.077  -2.692   0.523  0.00  0.00    -0.096 F 
ATOM     11  F3  UNL d   1       2.007  -3.416  -1.234  0.00  0.00    -0.097 F 
ATOM     12  F4  UNL d   1       3.351  -1.523  -2.665  0.00  0.00    -0.092 F 
ENDROOT
TORSDOF 0
ENDMDL
