MODEL 1
REMARK minimizedAffinity 1.66370761
REMARK minimizedRMSD -1
REMARK  0 active torsions:
REMARK  status: ('A' for Active; 'I' for Inactive)
ROOT
ATOM      1  C   UNL d   1       1.516  -0.651  -0.822  0.00  0.00     0.124 A 
ATOM      2  C1  UNL d   1       1.213   0.704  -0.787  0.00  0.00     0.062 A 
ATOM      3  C2  UNL d   1       0.112   1.156  -0.067  0.00  0.00     0.162 A 
ATOM      4  C3  UNL d   1      -0.696   0.253   0.625  0.00  0.00    -0.034 A 
ATOM      5  C4  UNL d   1      -0.386  -1.107   0.584  0.00  0.00     0.162 A 
ATOM      6  C5  UNL d   1       0.717  -1.554  -0.137  0.00  0.00     0.062 A 
ATOM      7  F   UNL d   1       1.007  -2.863  -0.170  0.00  0.00    -0.097 F 
ATOM      8  F1  UNL d   1      -1.141  -2.002   1.238  0.00  0.00    -0.096 F 
ATOM      9  I   UNL d   1      -2.344   0.926   1.703  0.00  0.00    -0.060 I 
ATOM     10  F2  UNL d   1      -0.157   2.470  -0.050  0.00  0.00    -0.096 F 
ATOM     11  F3  UNL d   1       1.984   1.579  -1.449  0.00  0.00    -0.097 F 
ATOM     12  F4  UNL d   1       2.576  -1.083  -1.517  0.00  0.00    -0.092 F 
ENDROOT
TORSDOF 0
ENDMDL
