MODEL 1
REMARK minimizedAffinity -0.849391401
REMARK minimizedRMSD -1
REMARK  0 active torsions:
REMARK  status: ('A' for Active; 'I' for Inactive)
ROOT
ATOM      1  C   UNL d   1       2.132  -1.127  -1.595  0.00  0.00     0.124 A 
ATOM      2  C1  UNL d   1       1.792   0.214  -1.485  0.00  0.00     0.062 A 
ATOM      3  C2  UNL d   1       0.867   0.625  -0.529  0.00  0.00     0.162 A 
ATOM      4  C3  UNL d   1       0.276  -0.306   0.325  0.00  0.00    -0.034 A 
ATOM      5  C4  UNL d   1       0.622  -1.653   0.207  0.00  0.00     0.162 A 
ATOM      6  C5  UNL d   1       1.547  -2.059  -0.750  0.00  0.00     0.062 A 
ATOM      7  F   UNL d   1       1.874  -3.356  -0.856  0.00  0.00    -0.097 F 
ATOM      8  F1  UNL d   1       0.073  -2.575   1.011  0.00  0.00    -0.096 F 
ATOM      9  I   UNL d   1      -1.107   0.305   1.755  0.00  0.00    -0.060 I 
ATOM     10  F2  UNL d   1       0.558   1.928  -0.444  0.00  0.00    -0.096 F 
ATOM     11  F3  UNL d   1       2.355   1.116  -2.301  0.00  0.00    -0.097 F 
ATOM     12  F4  UNL d   1       3.021  -1.520  -2.516  0.00  0.00    -0.092 F 
ENDROOT
TORSDOF 0
ENDMDL
