MODEL 1
REMARK minimizedAffinity 0.662573397
REMARK minimizedRMSD -1
REMARK  0 active torsions:
REMARK  status: ('A' for Active; 'I' for Inactive)
ROOT
ATOM      1  C   UNL d   1       1.511  -0.154  -1.230  0.00  0.00     0.124 A 
ATOM      2  C1  UNL d   1       1.127   1.171  -1.077  0.00  0.00     0.062 A 
ATOM      3  C2  UNL d   1       0.084   1.503  -0.217  0.00  0.00     0.162 A 
ATOM      4  C3  UNL d   1      -0.583   0.508   0.497  0.00  0.00    -0.034 A 
ATOM      5  C4  UNL d   1      -0.192  -0.823   0.337  0.00  0.00     0.162 A 
ATOM      6  C5  UNL d   1       0.851  -1.149  -0.524  0.00  0.00     0.062 A 
ATOM      7  F   UNL d   1       1.220  -2.430  -0.671  0.00  0.00    -0.097 F 
ATOM      8  F1  UNL d   1      -0.812  -1.805   1.008  0.00  0.00    -0.096 F 
ATOM      9  I   UNL d   1      -2.143   1.000   1.784  0.00  0.00    -0.060 I 
ATOM     10  F2  UNL d   1      -0.265   2.792  -0.088  0.00  0.00    -0.096 F 
ATOM     11  F3  UNL d   1       1.763   2.135  -1.759  0.00  0.00    -0.097 F 
ATOM     12  F4  UNL d   1       2.514  -0.470  -2.059  0.00  0.00    -0.092 F 
ENDROOT
TORSDOF 0
ENDMDL
