MODEL 1
REMARK minimizedAffinity 2.62027693
REMARK minimizedRMSD -1
REMARK  0 active torsions:
REMARK  status: ('A' for Active; 'I' for Inactive)
ROOT
ATOM      1  C   UNL d   1       2.205  -1.029  -1.539  0.00  0.00     0.124 A 
ATOM      2  C1  UNL d   1       1.574  -2.037  -0.823  0.00  0.00     0.062 A 
ATOM      3  C2  UNL d   1       0.516  -1.734   0.029  0.00  0.00     0.162 A 
ATOM      4  C3  UNL d   1       0.082  -0.416   0.170  0.00  0.00    -0.034 A 
ATOM      5  C4  UNL d   1       0.722   0.593  -0.552  0.00  0.00     0.162 A 
ATOM      6  C5  UNL d   1       1.779   0.284  -1.402  0.00  0.00     0.062 A 
ATOM      7  F   UNL d   1       2.388   1.260  -2.092  0.00  0.00    -0.097 F 
ATOM      8  F1  UNL d   1       0.330   1.870  -0.440  0.00  0.00    -0.096 F 
ATOM      9  I   UNL d   1      -1.500   0.041   1.443  0.00  0.00    -0.060 I 
ATOM     10  F2  UNL d   1      -0.075  -2.728   0.708  0.00  0.00    -0.096 F 
ATOM     11  F3  UNL d   1       1.985  -3.307  -0.953  0.00  0.00    -0.097 F 
ATOM     12  F4  UNL d   1       3.224  -1.324  -2.357  0.00  0.00    -0.092 F 
ENDROOT
TORSDOF 0
ENDMDL
