MODEL 1
REMARK minimizedAffinity 0.219777584
REMARK minimizedRMSD -1
REMARK  0 active torsions:
REMARK  status: ('A' for Active; 'I' for Inactive)
ROOT
ATOM      1  C   UNL d   1       1.808  -0.306  -1.286  0.00  0.00     0.124 A 
ATOM      2  C1  UNL d   1       1.135   0.902  -1.409  0.00  0.00     0.062 A 
ATOM      3  C2  UNL d   1      -0.004   1.149  -0.648  0.00  0.00     0.162 A 
ATOM      4  C3  UNL d   1      -0.477   0.186   0.244  0.00  0.00    -0.034 A 
ATOM      5  C4  UNL d   1       0.205  -1.027   0.361  0.00  0.00     0.162 A 
ATOM      6  C5  UNL d   1       1.343  -1.268  -0.402  0.00  0.00     0.062 A 
ATOM      7  F   UNL d   1       1.992  -2.436  -0.282  0.00  0.00    -0.097 F 
ATOM      8  F1  UNL d   1      -0.223  -1.974   1.208  0.00  0.00    -0.096 F 
ATOM      9  I   UNL d   1      -2.180   0.551   1.383  0.00  0.00    -0.060 I 
ATOM     10  F2  UNL d   1      -0.635   2.324  -0.787  0.00  0.00    -0.096 F 
ATOM     11  F3  UNL d   1       1.582   1.834  -2.263  0.00  0.00    -0.097 F 
ATOM     12  F4  UNL d   1       2.903  -0.541  -2.020  0.00  0.00    -0.092 F 
ENDROOT
TORSDOF 0
ENDMDL
