MODEL 1
REMARK minimizedAffinity -1.54841161
REMARK minimizedRMSD -1
REMARK  0 active torsions:
REMARK  status: ('A' for Active; 'I' for Inactive)
ROOT
ATOM      1  C   UNL d   1       1.157   1.148  -0.831  0.00  0.00     0.124 A 
ATOM      2  C1  UNL d   1       0.993   1.055   0.544  0.00  0.00     0.062 A 
ATOM      3  C2  UNL d   1      -0.241   0.698   1.080  0.00  0.00     0.162 A 
ATOM      4  C3  UNL d   1      -1.321   0.429   0.240  0.00  0.00    -0.034 A 
ATOM      5  C4  UNL d   1      -1.149   0.526  -1.142  0.00  0.00     0.162 A 
ATOM      6  C5  UNL d   1       0.086   0.883  -1.673  0.00  0.00     0.062 A 
ATOM      7  F   UNL d   1       0.242   0.973  -3.001  0.00  0.00    -0.097 F 
ATOM      8  F1  UNL d   1      -2.167   0.275  -1.979  0.00  0.00    -0.096 F 
ATOM      9  I   UNL d   1      -3.168  -0.105   1.037  0.00  0.00    -0.060 I 
ATOM     10  F2  UNL d   1      -0.370   0.616   2.412  0.00  0.00    -0.096 F 
ATOM     11  F3  UNL d   1       2.027   1.311   1.360  0.00  0.00    -0.097 F 
ATOM     12  F4  UNL d   1       2.345   1.493  -1.343  0.00  0.00    -0.092 F 
ENDROOT
TORSDOF 0
ENDMDL
