MODEL 1
REMARK minimizedAffinity 1.35554457
REMARK minimizedRMSD -1
REMARK  0 active torsions:
REMARK  status: ('A' for Active; 'I' for Inactive)
ROOT
ATOM      1  C   UNL d   1      -1.354   0.072   1.151  0.00  0.00     0.124 A 
ATOM      2  C1  UNL d   1      -0.191  -0.684   1.171  0.00  0.00     0.062 A 
ATOM      3  C2  UNL d   1       0.702  -0.625   0.105  0.00  0.00     0.162 A 
ATOM      4  C3  UNL d   1       0.435   0.196  -0.991  0.00  0.00    -0.034 A 
ATOM      5  C4  UNL d   1      -0.737   0.953  -1.005  0.00  0.00     0.162 A 
ATOM      6  C5  UNL d   1      -1.626   0.890   0.063  0.00  0.00     0.062 A 
ATOM      7  F   UNL d   1      -2.750   1.622   0.042  0.00  0.00    -0.097 F 
ATOM      8  F1  UNL d   1      -1.025   1.753  -2.043  0.00  0.00    -0.096 F 
ATOM      9  I   UNL d   1       1.767   0.288  -2.588  0.00  0.00    -0.060 I 
ATOM     10  F2  UNL d   1       1.818  -1.367   0.151  0.00  0.00    -0.096 F 
ATOM     11  F3  UNL d   1       0.074  -1.476   2.220  0.00  0.00    -0.097 F 
ATOM     12  F4  UNL d   1      -2.212   0.012   2.178  0.00  0.00    -0.092 F 
ENDROOT
TORSDOF 0
ENDMDL
