MODEL 1
REMARK minimizedAffinity 2.48677039
REMARK minimizedRMSD -1
REMARK  0 active torsions:
REMARK  status: ('A' for Active; 'I' for Inactive)
ROOT
ATOM      1  C   UNL d   1      -2.169   0.216   2.009  0.00  0.00     0.124 A 
ATOM      2  C1  UNL d   1      -2.358   1.371   1.263  0.00  0.00     0.062 A 
ATOM      3  C2  UNL d   1      -1.434   1.734   0.288  0.00  0.00     0.162 A 
ATOM      4  C3  UNL d   1      -0.311   0.940   0.052  0.00  0.00    -0.034 A 
ATOM      5  C4  UNL d   1      -0.127  -0.219   0.807  0.00  0.00     0.162 A 
ATOM      6  C5  UNL d   1      -1.054  -0.578   1.781  0.00  0.00     0.062 A 
ATOM      7  F   UNL d   1      -0.869  -1.694   2.501  0.00  0.00    -0.097 F 
ATOM      8  F1  UNL d   1       0.941  -1.005   0.607  0.00  0.00    -0.096 F 
ATOM      9  I   UNL d   1       1.074   1.480  -1.404  0.00  0.00    -0.060 I 
ATOM     10  F2  UNL d   1      -1.642   2.856  -0.418  0.00  0.00    -0.096 F 
ATOM     11  F3  UNL d   1      -3.434   2.141   1.482  0.00  0.00    -0.097 F 
ATOM     12  F4  UNL d   1      -3.060  -0.130   2.947  0.00  0.00    -0.092 F 
ENDROOT
TORSDOF 0
ENDMDL
