MODEL 1
REMARK minimizedAffinity -0.961993754
REMARK minimizedRMSD -1
REMARK  0 active torsions:
REMARK  status: ('A' for Active; 'I' for Inactive)
ROOT
ATOM      1  C   UNL d   1       0.415   1.613  -0.763  0.00  0.00     0.124 A 
ATOM      2  C1  UNL d   1      -0.835   2.216  -0.725  0.00  0.00     0.062 A 
ATOM      3  C2  UNL d   1      -1.824   1.725   0.122  0.00  0.00     0.162 A 
ATOM      4  C3  UNL d   1      -1.567   0.624   0.939  0.00  0.00    -0.034 A 
ATOM      5  C4  UNL d   1      -0.309   0.021   0.894  0.00  0.00     0.162 A 
ATOM      6  C5  UNL d   1       0.676   0.516   0.046  0.00  0.00     0.062 A 
ATOM      7  F   UNL d   1       1.883  -0.068   0.010  0.00  0.00    -0.097 F 
ATOM      8  F1  UNL d   1      -0.028  -1.039   1.666  0.00  0.00    -0.096 F 
ATOM      9  I   UNL d   1      -3.043  -0.114   2.207  0.00  0.00    -0.060 I 
ATOM     10  F2  UNL d   1      -3.022   2.327   0.139  0.00  0.00    -0.096 F 
ATOM     11  F3  UNL d   1      -1.091   3.275  -1.507  0.00  0.00    -0.097 F 
ATOM     12  F4  UNL d   1       1.364   2.087  -1.580  0.00  0.00    -0.092 F 
ENDROOT
TORSDOF 0
ENDMDL
