MODEL 1
REMARK minimizedAffinity -0.154191658
REMARK minimizedRMSD -1
REMARK  0 active torsions:
REMARK  status: ('A' for Active; 'I' for Inactive)
ROOT
ATOM      1  C   UNL d   1       0.049   1.129   1.538  0.00  0.00    -0.002 A 
ATOM      2  C1  UNL d   1      -0.085  -0.247   1.429  0.00  0.00     0.010 A 
ATOM      3  C2  UNL d   1      -1.153  -0.908   2.041  0.00  0.00     0.041 A 
ATOM      4  C3  UNL d   1      -2.094  -0.153   2.768  0.00  0.00    -0.075 A 
ATOM      5  S   UNL d   1      -3.483  -0.747   3.600  0.00  0.00     0.015 SA
ATOM      6  C4  UNL d   1      -3.932   0.814   4.118  0.00  0.00     0.022 A 
ATOM      7  C5  UNL d   1      -3.054   1.776   3.677  0.00  0.00     0.026 A 
ATOM      8  C6  UNL d   1      -1.981   1.235   2.891  0.00  0.00    -0.082 A 
ATOM      9  C7  UNL d   1      -0.887   1.874   2.261  0.00  0.00     0.045 A 
ENDROOT
TORSDOF 0
ENDMDL
