MODEL 1
REMARK minimizedAffinity 3.95482206
REMARK minimizedRMSD -1
REMARK  0 active torsions:
REMARK  status: ('A' for Active; 'I' for Inactive)
ROOT
ATOM      1  C   UNL d   1       0.213   1.736   1.652  0.00  0.00    -0.002 A 
ATOM      2  C1  UNL d   1      -0.062   0.379   1.561  0.00  0.00     0.010 A 
ATOM      3  C2  UNL d   1      -1.216  -0.153   2.140  0.00  0.00     0.041 A 
ATOM      4  C3  UNL d   1      -2.098   0.712   2.818  0.00  0.00    -0.075 A 
ATOM      5  S   UNL d   1      -3.573   0.285   3.603  0.00  0.00     0.015 SA
ATOM      6  C4  UNL d   1      -3.872   1.895   4.077  0.00  0.00     0.022 A 
ATOM      7  C5  UNL d   1      -2.882   2.750   3.656  0.00  0.00     0.026 A 
ATOM      8  C6  UNL d   1      -1.843   2.082   2.922  0.00  0.00    -0.082 A 
ATOM      9  C7  UNL d   1      -0.664   2.590   2.325  0.00  0.00     0.045 A 
ENDROOT
TORSDOF 0
ENDMDL
