MODEL 1
REMARK minimizedAffinity -3.68894553
REMARK minimizedRMSD -1
REMARK  0 active torsions:
REMARK  status: ('A' for Active; 'I' for Inactive)
ROOT
ATOM      1  C   UNL d   1       0.411   1.444   1.046  0.00  0.00    -0.002 A 
ATOM      2  C1  UNL d   1      -0.018   0.161   0.737  0.00  0.00     0.010 A 
ATOM      3  C2  UNL d   1      -1.259  -0.300   1.180  0.00  0.00     0.041 A 
ATOM      4  C3  UNL d   1      -2.071   0.560   1.946  0.00  0.00    -0.075 A 
ATOM      5  S   UNL d   1      -3.629   0.212   2.597  0.00  0.00     0.015 SA
ATOM      6  C4  UNL d   1      -3.763   1.758   3.300  0.00  0.00     0.022 A 
ATOM      7  C5  UNL d   1      -2.655   2.534   3.055  0.00  0.00     0.026 A 
ATOM      8  C6  UNL d   1      -1.662   1.856   2.270  0.00  0.00    -0.082 A 
ATOM      9  C7  UNL d   1      -0.397   2.294   1.806  0.00  0.00     0.045 A 
ENDROOT
TORSDOF 0
ENDMDL
