MODEL 1
REMARK minimizedAffinity -0.745482445
REMARK minimizedRMSD -1
REMARK  0 active torsions:
REMARK  status: ('A' for Active; 'I' for Inactive)
ROOT
ATOM      1  C   UNL d   1       0.568  -0.843   1.053  0.00  0.00    -0.002 A 
ATOM      2  C1  UNL d   1       1.197   0.393   1.070  0.00  0.00     0.010 A 
ATOM      3  C2  UNL d   1       0.478   1.552   1.366  0.00  0.00     0.041 A 
ATOM      4  C3  UNL d   1      -0.898   1.446   1.650  0.00  0.00    -0.075 A 
ATOM      5  S   UNL d   1      -1.981   2.730   2.041  0.00  0.00     0.015 SA
ATOM      6  C4  UNL d   1      -3.304   1.667   2.195  0.00  0.00     0.022 A 
ATOM      7  C5  UNL d   1      -2.946   0.361   1.958  0.00  0.00     0.026 A 
ATOM      8  C6  UNL d   1      -1.554   0.212   1.640  0.00  0.00    -0.082 A 
ATOM      9  C7  UNL d   1      -0.797  -0.945   1.335  0.00  0.00     0.045 A 
ENDROOT
TORSDOF 0
ENDMDL
