MODEL 1
REMARK minimizedAffinity -1.01145995
REMARK minimizedRMSD -1
REMARK  0 active torsions:
REMARK  status: ('A' for Active; 'I' for Inactive)
ROOT
ATOM      1  C   UNL d   1       1.124   0.142   0.306  0.00  0.00    -0.002 A 
ATOM      2  C1  UNL d   1       1.279   1.453   0.735  0.00  0.00     0.010 A 
ATOM      3  C2  UNL d   1       0.320   2.050   1.554  0.00  0.00     0.041 A 
ATOM      4  C3  UNL d   1      -0.809   1.300   1.941  0.00  0.00    -0.075 A 
ATOM      5  S   UNL d   1      -2.112   1.823   2.940  0.00  0.00     0.015 SA
ATOM      6  C4  UNL d   1      -2.905   0.319   2.822  0.00  0.00     0.022 A 
ATOM      7  C5  UNL d   1      -2.207  -0.572   2.043  0.00  0.00     0.026 A 
ATOM      8  C6  UNL d   1      -0.987  -0.022   1.522  0.00  0.00    -0.082 A 
ATOM      9  C7  UNL d   1       0.004  -0.599   0.691  0.00  0.00     0.045 A 
ENDROOT
TORSDOF 0
ENDMDL
