MODEL 1
REMARK minimizedAffinity 5.74970722
REMARK minimizedRMSD -1
REMARK  0 active torsions:
REMARK  status: ('A' for Active; 'I' for Inactive)
ROOT
ATOM      1  C   UNL d   1      -2.711   2.633   2.963  0.00  0.00    -0.002 A 
ATOM      2  C1  UNL d   1      -3.319   1.449   3.353  0.00  0.00     0.010 A 
ATOM      3  C2  UNL d   1      -2.723   0.218   3.073  0.00  0.00     0.041 A 
ATOM      4  C3  UNL d   1      -1.491   0.197   2.389  0.00  0.00    -0.075 A 
ATOM      5  S   UNL d   1      -0.575  -1.192   1.939  0.00  0.00     0.015 SA
ATOM      6  C4  UNL d   1       0.646  -0.246   1.219  0.00  0.00     0.022 A 
ATOM      7  C5  UNL d   1       0.378   1.099   1.311  0.00  0.00     0.026 A 
ATOM      8  C6  UNL d   1      -0.858   1.377   1.987  0.00  0.00    -0.082 A 
ATOM      9  C7  UNL d   1      -1.489   2.609   2.285  0.00  0.00     0.045 A 
ENDROOT
TORSDOF 0
ENDMDL
