MODEL 1
REMARK minimizedAffinity 9.27608395
REMARK minimizedRMSD -1
REMARK  0 active torsions:
REMARK  status: ('A' for Active; 'I' for Inactive)
ROOT
ATOM      1  C   UNL d   1      -0.505  -0.208   1.684  0.00  0.00    -0.002 A 
ATOM      2  C1  UNL d   1      -0.413   1.053   1.113  0.00  0.00     0.010 A 
ATOM      3  C2  UNL d   1      -1.411   1.518   0.254  0.00  0.00     0.041 A 
ATOM      4  C3  UNL d   1      -2.513   0.686  -0.024  0.00  0.00    -0.075 A 
ATOM      5  S   UNL d   1      -3.855   1.045  -1.046  0.00  0.00     0.015 SA
ATOM      6  C4  UNL d   1      -4.581  -0.468  -0.748  0.00  0.00     0.022 A 
ATOM      7  C5  UNL d   1      -3.832  -1.240   0.107  0.00  0.00     0.026 A 
ATOM      8  C6  UNL d   1      -2.628  -0.588   0.539  0.00  0.00    -0.082 A 
ATOM      9  C7  UNL d   1      -1.600  -1.031   1.406  0.00  0.00     0.045 A 
ENDROOT
TORSDOF 0
ENDMDL
