MODEL 1
REMARK minimizedAffinity 0.0423594825
REMARK minimizedRMSD -1
REMARK  0 active torsions:
REMARK  status: ('A' for Active; 'I' for Inactive)
ROOT
ATOM      1  C   UNL d   1      -0.434   1.878   0.621  0.00  0.00    -0.002 A 
ATOM      2  C1  UNL d   1      -1.054   2.168   1.829  0.00  0.00     0.010 A 
ATOM      3  C2  UNL d   1      -0.503   1.727   3.034  0.00  0.00     0.041 A 
ATOM      4  C3  UNL d   1       0.694   0.985   3.005  0.00  0.00    -0.075 A 
ATOM      5  S   UNL d   1       1.552   0.343   4.355  0.00  0.00     0.015 SA
ATOM      6  C4  UNL d   1       2.762  -0.329   3.362  0.00  0.00     0.022 A 
ATOM      7  C5  UNL d   1       2.533  -0.080   2.029  0.00  0.00     0.026 A 
ATOM      8  C6  UNL d   1       1.338   0.682   1.801  0.00  0.00    -0.082 A 
ATOM      9  C7  UNL d   1       0.754   1.142   0.597  0.00  0.00     0.045 A 
ENDROOT
TORSDOF 0
ENDMDL
