MODEL 1
REMARK minimizedAffinity -2.25861812
REMARK minimizedRMSD -1
REMARK  0 active torsions:
REMARK  status: ('A' for Active; 'I' for Inactive)
ROOT
ATOM      1  C   UNL d   1       0.434   1.429   0.934  0.00  0.00    -0.002 A 
ATOM      2  C1  UNL d   1       0.302   0.047   0.927  0.00  0.00     0.010 A 
ATOM      3  C2  UNL d   1      -0.782  -0.566   1.560  0.00  0.00     0.041 A 
ATOM      4  C3  UNL d   1      -1.741   0.240   2.204  0.00  0.00    -0.075 A 
ATOM      5  S   UNL d   1      -3.150  -0.290   3.042  0.00  0.00     0.015 SA
ATOM      6  C4  UNL d   1      -3.612   1.304   3.429  0.00  0.00     0.022 A 
ATOM      7  C5  UNL d   1      -2.723   2.231   2.938  0.00  0.00     0.026 A 
ATOM      8  C6  UNL d   1      -1.630   1.633   2.223  0.00  0.00    -0.082 A 
ATOM      9  C7  UNL d   1      -0.520   2.225   1.574  0.00  0.00     0.045 A 
ENDROOT
TORSDOF 0
ENDMDL
