MODEL 1
REMARK minimizedAffinity 1.93599916
REMARK minimizedRMSD -1
REMARK  0 active torsions:
REMARK  status: ('A' for Active; 'I' for Inactive)
ROOT
ATOM      1  C   UNL d   1       0.601   0.660   0.690  0.00  0.00    -0.002 A 
ATOM      2  C1  UNL d   1       0.085  -0.623   0.802  0.00  0.00     0.010 A 
ATOM      3  C2  UNL d   1      -1.075  -0.860   1.542  0.00  0.00     0.041 A 
ATOM      4  C3  UNL d   1      -1.714   0.225   2.172  0.00  0.00    -0.075 A 
ATOM      5  S   UNL d   1      -3.147   0.173   3.130  0.00  0.00     0.015 SA
ATOM      6  C4  UNL d   1      -3.109   1.854   3.412  0.00  0.00     0.022 A 
ATOM      7  C5  UNL d   1      -2.036   2.455   2.798  0.00  0.00     0.026 A 
ATOM      8  C6  UNL d   1      -1.215   1.526   2.073  0.00  0.00    -0.082 A 
ATOM      9  C7  UNL d   1      -0.036   1.734   1.316  0.00  0.00     0.045 A 
ENDROOT
TORSDOF 0
ENDMDL
