MODEL 1
REMARK minimizedAffinity 6.03038359
REMARK minimizedRMSD -1
REMARK  0 active torsions:
REMARK  status: ('A' for Active; 'I' for Inactive)
ROOT
ATOM      1  C   UNL d   1      -2.690   3.014   1.956  0.00  0.00    -0.002 A 
ATOM      2  C1  UNL d   1      -3.126   1.887   2.638  0.00  0.00     0.010 A 
ATOM      3  C2  UNL d   1      -2.292   0.776   2.781  0.00  0.00     0.041 A 
ATOM      4  C3  UNL d   1      -0.998   0.820   2.224  0.00  0.00    -0.075 A 
ATOM      5  S   UNL d   1       0.198  -0.421   2.276  0.00  0.00     0.015 SA
ATOM      6  C4  UNL d   1       1.316   0.516   1.395  0.00  0.00     0.022 A 
ATOM      7  C5  UNL d   1       0.805   1.749   1.061  0.00  0.00     0.026 A 
ATOM      8  C6  UNL d   1      -0.536   1.944   1.534  0.00  0.00    -0.082 A 
ATOM      9  C7  UNL d   1      -1.407   3.053   1.405  0.00  0.00     0.045 A 
ENDROOT
TORSDOF 0
ENDMDL
