MODEL 1
REMARK minimizedAffinity 2.78766251
REMARK minimizedRMSD -1
REMARK  0 active torsions:
REMARK  status: ('A' for Active; 'I' for Inactive)
ROOT
ATOM      1  C   UNL d   1      -1.633   1.107   2.543  0.00  0.00    -0.002 A 
ATOM      2  C1  UNL d   1      -1.562  -0.254   2.279  0.00  0.00     0.010 A 
ATOM      3  C2  UNL d   1      -0.435  -0.800   1.662  0.00  0.00     0.041 A 
ATOM      4  C3  UNL d   1       0.631   0.052   1.314  0.00  0.00    -0.075 A 
ATOM      5  S   UNL d   1       2.112  -0.394   0.552  0.00  0.00     0.015 SA
ATOM      6  C4  UNL d   1       2.686   1.210   0.560  0.00  0.00     0.022 A 
ATOM      7  C5  UNL d   1       1.783   2.078   1.126  0.00  0.00     0.026 A 
ATOM      8  C6  UNL d   1       0.584   1.425   1.571  0.00  0.00    -0.082 A 
ATOM      9  C7  UNL d   1      -0.573   1.949   2.196  0.00  0.00     0.045 A 
ENDROOT
TORSDOF 0
ENDMDL
