MODEL 1
REMARK minimizedAffinity -1.89503372
REMARK minimizedRMSD -1
REMARK  0 active torsions:
REMARK  status: ('A' for Active; 'I' for Inactive)
ROOT
ATOM      1  C   UNL d   1      -2.233   1.342   2.572  0.00  0.00    -0.002 A 
ATOM      2  C1  UNL d   1      -2.453   0.042   2.139  0.00  0.00     0.010 A 
ATOM      3  C2  UNL d   1      -1.465  -0.649   1.435  0.00  0.00     0.041 A 
ATOM      4  C3  UNL d   1      -0.239  -0.006   1.173  0.00  0.00    -0.075 A 
ATOM      5  S   UNL d   1       1.117  -0.657   0.330  0.00  0.00     0.015 SA
ATOM      6  C4  UNL d   1       2.020   0.775   0.525  0.00  0.00     0.022 A 
ATOM      7  C5  UNL d   1       1.320   1.736   1.214  0.00  0.00     0.026 A 
ATOM      8  C6  UNL d   1       0.007   1.302   1.600  0.00  0.00    -0.082 A 
ATOM      9  C7  UNL d   1      -1.016   1.976   2.310  0.00  0.00     0.045 A 
ENDROOT
TORSDOF 0
ENDMDL
