MODEL 1
REMARK minimizedAffinity 1.20434451
REMARK minimizedRMSD -1
REMARK  0 active torsions:
REMARK  status: ('A' for Active; 'I' for Inactive)
ROOT
ATOM      1  C   UNL d   1       3.047   0.576  -1.450  0.00  0.00    -0.002 A 
ATOM      2  C1  UNL d   1       3.350  -0.558  -0.710  0.00  0.00     0.010 A 
ATOM      3  C2  UNL d   1       2.583  -0.905   0.404  0.00  0.00     0.041 A 
ATOM      4  C3  UNL d   1       1.494  -0.087   0.763  0.00  0.00    -0.075 A 
ATOM      5  S   UNL d   1       0.413  -0.317   2.087  0.00  0.00     0.015 SA
ATOM      6  C4  UNL d   1      -0.477   1.084   1.701  0.00  0.00     0.022 A 
ATOM      7  C5  UNL d   1       0.024   1.724   0.592  0.00  0.00     0.026 A 
ATOM      8  C6  UNL d   1       1.168   1.059   0.033  0.00  0.00    -0.082 A 
ATOM      9  C7  UNL d   1       1.965   1.385  -1.091  0.00  0.00     0.045 A 
ENDROOT
TORSDOF 0
ENDMDL
