MODEL 1
REMARK minimizedAffinity 4.37290955
REMARK minimizedRMSD -1
REMARK  2 active torsions:
REMARK  status: ('A' for Active; 'I' for Inactive)
REMARK    1  A    between atoms: C2'_3  and  C1'_4 
REMARK    2  A    between atoms: C1'_4  and  C1_5 
ROOT
ATOM      1  C1  I4B d   1       1.955  -0.290  -2.640  0.00  0.00    -0.075 A 
ATOM      2  C2  I4B d   1       2.912  -1.264  -2.502  0.00  0.00     0.003 A 
ATOM      3  C3  I4B d   1       3.703  -1.325  -1.329  0.00  0.00     0.002 A 
ATOM      4  C4  I4B d   1       3.540  -0.368  -0.349  0.00  0.00    -0.004 A 
ATOM      5  C5  I4B d   1       2.554   0.605  -0.480  0.00  0.00     0.002 A 
ATOM      6  C6  I4B d   1       1.748   0.638  -1.627  0.00  0.00     0.003 A 
ENDROOT
BRANCH   1   7
ATOM      7  C1' I4B d   1       1.160  -0.235  -3.906  0.00  0.00     0.060 C 
BRANCH   7   8
ATOM      8  C2' I4B d   1      -0.309  -0.272  -3.536  0.00  0.00    -0.013 C 
ATOM      9  C4' I4B d   1      -1.175   0.124  -4.702  0.00  0.00     0.013 C 
ATOM     10  C3' I4B d   1      -0.633  -1.660  -3.068  0.00  0.00     0.013 C 
ENDBRANCH   7   8
ENDBRANCH   1   7
TORSDOF 2
ENDMDL
