MODEL 1
REMARK minimizedAffinity -1.13325775
REMARK minimizedRMSD -1
REMARK  2 active torsions:
REMARK  status: ('A' for Active; 'I' for Inactive)
REMARK    1  A    between atoms: C2'_3  and  C1'_4 
REMARK    2  A    between atoms: C1'_4  and  C1_5 
ROOT
ATOM      1  C1  I4B d   1       2.419   0.272  -1.006  0.00  0.00    -0.075 A 
ATOM      2  C2  I4B d   1       1.975   0.719   0.213  0.00  0.00     0.003 A 
ATOM      3  C3  I4B d   1       0.587   0.863   0.458  0.00  0.00     0.002 A 
ATOM      4  C4  I4B d   1      -0.312   0.598  -0.554  0.00  0.00    -0.004 A 
ATOM      5  C5  I4B d   1       0.138   0.123  -1.783  0.00  0.00     0.002 A 
ATOM      6  C6  I4B d   1       1.512  -0.053  -2.006  0.00  0.00     0.003 A 
ENDROOT
BRANCH   1   7
ATOM      7  C1' I4B d   1       3.892   0.164  -1.241  0.00  0.00     0.060 C 
BRANCH   7   8
ATOM      8  C2' I4B d   1       4.146  -1.101  -2.036  0.00  0.00    -0.013 C 
ATOM      9  C4' I4B d   1       3.389  -2.268  -1.460  0.00  0.00     0.013 C 
ATOM     10  C3' I4B d   1       3.744  -0.842  -3.458  0.00  0.00     0.013 C 
ENDBRANCH   7   8
ENDBRANCH   1   7
TORSDOF 2
ENDMDL
