MODEL 1
REMARK minimizedAffinity 1.73578811
REMARK minimizedRMSD -1
REMARK  2 active torsions:
REMARK  status: ('A' for Active; 'I' for Inactive)
REMARK    1  A    between atoms: C2'_3  and  C1'_4 
REMARK    2  A    between atoms: C1'_4  and  C1_5 
ROOT
ATOM      1  C1  I4B d   1       2.213   0.070  -1.124  0.00  0.00    -0.075 A 
ATOM      2  C2  I4B d   1       1.213  -0.593  -0.457  0.00  0.00     0.003 A 
ATOM      3  C3  I4B d   1       0.455   0.073   0.536  0.00  0.00     0.002 A 
ATOM      4  C4  I4B d   1       0.763   1.377   0.865  0.00  0.00    -0.004 A 
ATOM      5  C5  I4B d   1       1.762   2.055   0.172  0.00  0.00     0.002 A 
ATOM      6  C6  I4B d   1       2.484   1.402  -0.838  0.00  0.00     0.003 A 
ENDROOT
BRANCH   1   7
ATOM      7  C1' I4B d   1       3.015  -0.674  -2.145  0.00  0.00     0.060 C 
BRANCH   7   8
ATOM      8  C2' I4B d   1       3.431  -1.998  -1.537  0.00  0.00    -0.013 C 
ATOM      9  C4' I4B d   1       3.128  -3.144  -2.467  0.00  0.00     0.013 C 
ATOM     10  C3' I4B d   1       4.896  -1.926  -1.227  0.00  0.00     0.013 C 
ENDBRANCH   7   8
ENDBRANCH   1   7
TORSDOF 2
ENDMDL
