MODEL 1
REMARK minimizedAffinity 5.08445549
REMARK minimizedRMSD -1
REMARK  2 active torsions:
REMARK  status: ('A' for Active; 'I' for Inactive)
REMARK    1  A    between atoms: C2'_3  and  C1'_4 
REMARK    2  A    between atoms: C1'_4  and  C1_5 
ROOT
ATOM      1  C1  I4B d   1      -3.636   2.410  -5.957  0.00  0.00    -0.075 A 
ATOM      2  C2  I4B d   1      -3.359   3.754  -5.984  0.00  0.00     0.003 A 
ATOM      3  C3  I4B d   1      -4.414   4.699  -5.978  0.00  0.00     0.002 A 
ATOM      4  C4  I4B d   1      -5.721   4.258  -5.997  0.00  0.00    -0.004 A 
ATOM      5  C5  I4B d   1      -6.000   2.895  -5.947  0.00  0.00     0.002 A 
ATOM      6  C6  I4B d   1      -4.951   1.965  -5.915  0.00  0.00     0.003 A 
ENDROOT
BRANCH   1   7
ATOM      7  C1' I4B d   1      -2.498   1.439  -5.998  0.00  0.00     0.060 C 
BRANCH   7   8
ATOM      8  C2' I4B d   1      -1.393   1.978  -5.112  0.00  0.00    -0.013 C 
ATOM      9  C4' I4B d   1      -0.832   0.899  -4.223  0.00  0.00     0.013 C 
ATOM     10  C3' I4B d   1      -0.331   2.557  -5.998  0.00  0.00     0.013 C 
ENDBRANCH   7   8
ENDBRANCH   1   7
TORSDOF 2
ENDMDL
