MODEL 1
REMARK minimizedAffinity 9.09749508
REMARK minimizedRMSD -1
REMARK  2 active torsions:
REMARK  status: ('A' for Active; 'I' for Inactive)
REMARK    1  A    between atoms: C2'_3  and  C1'_4 
REMARK    2  A    between atoms: C1'_4  and  C1_5 
ROOT
ATOM      1  C1  I4B d   1      -0.253   1.065   0.215  0.00  0.00    -0.075 A 
ATOM      2  C2  I4B d   1       0.029  -0.185   0.708  0.00  0.00     0.003 A 
ATOM      3  C3  I4B d   1       1.251  -0.820   0.380  0.00  0.00     0.002 A 
ATOM      4  C4  I4B d   1       2.134  -0.196  -0.478  0.00  0.00    -0.004 A 
ATOM      5  C5  I4B d   1       1.856   1.081  -0.957  0.00  0.00     0.002 A 
ATOM      6  C6  I4B d   1       0.661   1.721  -0.599  0.00  0.00     0.003 A 
ENDROOT
BRANCH   1   7
ATOM      7  C1' I4B d   1      -1.568   1.693   0.555  0.00  0.00     0.060 C 
BRANCH   7   8
ATOM      8  C2' I4B d   1      -2.169   0.921   1.711  0.00  0.00    -0.013 C 
ATOM      9  C4' I4B d   1      -2.594   1.846   2.822  0.00  0.00     0.013 C 
ATOM     10  C3' I4B d   1      -3.333   0.134   1.187  0.00  0.00     0.013 C 
ENDBRANCH   7   8
ENDBRANCH   1   7
TORSDOF 2
ENDMDL
