MODEL 1
REMARK minimizedAffinity -0.640153646
REMARK minimizedRMSD -1
REMARK  2 active torsions:
REMARK  status: ('A' for Active; 'I' for Inactive)
REMARK    1  A    between atoms: C2'_3  and  C1'_4 
REMARK    2  A    between atoms: C1'_4  and  C1_5 
ROOT
ATOM      1  C1  I4B d   1      -4.365   1.248  -5.966  0.00  0.00    -0.075 A 
ATOM      2  C2  I4B d   1      -5.238   2.306  -5.999  0.00  0.00     0.003 A 
ATOM      3  C3  I4B d   1      -4.751   3.634  -5.938  0.00  0.00     0.002 A 
ATOM      4  C4  I4B d   1      -3.397   3.855  -5.793  0.00  0.00    -0.004 A 
ATOM      5  C5  I4B d   1      -2.511   2.782  -5.783  0.00  0.00     0.002 A 
ATOM      6  C6  I4B d   1      -2.997   1.470  -5.882  0.00  0.00     0.003 A 
ENDROOT
BRANCH   1   7
ATOM      7  C1' I4B d   1      -4.916  -0.143  -6.000  0.00  0.00     0.060 C 
BRANCH   7   8
ATOM      8  C2' I4B d   1      -4.035  -1.015  -5.129  0.00  0.00    -0.013 C 
ATOM      9  C4' I4B d   1      -4.609  -1.160  -3.745  0.00  0.00     0.013 C 
ATOM     10  C3' I4B d   1      -3.896  -2.349  -5.801  0.00  0.00     0.013 C 
ENDBRANCH   7   8
ENDBRANCH   1   7
TORSDOF 2
ENDMDL
