MODEL 1
REMARK minimizedAffinity 1.36400497
REMARK minimizedRMSD -1
REMARK  2 active torsions:
REMARK  status: ('A' for Active; 'I' for Inactive)
REMARK    1  A    between atoms: C2'_3  and  C1'_4 
REMARK    2  A    between atoms: C1'_4  and  C1_5 
ROOT
ATOM      1  C1  I4B d   1      -3.317   2.121  -5.850  0.00  0.00    -0.075 A 
ATOM      2  C2  I4B d   1      -2.203   2.922  -5.797  0.00  0.00     0.003 A 
ATOM      3  C3  I4B d   1      -2.337   4.331  -5.831  0.00  0.00     0.002 A 
ATOM      4  C4  I4B d   1      -3.590   4.892  -5.969  0.00  0.00    -0.004 A 
ATOM      5  C5  I4B d   1      -4.719   4.079  -6.000  0.00  0.00     0.002 A 
ATOM      6  C6  I4B d   1      -4.583   2.685  -5.928  0.00  0.00     0.003 A 
ENDROOT
BRANCH   1   7
ATOM      7  C1' I4B d   1      -3.137   0.636  -5.845  0.00  0.00     0.060 C 
BRANCH   7   8
ATOM      8  C2' I4B d   1      -4.465   0.006  -5.478  0.00  0.00    -0.013 C 
ATOM      9  C4' I4B d   1      -4.564  -1.403  -6.000  0.00  0.00     0.013 C 
ATOM     10  C3' I4B d   1      -4.597   0.041  -3.984  0.00  0.00     0.013 C 
ENDBRANCH   7   8
ENDBRANCH   1   7
TORSDOF 2
ENDMDL
