MODEL 1
REMARK minimizedAffinity 4.11189795
REMARK minimizedRMSD -1
REMARK  2 active torsions:
REMARK  status: ('A' for Active; 'I' for Inactive)
REMARK    1  A    between atoms: C2'_3  and  C1'_4 
REMARK    2  A    between atoms: C1'_4  and  C1_5 
ROOT
ATOM      1  C1  I4B d   1       1.339   0.257  -0.890  0.00  0.00    -0.075 A 
ATOM      2  C2  I4B d   1       2.258   1.200  -1.278  0.00  0.00     0.003 A 
ATOM      3  C3  I4B d   1       2.495   2.338  -0.470  0.00  0.00     0.002 A 
ATOM      4  C4  I4B d   1       1.760   2.517   0.684  0.00  0.00    -0.004 A 
ATOM      5  C5  I4B d   1       0.845   1.549   1.087  0.00  0.00     0.002 A 
ATOM      6  C6  I4B d   1       0.642   0.405   0.302  0.00  0.00     0.003 A 
ENDROOT
BRANCH   1   7
ATOM      7  C1' I4B d   1       1.089  -0.916  -1.784  0.00  0.00     0.060 C 
BRANCH   7   8
ATOM      8  C2' I4B d   1       0.592  -0.392  -3.116  0.00  0.00    -0.013 C 
ATOM      9  C4' I4B d   1      -0.602   0.509  -2.935  0.00  0.00     0.013 C 
ATOM     10  C3' I4B d   1       1.724   0.336  -3.778  0.00  0.00     0.013 C 
ENDBRANCH   7   8
ENDBRANCH   1   7
TORSDOF 2
ENDMDL
