MODEL 1
REMARK minimizedAffinity 4.94186783
REMARK minimizedRMSD -1
REMARK  2 active torsions:
REMARK  status: ('A' for Active; 'I' for Inactive)
REMARK    1  A    between atoms: C2'_3  and  C1'_4 
REMARK    2  A    between atoms: C1'_4  and  C1_5 
ROOT
ATOM      1  C1  I4B d   1       1.730  -0.496  -1.866  0.00  0.00    -0.075 A 
ATOM      2  C2  I4B d   1       0.445  -0.655  -1.411  0.00  0.00     0.003 A 
ATOM      3  C3  I4B d   1      -0.057   0.183  -0.386  0.00  0.00     0.002 A 
ATOM      4  C4  I4B d   1       0.771   1.128   0.186  0.00  0.00    -0.004 A 
ATOM      5  C5  I4B d   1       2.066   1.303  -0.293  0.00  0.00     0.002 A 
ATOM      6  C6  I4B d   1       2.545   0.495  -1.334  0.00  0.00     0.003 A 
ENDROOT
BRANCH   1   7
ATOM      7  C1' I4B d   1       2.239  -1.420  -2.926  0.00  0.00     0.060 C 
BRANCH   7   8
ATOM      8  C2' I4B d   1       2.737  -2.680  -2.248  0.00  0.00    -0.013 C 
ATOM      9  C4' I4B d   1       3.236  -3.681  -3.256  0.00  0.00     0.013 C 
ATOM     10  C3' I4B d   1       3.821  -2.291  -1.288  0.00  0.00     0.013 C 
ENDBRANCH   7   8
ENDBRANCH   1   7
TORSDOF 2
ENDMDL
