MODEL 1
REMARK minimizedAffinity 2.08131886
REMARK minimizedRMSD -1
REMARK  2 active torsions:
REMARK  status: ('A' for Active; 'I' for Inactive)
REMARK    1  A    between atoms: C2'_3  and  C1'_4 
REMARK    2  A    between atoms: C1'_4  and  C1_5 
ROOT
ATOM      1  C1  I4B d   1      -4.067  -2.243   0.888  0.00  0.00    -0.075 A 
ATOM      2  C2  I4B d   1      -4.143  -0.918   0.537  0.00  0.00     0.003 A 
ATOM      3  C3  I4B d   1      -4.331   0.073   1.530  0.00  0.00     0.002 A 
ATOM      4  C4  I4B d   1      -4.488  -0.307   2.848  0.00  0.00    -0.004 A 
ATOM      5  C5  I4B d   1      -4.387  -1.649   3.205  0.00  0.00     0.002 A 
ATOM      6  C6  I4B d   1      -4.163  -2.622   2.220  0.00  0.00     0.003 A 
ENDROOT
BRANCH   1   7
ATOM      7  C1' I4B d   1      -3.900  -3.266  -0.191  0.00  0.00     0.060 C 
BRANCH   7   8
ATOM      8  C2' I4B d   1      -2.433  -3.638  -0.260  0.00  0.00    -0.013 C 
ATOM      9  C4' I4B d   1      -1.739  -2.912  -1.382  0.00  0.00     0.013 C 
ATOM     10  C3' I4B d   1      -1.810  -3.310   1.065  0.00  0.00     0.013 C 
ENDBRANCH   7   8
ENDBRANCH   1   7
TORSDOF 2
ENDMDL
