MODEL 1
REMARK minimizedAffinity 11.598918
REMARK minimizedRMSD -1
REMARK  2 active torsions:
REMARK  status: ('A' for Active; 'I' for Inactive)
REMARK    1  A    between atoms: C2'_3  and  C1'_4 
REMARK    2  A    between atoms: C1'_4  and  C1_5 
ROOT
ATOM      1  C1  I4B d   1      -2.178   2.058  -5.951  0.00  0.00    -0.075 A 
ATOM      2  C2  I4B d   1      -3.458   1.563  -5.978  0.00  0.00     0.003 A 
ATOM      3  C3  I4B d   1      -4.564   2.446  -5.995  0.00  0.00     0.002 A 
ATOM      4  C4  I4B d   1      -4.347   3.808  -5.935  0.00  0.00    -0.004 A 
ATOM      5  C5  I4B d   1      -3.049   4.309  -5.931  0.00  0.00     0.002 A 
ATOM      6  C6  I4B d   1      -1.957   3.429  -5.952  0.00  0.00     0.003 A 
ENDROOT
BRANCH   1   7
ATOM      7  C1' I4B d   1      -1.034   1.096  -5.900  0.00  0.00     0.060 C 
BRANCH   7   8
ATOM      8  C2' I4B d   1      -0.945   0.551  -4.489  0.00  0.00    -0.013 C 
ATOM      9  C4' I4B d   1      -1.765  -0.702  -4.336  0.00  0.00     0.013 C 
ATOM     10  C3' I4B d   1       0.500   0.293  -4.183  0.00  0.00     0.013 C 
ENDBRANCH   7   8
ENDBRANCH   1   7
TORSDOF 2
ENDMDL
