MODEL 1
REMARK minimizedAffinity -0.770959139
REMARK minimizedRMSD -1
REMARK  2 active torsions:
REMARK  status: ('A' for Active; 'I' for Inactive)
REMARK    1  A    between atoms: C2'_3  and  C1'_4 
REMARK    2  A    between atoms: C1'_4  and  C1_5 
ROOT
ATOM      1  C1  I4B d   1       1.086   1.251   0.829  0.00  0.00    -0.075 A 
ATOM      2  C2  I4B d   1       1.010   0.929   2.161  0.00  0.00     0.003 A 
ATOM      3  C3  I4B d   1       1.480   1.836   3.142  0.00  0.00     0.002 A 
ATOM      4  C4  I4B d   1       2.060   3.024   2.746  0.00  0.00    -0.004 A 
ATOM      5  C5  I4B d   1       2.115   3.359   1.396  0.00  0.00     0.002 A 
ATOM      6  C6  I4B d   1       1.614   2.473   0.432  0.00  0.00     0.003 A 
ENDROOT
BRANCH   1   7
ATOM      7  C1' I4B d   1       0.611   0.256  -0.181  0.00  0.00     0.060 C 
BRANCH   7   8
ATOM      8  C2' I4B d   1       1.416   0.457  -1.449  0.00  0.00    -0.013 C 
ATOM      9  C4' I4B d   1       2.648  -0.410  -1.456  0.00  0.00     0.013 C 
ATOM     10  C3' I4B d   1       0.528   0.144  -2.616  0.00  0.00     0.013 C 
ENDBRANCH   7   8
ENDBRANCH   1   7
TORSDOF 2
ENDMDL
