MODEL 1
REMARK minimizedAffinity 7.30920839
REMARK minimizedRMSD -1
REMARK  2 active torsions:
REMARK  status: ('A' for Active; 'I' for Inactive)
REMARK    1  A    between atoms: C2'_3  and  C1'_4 
REMARK    2  A    between atoms: C1'_4  and  C1_5 
ROOT
ATOM      1  C1  I4B d   1      -3.219   0.350  -5.851  0.00  0.00    -0.075 A 
ATOM      2  C2  I4B d   1      -3.980   1.492  -5.807  0.00  0.00     0.003 A 
ATOM      3  C3  I4B d   1      -5.393   1.408  -5.822  0.00  0.00     0.002 A 
ATOM      4  C4  I4B d   1      -6.000   0.174  -5.933  0.00  0.00    -0.004 A 
ATOM      5  C5  I4B d   1      -5.228  -0.984  -5.955  0.00  0.00     0.002 A 
ATOM      6  C6  I4B d   1      -3.829  -0.897  -5.901  0.00  0.00     0.003 A 
ENDROOT
BRANCH   1   7
ATOM      7  C1' I4B d   1      -1.729   0.477  -5.866  0.00  0.00     0.060 C 
BRANCH   7   8
ATOM      8  C2' I4B d   1      -1.261   0.659  -4.437  0.00  0.00    -0.013 C 
ATOM      9  C4' I4B d   1      -2.080   1.703  -3.724  0.00  0.00     0.013 C 
ATOM     10  C3' I4B d   1      -1.357  -0.668  -3.745  0.00  0.00     0.013 C 
ENDBRANCH   7   8
ENDBRANCH   1   7
TORSDOF 2
ENDMDL
