MODEL 1
REMARK minimizedAffinity 5.12691736
REMARK minimizedRMSD -1
REMARK  0 active torsions:
REMARK  status: ('A' for Active; 'I' for Inactive)
ROOT
ATOM      1  C   UNL d   1      -3.407  -2.954  -0.789  0.00  0.00     0.023 A 
ATOM      2  C1  UNL d   1      -2.792  -4.086  -0.252  0.00  0.00     0.003 A 
ATOM      3  C2  UNL d   1      -1.972  -4.883  -1.053  0.00  0.00     0.048 A 
ATOM      4  C3  UNL d   1      -1.770  -4.542  -2.390  0.00  0.00     0.023 A 
ATOM      5  C4  UNL d   1      -2.382  -3.410  -2.931  0.00  0.00     0.048 A 
ATOM      6  C5  UNL d   1      -3.202  -2.617  -2.127  0.00  0.00     0.003 A 
ATOM      7  I   UNL d   1      -0.549  -5.726  -3.585  0.00  0.00    -0.146 I 
ENDROOT
TORSDOF 0
ENDMDL
