MODEL 1
REMARK minimizedAffinity 1.50340092
REMARK minimizedRMSD -1
REMARK  0 active torsions:
REMARK  status: ('A' for Active; 'I' for Inactive)
ROOT
ATOM      1  C   UNL d   1      -6.000   1.874   1.124  0.00  0.00     0.023 A 
ATOM      2  C1  UNL d   1      -4.793   2.546   0.935  0.00  0.00     0.003 A 
ATOM      3  C2  UNL d   1      -3.582   1.876   1.120  0.00  0.00     0.048 A 
ATOM      4  C3  UNL d   1      -3.586   0.532   1.495  0.00  0.00     0.023 A 
ATOM      5  C4  UNL d   1      -4.791  -0.145   1.684  0.00  0.00     0.048 A 
ATOM      6  C5  UNL d   1      -5.999   0.530   1.498  0.00  0.00     0.003 A 
ATOM      7  I   UNL d   1      -1.785  -0.468   1.771  0.00  0.00    -0.146 I 
ENDROOT
TORSDOF 0
ENDMDL
