MODEL 1
REMARK minimizedAffinity 9.34244823
REMARK minimizedRMSD -1
REMARK  0 active torsions:
REMARK  status: ('A' for Active; 'I' for Inactive)
ROOT
ATOM      1  C   UNL d   1      -1.829  -0.182   3.631  0.00  0.00     0.023 A 
ATOM      2  C1  UNL d   1      -2.389  -0.861   2.549  0.00  0.00     0.003 A 
ATOM      3  C2  UNL d   1      -2.594  -0.198   1.337  0.00  0.00     0.048 A 
ATOM      4  C3  UNL d   1      -2.235   1.144   1.214  0.00  0.00     0.023 A 
ATOM      5  C4  UNL d   1      -1.673   1.827   2.294  0.00  0.00     0.048 A 
ATOM      6  C5  UNL d   1      -1.471   1.160   3.504  0.00  0.00     0.003 A 
ATOM      7  I   UNL d   1      -2.539   2.133  -0.589  0.00  0.00    -0.146 I 
ENDROOT
TORSDOF 0
ENDMDL
