MODEL 1
REMARK minimizedAffinity 6.02097225
REMARK minimizedRMSD -1
REMARK  0 active torsions:
REMARK  status: ('A' for Active; 'I' for Inactive)
ROOT
ATOM      1  C   UNL d   1      -1.782   1.882  -1.288  0.00  0.00     0.023 A 
ATOM      2  C1  UNL d   1      -2.966   2.243  -1.932  0.00  0.00     0.003 A 
ATOM      3  C2  UNL d   1      -4.178   2.207  -1.238  0.00  0.00     0.048 A 
ATOM      4  C3  UNL d   1      -4.198   1.811   0.099  0.00  0.00     0.023 A 
ATOM      5  C4  UNL d   1      -3.015   1.450   0.747  0.00  0.00     0.048 A 
ATOM      6  C5  UNL d   1      -1.806   1.486   0.049  0.00  0.00     0.003 A 
ATOM      7  I   UNL d   1      -5.999   1.758   1.133  0.00  0.00    -0.146 I 
ENDROOT
TORSDOF 0
ENDMDL
