MODEL 1
REMARK minimizedAffinity 0.600543559
REMARK minimizedRMSD -1
REMARK  0 active torsions:
REMARK  status: ('A' for Active; 'I' for Inactive)
ROOT
ATOM      1  C   UNL d   1      -1.340   0.430   0.180  0.00  0.00     0.023 A 
ATOM      2  C1  UNL d   1      -1.845   1.563  -0.458  0.00  0.00     0.003 A 
ATOM      3  C2  UNL d   1      -3.178   1.936  -0.271  0.00  0.00     0.048 A 
ATOM      4  C3  UNL d   1      -4.000   1.172   0.556  0.00  0.00     0.023 A 
ATOM      5  C4  UNL d   1      -3.499   0.038   1.197  0.00  0.00     0.048 A 
ATOM      6  C5  UNL d   1      -2.166  -0.332   1.006  0.00  0.00     0.003 A 
ATOM      7  I   UNL d   1      -5.983   1.725   0.837  0.00  0.00    -0.146 I 
ENDROOT
TORSDOF 0
ENDMDL
