MODEL 1
REMARK minimizedAffinity 9.42050743
REMARK minimizedRMSD -1
REMARK  0 active torsions:
REMARK  status: ('A' for Active; 'I' for Inactive)
ROOT
ATOM      1  C   UNL d   1      -4.757  -0.040   1.469  0.00  0.00     0.023 A 
ATOM      2  C1  UNL d   1      -3.430  -0.407   1.247  0.00  0.00     0.003 A 
ATOM      3  C2  UNL d   1      -2.627   0.352   0.393  0.00  0.00     0.048 A 
ATOM      4  C3  UNL d   1      -3.157   1.478  -0.234  0.00  0.00     0.023 A 
ATOM      5  C4  UNL d   1      -4.485   1.851  -0.014  0.00  0.00     0.048 A 
ATOM      6  C5  UNL d   1      -5.284   1.088   0.840  0.00  0.00     0.003 A 
ATOM      7  I   UNL d   1      -1.965   2.610  -1.505  0.00  0.00    -0.146 I 
ENDROOT
TORSDOF 0
ENDMDL
