MODEL 1
REMARK minimizedAffinity 10.1240215
REMARK minimizedRMSD -1
REMARK  0 active torsions:
REMARK  status: ('A' for Active; 'I' for Inactive)
ROOT
ATOM      1  C   UNL d   1       2.574   0.855  -1.611  0.00  0.00     0.023 A 
ATOM      2  C1  UNL d   1       3.252   0.132  -0.629  0.00  0.00     0.003 A 
ATOM      3  C2  UNL d   1       4.090   0.793   0.272  0.00  0.00     0.048 A 
ATOM      4  C3  UNL d   1       4.244   2.176   0.187  0.00  0.00     0.023 A 
ATOM      5  C4  UNL d   1       3.567   2.903  -0.794  0.00  0.00     0.048 A 
ATOM      6  C5  UNL d   1       2.731   2.238  -1.693  0.00  0.00     0.003 A 
ATOM      7  I   UNL d   1       5.490   3.161   1.527  0.00  0.00    -0.146 I 
ENDROOT
TORSDOF 0
ENDMDL
