MODEL 1
REMARK minimizedAffinity 9.5779047
REMARK minimizedRMSD -1
REMARK  0 active torsions:
REMARK  status: ('A' for Active; 'I' for Inactive)
ROOT
ATOM      1  C   UNL d   1       1.105   1.144   1.470  0.00  0.00     0.023 A 
ATOM      2  C1  UNL d   1       2.203   0.753   0.703  0.00  0.00     0.003 A 
ATOM      3  C2  UNL d   1       2.159   0.864  -0.688  0.00  0.00     0.048 A 
ATOM      4  C3  UNL d   1       1.015   1.368  -1.306  0.00  0.00     0.023 A 
ATOM      5  C4  UNL d   1      -0.086   1.761  -0.543  0.00  0.00     0.048 A 
ATOM      6  C5  UNL d   1      -0.038   1.647   0.848  0.00  0.00     0.003 A 
ATOM      7  I   UNL d   1       0.948   1.534  -3.377  0.00  0.00    -0.146 I 
ENDROOT
TORSDOF 0
ENDMDL
