MODEL 1
REMARK minimizedAffinity 5.21932888
REMARK minimizedRMSD -1
REMARK  0 active torsions:
REMARK  status: ('A' for Active; 'I' for Inactive)
ROOT
ATOM      1  C   UNL d   1      -0.702   1.498  -4.909  0.00  0.00     0.023 A 
ATOM      2  C1  UNL d   1      -0.315   2.670  -5.558  0.00  0.00     0.003 A 
ATOM      3  C2  UNL d   1      -1.266   3.643  -5.872  0.00  0.00     0.048 A 
ATOM      4  C3  UNL d   1      -2.603   3.437  -5.534  0.00  0.00     0.023 A 
ATOM      5  C4  UNL d   1      -2.995   2.265  -4.884  0.00  0.00     0.048 A 
ATOM      6  C5  UNL d   1      -2.040   1.295  -4.573  0.00  0.00     0.003 A 
ATOM      7  I   UNL d   1      -4.021   4.882  -6.000  0.00  0.00    -0.146 I 
ENDROOT
TORSDOF 0
ENDMDL
