MODEL 1
REMARK minimizedAffinity 9.6653471
REMARK minimizedRMSD -1
REMARK  0 active torsions:
REMARK  status: ('A' for Active; 'I' for Inactive)
ROOT
ATOM      1  C   UNL d   1       2.484   0.184  -0.077  0.00  0.00     0.023 A 
ATOM      2  C1  UNL d   1       1.092   0.101  -0.099  0.00  0.00     0.003 A 
ATOM      3  C2  UNL d   1       0.328   0.947   0.708  0.00  0.00     0.048 A 
ATOM      4  C3  UNL d   1       0.963   1.874   1.534  0.00  0.00     0.023 A 
ATOM      5  C4  UNL d   1       2.356   1.961   1.558  0.00  0.00     0.048 A 
ATOM      6  C5  UNL d   1       3.115   1.113   0.750  0.00  0.00     0.003 A 
ATOM      7  I   UNL d   1      -0.172   3.133   2.736  0.00  0.00    -0.146 I 
ENDROOT
TORSDOF 0
ENDMDL
