MODEL 1
REMARK minimizedAffinity 4.09946108
REMARK minimizedRMSD -1
REMARK  0 active torsions:
REMARK  status: ('A' for Active; 'I' for Inactive)
ROOT
ATOM      1  C   UNL d   1       0.581   3.154   3.015  0.00  0.00     0.023 A 
ATOM      2  C1  UNL d   1      -0.282   2.939   1.940  0.00  0.00     0.003 A 
ATOM      3  C2  UNL d   1       0.163   2.247   0.812  0.00  0.00     0.048 A 
ATOM      4  C3  UNL d   1       1.472   1.770   0.766  0.00  0.00     0.023 A 
ATOM      5  C4  UNL d   1       2.340   1.981   1.839  0.00  0.00     0.048 A 
ATOM      6  C5  UNL d   1       1.890   2.675   2.964  0.00  0.00     0.003 A 
ATOM      7  I   UNL d   1       2.137   0.739  -0.911  0.00  0.00    -0.146 I 
ENDROOT
TORSDOF 0
ENDMDL
