MODEL 1
REMARK minimizedAffinity 1.69914973
REMARK minimizedRMSD -1
REMARK  0 active torsions:
REMARK  status: ('A' for Active; 'I' for Inactive)
ROOT
ATOM      1  C   UNL d   1      -1.151   1.881   1.181  0.00  0.00     0.023 A 
ATOM      2  C1  UNL d   1      -0.327   2.676   1.978  0.00  0.00     0.003 A 
ATOM      3  C2  UNL d   1       1.062   2.576   1.867  0.00  0.00     0.048 A 
ATOM      4  C3  UNL d   1       1.620   1.680   0.955  0.00  0.00     0.023 A 
ATOM      5  C4  UNL d   1       0.799   0.884   0.155  0.00  0.00     0.048 A 
ATOM      6  C5  UNL d   1      -0.589   0.986   0.270  0.00  0.00     0.003 A 
ATOM      7  I   UNL d   1       3.686   1.530   0.787  0.00  0.00    -0.146 I 
ENDROOT
TORSDOF 0
ENDMDL
