MODEL 1
REMARK minimizedAffinity 10.1784678
REMARK minimizedRMSD -1
REMARK  1 active torsions:
REMARK  status: ('A' for Active; 'I' for Inactive)
REMARK    1  A    between atoms: C3_4  and  O_7 
ROOT
ATOM      1  C   UNL d   1       1.816  -1.073   3.730  0.00  0.00    -0.033 A 
ATOM      2  C1  UNL d   1       1.722   0.308   3.909  0.00  0.00     0.039 A 
ATOM      3  C2  UNL d   1       2.205   1.176   2.928  0.00  0.00    -0.080 A 
ATOM      4  C3  UNL d   1       2.778   0.650   1.773  0.00  0.00     0.150 A 
ATOM      5  C4  UNL d   1       2.872  -0.725   1.586  0.00  0.00    -0.007 A 
ATOM      6  C5  UNL d   1       2.390  -1.590   2.567  0.00  0.00     0.039 A 
ENDROOT
BRANCH   4   7
ATOM      7  O   UNL d   1       3.268   1.458   0.789  0.00  0.00    -0.526 OA
ATOM      8  H5  UNL d   1       3.161   2.382   1.069  0.00  0.00     0.418 HD
ENDBRANCH   4   7
TORSDOF 1
ENDMDL
