MODEL 1
REMARK minimizedAffinity 1.15007734
REMARK minimizedRMSD -1
REMARK  1 active torsions:
REMARK  status: ('A' for Active; 'I' for Inactive)
REMARK    1  A    between atoms: C3_4  and  O_7 
ROOT
ATOM      1  C   UNL d   1       5.989  -5.954  -4.959  0.00  0.00    -0.033 A 
ATOM      2  C1  UNL d   1       4.964  -5.985  -5.906  0.00  0.00     0.039 A 
ATOM      3  C2  UNL d   1       3.630  -5.999  -5.494  0.00  0.00    -0.080 A 
ATOM      4  C3  UNL d   1       3.335  -5.981  -4.134  0.00  0.00     0.150 A 
ATOM      5  C4  UNL d   1       4.351  -5.946  -3.184  0.00  0.00    -0.007 A 
ATOM      6  C5  UNL d   1       5.683  -5.933  -3.598  0.00  0.00     0.039 A 
ENDROOT
BRANCH   4   7
ATOM      7  O   UNL d   1       2.048  -5.999  -3.683  0.00  0.00    -0.526 OA
ATOM      8  H5  UNL d   1       1.454  -6.052  -4.450  0.00  0.00     0.418 HD
ENDBRANCH   4   7
TORSDOF 1
ENDMDL
