MODEL 1
REMARK minimizedAffinity 6.22492075
REMARK minimizedRMSD -1
REMARK  1 active torsions:
REMARK  status: ('A' for Active; 'I' for Inactive)
REMARK    1  A    between atoms: C3_4  and  O_7 
ROOT
ATOM      1  C   UNL d   1       3.225  -3.168   3.003  0.00  0.00    -0.033 A 
ATOM      2  C1  UNL d   1       3.209  -2.381   1.850  0.00  0.00     0.039 A 
ATOM      3  C2  UNL d   1       2.515  -1.169   1.839  0.00  0.00    -0.080 A 
ATOM      4  C3  UNL d   1       1.843  -0.756   2.986  0.00  0.00     0.150 A 
ATOM      5  C4  UNL d   1       1.858  -1.533   4.139  0.00  0.00    -0.007 A 
ATOM      6  C5  UNL d   1       2.550  -2.743   4.148  0.00  0.00     0.039 A 
ENDROOT
BRANCH   4   7
ATOM      7  O   UNL d   1       1.149   0.417   3.022  0.00  0.00    -0.526 OA
ATOM      8  H5  UNL d   1       1.203   0.833   2.145  0.00  0.00     0.418 HD
ENDBRANCH   4   7
TORSDOF 1
ENDMDL
