MODEL 1
REMARK minimizedAffinity 10.3439617
REMARK minimizedRMSD -1
REMARK  1 active torsions:
REMARK  status: ('A' for Active; 'I' for Inactive)
REMARK    1  A    between atoms: C3_4  and  O_7 
ROOT
ATOM      1  C   UNL d   1       2.266  -2.095   4.198  0.00  0.00    -0.033 A 
ATOM      2  C1  UNL d   1       1.894  -0.749   4.175  0.00  0.00     0.039 A 
ATOM      3  C2  UNL d   1       2.286   0.068   3.113  0.00  0.00    -0.080 A 
ATOM      4  C3  UNL d   1       3.048  -0.472   2.081  0.00  0.00     0.150 A 
ATOM      5  C4  UNL d   1       3.420  -1.813   2.095  0.00  0.00    -0.007 A 
ATOM      6  C5  UNL d   1       3.028  -2.627   3.157  0.00  0.00     0.039 A 
ENDROOT
BRANCH   4   7
ATOM      7  O   UNL d   1       3.459   0.287   1.026  0.00  0.00    -0.526 OA
ATOM      8  H5  UNL d   1       3.153   1.199   1.165  0.00  0.00     0.418 HD
ENDBRANCH   4   7
TORSDOF 1
ENDMDL
