MODEL 1
REMARK minimizedAffinity 5.58979082
REMARK minimizedRMSD -1
REMARK  1 active torsions:
REMARK  status: ('A' for Active; 'I' for Inactive)
REMARK    1  A    between atoms: C3_4  and  O_7 
ROOT
ATOM      1  C   UNL d   1       2.157  -0.553   1.911  0.00  0.00    -0.033 A 
ATOM      2  C1  UNL d   1       2.222  -1.474   2.958  0.00  0.00     0.039 A 
ATOM      3  C2  UNL d   1       2.450  -1.035   4.264  0.00  0.00    -0.080 A 
ATOM      4  C3  UNL d   1       2.611   0.325   4.509  0.00  0.00     0.150 A 
ATOM      5  C4  UNL d   1       2.544   1.249   3.471  0.00  0.00    -0.007 A 
ATOM      6  C5  UNL d   1       2.317   0.809   2.168  0.00  0.00     0.039 A 
ENDROOT
BRANCH   4   7
ATOM      7  O   UNL d   1       2.840   0.801   5.766  0.00  0.00    -0.526 OA
ATOM      8  H5  UNL d   1       2.889   0.046   6.376  0.00  0.00     0.418 HD
ENDBRANCH   4   7
TORSDOF 1
ENDMDL
