MODEL 1
REMARK minimizedAffinity 7.90982962
REMARK minimizedRMSD -1
REMARK  1 active torsions:
REMARK  status: ('A' for Active; 'I' for Inactive)
REMARK    1  A    between atoms: C3_4  and  O_7 
ROOT
ATOM      1  C   UNL d   1       2.208   3.462   2.274  0.00  0.00    -0.033 A 
ATOM      2  C1  UNL d   1       2.438   2.654   1.158  0.00  0.00     0.039 A 
ATOM      3  C2  UNL d   1       2.247   3.166  -0.127  0.00  0.00    -0.080 A 
ATOM      4  C3  UNL d   1       1.828   4.484  -0.283  0.00  0.00     0.150 A 
ATOM      5  C4  UNL d   1       1.601   5.295   0.824  0.00  0.00    -0.007 A 
ATOM      6  C5  UNL d   1       1.791   4.783   2.107  0.00  0.00     0.039 A 
ENDROOT
BRANCH   4   7
ATOM      7  O   UNL d   1       1.624   5.026  -1.517  0.00  0.00    -0.526 OA
ATOM      8  H5  UNL d   1       1.792   4.341  -2.186  0.00  0.00     0.418 HD
ENDBRANCH   4   7
TORSDOF 1
ENDMDL
