MODEL 1
REMARK minimizedAffinity 2.68100309
REMARK minimizedRMSD -1
REMARK  1 active torsions:
REMARK  status: ('A' for Active; 'I' for Inactive)
REMARK    1  A    between atoms: C3_4  and  O_7 
ROOT
ATOM      1  C   UNL d   1       1.287   3.781   0.187  0.00  0.00    -0.033 A 
ATOM      2  C1  UNL d   1       2.545   3.183   0.091  0.00  0.00     0.039 A 
ATOM      3  C2  UNL d   1       3.587   3.847  -0.560  0.00  0.00    -0.080 A 
ATOM      4  C3  UNL d   1       3.358   5.106  -1.107  0.00  0.00     0.150 A 
ATOM      5  C4  UNL d   1       2.108   5.709  -1.011  0.00  0.00    -0.007 A 
ATOM      6  C5  UNL d   1       1.069   5.044  -0.362  0.00  0.00     0.039 A 
ENDROOT
BRANCH   4   7
ATOM      7  O   UNL d   1       4.343   5.791  -1.755  0.00  0.00    -0.526 OA
ATOM      8  H5  UNL d   1       5.143   5.240  -1.769  0.00  0.00     0.418 HD
ENDBRANCH   4   7
TORSDOF 1
ENDMDL
