MODEL 1
REMARK minimizedAffinity -4.49968433
REMARK minimizedRMSD -1
REMARK  1 active torsions:
REMARK  status: ('A' for Active; 'I' for Inactive)
REMARK    1  A    between atoms: C1_2  and  C2_3 
ROOT
ATOM      1  C2  UNL d   1      -0.171  -0.736  -0.815  0.00  0.00    -0.076 A 
ATOM      2  C3  UNL d   1      -0.739  -2.002  -0.588  0.00  0.00     0.004 A 
ATOM      3  C4  UNL d   1      -1.177  -2.374   0.682  0.00  0.00    -0.003 A 
ATOM      4  C5  UNL d   1      -1.053  -1.486   1.746  0.00  0.00     0.000 A 
ATOM      5  C6  UNL d   1      -0.508  -0.220   1.535  0.00  0.00     0.000 A 
ATOM      6  C7  UNL d   1      -0.077   0.177   0.257  0.00  0.00    -0.073 A 
ATOM      7  C8  UNL d   1       0.509   1.552   0.088  0.00  0.00     0.078 C 
ENDROOT
BRANCH   1   8
ATOM      8  C1  UNL d   1       0.310  -0.398  -2.208  0.00  0.00     0.053 C 
ATOM      9  C   UNL d   1       0.432  -1.627  -3.097  0.00  0.00     0.018 C 
ENDBRANCH   1   8
TORSDOF 1
ENDMDL
