MODEL 1
REMARK minimizedAffinity -5.11837769
REMARK minimizedRMSD -1
REMARK  1 active torsions:
REMARK  status: ('A' for Active; 'I' for Inactive)
REMARK    1  A    between atoms: C1_2  and  C2_3 
ROOT
ATOM      1  C2  UNL d   1      -0.097  -1.478   0.163  0.00  0.00    -0.076 A 
ATOM      2  C3  UNL d   1      -0.900  -2.517   0.665  0.00  0.00     0.004 A 
ATOM      3  C4  UNL d   1      -1.963  -2.250   1.526  0.00  0.00    -0.003 A 
ATOM      4  C5  UNL d   1      -2.241  -0.939   1.898  0.00  0.00     0.000 A 
ATOM      5  C6  UNL d   1      -1.467   0.105   1.396  0.00  0.00     0.000 A 
ATOM      6  C7  UNL d   1      -0.401  -0.145   0.514  0.00  0.00    -0.073 A 
ATOM      7  C8  UNL d   1       0.405   1.019   0.007  0.00  0.00     0.078 C 
ENDROOT
BRANCH   1   8
ATOM      8  C1  UNL d   1       1.059  -1.830  -0.746  0.00  0.00     0.053 C 
ATOM      9  C   UNL d   1       0.636  -1.968  -2.200  0.00  0.00     0.018 C 
ENDBRANCH   1   8
TORSDOF 1
ENDMDL
