MODEL 1
REMARK minimizedAffinity -5.15712786
REMARK minimizedRMSD -1
REMARK  1 active torsions:
REMARK  status: ('A' for Active; 'I' for Inactive)
REMARK    1  A    between atoms: C1_2  and  C2_3 
ROOT
ATOM      1  C2  UNL d   1       0.253  -1.073  -0.557  0.00  0.00    -0.076 A 
ATOM      2  C3  UNL d   1       0.092  -1.382   0.805  0.00  0.00     0.004 A 
ATOM      3  C4  UNL d   1      -0.032  -2.704   1.231  0.00  0.00    -0.003 A 
ATOM      4  C5  UNL d   1       0.004  -3.738   0.302  0.00  0.00     0.000 A 
ATOM      5  C6  UNL d   1       0.180  -3.451  -1.051  0.00  0.00     0.000 A 
ATOM      6  C7  UNL d   1       0.323  -2.125  -1.495  0.00  0.00    -0.073 A 
ATOM      7  C8  UNL d   1       0.504  -1.872  -2.967  0.00  0.00     0.078 C 
ENDROOT
BRANCH   1   8
ATOM      8  C1  UNL d   1       0.354   0.380  -0.963  0.00  0.00     0.053 C 
ATOM      9  C   UNL d   1      -0.076   1.326   0.147  0.00  0.00     0.018 C 
ENDBRANCH   1   8
TORSDOF 1
ENDMDL
