MODEL 1
REMARK minimizedAffinity -4.12296057
REMARK minimizedRMSD -1
REMARK  1 active torsions:
REMARK  status: ('A' for Active; 'I' for Inactive)
REMARK    1  A    between atoms: C1_2  and  C2_3 
ROOT
ATOM      1  C2  UNL d   1      -0.007   0.156   1.004  0.00  0.00    -0.076 A 
ATOM      2  C3  UNL d   1       0.819  -0.093   2.114  0.00  0.00     0.004 A 
ATOM      3  C4  UNL d   1       2.009   0.610   2.295  0.00  0.00    -0.003 A 
ATOM      4  C5  UNL d   1       2.391   1.575   1.370  0.00  0.00     0.000 A 
ATOM      5  C6  UNL d   1       1.575   1.848   0.273  0.00  0.00     0.000 A 
ATOM      6  C7  UNL d   1       0.365   1.159   0.084  0.00  0.00    -0.073 A 
ATOM      7  C8  UNL d   1      -0.473   1.490  -1.121  0.00  0.00     0.078 C 
ENDROOT
BRANCH   1   8
ATOM      8  C1  UNL d   1      -1.272  -0.657   0.845  0.00  0.00     0.053 C 
ATOM      9  C   UNL d   1      -1.283  -1.895   1.728  0.00  0.00     0.018 C 
ENDBRANCH   1   8
TORSDOF 1
ENDMDL
