MODEL 1
REMARK minimizedAffinity -2.59006405
REMARK minimizedRMSD -1
REMARK  1 active torsions:
REMARK  status: ('A' for Active; 'I' for Inactive)
REMARK    1  A    between atoms: C1_2  and  C2_3 
ROOT
ATOM      1  C2  UNL d   1      -0.544  -0.475  -0.603  0.00  0.00    -0.076 A 
ATOM      2  C3  UNL d   1      -1.021  -0.565   0.716  0.00  0.00     0.004 A 
ATOM      3  C4  UNL d   1      -1.446  -1.784   1.243  0.00  0.00    -0.003 A 
ATOM      4  C5  UNL d   1      -1.400  -2.932   0.459  0.00  0.00     0.000 A 
ATOM      5  C6  UNL d   1      -0.912  -2.863  -0.846  0.00  0.00     0.000 A 
ATOM      6  C7  UNL d   1      -0.465  -1.646  -1.387  0.00  0.00    -0.073 A 
ATOM      7  C8  UNL d   1       0.045  -1.629  -2.802  0.00  0.00     0.078 C 
ENDROOT
BRANCH   1   8
ATOM      8  C1  UNL d   1      -0.122   0.879  -1.129  0.00  0.00     0.053 C 
ATOM      9  C   UNL d   1       0.232   1.852  -0.016  0.00  0.00     0.018 C 
ENDBRANCH   1   8
TORSDOF 1
ENDMDL
