MODEL 1
REMARK minimizedAffinity -3.03961468
REMARK minimizedRMSD -1
REMARK  1 active torsions:
REMARK  status: ('A' for Active; 'I' for Inactive)
REMARK    1  A    between atoms: C1_2  and  C2_3 
ROOT
ATOM      1  C2  UNL d   1      -0.612  -1.400  -0.013  0.00  0.00    -0.076 A 
ATOM      2  C3  UNL d   1       0.030  -1.379  -1.264  0.00  0.00     0.004 A 
ATOM      3  C4  UNL d   1       0.276  -0.176  -1.924  0.00  0.00    -0.003 A 
ATOM      4  C5  UNL d   1      -0.116   1.025  -1.345  0.00  0.00     0.000 A 
ATOM      5  C6  UNL d   1      -0.738   1.025  -0.097  0.00  0.00     0.000 A 
ATOM      6  C7  UNL d   1      -0.979  -0.178   0.590  0.00  0.00    -0.073 A 
ATOM      7  C8  UNL d   1      -1.658  -0.121   1.930  0.00  0.00     0.078 C 
ENDROOT
BRANCH   1   8
ATOM      8  C1  UNL d   1      -0.876  -2.736   0.643  0.00  0.00     0.053 C 
ATOM      9  C   UNL d   1       0.106  -3.809   0.196  0.00  0.00     0.018 C 
ENDBRANCH   1   8
TORSDOF 1
ENDMDL
