MODEL 1
REMARK minimizedAffinity 1.01064336
REMARK minimizedRMSD -1
REMARK  1 active torsions:
REMARK  status: ('A' for Active; 'I' for Inactive)
REMARK    1  A    between atoms: C1_2  and  C2_3 
ROOT
ATOM      1  C2  UNL d   1       1.043  -4.390   5.993  0.00  0.00    -0.081 A 
ATOM      2  C3  UNL d   1      -0.311  -4.033   5.998  0.00  0.00     0.006 A 
ATOM      3  C4  UNL d   1      -0.690  -2.688   5.998  0.00  0.00     0.002 A 
ATOM      4  C5  UNL d   1       0.279  -1.679   5.987  0.00  0.00    -0.080 A 
ATOM      5  C6  UNL d   1      -0.114  -0.231   5.957  0.00  0.00     0.076 C 
ATOM      6  C7  UNL d   1       1.632  -2.035   6.000  0.00  0.00     0.002 A 
ATOM      7  C8  UNL d   1       2.010  -3.379   6.000  0.00  0.00     0.006 A 
ENDROOT
BRANCH   1   8
ATOM      8  C1  UNL d   1       1.454  -5.838   5.927  0.00  0.00     0.054 C 
ATOM      9  C   UNL d   1       2.967  -5.988   6.000  0.00  0.00     0.018 C 
ENDBRANCH   1   8
TORSDOF 1
ENDMDL
