MODEL 1
REMARK minimizedAffinity 2.15163636
REMARK minimizedRMSD -1
REMARK  1 active torsions:
REMARK  status: ('A' for Active; 'I' for Inactive)
REMARK    1  A    between atoms: C1_2  and  C2_3 
ROOT
ATOM      1  C2  UNL d   1       0.331   0.103  -0.932  0.00  0.00    -0.081 A 
ATOM      2  C3  UNL d   1       1.274  -0.860  -1.308  0.00  0.00     0.006 A 
ATOM      3  C4  UNL d   1       2.336  -1.181  -0.459  0.00  0.00     0.002 A 
ATOM      4  C5  UNL d   1       2.467  -0.551   0.783  0.00  0.00    -0.080 A 
ATOM      5  C6  UNL d   1       3.584  -0.908   1.717  0.00  0.00     0.076 C 
ATOM      6  C7  UNL d   1       1.534   0.425   1.151  0.00  0.00     0.002 A 
ATOM      7  C8  UNL d   1       0.473   0.746   0.302  0.00  0.00     0.006 A 
ENDROOT
BRANCH   1   8
ATOM      8  C1  UNL d   1      -0.851   0.405  -1.818  0.00  0.00     0.054 C 
ATOM      9  C   UNL d   1      -2.128  -0.215  -1.268  0.00  0.00     0.018 C 
ENDBRANCH   1   8
TORSDOF 1
ENDMDL
