MODEL 1
REMARK minimizedAffinity -0.977100194
REMARK minimizedRMSD -1
REMARK  0 active torsions:
REMARK  status: ('A' for Active; 'I' for Inactive)
ROOT
ATOM      1  C   UNL d   1      -1.394   0.356   2.116  0.00  0.00     0.172 C 
ATOM      2  N   UNL d   1      -0.714  -0.039   0.905  0.00  0.00    -0.070 N 
ATOM      3  C1  UNL d   1       0.618  -0.334   0.797  0.00  0.00    -0.004 A 
ATOM      4  C2  UNL d   1       0.873  -0.664  -0.517  0.00  0.00    -0.047 A 
ATOM      5  C3  UNL d   1      -0.350  -0.563  -1.223  0.00  0.00    -0.047 A 
ATOM      6  C4  UNL d   1      -1.315  -0.175  -0.319  0.00  0.00    -0.004 A 
ENDROOT
TORSDOF 0
ENDMDL
