MODEL 1
REMARK minimizedAffinity -3.36883116
REMARK minimizedRMSD -1
REMARK  0 active torsions:
REMARK  status: ('A' for Active; 'I' for Inactive)
ROOT
ATOM      1  C   UNL d   1      -0.231  -0.124  -1.030  0.00  0.00     0.172 C 
ATOM      2  N   UNL d   1       0.437   0.113  -2.289  0.00  0.00    -0.070 N 
ATOM      3  C1  UNL d   1       0.017   0.974  -3.266  0.00  0.00    -0.004 A 
ATOM      4  C2  UNL d   1       0.924   0.912  -4.302  0.00  0.00    -0.047 A 
ATOM      5  C3  UNL d   1       1.923  -0.020  -3.935  0.00  0.00    -0.047 A 
ATOM      6  C4  UNL d   1       1.597  -0.500  -2.684  0.00  0.00    -0.004 A 
ENDROOT
TORSDOF 0
ENDMDL
