MODEL 1
REMARK minimizedAffinity -2.53810072
REMARK minimizedRMSD -1
REMARK  0 active torsions:
REMARK  status: ('A' for Active; 'I' for Inactive)
ROOT
ATOM      1  C   UNL d   1       0.908   1.142  -3.961  0.00  0.00     0.172 C 
ATOM      2  N   UNL d   1       0.799   0.380  -2.739  0.00  0.00    -0.070 N 
ATOM      3  C1  UNL d   1       0.288   0.838  -1.555  0.00  0.00    -0.004 A 
ATOM      4  C2  UNL d   1       0.359  -0.189  -0.638  0.00  0.00    -0.047 A 
ATOM      5  C3  UNL d   1       0.934  -1.303  -1.295  0.00  0.00    -0.047 A 
ATOM      6  C4  UNL d   1       1.196  -0.923  -2.594  0.00  0.00    -0.004 A 
ENDROOT
TORSDOF 0
ENDMDL
