MODEL 1
REMARK minimizedAffinity -3.37407494
REMARK minimizedRMSD -1
REMARK  0 active torsions:
REMARK  status: ('A' for Active; 'I' for Inactive)
ROOT
ATOM      1  C   UNL d   1       0.153  -0.442  -0.831  0.00  0.00     0.172 C 
ATOM      2  N   UNL d   1      -0.245   0.296   0.345  0.00  0.00    -0.070 N 
ATOM      3  C1  UNL d   1      -1.517   0.374   0.846  0.00  0.00    -0.004 A 
ATOM      4  C2  UNL d   1      -1.479   1.169   1.971  0.00  0.00    -0.047 A 
ATOM      5  C3  UNL d   1      -0.138   1.584   2.152  0.00  0.00    -0.047 A 
ATOM      6  C4  UNL d   1       0.605   1.029   1.132  0.00  0.00    -0.004 A 
ENDROOT
TORSDOF 0
ENDMDL
