MODEL 1
REMARK minimizedAffinity -2.70112252
REMARK minimizedRMSD -1
REMARK  0 active torsions:
REMARK  status: ('A' for Active; 'I' for Inactive)
ROOT
ATOM      1  C   UNL d   1      -0.523   1.742   3.021  0.00  0.00     0.172 C 
ATOM      2  N   UNL d   1      -0.846   1.101   1.768  0.00  0.00    -0.070 N 
ATOM      3  C1  UNL d   1      -2.105   0.945   1.252  0.00  0.00    -0.004 A 
ATOM      4  C2  UNL d   1      -1.989   0.289   0.046  0.00  0.00    -0.047 A 
ATOM      5  C3  UNL d   1      -0.612   0.041  -0.170  0.00  0.00    -0.047 A 
ATOM      6  C4  UNL d   1       0.072   0.555   0.911  0.00  0.00    -0.004 A 
ENDROOT
TORSDOF 0
ENDMDL
