MODEL 1
REMARK minimizedAffinity -1.74012029
REMARK minimizedRMSD -1
REMARK  0 active torsions:
REMARK  status: ('A' for Active; 'I' for Inactive)
ROOT
ATOM      1  C   UNL d   1       1.277  -0.573   3.712  0.00  0.00     0.172 C 
ATOM      2  N   UNL d   1       0.300  -0.041   2.792  0.00  0.00    -0.070 N 
ATOM      3  C1  UNL d   1       0.455   0.063   1.435  0.00  0.00    -0.004 A 
ATOM      4  C2  UNL d   1      -0.696   0.619   0.920  0.00  0.00    -0.047 A 
ATOM      5  C3  UNL d   1      -1.573   0.859   2.005  0.00  0.00    -0.047 A 
ATOM      6  C4  UNL d   1      -0.930   0.441   3.152  0.00  0.00    -0.004 A 
ENDROOT
TORSDOF 0
ENDMDL
