MODEL 1
REMARK minimizedAffinity -3.5266881
REMARK minimizedRMSD -1
REMARK  0 active torsions:
REMARK  status: ('A' for Active; 'I' for Inactive)
ROOT
ATOM      1  C   UNL d   1       0.364  -0.676  -0.626  0.00  0.00     0.172 C 
ATOM      2  N   UNL d   1      -0.132  -0.068   0.586  0.00  0.00    -0.070 N 
ATOM      3  C1  UNL d   1       0.617   0.634   1.492  0.00  0.00    -0.004 A 
ATOM      4  C2  UNL d   1      -0.222   1.047   2.504  0.00  0.00    -0.047 A 
ATOM      5  C3  UNL d   1      -1.521   0.576   2.196  0.00  0.00    -0.047 A 
ATOM      6  C4  UNL d   1      -1.436  -0.111   1.004  0.00  0.00    -0.004 A 
ENDROOT
TORSDOF 0
ENDMDL
