MODEL 1
REMARK minimizedAffinity -3.23561406
REMARK minimizedRMSD -1
REMARK  0 active torsions:
REMARK  status: ('A' for Active; 'I' for Inactive)
ROOT
ATOM      1  C   UNL d   1      -0.131  -0.201  -0.644  0.00  0.00     0.172 C 
ATOM      2  N   UNL d   1      -0.259   0.330   0.693  0.00  0.00    -0.070 N 
ATOM      3  C1  UNL d   1       0.444   1.390   1.201  0.00  0.00    -0.004 A 
ATOM      4  C2  UNL d   1       0.034   1.582   2.503  0.00  0.00    -0.047 A 
ATOM      5  C3  UNL d   1      -0.947   0.604   2.787  0.00  0.00    -0.047 A 
ATOM      6  C4  UNL d   1      -1.109  -0.158   1.649  0.00  0.00    -0.004 A 
ENDROOT
TORSDOF 0
ENDMDL
