MODEL 1
REMARK minimizedAffinity -3.66326451
REMARK minimizedRMSD -1
REMARK  0 active torsions:
REMARK  status: ('A' for Active; 'I' for Inactive)
ROOT
ATOM      1  C   UNL d   1       0.846  -0.141  -0.224  0.00  0.00     0.172 C 
ATOM      2  N   UNL d   1       0.316   0.296   1.046  0.00  0.00    -0.070 N 
ATOM      3  C1  UNL d   1       1.043   0.490   2.190  0.00  0.00    -0.004 A 
ATOM      4  C2  UNL d   1       0.174   0.906   3.176  0.00  0.00    -0.047 A 
ATOM      5  C3  UNL d   1      -1.119   0.962   2.605  0.00  0.00    -0.047 A 
ATOM      6  C4  UNL d   1      -1.003   0.580   1.286  0.00  0.00    -0.004 A 
ENDROOT
TORSDOF 0
ENDMDL
