MODEL 1
REMARK minimizedAffinity 9.97378826
REMARK minimizedRMSD -1
REMARK  0 active torsions:
REMARK  status: ('A' for Active; 'I' for Inactive)
ROOT
ATOM      1  C   UNL d   1       1.872  -0.482  -4.504  0.00  0.00     0.020 A 
ATOM      2  C1  UNL d   1       0.953  -0.589  -5.546  0.00  0.00     0.020 A 
ATOM      3  C2  UNL d   1      -0.363  -0.973  -5.280  0.00  0.00     0.034 A 
ATOM      4  C3  UNL d   1      -0.763  -1.252  -3.968  0.00  0.00     0.017 A 
ATOM      5  C4  UNL d   1       0.161  -1.144  -2.922  0.00  0.00     0.017 A 
ATOM      6  C5  UNL d   1       1.477  -0.759  -3.195  0.00  0.00     0.034 A 
ATOM      7 Cl   UNL d   1      -0.259  -1.472  -1.278  0.00  0.00    -0.070 Cl
ATOM      8 Cl1  UNL d   1      -2.406  -1.722  -3.712  0.00  0.00    -0.070 Cl
ENDROOT
TORSDOF 0
ENDMDL
