MODEL 1
REMARK minimizedAffinity 18.2533188
REMARK minimizedRMSD -1
REMARK  0 active torsions:
REMARK  status: ('A' for Active; 'I' for Inactive)
ROOT
ATOM      1  C   UNL d   1       5.233   0.738   4.757  0.00  0.00     0.020 A 
ATOM      2  C1  UNL d   1       3.929   0.813   5.245  0.00  0.00     0.020 A 
ATOM      3  C2  UNL d   1       2.848   0.730   4.364  0.00  0.00     0.034 A 
ATOM      4  C3  UNL d   1       3.069   0.572   2.991  0.00  0.00     0.017 A 
ATOM      5  C4  UNL d   1       4.379   0.497   2.502  0.00  0.00     0.017 A 
ATOM      6  C5  UNL d   1       5.457   0.580   3.388  0.00  0.00     0.034 A 
ATOM      7 Cl   UNL d   1       4.731   0.301   0.822  0.00  0.00    -0.070 Cl
ATOM      8 Cl1  UNL d   1       1.686   0.477   1.961  0.00  0.00    -0.070 Cl
ENDROOT
TORSDOF 0
ENDMDL
