MODEL 1
REMARK minimizedAffinity 5.89570332
REMARK minimizedRMSD -1
REMARK  0 active torsions:
REMARK  status: ('A' for Active; 'I' for Inactive)
ROOT
ATOM      1  C   UNL d   1       0.609  -1.004   2.231  0.00  0.00     0.020 A 
ATOM      2  C1  UNL d   1       1.246  -1.472   3.379  0.00  0.00     0.020 A 
ATOM      3  C2  UNL d   1       1.273  -0.685   4.532  0.00  0.00     0.034 A 
ATOM      4  C3  UNL d   1       0.663   0.575   4.539  0.00  0.00     0.017 A 
ATOM      5  C4  UNL d   1       0.024   1.043   3.385  0.00  0.00     0.017 A 
ATOM      6  C5  UNL d   1      -0.001   0.251   2.234  0.00  0.00     0.034 A 
ATOM      7 Cl   UNL d   1      -0.752   2.587   3.317  0.00  0.00    -0.070 Cl
ATOM      8 Cl1  UNL d   1       0.735   1.495   6.000  0.00  0.00    -0.070 Cl
ENDROOT
TORSDOF 0
ENDMDL
