MODEL 1
REMARK minimizedAffinity 6.45453215
REMARK minimizedRMSD -1
REMARK  0 active torsions:
REMARK  status: ('A' for Active; 'I' for Inactive)
ROOT
ATOM      1  C   UNL d   1       4.409   5.434   0.652  0.00  0.00     0.020 A 
ATOM      2  C1  UNL d   1       4.730   5.996   1.887  0.00  0.00     0.020 A 
ATOM      3  C2  UNL d   1       5.012   5.170   2.977  0.00  0.00     0.034 A 
ATOM      4  C3  UNL d   1       4.973   3.778   2.835  0.00  0.00     0.017 A 
ATOM      5  C4  UNL d   1       4.651   3.216   1.595  0.00  0.00     0.017 A 
ATOM      6  C5  UNL d   1       4.369   4.047   0.506  0.00  0.00     0.034 A 
ATOM      7 Cl   UNL d   1       4.583   1.507   1.342  0.00  0.00    -0.070 Cl
ATOM      8 Cl1  UNL d   1       5.334   2.818   4.225  0.00  0.00    -0.070 Cl
ENDROOT
TORSDOF 0
ENDMDL
