MODEL 1
REMARK minimizedAffinity 10.0636683
REMARK minimizedRMSD -1
REMARK  0 active torsions:
REMARK  status: ('A' for Active; 'I' for Inactive)
ROOT
ATOM      1  C   UNL d   1       1.615  -0.984   4.921  0.00  0.00     0.020 A 
ATOM      2  C1  UNL d   1       1.156  -2.206   4.432  0.00  0.00     0.020 A 
ATOM      3  C2  UNL d   1       0.280  -2.239   3.345  0.00  0.00     0.034 A 
ATOM      4  C3  UNL d   1      -0.139  -1.047   2.743  0.00  0.00     0.017 A 
ATOM      5  C4  UNL d   1       0.323   0.179   3.234  0.00  0.00     0.017 A 
ATOM      6  C5  UNL d   1       1.199   0.206   4.323  0.00  0.00     0.034 A 
ATOM      7 Cl   UNL d   1      -0.150   1.692   2.543  0.00  0.00    -0.070 Cl
ATOM      8 Cl1  UNL d   1      -1.222  -1.162   1.402  0.00  0.00    -0.070 Cl
ENDROOT
TORSDOF 0
ENDMDL
