MODEL 1
REMARK minimizedAffinity 15.3951769
REMARK minimizedRMSD -1
REMARK  0 active torsions:
REMARK  status: ('A' for Active; 'I' for Inactive)
ROOT
ATOM      1  C   UNL d   1       0.184  -0.577   2.250  0.00  0.00     0.020 A 
ATOM      2  C1  UNL d   1       0.886  -0.737   3.444  0.00  0.00     0.020 A 
ATOM      3  C2  UNL d   1       0.895   0.288   4.392  0.00  0.00     0.034 A 
ATOM      4  C3  UNL d   1       0.201   1.479   4.147  0.00  0.00     0.017 A 
ATOM      5  C4  UNL d   1      -0.503   1.639   2.948  0.00  0.00     0.017 A 
ATOM      6  C5  UNL d   1      -0.509   0.608   2.003  0.00  0.00     0.034 A 
ATOM      7 Cl   UNL d   1      -1.383   3.079   2.575  0.00  0.00    -0.070 Cl
ATOM      8 Cl1  UNL d   1       0.254   2.705   5.363  0.00  0.00    -0.070 Cl
ENDROOT
TORSDOF 0
ENDMDL
