MODEL 1
REMARK minimizedAffinity 2.10636687
REMARK minimizedRMSD -1
REMARK  0 active torsions:
REMARK  status: ('A' for Active; 'I' for Inactive)
ROOT
ATOM      1  C   UNL d   1       0.975   0.484   2.402  0.00  0.00     0.020 A 
ATOM      2  C1  UNL d   1       0.293  -0.708   2.640  0.00  0.00     0.020 A 
ATOM      3  C2  UNL d   1       0.660  -1.521   3.715  0.00  0.00     0.034 A 
ATOM      4  C3  UNL d   1       1.713  -1.142   4.556  0.00  0.00     0.017 A 
ATOM      5  C4  UNL d   1       2.397   0.056   4.317  0.00  0.00     0.017 A 
ATOM      6  C5  UNL d   1       2.025   0.865   3.239  0.00  0.00     0.034 A 
ATOM      7 Cl   UNL d   1       3.706   0.590   5.311  0.00  0.00    -0.070 Cl
ATOM      8 Cl1  UNL d   1       2.113  -2.194   5.866  0.00  0.00    -0.070 Cl
ENDROOT
TORSDOF 0
ENDMDL
