MODEL 1
REMARK minimizedAffinity 20.5219593
REMARK minimizedRMSD -1
REMARK  0 active torsions:
REMARK  status: ('A' for Active; 'I' for Inactive)
ROOT
ATOM      1  C   UNL d   1      -5.216   2.520  -0.855  0.00  0.00     0.020 A 
ATOM      2  C1  UNL d   1      -5.371   1.332  -1.567  0.00  0.00     0.020 A 
ATOM      3  C2  UNL d   1      -4.789   0.153  -1.096  0.00  0.00     0.034 A 
ATOM      4  C3  UNL d   1      -4.048   0.161   0.092  0.00  0.00     0.017 A 
ATOM      5  C4  UNL d   1      -3.892   1.355   0.806  0.00  0.00     0.017 A 
ATOM      6  C5  UNL d   1      -4.478   2.532   0.329  0.00  0.00     0.034 A 
ATOM      7 Cl   UNL d   1      -2.992   1.443   2.279  0.00  0.00    -0.070 Cl
ATOM      8 Cl1  UNL d   1      -3.355  -1.332   0.616  0.00  0.00    -0.070 Cl
ENDROOT
TORSDOF 0
ENDMDL
