MODEL 1
REMARK minimizedAffinity 19.3528004
REMARK minimizedRMSD -1
REMARK  0 active torsions:
REMARK  status: ('A' for Active; 'I' for Inactive)
ROOT
ATOM      1  C   UNL d   1      -0.365  -1.664  -5.699  0.00  0.00     0.020 A 
ATOM      2  C1  UNL d   1       0.461  -0.766  -5.024  0.00  0.00     0.020 A 
ATOM      3  C2  UNL d   1       1.746  -1.152  -4.639  0.00  0.00     0.034 A 
ATOM      4  C3  UNL d   1       2.210  -2.441  -4.929  0.00  0.00     0.017 A 
ATOM      5  C4  UNL d   1       1.381  -3.342  -5.607  0.00  0.00     0.017 A 
ATOM      6  C5  UNL d   1       0.094  -2.949  -5.990  0.00  0.00     0.034 A 
ATOM      7 Cl   UNL d   1       1.883  -4.948  -5.999  0.00  0.00    -0.070 Cl
ATOM      8 Cl1  UNL d   1       3.810  -2.851  -4.423  0.00  0.00    -0.070 Cl
ENDROOT
TORSDOF 0
ENDMDL
