MODEL 1
REMARK minimizedAffinity 13.535388
REMARK minimizedRMSD -1
REMARK  0 active torsions:
REMARK  status: ('A' for Active; 'I' for Inactive)
ROOT
ATOM      1  C   UNL d   1       1.154  -1.572  -5.688  0.00  0.00     0.020 A 
ATOM      2  C1  UNL d   1       1.150  -0.666  -4.628  0.00  0.00     0.020 A 
ATOM      3  C2  UNL d   1       0.116  -0.694  -3.690  0.00  0.00     0.034 A 
ATOM      4  C3  UNL d   1      -0.919  -1.628  -3.811  0.00  0.00     0.017 A 
ATOM      5  C4  UNL d   1      -0.914  -2.537  -4.875  0.00  0.00     0.017 A 
ATOM      6  C5  UNL d   1       0.124  -2.505  -5.812  0.00  0.00     0.034 A 
ATOM      7 Cl   UNL d   1      -2.156  -3.720  -5.090  0.00  0.00    -0.070 Cl
ATOM      8 Cl1  UNL d   1      -2.165  -1.606  -2.614  0.00  0.00    -0.070 Cl
ENDROOT
TORSDOF 0
ENDMDL
