MODEL 1
REMARK minimizedAffinity 12.768528
REMARK minimizedRMSD -1
REMARK  0 active torsions:
REMARK  status: ('A' for Active; 'I' for Inactive)
ROOT
ATOM      1  C   UNL d   1      -5.238   2.137  -0.781  0.00  0.00     0.020 A 
ATOM      2  C1  UNL d   1      -5.461   1.133  -1.722  0.00  0.00     0.020 A 
ATOM      3  C2  UNL d   1      -4.849  -0.113  -1.572  0.00  0.00     0.034 A 
ATOM      4  C3  UNL d   1      -4.011  -0.358  -0.478  0.00  0.00     0.017 A 
ATOM      5  C4  UNL d   1      -3.788   0.650   0.467  0.00  0.00     0.017 A 
ATOM      6  C5  UNL d   1      -4.403   1.896   0.311  0.00  0.00     0.034 A 
ATOM      7 Cl   UNL d   1      -2.767   0.422   1.842  0.00  0.00    -0.070 Cl
ATOM      8 Cl1  UNL d   1      -3.287  -1.923  -0.355  0.00  0.00    -0.070 Cl
ENDROOT
TORSDOF 0
ENDMDL
