MODEL 1
REMARK minimizedAffinity 15.2367659
REMARK minimizedRMSD -1
REMARK  0 active torsions:
REMARK  status: ('A' for Active; 'I' for Inactive)
ROOT
ATOM      1  C   UNL d   1       0.934  -0.548  -4.325  0.00  0.00     0.020 A 
ATOM      2  C1  UNL d   1       1.021  -1.343  -5.468  0.00  0.00     0.020 A 
ATOM      3  C2  UNL d   1       0.164  -2.435  -5.625  0.00  0.00     0.034 A 
ATOM      4  C3  UNL d   1      -0.782  -2.735  -4.639  0.00  0.00     0.017 A 
ATOM      5  C4  UNL d   1      -0.868  -1.937  -3.492  0.00  0.00     0.017 A 
ATOM      6  C5  UNL d   1      -0.008  -0.845  -3.340  0.00  0.00     0.034 A 
ATOM      7 Cl   UNL d   1      -2.010  -2.245  -2.232  0.00  0.00    -0.070 Cl
ATOM      8 Cl1  UNL d   1      -1.809  -4.100  -4.899  0.00  0.00    -0.070 Cl
ENDROOT
TORSDOF 0
ENDMDL
