MODEL 1
REMARK minimizedAffinity 2.88885784
REMARK minimizedRMSD -1
REMARK  1 active torsions:
REMARK  status: ('A' for Active; 'I' for Inactive)
REMARK    1  A    between atoms: C1_2  and  C2_3 
ROOT
ATOM      1  C2  UNL d   1       0.509   0.035  -0.669  0.00  0.00    -0.081 A 
ATOM      2  C3  UNL d   1       0.897  -1.096   0.061  0.00  0.00     0.006 A 
ATOM      3  C4  UNL d   1       0.499  -2.372  -0.345  0.00  0.00     0.002 A 
ATOM      4  C5  UNL d   1      -0.285  -2.539  -1.491  0.00  0.00    -0.080 A 
ATOM      5  C6  UNL d   1      -0.693  -3.906  -1.956  0.00  0.00     0.076 C 
ATOM      6  C7  UNL d   1      -0.687  -1.409  -2.211  0.00  0.00     0.002 A 
ATOM      7  C8  UNL d   1      -0.291  -0.133  -1.805  0.00  0.00     0.006 A 
ENDROOT
BRANCH   1   8
ATOM      8  C1  UNL d   1       0.989   1.407  -0.270  0.00  0.00     0.054 C 
ATOM      9  C   UNL d   1       2.336   1.338   0.436  0.00  0.00     0.018 C 
ENDBRANCH   1   8
TORSDOF 1
ENDMDL
