MODEL 1
REMARK minimizedAffinity -0.880662382
REMARK minimizedRMSD -1
REMARK  1 active torsions:
REMARK  status: ('A' for Active; 'I' for Inactive)
REMARK    1  A    between atoms: C1_2  and  C2_3 
ROOT
ATOM      1  C2  UNL d   1       0.321   0.239   1.352  0.00  0.00    -0.081 A 
ATOM      2  C3  UNL d   1      -0.662   1.077   0.813  0.00  0.00     0.006 A 
ATOM      3  C4  UNL d   1      -0.309   2.286   0.209  0.00  0.00     0.002 A 
ATOM      4  C5  UNL d   1       1.032   2.673   0.126  0.00  0.00    -0.080 A 
ATOM      5  C6  UNL d   1       1.427   3.953  -0.547  0.00  0.00     0.076 C 
ATOM      6  C7  UNL d   1       2.014   1.844   0.679  0.00  0.00     0.002 A 
ATOM      7  C8  UNL d   1       1.662   0.635   1.284  0.00  0.00     0.006 A 
ENDROOT
BRANCH   1   8
ATOM      8  C1  UNL d   1      -0.050  -1.096   1.947  0.00  0.00     0.054 C 
ATOM      9  C   UNL d   1      -0.472  -2.084   0.868  0.00  0.00     0.018 C 
ENDBRANCH   1   8
TORSDOF 1
ENDMDL
