MODEL 1
REMARK minimizedAffinity 8.48390388
REMARK minimizedRMSD -1
REMARK  1 active torsions:
REMARK  status: ('A' for Active; 'I' for Inactive)
REMARK    1  A    between atoms: C1_2  and  C2_3 
ROOT
ATOM      1  C2  UNL d   1      -1.012   1.389  -0.926  0.00  0.00    -0.081 A 
ATOM      2  C3  UNL d   1      -0.134   2.479  -0.890  0.00  0.00     0.006 A 
ATOM      3  C4  UNL d   1       1.080   2.388  -0.205  0.00  0.00     0.002 A 
ATOM      4  C5  UNL d   1       1.440   1.204   0.448  0.00  0.00    -0.080 A 
ATOM      5  C6  UNL d   1       2.754   1.084   1.160  0.00  0.00     0.076 C 
ATOM      6  C7  UNL d   1       0.556   0.121   0.426  0.00  0.00     0.002 A 
ATOM      7  C8  UNL d   1      -0.659   0.211  -0.257  0.00  0.00     0.006 A 
ENDROOT
BRANCH   1   8
ATOM      8  C1  UNL d   1      -2.293   1.462  -1.717  0.00  0.00     0.054 C 
ATOM      9  C   UNL d   1      -2.250   0.536  -2.925  0.00  0.00     0.018 C 
ENDBRANCH   1   8
TORSDOF 1
ENDMDL
