MODEL 1
REMARK minimizedAffinity 7.47764206
REMARK minimizedRMSD -1
REMARK  1 active torsions:
REMARK  status: ('A' for Active; 'I' for Inactive)
REMARK    1  A    between atoms: C1_2  and  C2_3 
ROOT
ATOM      1  C2  UNL d   1       1.945   0.033   2.494  0.00  0.00    -0.081 A 
ATOM      2  C3  UNL d   1       2.683   1.190   2.215  0.00  0.00     0.006 A 
ATOM      3  C4  UNL d   1       2.363   1.984   1.111  0.00  0.00     0.002 A 
ATOM      4  C5  UNL d   1       1.297   1.640   0.273  0.00  0.00    -0.080 A 
ATOM      5  C6  UNL d   1       0.924   2.501  -0.897  0.00  0.00     0.076 C 
ATOM      6  C7  UNL d   1       0.571   0.475   0.542  0.00  0.00     0.002 A 
ATOM      7  C8  UNL d   1       0.890  -0.321   1.645  0.00  0.00     0.006 A 
ENDROOT
BRANCH   1   8
ATOM      8  C1  UNL d   1       2.246  -0.791   3.720  0.00  0.00     0.054 C 
ATOM      9  C   UNL d   1       1.717  -2.211   3.576  0.00  0.00     0.018 C 
ENDBRANCH   1   8
TORSDOF 1
ENDMDL
