MODEL 1
REMARK minimizedAffinity 1.27164912
REMARK minimizedRMSD -1
REMARK  1 active torsions:
REMARK  status: ('A' for Active; 'I' for Inactive)
REMARK    1  A    between atoms: C1_2  and  C2_3 
ROOT
ATOM      1  C2  UNL d   1      -1.675  -0.115  -1.945  0.00  0.00    -0.081 A 
ATOM      2  C3  UNL d   1      -1.585  -1.506  -2.075  0.00  0.00     0.006 A 
ATOM      3  C4  UNL d   1      -1.097  -2.286  -1.024  0.00  0.00     0.002 A 
ATOM      4  C5  UNL d   1      -0.699  -1.689   0.177  0.00  0.00    -0.080 A 
ATOM      5  C6  UNL d   1      -0.202  -2.518   1.325  0.00  0.00     0.076 C 
ATOM      6  C7  UNL d   1      -0.773  -0.298   0.302  0.00  0.00     0.002 A 
ATOM      7  C8  UNL d   1      -1.260   0.482  -0.749  0.00  0.00     0.006 A 
ENDROOT
BRANCH   1   8
ATOM      8  C1  UNL d   1      -2.261   0.722  -3.053  0.00  0.00     0.054 C 
ATOM      9  C   UNL d   1      -2.695  -0.141  -4.228  0.00  0.00     0.018 C 
ENDBRANCH   1   8
TORSDOF 1
ENDMDL
