MODEL 1
REMARK minimizedAffinity 3.72761011
REMARK minimizedRMSD -1
REMARK  1 active torsions:
REMARK  status: ('A' for Active; 'I' for Inactive)
REMARK    1  A    between atoms: C1_2  and  C2_3 
ROOT
ATOM      1  C2  UNL d   1      -2.827   1.752  -2.956  0.00  0.00    -0.081 A 
ATOM      2  C3  UNL d   1      -2.380   1.736  -1.629  0.00  0.00     0.006 A 
ATOM      3  C4  UNL d   1      -1.599   0.679  -1.157  0.00  0.00     0.002 A 
ATOM      4  C5  UNL d   1      -1.246  -0.376  -2.005  0.00  0.00    -0.080 A 
ATOM      5  C6  UNL d   1      -0.383  -1.503  -1.519  0.00  0.00     0.076 C 
ATOM      6  C7  UNL d   1      -1.707  -0.370  -3.326  0.00  0.00     0.002 A 
ATOM      7  C8  UNL d   1      -2.488   0.687  -3.798  0.00  0.00     0.006 A 
ENDROOT
BRANCH   1   8
ATOM      8  C1  UNL d   1      -3.615   2.922  -3.486  0.00  0.00     0.054 C 
ATOM      9  C   UNL d   1      -4.172   3.772  -2.353  0.00  0.00     0.018 C 
ENDBRANCH   1   8
TORSDOF 1
ENDMDL
