MODEL 1
REMARK minimizedAffinity 9.70419121
REMARK minimizedRMSD -1
REMARK  1 active torsions:
REMARK  status: ('A' for Active; 'I' for Inactive)
REMARK    1  A    between atoms: C1_2  and  C2_3 
ROOT
ATOM      1  C2  UNL d   1      -3.537   1.419  -3.451  0.00  0.00    -0.081 A 
ATOM      2  C3  UNL d   1      -4.016   1.436  -2.135  0.00  0.00     0.006 A 
ATOM      3  C4  UNL d   1      -4.616   2.586  -1.615  0.00  0.00     0.002 A 
ATOM      4  C5  UNL d   1      -4.754   3.733  -2.403  0.00  0.00    -0.080 A 
ATOM      5  C6  UNL d   1      -5.423   4.963  -1.867  0.00  0.00     0.076 C 
ATOM      6  C7  UNL d   1      -4.259   3.722  -3.712  0.00  0.00     0.002 A 
ATOM      7  C8  UNL d   1      -3.659   2.573  -4.232  0.00  0.00     0.006 A 
ENDROOT
BRANCH   1   8
ATOM      8  C1  UNL d   1      -2.948   0.161  -4.035  0.00  0.00     0.054 C 
ATOM      9  C   UNL d   1      -4.017  -0.899  -4.258  0.00  0.00     0.018 C 
ENDBRANCH   1   8
TORSDOF 1
ENDMDL
