MODEL 1
REMARK minimizedAffinity 4.6203599
REMARK minimizedRMSD -1
REMARK  1 active torsions:
REMARK  status: ('A' for Active; 'I' for Inactive)
REMARK    1  A    between atoms: C1_2  and  C2_3 
ROOT
ATOM      1  C2  UNL d   1       0.149  -0.448   0.780  0.00  0.00    -0.081 A 
ATOM      2  C3  UNL d   1      -0.932   0.310   0.314  0.00  0.00     0.006 A 
ATOM      3  C4  UNL d   1      -0.751   1.642  -0.067  0.00  0.00     0.002 A 
ATOM      4  C5  UNL d   1       0.514   2.234   0.002  0.00  0.00    -0.080 A 
ATOM      5  C6  UNL d   1       0.729   3.653  -0.433  0.00  0.00     0.076 C 
ATOM      6  C7  UNL d   1       1.591   1.482   0.484  0.00  0.00     0.002 A 
ATOM      7  C8  UNL d   1       1.410   0.151   0.867  0.00  0.00     0.006 A 
ENDROOT
BRANCH   1   8
ATOM      8  C1  UNL d   1      -0.031  -1.903   1.131  0.00  0.00     0.054 C 
ATOM      9  C   UNL d   1       0.072  -2.787  -0.103  0.00  0.00     0.018 C 
ENDBRANCH   1   8
TORSDOF 1
ENDMDL
