MODEL 1
REMARK minimizedAffinity 11.5759048
REMARK minimizedRMSD -1
REMARK  0 active torsions:
REMARK  status: ('A' for Active; 'I' for Inactive)
ROOT
ATOM      1  C   UNL d   1      -1.930   2.170   0.436  0.00  0.00     0.124 A 
ATOM      2  C1  UNL d   1      -2.301   3.451   0.820  0.00  0.00     0.062 A 
ATOM      3  C2  UNL d   1      -1.526   4.546   0.448  0.00  0.00     0.162 A 
ATOM      4  C3  UNL d   1      -0.372   4.365  -0.315  0.00  0.00    -0.034 A 
ATOM      5  C4  UNL d   1      -0.005   3.073  -0.697  0.00  0.00     0.162 A 
ATOM      6  C5  UNL d   1      -0.783   1.983  -0.322  0.00  0.00     0.062 A 
ATOM      7  F   UNL d   1      -0.423   0.746  -0.695  0.00  0.00    -0.097 F 
ATOM      8  F1  UNL d   1       1.098   2.863  -1.431  0.00  0.00    -0.096 F 
ATOM      9  I   UNL d   1       0.789   5.999  -0.874  0.00  0.00    -0.060 I 
ATOM     10  F2  UNL d   1      -1.909   5.773   0.833  0.00  0.00    -0.096 F 
ATOM     11  F3  UNL d   1      -3.408   3.635   1.554  0.00  0.00    -0.097 F 
ATOM     12  F4  UNL d   1      -2.677   1.119   0.796  0.00  0.00    -0.092 F 
ENDROOT
TORSDOF 0
ENDMDL
