MODEL 1
REMARK minimizedAffinity 7.4938879
REMARK minimizedRMSD -1
REMARK  0 active torsions:
REMARK  status: ('A' for Active; 'I' for Inactive)
ROOT
ATOM      1  C   UNL d   1       0.279   1.507   2.430  0.00  0.00     0.124 A 
ATOM      2  C1  UNL d   1      -0.699   1.855   1.509  0.00  0.00     0.062 A 
ATOM      3  C2  UNL d   1      -0.792   1.177   0.297  0.00  0.00     0.162 A 
ATOM      4  C3  UNL d   1       0.095   0.143  -0.001  0.00  0.00    -0.034 A 
ATOM      5  C4  UNL d   1       1.077  -0.201   0.930  0.00  0.00     0.162 A 
ATOM      6  C5  UNL d   1       1.166   0.480   2.140  0.00  0.00     0.062 A 
ATOM      7  F   UNL d   1       2.112   0.143   3.029  0.00  0.00    -0.097 F 
ATOM      8  F1  UNL d   1       1.947  -1.190   0.676  0.00  0.00    -0.096 F 
ATOM      9  I   UNL d   1      -0.041  -0.874  -1.812  0.00  0.00    -0.060 I 
ATOM     10  F2  UNL d   1      -1.748   1.534  -0.574  0.00  0.00    -0.096 F 
ATOM     11  F3  UNL d   1      -1.557   2.847   1.787  0.00  0.00    -0.097 F 
ATOM     12  F4  UNL d   1       0.367   2.162   3.595  0.00  0.00    -0.092 F 
ENDROOT
TORSDOF 0
ENDMDL
