MODEL 1
REMARK minimizedAffinity 7.02165508
REMARK minimizedRMSD -1
REMARK  0 active torsions:
REMARK  status: ('A' for Active; 'I' for Inactive)
ROOT
ATOM      1  C   UNL d   1       1.030   2.955  -2.108  0.00  0.00     0.124 A 
ATOM      2  C1  UNL d   1       0.371   3.937  -1.381  0.00  0.00     0.062 A 
ATOM      3  C2  UNL d   1      -0.391   3.593  -0.269  0.00  0.00     0.162 A 
ATOM      4  C3  UNL d   1      -0.497   2.259   0.126  0.00  0.00    -0.034 A 
ATOM      5  C4  UNL d   1       0.167   1.277  -0.610  0.00  0.00     0.162 A 
ATOM      6  C5  UNL d   1       0.928   1.626  -1.721  0.00  0.00     0.062 A 
ATOM      7  F   UNL d   1       1.563   0.675  -2.422  0.00  0.00    -0.097 F 
ATOM      8  F1  UNL d   1       0.086  -0.015  -0.259  0.00  0.00    -0.096 F 
ATOM      9  I   UNL d   1      -1.636   1.740   1.789  0.00  0.00    -0.060 I 
ATOM     10  F2  UNL d   1      -1.016   4.563   0.414  0.00  0.00    -0.096 F 
ATOM     11  F3  UNL d   1       0.468   5.222  -1.753  0.00  0.00    -0.097 F 
ATOM     12  F4  UNL d   1       1.762   3.289  -3.178  0.00  0.00    -0.092 F 
ENDROOT
TORSDOF 0
ENDMDL
