MODEL 1
REMARK minimizedAffinity 18.3730946
REMARK minimizedRMSD -1
REMARK  0 active torsions:
REMARK  status: ('A' for Active; 'I' for Inactive)
ROOT
ATOM      1  C   UNL d   1       0.405   1.896   2.124  0.00  0.00     0.124 A 
ATOM      2  C1  UNL d   1      -0.570   2.196   1.183  0.00  0.00     0.062 A 
ATOM      3  C2  UNL d   1      -0.546   1.588  -0.069  0.00  0.00     0.162 A 
ATOM      4  C3  UNL d   1       0.457   0.672  -0.387  0.00  0.00    -0.034 A 
ATOM      5  C4  UNL d   1       1.435   0.376   0.565  0.00  0.00     0.162 A 
ATOM      6  C5  UNL d   1       1.406   0.986   1.814  0.00  0.00     0.062 A 
ATOM      7  F   UNL d   1       2.349   0.695   2.722  0.00  0.00    -0.097 F 
ATOM      8  F1  UNL d   1       2.413  -0.500   0.292  0.00  0.00    -0.096 F 
ATOM      9  I   UNL d   1       0.497  -0.239  -2.257  0.00  0.00    -0.060 I 
ATOM     10  F2  UNL d   1      -1.501   1.897  -0.959  0.00  0.00    -0.096 F 
ATOM     11  F3  UNL d   1      -1.538   3.075   1.480  0.00  0.00    -0.097 F 
ATOM     12  F4  UNL d   1       0.379   2.483   3.328  0.00  0.00    -0.092 F 
ENDROOT
TORSDOF 0
ENDMDL
