MODEL 1
REMARK minimizedAffinity 11.2796574
REMARK minimizedRMSD -1
REMARK  0 active torsions:
REMARK  status: ('A' for Active; 'I' for Inactive)
ROOT
ATOM      1  C   UNL d   1       0.672   3.711   1.998  0.00  0.00     0.124 A 
ATOM      2  C1  UNL d   1       0.156   3.700   0.710  0.00  0.00     0.062 A 
ATOM      3  C2  UNL d   1      -1.010   2.994   0.428  0.00  0.00     0.162 A 
ATOM      4  C3  UNL d   1      -1.669   2.294   1.439  0.00  0.00    -0.034 A 
ATOM      5  C4  UNL d   1      -1.144   2.308   2.732  0.00  0.00     0.162 A 
ATOM      6  C5  UNL d   1       0.022   3.015   3.008  0.00  0.00     0.062 A 
ATOM      7  F   UNL d   1       0.519   3.024   4.253  0.00  0.00    -0.097 F 
ATOM      8  F1  UNL d   1      -1.752   1.646   3.727  0.00  0.00    -0.096 F 
ATOM      9  I   UNL d   1      -3.413   1.237   1.022  0.00  0.00    -0.060 I 
ATOM     10  F2  UNL d   1      -1.486   3.001  -0.826  0.00  0.00    -0.096 F 
ATOM     11  F3  UNL d   1       0.783   4.370  -0.268  0.00  0.00    -0.097 F 
ATOM     12  F4  UNL d   1       1.795   4.390   2.265  0.00  0.00    -0.092 F 
ENDROOT
TORSDOF 0
ENDMDL
