MODEL 1
REMARK minimizedAffinity 13.1201305
REMARK minimizedRMSD -1
REMARK  0 active torsions:
REMARK  status: ('A' for Active; 'I' for Inactive)
ROOT
ATOM      1  C   UNL d   1       3.083  -1.606   0.375  0.00  0.00     0.124 A 
ATOM      2  C1  UNL d   1       1.864  -1.829  -0.250  0.00  0.00     0.062 A 
ATOM      3  C2  UNL d   1       1.566  -3.083  -0.777  0.00  0.00     0.162 A 
ATOM      4  C3  UNL d   1       2.489  -4.124  -0.680  0.00  0.00    -0.034 A 
ATOM      5  C4  UNL d   1       3.714  -3.892  -0.052  0.00  0.00     0.162 A 
ATOM      6  C5  UNL d   1       4.007  -2.638   0.473  0.00  0.00     0.062 A 
ATOM      7  F   UNL d   1       5.186  -2.424   1.076  0.00  0.00    -0.097 F 
ATOM      8  F1  UNL d   1       4.624  -4.871   0.058  0.00  0.00    -0.096 F 
ATOM      9  I   UNL d   1       2.048  -6.000  -1.467  0.00  0.00    -0.060 I 
ATOM     10  F2  UNL d   1       0.380  -3.270  -1.375  0.00  0.00    -0.096 F 
ATOM     11  F3  UNL d   1       0.970  -0.834  -0.347  0.00  0.00    -0.097 F 
ATOM     12  F4  UNL d   1       3.368  -0.399   0.880  0.00  0.00    -0.092 F 
ENDROOT
TORSDOF 0
ENDMDL
