MODEL 1
REMARK minimizedAffinity 15.4624739
REMARK minimizedRMSD -1
REMARK  0 active torsions:
REMARK  status: ('A' for Active; 'I' for Inactive)
ROOT
ATOM      1  C   UNL d   1      -1.141   2.238   1.307  0.00  0.00     0.124 A 
ATOM      2  C1  UNL d   1      -0.957   1.170   2.174  0.00  0.00     0.062 A 
ATOM      3  C2  UNL d   1       0.146   0.334   2.031  0.00  0.00     0.162 A 
ATOM      4  C3  UNL d   1       1.075   0.562   1.016  0.00  0.00    -0.034 A 
ATOM      5  C4  UNL d   1       0.883   1.638   0.146  0.00  0.00     0.162 A 
ATOM      6  C5  UNL d   1      -0.221   2.471   0.294  0.00  0.00     0.062 A 
ATOM      7  F   UNL d   1      -0.398   3.502  -0.545  0.00  0.00    -0.097 F 
ATOM      8  F1  UNL d   1       1.757   1.886  -0.840  0.00  0.00    -0.096 F 
ATOM      9  I   UNL d   1       2.726  -0.686   0.798  0.00  0.00    -0.060 I 
ATOM     10  F2  UNL d   1       0.299  -0.690   2.883  0.00  0.00    -0.096 F 
ATOM     11  F3  UNL d   1      -1.845   0.943   3.153  0.00  0.00    -0.097 F 
ATOM     12  F4  UNL d   1      -2.204   3.041   1.446  0.00  0.00    -0.092 F 
ENDROOT
TORSDOF 0
ENDMDL
