MODEL 1
REMARK minimizedAffinity 18.0846481
REMARK minimizedRMSD -1
REMARK  0 active torsions:
REMARK  status: ('A' for Active; 'I' for Inactive)
ROOT
ATOM      1  C   UNL d   1       0.026   1.232   1.651  0.00  0.00     0.124 A 
ATOM      2  C1  UNL d   1      -0.944   2.221   1.720  0.00  0.00     0.062 A 
ATOM      3  C2  UNL d   1      -1.164   3.063   0.634  0.00  0.00     0.162 A 
ATOM      4  C3  UNL d   1      -0.411   2.919  -0.532  0.00  0.00    -0.034 A 
ATOM      5  C4  UNL d   1       0.564   1.922  -0.593  0.00  0.00     0.162 A 
ATOM      6  C5  UNL d   1       0.780   1.083   0.495  0.00  0.00     0.062 A 
ATOM      7  F   UNL d   1       1.718   0.128   0.427  0.00  0.00    -0.097 F 
ATOM      8  F1  UNL d   1       1.306   1.756  -1.698  0.00  0.00    -0.096 F 
ATOM      9  I   UNL d   1      -0.736   4.176  -2.158  0.00  0.00    -0.060 I 
ATOM     10  F2  UNL d   1      -2.109   4.011   0.728  0.00  0.00    -0.096 F 
ATOM     11  F3  UNL d   1      -1.673   2.367   2.836  0.00  0.00    -0.097 F 
ATOM     12  F4  UNL d   1       0.236   0.423   2.698  0.00  0.00    -0.092 F 
ENDROOT
TORSDOF 0
ENDMDL
