MODEL 1
REMARK minimizedAffinity 10.3181725
REMARK minimizedRMSD -1
REMARK  0 active torsions:
REMARK  status: ('A' for Active; 'I' for Inactive)
ROOT
ATOM      1  C   UNL d   1      -1.808   3.574   1.507  0.00  0.00     0.124 A 
ATOM      2  C1  UNL d   1      -0.736   2.806   1.940  0.00  0.00     0.062 A 
ATOM      3  C2  UNL d   1      -0.941   1.500   2.375  0.00  0.00     0.162 A 
ATOM      4  C3  UNL d   1      -2.224   0.953   2.378  0.00  0.00    -0.034 A 
ATOM      5  C4  UNL d   1      -3.297   1.731   1.942  0.00  0.00     0.162 A 
ATOM      6  C5  UNL d   1      -3.087   3.036   1.508  0.00  0.00     0.062 A 
ATOM      7  F   UNL d   1      -4.124   3.777   1.090  0.00  0.00    -0.097 F 
ATOM      8  F1  UNL d   1      -4.544   1.236   1.931  0.00  0.00    -0.096 F 
ATOM      9  I   UNL d   1      -2.535  -1.000   3.027  0.00  0.00    -0.060 I 
ATOM     10  F2  UNL d   1       0.113   0.781   2.788  0.00  0.00    -0.096 F 
ATOM     11  F3  UNL d   1       0.501   3.324   1.941  0.00  0.00    -0.097 F 
ATOM     12  F4  UNL d   1      -1.608   4.831   1.090  0.00  0.00    -0.092 F 
ENDROOT
TORSDOF 0
ENDMDL
