MODEL 1
REMARK minimizedAffinity 9.79905319
REMARK minimizedRMSD -1
REMARK  0 active torsions:
REMARK  status: ('A' for Active; 'I' for Inactive)
ROOT
ATOM      1  C   UNL d   1      -1.172   3.155  -0.599  0.00  0.00     0.124 A 
ATOM      2  C1  UNL d   1      -2.294   3.208   0.217  0.00  0.00     0.062 A 
ATOM      3  C2  UNL d   1      -2.401   2.361   1.316  0.00  0.00     0.162 A 
ATOM      4  C3  UNL d   1      -1.381   1.455   1.608  0.00  0.00    -0.034 A 
ATOM      5  C4  UNL d   1      -0.256   1.407   0.783  0.00  0.00     0.162 A 
ATOM      6  C5  UNL d   1      -0.155   2.255  -0.315  0.00  0.00     0.062 A 
ATOM      7  F   UNL d   1       0.930   2.203  -1.102  0.00  0.00    -0.097 F 
ATOM      8  F1  UNL d   1       0.742   0.547   1.034  0.00  0.00    -0.096 F 
ATOM      9  I   UNL d   1      -1.537   0.187   3.251  0.00  0.00    -0.060 I 
ATOM     10  F2  UNL d   1      -3.496   2.434   2.087  0.00  0.00    -0.096 F 
ATOM     11  F3  UNL d   1      -3.279   4.076  -0.056  0.00  0.00    -0.097 F 
ATOM     12  F4  UNL d   1      -1.073   3.971  -1.657  0.00  0.00    -0.092 F 
ENDROOT
TORSDOF 0
ENDMDL
