MODEL 1
REMARK minimizedAffinity 14.4385796
REMARK minimizedRMSD -1
REMARK  0 active torsions:
REMARK  status: ('A' for Active; 'I' for Inactive)
ROOT
ATOM      1  C   UNL d   1       0.318   2.633  -1.865  0.00  0.00     0.124 A 
ATOM      2  C1  UNL d   1      -0.221   3.637  -1.073  0.00  0.00     0.062 A 
ATOM      3  C2  UNL d   1      -0.597   3.366   0.240  0.00  0.00     0.162 A 
ATOM      4  C3  UNL d   1      -0.435   2.086   0.769  0.00  0.00    -0.034 A 
ATOM      5  C4  UNL d   1       0.107   1.081  -0.035  0.00  0.00     0.162 A 
ATOM      6  C5  UNL d   1       0.481   1.356  -1.346  0.00  0.00     0.062 A 
ATOM      7  F   UNL d   1       1.002   0.385  -2.110  0.00  0.00    -0.097 F 
ATOM      8  F1  UNL d   1       0.276  -0.161   0.442  0.00  0.00    -0.096 F 
ATOM      9  I   UNL d   1      -0.997   1.677   2.731  0.00  0.00    -0.060 I 
ATOM     10  F2  UNL d   1      -1.115   4.355   0.983  0.00  0.00    -0.096 F 
ATOM     11  F3  UNL d   1      -0.380   4.871  -1.572  0.00  0.00    -0.097 F 
ATOM     12  F4  UNL d   1       0.678   2.896  -3.128  0.00  0.00    -0.092 F 
ENDROOT
TORSDOF 0
ENDMDL
