MODEL 1
REMARK minimizedAffinity 20.2983723
REMARK minimizedRMSD -1
REMARK  0 active torsions:
REMARK  status: ('A' for Active; 'I' for Inactive)
ROOT
ATOM      1  C   UNL d   1      -0.531   0.160  -2.944  0.00  0.00     0.124 A 
ATOM      2  C1  UNL d   1      -1.711  -0.480  -2.592  0.00  0.00     0.062 A 
ATOM      3  C2  UNL d   1      -2.399  -0.097  -1.444  0.00  0.00     0.162 A 
ATOM      4  C3  UNL d   1      -1.909   0.933  -0.640  0.00  0.00    -0.034 A 
ATOM      5  C4  UNL d   1      -0.721   1.571  -1.001  0.00  0.00     0.162 A 
ATOM      6  C5  UNL d   1      -0.037   1.184  -2.149  0.00  0.00     0.062 A 
ATOM      7  F   UNL d   1       1.103   1.803  -2.488  0.00  0.00    -0.097 F 
ATOM      8  F1  UNL d   1      -0.222   2.564  -0.251  0.00  0.00    -0.096 F 
ATOM      9  I   UNL d   1      -2.935   1.508   1.077  0.00  0.00    -0.060 I 
ATOM     10  F2  UNL d   1      -3.537  -0.733  -1.127  0.00  0.00    -0.096 F 
ATOM     11  F3  UNL d   1      -2.190  -1.471  -3.358  0.00  0.00    -0.097 F 
ATOM     12  F4  UNL d   1       0.130  -0.212  -4.049  0.00  0.00    -0.092 F 
ENDROOT
TORSDOF 0
ENDMDL
