MODEL 1
REMARK minimizedAffinity 14.4549103
REMARK minimizedRMSD -1
REMARK  0 active torsions:
REMARK  status: ('A' for Active; 'I' for Inactive)
ROOT
ATOM      1  C   UNL d   1      -0.550   3.890   0.132  0.00  0.00     0.124 A 
ATOM      2  C1  UNL d   1      -0.681   2.727   0.877  0.00  0.00     0.062 A 
ATOM      3  C2  UNL d   1      -0.316   1.500   0.330  0.00  0.00     0.162 A 
ATOM      4  C3  UNL d   1       0.185   1.430  -0.970  0.00  0.00    -0.034 A 
ATOM      5  C4  UNL d   1       0.313   2.605  -1.714  0.00  0.00     0.162 A 
ATOM      6  C5  UNL d   1      -0.053   3.828  -1.163  0.00  0.00     0.062 A 
ATOM      7  F   UNL d   1       0.075   4.951  -1.884  0.00  0.00    -0.097 F 
ATOM      8  F1  UNL d   1       0.791   2.574  -2.967  0.00  0.00    -0.096 F 
ATOM      9  I   UNL d   1       0.731  -0.402  -1.792  0.00  0.00    -0.060 I 
ATOM     10  F2  UNL d   1      -0.454   0.392   1.073  0.00  0.00    -0.096 F 
ATOM     11  F3  UNL d   1      -1.162   2.784   2.127  0.00  0.00    -0.097 F 
ATOM     12  F4  UNL d   1      -0.903   5.069   0.660  0.00  0.00    -0.092 F 
ENDROOT
TORSDOF 0
ENDMDL
