MODEL 1
REMARK minimizedAffinity 14.2492323
REMARK minimizedRMSD -1
REMARK  0 active torsions:
REMARK  status: ('A' for Active; 'I' for Inactive)
ROOT
ATOM      1  C   UNL d   1      -1.831  -0.666  -2.062  0.00  0.00     0.124 A 
ATOM      2  C1  UNL d   1      -0.492  -0.396  -1.818  0.00  0.00     0.062 A 
ATOM      3  C2  UNL d   1      -0.025   0.915  -1.852  0.00  0.00     0.162 A 
ATOM      4  C3  UNL d   1      -0.898   1.966  -2.130  0.00  0.00    -0.034 A 
ATOM      5  C4  UNL d   1      -2.244   1.686  -2.375  0.00  0.00     0.162 A 
ATOM      6  C5  UNL d   1      -2.705   0.374  -2.340  0.00  0.00     0.062 A 
ATOM      7  F   UNL d   1      -4.000   0.115  -2.576  0.00  0.00    -0.097 F 
ATOM      8  F1  UNL d   1      -3.111   2.673  -2.646  0.00  0.00    -0.096 F 
ATOM      9  I   UNL d   1      -0.204   3.928  -2.182  0.00  0.00    -0.060 I 
ATOM     10  F2  UNL d   1       1.274   1.147  -1.612  0.00  0.00    -0.096 F 
ATOM     11  F3  UNL d   1       0.356  -1.400  -1.549  0.00  0.00    -0.097 F 
ATOM     12  F4  UNL d   1      -2.277  -1.929  -2.029  0.00  0.00    -0.092 F 
ENDROOT
TORSDOF 0
ENDMDL
