MODEL 1
REMARK minimizedAffinity 18.4653816
REMARK minimizedRMSD -1
REMARK  0 active torsions:
REMARK  status: ('A' for Active; 'I' for Inactive)
ROOT
ATOM      1  C   UNL d   1      -0.508   4.595   0.799  0.00  0.00     0.124 A 
ATOM      2  C1  UNL d   1      -0.332   4.585  -0.578  0.00  0.00     0.062 A 
ATOM      3  C2  UNL d   1      -0.176   3.379  -1.255  0.00  0.00     0.162 A 
ATOM      4  C3  UNL d   1      -0.196   2.172  -0.557  0.00  0.00    -0.034 A 
ATOM      5  C4  UNL d   1      -0.372   2.190   0.828  0.00  0.00     0.162 A 
ATOM      6  C5  UNL d   1      -0.528   3.398   1.500  0.00  0.00     0.062 A 
ATOM      7  F   UNL d   1      -0.698   3.405   2.831  0.00  0.00    -0.097 F 
ATOM      8  F1  UNL d   1      -0.397   1.048   1.531  0.00  0.00    -0.096 F 
ATOM      9  I   UNL d   1       0.037   0.367  -1.566  0.00  0.00    -0.060 I 
ATOM     10  F2  UNL d   1      -0.008   3.400  -2.586  0.00  0.00    -0.096 F 
ATOM     11  F3  UNL d   1      -0.312   5.741  -1.258  0.00  0.00    -0.097 F 
ATOM     12  F4  UNL d   1      -0.657   5.757   1.448  0.00  0.00    -0.092 F 
ENDROOT
TORSDOF 0
ENDMDL
