MODEL 1
REMARK minimizedAffinity 6.46476078
REMARK minimizedRMSD -1
REMARK  0 active torsions:
REMARK  status: ('A' for Active; 'I' for Inactive)
ROOT
ATOM      1  C   UNL d   1      -0.266   2.413  -0.821  0.00  0.00     0.124 A 
ATOM      2  C1  UNL d   1      -1.063   2.200   0.296  0.00  0.00     0.062 A 
ATOM      3  C2  UNL d   1      -1.909   3.206   0.754  0.00  0.00     0.162 A 
ATOM      4  C3  UNL d   1      -1.964   4.434   0.095  0.00  0.00    -0.034 A 
ATOM      5  C4  UNL d   1      -1.160   4.641  -1.027  0.00  0.00     0.162 A 
ATOM      6  C5  UNL d   1      -0.316   3.633  -1.481  0.00  0.00     0.062 A 
ATOM      7  F   UNL d   1       0.453   3.840  -2.560  0.00  0.00    -0.097 F 
ATOM      8  F1  UNL d   1      -1.188   5.809  -1.685  0.00  0.00    -0.096 F 
ATOM      9  I   UNL d   1      -3.228   5.940   0.777  0.00  0.00    -0.060 I 
ATOM     10  F2  UNL d   1      -2.667   2.973   1.836  0.00  0.00    -0.096 F 
ATOM     11  F3  UNL d   1      -1.016   1.023   0.937  0.00  0.00    -0.097 F 
ATOM     12  F4  UNL d   1       0.548   1.444  -1.259  0.00  0.00    -0.092 F 
ENDROOT
TORSDOF 0
ENDMDL
