MODEL 1
REMARK minimizedAffinity -4.54944468
REMARK minimizedRMSD -1
REMARK  0 active torsions:
REMARK  status: ('A' for Active; 'I' for Inactive)
ROOT
ATOM      1  C   UNL d   1      -0.729   0.673  -0.030  0.00  0.00     0.078 C 
ATOM      2  C1  UNL d   1       0.492  -0.198  -0.041  0.00  0.00    -0.077 A 
ATOM      3  C2  UNL d   1       0.386  -1.591   0.055  0.00  0.00    -0.001 A 
ATOM      4  C3  UNL d   1       1.531  -2.388   0.053  0.00  0.00     0.003 A 
ATOM      5  C4  UNL d   1       2.792  -1.802  -0.043  0.00  0.00    -0.005 A 
ATOM      6  C5  UNL d   1       2.908  -0.417  -0.137  0.00  0.00     0.003 A 
ATOM      7  C6  UNL d   1       1.763   0.383  -0.135  0.00  0.00    -0.001 A 
ENDROOT
TORSDOF 0
ENDMDL
