MODEL 1
REMARK minimizedAffinity -4.61585712
REMARK minimizedRMSD -1
REMARK  0 active torsions:
REMARK  status: ('A' for Active; 'I' for Inactive)
ROOT
ATOM      1  C   UNL d   1      -0.673   0.781   0.066  0.00  0.00     0.078 C 
ATOM      2  C1  UNL d   1       0.740   0.282   0.010  0.00  0.00    -0.077 A 
ATOM      3  C2  UNL d   1       1.821   1.168   0.101  0.00  0.00    -0.001 A 
ATOM      4  C3  UNL d   1       3.132   0.691   0.037  0.00  0.00     0.003 A 
ATOM      5  C4  UNL d   1       3.373  -0.673  -0.118  0.00  0.00    -0.005 A 
ATOM      6  C5  UNL d   1       2.304  -1.561  -0.211  0.00  0.00     0.003 A 
ATOM      7  C6  UNL d   1       0.993  -1.086  -0.148  0.00  0.00    -0.001 A 
ENDROOT
TORSDOF 0
ENDMDL
