MODEL 1
REMARK minimizedAffinity -1.95252132
REMARK minimizedRMSD -1
REMARK  0 active torsions:
REMARK  status: ('A' for Active; 'I' for Inactive)
ROOT
ATOM      1  C   UNL d   1       2.837  -0.901   0.086  0.00  0.00     0.078 C 
ATOM      2  C1  UNL d   1       1.383  -0.719  -0.235  0.00  0.00    -0.077 A 
ATOM      3  C2  UNL d   1       0.839  -1.219  -1.424  0.00  0.00    -0.001 A 
ATOM      4  C3  UNL d   1      -0.514  -1.033  -1.714  0.00  0.00     0.003 A 
ATOM      5  C4  UNL d   1      -1.333  -0.346  -0.821  0.00  0.00    -0.005 A 
ATOM      6  C5  UNL d   1      -0.800   0.158   0.364  0.00  0.00     0.003 A 
ATOM      7  C6  UNL d   1       0.552  -0.027   0.656  0.00  0.00    -0.001 A 
ENDROOT
TORSDOF 0
ENDMDL
