MODEL 1
REMARK minimizedAffinity -2.10228515
REMARK minimizedRMSD -1
REMARK  0 active torsions:
REMARK  status: ('A' for Active; 'I' for Inactive)
ROOT
ATOM      1  C   UNL d   1      -0.155  -0.012  -0.196  0.00  0.00     0.078 C 
ATOM      2  C1  UNL d   1      -1.516   0.424   0.259  0.00  0.00    -0.077 A 
ATOM      3  C2  UNL d   1      -1.756   0.761   1.597  0.00  0.00    -0.001 A 
ATOM      4  C3  UNL d   1      -3.030   1.155   2.008  0.00  0.00     0.003 A 
ATOM      5  C4  UNL d   1      -4.074   1.216   1.088  0.00  0.00    -0.005 A 
ATOM      6  C5  UNL d   1      -3.846   0.881  -0.245  0.00  0.00     0.003 A 
ATOM      7  C6  UNL d   1      -2.573   0.486  -0.658  0.00  0.00    -0.001 A 
ENDROOT
TORSDOF 0
ENDMDL
