MODEL 1
REMARK minimizedAffinity -2.39893985
REMARK minimizedRMSD -1
REMARK  0 active torsions:
REMARK  status: ('A' for Active; 'I' for Inactive)
ROOT
ATOM      1  C   UNL d   1      -0.974   1.014  -0.820  0.00  0.00     0.078 C 
ATOM      2  C1  UNL d   1      -2.240   0.811  -0.043  0.00  0.00    -0.077 A 
ATOM      3  C2  UNL d   1      -2.463   1.490   1.161  0.00  0.00    -0.001 A 
ATOM      4  C3  UNL d   1      -3.642   1.284   1.879  0.00  0.00     0.003 A 
ATOM      5  C4  UNL d   1      -4.607   0.399   1.402  0.00  0.00    -0.005 A 
ATOM      6  C5  UNL d   1      -4.393  -0.282   0.206  0.00  0.00     0.003 A 
ATOM      7  C6  UNL d   1      -3.215  -0.078  -0.514  0.00  0.00    -0.001 A 
ENDROOT
TORSDOF 0
ENDMDL
