MODEL 1
REMARK minimizedAffinity -2.95403576
REMARK minimizedRMSD -1
REMARK  0 active torsions:
REMARK  status: ('A' for Active; 'I' for Inactive)
ROOT
ATOM      1  C   UNL d   1      -0.446   0.205  -0.269  0.00  0.00     0.078 C 
ATOM      2  C1  UNL d   1       1.050   0.159  -0.362  0.00  0.00    -0.077 A 
ATOM      3  C2  UNL d   1       1.817   1.323  -0.233  0.00  0.00    -0.001 A 
ATOM      4  C3  UNL d   1       3.208   1.266  -0.331  0.00  0.00     0.003 A 
ATOM      5  C4  UNL d   1       3.844   0.048  -0.561  0.00  0.00    -0.005 A 
ATOM      6  C5  UNL d   1       3.089  -1.116  -0.694  0.00  0.00     0.003 A 
ATOM      7  C6  UNL d   1       1.698  -1.061  -0.595  0.00  0.00    -0.001 A 
ENDROOT
TORSDOF 0
ENDMDL
