MODEL 1
REMARK minimizedAffinity -5.49530029
REMARK minimizedRMSD -1
REMARK  0 active torsions:
REMARK  status: ('A' for Active; 'I' for Inactive)
ROOT
ATOM      1  C   UNL d   1      -0.648   0.352  -0.134  0.00  0.00     0.078 C 
ATOM      2  C1  UNL d   1       0.823   0.128   0.049  0.00  0.00    -0.077 A 
ATOM      3  C2  UNL d   1       1.387  -1.141  -0.128  0.00  0.00    -0.001 A 
ATOM      4  C3  UNL d   1       2.757  -1.337   0.055  0.00  0.00     0.003 A 
ATOM      5  C4  UNL d   1       3.575  -0.268   0.416  0.00  0.00    -0.005 A 
ATOM      6  C5  UNL d   1       3.022   0.999   0.596  0.00  0.00     0.003 A 
ATOM      7  C6  UNL d   1       1.653   1.196   0.414  0.00  0.00    -0.001 A 
ENDROOT
TORSDOF 0
ENDMDL
