MODEL 1
REMARK minimizedAffinity -2.34761858
REMARK minimizedRMSD -1
REMARK  0 active torsions:
REMARK  status: ('A' for Active; 'I' for Inactive)
ROOT
ATOM      1  C   UNL d   1      -2.104   0.549  -0.353  0.00  0.00     0.078 C 
ATOM      2  C1  UNL d   1      -0.624   0.733  -0.198  0.00  0.00    -0.077 A 
ATOM      3  C2  UNL d   1       0.160  -0.233   0.444  0.00  0.00    -0.001 A 
ATOM      4  C3  UNL d   1       1.535  -0.043   0.590  0.00  0.00     0.003 A 
ATOM      5  C4  UNL d   1       2.138   1.112   0.097  0.00  0.00    -0.005 A 
ATOM      6  C5  UNL d   1       1.366   2.080  -0.542  0.00  0.00     0.003 A 
ATOM      7  C6  UNL d   1      -0.010   1.892  -0.688  0.00  0.00    -0.001 A 
ENDROOT
TORSDOF 0
ENDMDL
