MODEL 1
REMARK minimizedAffinity -2.10980272
REMARK minimizedRMSD -1
REMARK  0 active torsions:
REMARK  status: ('A' for Active; 'I' for Inactive)
ROOT
ATOM      1  C   UNL d   1       2.063  -1.946  -0.487  0.00  0.00     0.078 C 
ATOM      2  C1  UNL d   1       1.175  -0.743  -0.588  0.00  0.00    -0.077 A 
ATOM      3  C2  UNL d   1       1.547   0.479  -0.012  0.00  0.00    -0.001 A 
ATOM      4  C3  UNL d   1       0.705   1.588  -0.105  0.00  0.00     0.003 A 
ATOM      5  C4  UNL d   1      -0.514   1.488  -0.771  0.00  0.00    -0.005 A 
ATOM      6  C5  UNL d   1      -0.894   0.276  -1.345  0.00  0.00     0.003 A 
ATOM      7  C6  UNL d   1      -0.054  -0.835  -1.254  0.00  0.00    -0.001 A 
ENDROOT
TORSDOF 0
ENDMDL
