MODEL 1
REMARK minimizedAffinity -2.59428215
REMARK minimizedRMSD -1
REMARK  0 active torsions:
REMARK  status: ('A' for Active; 'I' for Inactive)
ROOT
ATOM      1  C   UNL d   1      -1.744   1.000  -0.032  0.00  0.00     0.078 C 
ATOM      2  C1  UNL d   1      -0.632   0.013   0.164  0.00  0.00    -0.077 A 
ATOM      3  C2  UNL d   1      -0.204  -0.809  -0.885  0.00  0.00    -0.001 A 
ATOM      4  C3  UNL d   1       0.826  -1.730  -0.686  0.00  0.00     0.003 A 
ATOM      5  C4  UNL d   1       1.436  -1.838   0.563  0.00  0.00    -0.005 A 
ATOM      6  C5  UNL d   1       1.015  -1.026   1.614  0.00  0.00     0.003 A 
ATOM      7  C6  UNL d   1      -0.014  -0.104   1.416  0.00  0.00    -0.001 A 
ENDROOT
TORSDOF 0
ENDMDL
