MODEL 1
REMARK minimizedAffinity -0.488405555
REMARK minimizedRMSD -1
REMARK  0 active torsions:
REMARK  status: ('A' for Active; 'I' for Inactive)
ROOT
ATOM      1  C4' PXY d   1       3.328  -1.476   0.759  0.00  0.00     0.077 C 
ATOM      2  C1' PXY d   1      -2.309  -0.203   0.871  0.00  0.00     0.077 C 
ATOM      3  C1  PXY d   1      -0.828  -0.525   0.846  0.00  0.00    -0.082 A 
ATOM      4  C2  PXY d   1      -0.382  -1.493   0.061  0.00  0.00     0.003 A 
ATOM      5  C3  PXY d   1       0.950  -1.818   0.049  0.00  0.00     0.003 A 
ATOM      6  C4  PXY d   1       1.842  -1.111   0.810  0.00  0.00    -0.082 A 
ATOM      7  C5  PXY d   1       1.397  -0.115   1.605  0.00  0.00     0.003 A 
ATOM      8  C6  PXY d   1       0.035   0.172   1.633  0.00  0.00     0.003 A 
ENDROOT
TORSDOF 0
ENDMDL
