MODEL 1
REMARK minimizedAffinity -3.12334728
REMARK minimizedRMSD -1
REMARK  0 active torsions:
REMARK  status: ('A' for Active; 'I' for Inactive)
ROOT
ATOM      1  C4' PXY d   1      -2.004   0.662   1.096  0.00  0.00     0.077 C 
ATOM      2  C1' PXY d   1       3.058  -1.986   0.214  0.00  0.00     0.077 C 
ATOM      3  C1  PXY d   1       1.734  -1.289   0.458  0.00  0.00    -0.082 A 
ATOM      4  C2  PXY d   1       0.689  -1.587  -0.298  0.00  0.00     0.003 A 
ATOM      5  C3  PXY d   1      -0.507  -0.944  -0.112  0.00  0.00     0.003 A 
ATOM      6  C4  PXY d   1      -0.650  -0.024   0.892  0.00  0.00    -0.082 A 
ATOM      7  C5  PXY d   1       0.408   0.278   1.674  0.00  0.00     0.003 A 
ATOM      8  C6  PXY d   1       1.625  -0.357   1.442  0.00  0.00     0.003 A 
ENDROOT
TORSDOF 0
ENDMDL
