MODEL 1
REMARK minimizedAffinity -4.7908411
REMARK minimizedRMSD -1
REMARK  0 active torsions:
REMARK  status: ('A' for Active; 'I' for Inactive)
ROOT
ATOM      1  C4' PXY d   1      -1.341   0.137   1.339  0.00  0.00     0.077 C 
ATOM      2  C1' PXY d   1       2.722  -3.643  -0.280  0.00  0.00     0.077 C 
ATOM      3  C1  PXY d   1       1.648  -2.658   0.137  0.00  0.00    -0.082 A 
ATOM      4  C2  PXY d   1       1.994  -1.453   0.561  0.00  0.00     0.003 A 
ATOM      5  C3  PXY d   1       1.037  -0.561   0.972  0.00  0.00     0.003 A 
ATOM      6  C4  PXY d   1      -0.291  -0.887   0.899  0.00  0.00    -0.082 A 
ATOM      7  C5  PXY d   1      -0.653  -2.110   0.458  0.00  0.00     0.003 A 
ATOM      8  C6  PXY d   1       0.336  -3.016   0.084  0.00  0.00     0.003 A 
ENDROOT
TORSDOF 0
ENDMDL
