MODEL 1
REMARK minimizedAffinity 2.89591742
REMARK minimizedRMSD -1
REMARK  0 active torsions:
REMARK  status: ('A' for Active; 'I' for Inactive)
ROOT
ATOM      1  C4' PXY d   1       2.990  -0.741  -0.034  0.00  0.00     0.077 C 
ATOM      2  C1' PXY d   1      -2.417  -2.512   0.991  0.00  0.00     0.077 C 
ATOM      3  C1  PXY d   1      -0.995  -2.060   0.721  0.00  0.00    -0.082 A 
ATOM      4  C2  PXY d   1      -0.588  -0.882   1.165  0.00  0.00     0.003 A 
ATOM      5  C3  PXY d   1       0.685  -0.444   0.902  0.00  0.00     0.003 A 
ATOM      6  C4  PXY d   1       1.566  -1.242   0.224  0.00  0.00    -0.082 A 
ATOM      7  C5  PXY d   1       1.162  -2.450  -0.223  0.00  0.00     0.003 A 
ATOM      8  C6  PXY d   1      -0.147  -2.859   0.018  0.00  0.00     0.003 A 
ENDROOT
TORSDOF 0
ENDMDL
