MODEL 1
REMARK minimizedAffinity 10.363739
REMARK minimizedRMSD -1
REMARK  0 active torsions:
REMARK  status: ('A' for Active; 'I' for Inactive)
ROOT
ATOM      1  C4' PXY d   1       4.201   4.301  -1.678  0.00  0.00     0.077 C 
ATOM      2  C1' PXY d   1       1.438  -0.300  -3.826  0.00  0.00     0.077 C 
ATOM      3  C1  PXY d   1       2.156   0.914  -3.271  0.00  0.00    -0.082 A 
ATOM      4  C2  PXY d   1       3.307   0.760  -2.637  0.00  0.00     0.003 A 
ATOM      5  C3  PXY d   1       3.954   1.844  -2.101  0.00  0.00     0.003 A 
ATOM      6  C4  PXY d   1       3.445   3.104  -2.263  0.00  0.00    -0.082 A 
ATOM      7  C5  PXY d   1       2.277   3.271  -2.918  0.00  0.00     0.003 A 
ATOM      8  C6  PXY d   1       1.615   2.154  -3.419  0.00  0.00     0.003 A 
ENDROOT
TORSDOF 0
ENDMDL
