MODEL 1
REMARK minimizedAffinity -3.85735655
REMARK minimizedRMSD -1
REMARK  0 active torsions:
REMARK  status: ('A' for Active; 'I' for Inactive)
ROOT
ATOM      1  C4' PXY d   1       0.669  -2.861  -0.220  0.00  0.00     0.077 C 
ATOM      2  C1' PXY d   1      -2.325   1.550   2.017  0.00  0.00     0.077 C 
ATOM      3  C1  PXY d   1      -1.529   0.400   1.431  0.00  0.00    -0.082 A 
ATOM      4  C2  PXY d   1      -2.150  -0.537   0.734  0.00  0.00     0.003 A 
ATOM      5  C3  PXY d   1      -1.451  -1.601   0.224  0.00  0.00     0.003 A 
ATOM      6  C4  PXY d   1      -0.093  -1.677   0.383  0.00  0.00    -0.082 A 
ATOM      7  C5  PXY d   1       0.550  -0.719   1.083  0.00  0.00     0.003 A 
ATOM      8  C6  PXY d   1      -0.185   0.331   1.628  0.00  0.00     0.003 A 
ENDROOT
TORSDOF 0
ENDMDL
