MODEL 1
REMARK minimizedAffinity 1.117347
REMARK minimizedRMSD -1
REMARK  0 active torsions:
REMARK  status: ('A' for Active; 'I' for Inactive)
ROOT
ATOM      1  C4' PXY d   1       0.411  -3.586  -0.398  0.00  0.00     0.077 C 
ATOM      2  C1' PXY d   1      -1.474   1.134   2.356  0.00  0.00     0.077 C 
ATOM      3  C1  PXY d   1      -0.967  -0.099   1.634  0.00  0.00    -0.082 A 
ATOM      4  C2  PXY d   1      -1.804  -0.820   0.905  0.00  0.00     0.003 A 
ATOM      5  C3  PXY d   1      -1.370  -1.956   0.271  0.00  0.00     0.003 A 
ATOM      6  C4  PXY d   1      -0.054  -2.328   0.341  0.00  0.00    -0.082 A 
ATOM      7  C5  PXY d   1       0.808  -1.592   1.074  0.00  0.00     0.003 A 
ATOM      8  C6  PXY d   1       0.339  -0.465   1.743  0.00  0.00     0.003 A 
ENDROOT
TORSDOF 0
ENDMDL
