MODEL 1
REMARK minimizedAffinity 5.13788414
REMARK minimizedRMSD -1
REMARK  0 active torsions:
REMARK  status: ('A' for Active; 'I' for Inactive)
ROOT
ATOM      1  C4' PXY d   1       0.336  -4.333  -1.905  0.00  0.00     0.077 C 
ATOM      2  C1' PXY d   1       0.023  -0.570   2.472  0.00  0.00     0.077 C 
ATOM      3  C1  PXY d   1       0.117  -1.553   1.322  0.00  0.00    -0.082 A 
ATOM      4  C2  PXY d   1      -0.980  -1.914   0.678  0.00  0.00     0.003 A 
ATOM      5  C3  PXY d   1      -0.917  -2.826  -0.343  0.00  0.00     0.003 A 
ATOM      6  C4  PXY d   1       0.289  -3.335  -0.744  0.00  0.00    -0.082 A 
ATOM      7  C5  PXY d   1       1.415  -2.965  -0.098  0.00  0.00     0.003 A 
ATOM      8  C6  PXY d   1       1.324  -2.068   0.963  0.00  0.00     0.003 A 
ENDROOT
TORSDOF 0
ENDMDL
