MODEL 1
REMARK minimizedAffinity 1.51179588
REMARK minimizedRMSD -1
REMARK  0 active torsions:
REMARK  status: ('A' for Active; 'I' for Inactive)
ROOT
ATOM      1  C4' PXY d   1       4.060  -1.719   0.113  0.00  0.00     0.077 C 
ATOM      2  C1' PXY d   1      -1.656  -2.440   0.585  0.00  0.00     0.077 C 
ATOM      3  C1  PXY d   1      -0.158  -2.238   0.464  0.00  0.00    -0.082 A 
ATOM      4  C2  PXY d   1       0.555  -3.065  -0.283  0.00  0.00     0.003 A 
ATOM      5  C3  PXY d   1       1.915  -2.917  -0.378  0.00  0.00     0.003 A 
ATOM      6  C4  PXY d   1       2.544  -1.879   0.256  0.00  0.00    -0.082 A 
ATOM      7  C5  PXY d   1       1.822  -1.025   1.012  0.00  0.00     0.003 A 
ATOM      8  C6  PXY d   1       0.448  -1.217   1.128  0.00  0.00     0.003 A 
ENDROOT
TORSDOF 0
ENDMDL
