MODEL 1
REMARK minimizedAffinity 0.673942626
REMARK minimizedRMSD -1
REMARK  0 active torsions:
REMARK  status: ('A' for Active; 'I' for Inactive)
ROOT
ATOM      1  C4' PXY d   1      -0.502   0.972   2.014  0.00  0.00     0.077 C 
ATOM      2  C1' PXY d   1       1.123  -3.709  -0.963  0.00  0.00     0.077 C 
ATOM      3  C1  PXY d   1       0.709  -2.480  -0.178  0.00  0.00    -0.082 A 
ATOM      4  C2  PXY d   1      -0.552  -2.336   0.196  0.00  0.00     0.003 A 
ATOM      5  C3  PXY d   1      -0.950  -1.216   0.879  0.00  0.00     0.003 A 
ATOM      6  C4  PXY d   1      -0.037  -0.257   1.228  0.00  0.00    -0.082 A 
ATOM      7  C5  PXY d   1       1.253  -0.401   0.859  0.00  0.00     0.003 A 
ATOM      8  C6  PXY d   1       1.629  -1.526   0.131  0.00  0.00     0.003 A 
ENDROOT
TORSDOF 0
ENDMDL
