MODEL 1
REMARK minimizedAffinity -2.4618156
REMARK minimizedRMSD -1
REMARK  0 active torsions:
REMARK  status: ('A' for Active; 'I' for Inactive)
ROOT
ATOM      1  C4' PXY d   1       2.860  -3.849  -0.671  0.00  0.00     0.077 C 
ATOM      2  C1' PXY d   1      -1.041  -0.038   1.245  0.00  0.00     0.077 C 
ATOM      3  C1  PXY d   1      -0.023  -1.047   0.751  0.00  0.00    -0.082 A 
ATOM      4  C2  PXY d   1       1.088  -0.623   0.171  0.00  0.00     0.003 A 
ATOM      5  C3  PXY d   1       2.005  -1.522  -0.310  0.00  0.00     0.003 A 
ATOM      6  C4  PXY d   1       1.808  -2.867  -0.149  0.00  0.00    -0.082 A 
ATOM      7  C5  PXY d   1       0.682  -3.307   0.452  0.00  0.00     0.003 A 
ATOM      8  C6  PXY d   1      -0.256  -2.379   0.897  0.00  0.00     0.003 A 
ENDROOT
TORSDOF 0
ENDMDL
