MODEL 1
REMARK minimizedAffinity -3.47034526
REMARK minimizedRMSD -1
REMARK  0 active torsions:
REMARK  status: ('A' for Active; 'I' for Inactive)
ROOT
ATOM      1  C4' PXY d   1       3.235  -4.126  -0.538  0.00  0.00     0.077 C 
ATOM      2  C1' PXY d   1      -0.761  -0.145   0.729  0.00  0.00     0.077 C 
ATOM      3  C1  PXY d   1       0.295  -1.180   0.393  0.00  0.00    -0.082 A 
ATOM      4  C2  PXY d   1      -0.072  -2.415   0.092  0.00  0.00     0.003 A 
ATOM      5  C3  PXY d   1       0.872  -3.371  -0.182  0.00  0.00     0.003 A 
ATOM      6  C4  PXY d   1       2.202  -3.046  -0.202  0.00  0.00    -0.082 A 
ATOM      7  C5  PXY d   1       2.583  -1.785   0.094  0.00  0.00     0.003 A 
ATOM      8  C6  PXY d   1       1.612  -0.840   0.410  0.00  0.00     0.003 A 
ENDROOT
TORSDOF 0
ENDMDL
