MODEL 1
REMARK minimizedAffinity 2.91115665
REMARK minimizedRMSD -1
REMARK  0 active torsions:
REMARK  status: ('A' for Active; 'I' for Inactive)
ROOT
ATOM      1  C4' PXY d   1       4.095  -1.032   0.668  0.00  0.00     0.077 C 
ATOM      2  C1' PXY d   1      -1.677  -1.318   0.771  0.00  0.00     0.077 C 
ATOM      3  C1  PXY d   1      -0.164  -1.231   0.750  0.00  0.00    -0.082 A 
ATOM      4  C2  PXY d   1       0.516  -1.889  -0.174  0.00  0.00     0.003 A 
ATOM      5  C3  PXY d   1       1.887  -1.848  -0.188  0.00  0.00     0.003 A 
ATOM      6  C4  PXY d   1       2.566  -1.083   0.722  0.00  0.00    -0.082 A 
ATOM      7  C5  PXY d   1       1.879  -0.400   1.662  0.00  0.00     0.003 A 
ATOM      8  C6  PXY d   1       0.490  -0.488   1.684  0.00  0.00     0.003 A 
ENDROOT
TORSDOF 0
ENDMDL
