MODEL 1
REMARK minimizedAffinity 0.205835029
REMARK minimizedRMSD -1
REMARK  0 active torsions:
REMARK  status: ('A' for Active; 'I' for Inactive)
ROOT
ATOM      1  C4' PXY d   1      -0.773  -0.782   0.820  0.00  0.00     0.077 C 
ATOM      2  C1' PXY d   1       3.712  -3.920  -1.036  0.00  0.00     0.077 C 
ATOM      3  C1  PXY d   1       2.544  -3.089  -0.543  0.00  0.00    -0.082 A 
ATOM      4  C2  PXY d   1       1.349  -3.644  -0.429  0.00  0.00     0.003 A 
ATOM      5  C3  PXY d   1       0.275  -2.899  -0.015  0.00  0.00     0.003 A 
ATOM      6  C4  PXY d   1       0.437  -1.586   0.335  0.00  0.00    -0.082 A 
ATOM      7  C5  PXY d   1       1.655  -1.015   0.231  0.00  0.00     0.003 A 
ATOM      8  C6  PXY d   1       2.724  -1.778  -0.230  0.00  0.00     0.003 A 
ENDROOT
TORSDOF 0
ENDMDL
