MODEL 1
REMARK minimizedAffinity 3.77283883
REMARK minimizedRMSD -1
REMARK  0 active torsions:
REMARK  status: ('A' for Active; 'I' for Inactive)
ROOT
ATOM      1  C4' PXY d   1      -1.089   0.669   2.239  0.00  0.00     0.077 C 
ATOM      2  C1' PXY d   1       1.467  -3.297  -1.101  0.00  0.00     0.077 C 
ATOM      3  C1  PXY d   1       0.808  -2.252  -0.222  0.00  0.00    -0.082 A 
ATOM      4  C2  PXY d   1      -0.407  -2.469   0.254  0.00  0.00     0.003 A 
ATOM      5  C3  PXY d   1      -1.031  -1.521   1.024  0.00  0.00     0.003 A 
ATOM      6  C4  PXY d   1      -0.382  -0.362   1.355  0.00  0.00    -0.082 A 
ATOM      7  C5  PXY d   1       0.863  -0.137   0.883  0.00  0.00     0.003 A 
ATOM      8  C6  PXY d   1       1.462  -1.094   0.068  0.00  0.00     0.003 A 
ENDROOT
TORSDOF 0
ENDMDL
