MODEL 1
REMARK minimizedAffinity 6.2602725
REMARK minimizedRMSD -1
REMARK  0 active torsions:
REMARK  status: ('A' for Active; 'I' for Inactive)
ROOT
ATOM      1  C4' PXY d   1      -0.646   0.474   2.145  0.00  0.00     0.077 C 
ATOM      2  C1' PXY d   1       1.692  -3.967  -0.722  0.00  0.00     0.077 C 
ATOM      3  C1  PXY d   1       1.089  -2.803   0.038  0.00  0.00    -0.082 A 
ATOM      4  C2  PXY d   1      -0.214  -2.583  -0.029  0.00  0.00     0.003 A 
ATOM      5  C3  PXY d   1      -0.771  -1.515   0.627  0.00  0.00     0.003 A 
ATOM      6  C4  PXY d   1       0.005  -0.695   1.401  0.00  0.00    -0.082 A 
ATOM      7  C5  PXY d   1       1.334  -0.920   1.483  0.00  0.00     0.003 A 
ATOM      8  C6  PXY d   1       1.886  -1.984   0.777  0.00  0.00     0.003 A 
ENDROOT
TORSDOF 0
ENDMDL
