MODEL 1
REMARK minimizedAffinity -5.23548985
REMARK minimizedRMSD -1
REMARK  0 active torsions:
REMARK  status: ('A' for Active; 'I' for Inactive)
ROOT
ATOM      1  C4' PXY d   1      -1.076  -3.406  -0.181  0.00  0.00     0.077 C 
ATOM      2  C1' PXY d   1      -1.954   1.739   2.303  0.00  0.00     0.077 C 
ATOM      3  C1  PXY d   1      -1.712   0.390   1.656  0.00  0.00    -0.082 A 
ATOM      4  C2  PXY d   1      -2.485  -0.004   0.657  0.00  0.00     0.003 A 
ATOM      5  C3  PXY d   1      -2.299  -1.235   0.081  0.00  0.00     0.003 A 
ATOM      6  C4  PXY d   1      -1.279  -2.048   0.496  0.00  0.00    -0.082 A 
ATOM      7  C5  PXY d   1      -0.479  -1.648   1.508  0.00  0.00     0.003 A 
ATOM      8  C6  PXY d   1      -0.710  -0.413   2.106  0.00  0.00     0.003 A 
ENDROOT
TORSDOF 0
ENDMDL
