MODEL 1
REMARK minimizedAffinity -0.391183674
REMARK minimizedRMSD -1
REMARK  0 active torsions:
REMARK  status: ('A' for Active; 'I' for Inactive)
ROOT
ATOM      1  C4' PXY d   1      -1.257  -0.464   1.733  0.00  0.00     0.077 C 
ATOM      2  C1' PXY d   1       3.613  -2.687  -0.449  0.00  0.00     0.077 C 
ATOM      3  C1  PXY d   1       2.329  -2.112   0.116  0.00  0.00    -0.082 A 
ATOM      4  C2  PXY d   1       2.313  -0.870   0.571  0.00  0.00     0.003 A 
ATOM      5  C3  PXY d   1       1.168  -0.345   1.115  0.00  0.00     0.003 A 
ATOM      6  C4  PXY d   1       0.015  -1.082   1.145  0.00  0.00    -0.082 A 
ATOM      7  C5  PXY d   1       0.020  -2.347   0.673  0.00  0.00     0.003 A 
ATOM      8  C6  PXY d   1       1.203  -2.875   0.162  0.00  0.00     0.003 A 
ENDROOT
TORSDOF 0
ENDMDL
