MODEL 1
REMARK minimizedAffinity 11.176527
REMARK minimizedRMSD -1
REMARK  0 active torsions:
REMARK  status: ('A' for Active; 'I' for Inactive)
ROOT
ATOM      1  C4' PXY d   1       1.026  -3.098  -0.013  0.00  0.00     0.077 C 
ATOM      2  C1' PXY d   1       6.000  -6.000  -0.521  0.00  0.00     0.077 C 
ATOM      3  C1  PXY d   1       4.702  -5.229  -0.381  0.00  0.00    -0.082 A 
ATOM      4  C2  PXY d   1       3.549  -5.877  -0.419  0.00  0.00     0.003 A 
ATOM      5  C3  PXY d   1       2.365  -5.192  -0.327  0.00  0.00     0.003 A 
ATOM      6  C4  PXY d   1       2.362  -3.836  -0.140  0.00  0.00    -0.082 A 
ATOM      7  C5  PXY d   1       3.534  -3.169  -0.089  0.00  0.00     0.003 A 
ATOM      8  C6  PXY d   1       4.724  -3.877  -0.226  0.00  0.00     0.003 A 
ENDROOT
TORSDOF 0
ENDMDL
