MODEL 1
REMARK minimizedAffinity -3.36189651
REMARK minimizedRMSD -1
REMARK  0 active torsions:
REMARK  status: ('A' for Active; 'I' for Inactive)
ROOT
ATOM      1  C4' PXY d   1      -1.879   0.753   1.865  0.00  0.00     0.077 C 
ATOM      2  C1' PXY d   1       1.531  -3.347  -0.367  0.00  0.00     0.077 C 
ATOM      3  C1  PXY d   1       0.627  -2.275   0.210  0.00  0.00    -0.082 A 
ATOM      4  C2  PXY d   1       1.159  -1.243   0.845  0.00  0.00     0.003 A 
ATOM      5  C3  PXY d   1       0.355  -0.281   1.400  0.00  0.00     0.003 A 
ATOM      6  C4  PXY d   1      -1.005  -0.348   1.258  0.00  0.00    -0.082 A 
ATOM      7  C5  PXY d   1      -1.555  -1.392   0.603  0.00  0.00     0.003 A 
ATOM      8  C6  PXY d   1      -0.724  -2.379   0.082  0.00  0.00     0.003 A 
ENDROOT
TORSDOF 0
ENDMDL
