MODEL 1
REMARK minimizedAffinity 0.675048769
REMARK minimizedRMSD -1
REMARK  0 active torsions:
REMARK  status: ('A' for Active; 'I' for Inactive)
ROOT
ATOM      1  C1  DEN d   1      -0.752  -3.549  -6.000  0.00  0.00     0.130 A 
ATOM      2  C2  DEN d   1       0.700  -3.705  -5.992  0.00  0.00    -0.031 A 
ATOM      3  C3  DEN d   1       1.286  -2.485  -5.402  0.00  0.00     0.027 A 
ATOM      4  C4  DEN d   1       0.092  -0.384  -4.498  0.00  0.00     0.027 A 
ATOM      5  C5  DEN d   1      -1.133   0.214  -4.303  0.00  0.00    -0.003 A 
ATOM      6  C6  DEN d   1      -2.306  -0.381  -4.687  0.00  0.00     0.001 A 
ATOM      7  C7  DEN d   1      -2.281  -1.631  -5.246  0.00  0.00     0.017 A 
ATOM      8  C8  DEN d   1      -1.049  -2.237  -5.453  0.00  0.00    -0.094 A 
ATOM      9  C9  DEN d   1       0.125  -1.625  -5.047  0.00  0.00    -0.072 A 
ENDROOT
TORSDOF 0
ENDMDL
