MODEL 1
REMARK minimizedAffinity 0.225566
REMARK minimizedRMSD -1
REMARK  0 active torsions:
REMARK  status: ('A' for Active; 'I' for Inactive)
ROOT
ATOM      1  C1  DEN d   1       0.183  -0.011  -3.020  0.00  0.00     0.130 A 
ATOM      2  C2  DEN d   1       1.144   0.340  -1.979  0.00  0.00    -0.031 A 
ATOM      3  C3  DEN d   1       1.432  -0.877  -1.194  0.00  0.00     0.027 A 
ATOM      4  C4  DEN d   1       0.491  -3.260  -1.491  0.00  0.00     0.027 A 
ATOM      5  C5  DEN d   1      -0.365  -4.044  -2.232  0.00  0.00    -0.003 A 
ATOM      6  C6  DEN d   1      -1.118  -3.536  -3.257  0.00  0.00     0.001 A 
ATOM      7  C7  DEN d   1      -0.996  -2.216  -3.599  0.00  0.00     0.017 A 
ATOM      8  C8  DEN d   1      -0.140  -1.417  -2.852  0.00  0.00    -0.094 A 
ATOM      9  C9  DEN d   1       0.622  -1.951  -1.828  0.00  0.00    -0.072 A 
ENDROOT
TORSDOF 0
ENDMDL
