MODEL 1
REMARK minimizedAffinity 5.76853132
REMARK minimizedRMSD -1
REMARK  0 active torsions:
REMARK  status: ('A' for Active; 'I' for Inactive)
ROOT
ATOM      1  C1  DEN d   1      -5.641   1.755  -3.754  0.00  0.00     0.130 A 
ATOM      2  C2  DEN d   1      -4.486   1.270  -3.004  0.00  0.00    -0.031 A 
ATOM      3  C3  DEN d   1      -3.396   2.255  -3.156  0.00  0.00     0.027 A 
ATOM      4  C4  DEN d   1      -3.386   4.474  -4.471  0.00  0.00     0.027 A 
ATOM      5  C5  DEN d   1      -4.133   5.304  -5.278  0.00  0.00    -0.003 A 
ATOM      6  C6  DEN d   1      -5.412   4.995  -5.658  0.00  0.00     0.001 A 
ATOM      7  C7  DEN d   1      -6.000   3.848  -5.194  0.00  0.00     0.017 A 
ATOM      8  C8  DEN d   1      -5.251   3.003  -4.386  0.00  0.00    -0.094 A 
ATOM      9  C9  DEN d   1      -3.964   3.338  -4.003  0.00  0.00    -0.072 A 
ENDROOT
TORSDOF 0
ENDMDL
