MODEL 1
REMARK minimizedAffinity 12.096323
REMARK minimizedRMSD -1
REMARK  0 active torsions:
REMARK  status: ('A' for Active; 'I' for Inactive)
ROOT
ATOM      1  C1  DEN d   1      -2.164   1.930   1.395  0.00  0.00     0.130 A 
ATOM      2  C2  DEN d   1      -3.095   1.509   0.351  0.00  0.00    -0.031 A 
ATOM      3  C3  DEN d   1      -2.456   1.757  -0.957  0.00  0.00     0.027 A 
ATOM      4  C4  DEN d   1      -0.127   2.740  -1.465  0.00  0.00     0.027 A 
ATOM      5  C5  DEN d   1       1.021   3.256  -0.904  0.00  0.00    -0.003 A 
ATOM      6  C6  DEN d   1       1.172   3.396   0.450  0.00  0.00     0.001 A 
ATOM      7  C7  DEN d   1       0.177   2.974   1.292  0.00  0.00     0.017 A 
ATOM      8  C8  DEN d   1      -0.986   2.460   0.733  0.00  0.00    -0.094 A 
ATOM      9  C9  DEN d   1      -1.115   2.315  -0.638  0.00  0.00    -0.072 A 
ENDROOT
TORSDOF 0
ENDMDL
