MODEL 1
REMARK minimizedAffinity 3.83566904
REMARK minimizedRMSD -1
REMARK  0 active torsions:
REMARK  status: ('A' for Active; 'I' for Inactive)
ROOT
ATOM      1  C1  DEN d   1       0.851  -2.465  -2.028  0.00  0.00     0.130 A 
ATOM      2  C2  DEN d   1       0.396  -1.984  -3.330  0.00  0.00    -0.031 A 
ATOM      3  C3  DEN d   1       0.218  -0.521  -3.239  0.00  0.00     0.027 A 
ATOM      4  C4  DEN d   1       0.605   1.039  -1.222  0.00  0.00     0.027 A 
ATOM      5  C5  DEN d   1       0.980   1.089   0.102  0.00  0.00    -0.003 A 
ATOM      6  C6  DEN d   1       1.303  -0.036   0.813  0.00  0.00     0.001 A 
ATOM      7  C7  DEN d   1       1.301  -1.257   0.190  0.00  0.00     0.017 A 
ATOM      8  C8  DEN d   1       0.916  -1.316  -1.143  0.00  0.00    -0.094 A 
ATOM      9  C9  DEN d   1       0.605  -0.166  -1.847  0.00  0.00    -0.072 A 
ENDROOT
TORSDOF 0
ENDMDL
