MODEL 1
REMARK minimizedAffinity -0.478208601
REMARK minimizedRMSD -1
REMARK  0 active torsions:
REMARK  status: ('A' for Active; 'I' for Inactive)
ROOT
ATOM      1  C1  DEN d   1      -0.057   1.278   0.953  0.00  0.00     0.130 A 
ATOM      2  C2  DEN d   1       0.475   0.668  -0.262  0.00  0.00    -0.031 A 
ATOM      3  C3  DEN d   1      -0.662   0.156  -1.052  0.00  0.00     0.027 A 
ATOM      4  C4  DEN d   1      -3.184   0.252  -0.517  0.00  0.00     0.027 A 
ATOM      5  C5  DEN d   1      -4.120   0.662   0.406  0.00  0.00    -0.003 A 
ATOM      6  C6  DEN d   1      -3.769   1.270   1.582  0.00  0.00     0.001 A 
ATOM      7  C7  DEN d   1      -2.450   1.527   1.846  0.00  0.00     0.017 A 
ATOM      8  C8  DEN d   1      -1.499   1.110   0.924  0.00  0.00    -0.094 A 
ATOM      9  C9  DEN d   1      -1.875   0.508  -0.265  0.00  0.00    -0.072 A 
ENDROOT
TORSDOF 0
ENDMDL
