MODEL 1
REMARK minimizedAffinity -5.5187788
REMARK minimizedRMSD -1
REMARK  0 active torsions:
REMARK  status: ('A' for Active; 'I' for Inactive)
ROOT
ATOM      1  C1  DEN d   1      -0.347   1.132  -0.077  0.00  0.00     0.130 A 
ATOM      2  C2  DEN d   1      -1.115  -0.054  -0.446  0.00  0.00    -0.031 A 
ATOM      3  C3  DEN d   1      -0.195  -1.209  -0.454  0.00  0.00     0.027 A 
ATOM      4  C4  DEN d   1       2.330  -1.277   0.070  0.00  0.00     0.027 A 
ATOM      5  C5  DEN d   1       3.424  -0.517   0.421  0.00  0.00    -0.003 A 
ATOM      6  C6  DEN d   1       3.346   0.839   0.596  0.00  0.00     0.001 A 
ATOM      7  C7  DEN d   1       2.138   1.472   0.464  0.00  0.00     0.017 A 
ATOM      8  C8  DEN d   1       1.032   0.714   0.103  0.00  0.00    -0.094 A 
ATOM      9  C9  DEN d   1       1.129  -0.658  -0.057  0.00  0.00    -0.072 A 
ENDROOT
TORSDOF 0
ENDMDL
