MODEL 1
REMARK minimizedAffinity -6.56591606
REMARK minimizedRMSD -1
REMARK  0 active torsions:
REMARK  status: ('A' for Active; 'I' for Inactive)
ROOT
ATOM      1  C1  DEN d   1      -0.293  -0.814  -0.404  0.00  0.00     0.130 A 
ATOM      2  C2  DEN d   1      -1.036   0.410  -0.691  0.00  0.00    -0.031 A 
ATOM      3  C3  DEN d   1      -0.134   1.556  -0.465  0.00  0.00     0.027 A 
ATOM      4  C4  DEN d   1       2.332   1.556   0.294  0.00  0.00     0.027 A 
ATOM      5  C5  DEN d   1       3.390   0.759   0.670  0.00  0.00    -0.003 A 
ATOM      6  C6  DEN d   1       3.286  -0.605   0.747  0.00  0.00     0.001 A 
ATOM      7  C7  DEN d   1       2.111  -1.217   0.400  0.00  0.00     0.017 A 
ATOM      8  C8  DEN d   1       1.037  -0.419   0.027  0.00  0.00    -0.094 A 
ATOM      9  C9  DEN d   1       1.165   0.957  -0.057  0.00  0.00    -0.072 A 
ENDROOT
TORSDOF 0
ENDMDL
