MODEL 1
REMARK minimizedAffinity -1.97241735
REMARK minimizedRMSD -1
REMARK  0 active torsions:
REMARK  status: ('A' for Active; 'I' for Inactive)
ROOT
ATOM      1  C1  BNZ d   1       0.598   6.000   4.875  0.00  0.00     0.000 A 
ATOM      2  C2  BNZ d   1       0.382   5.249   3.750  0.00  0.00     0.000 A 
ATOM      3  C3  BNZ d   1       1.382   4.484   3.218  0.00  0.00     0.000 A 
ATOM      4  C4  BNZ d   1       2.605   4.501   3.786  0.00  0.00     0.000 A 
ATOM      5  C5  BNZ d   1       2.840   5.260   4.915  0.00  0.00     0.000 A 
ATOM      6  C6  BNZ d   1       1.821   5.999   5.471  0.00  0.00     0.000 A 
ENDROOT
TORSDOF 0
ENDMDL
