MODEL 1
REMARK minimizedAffinity -3.39022708
REMARK minimizedRMSD -1
REMARK  0 active torsions:
REMARK  status: ('A' for Active; 'I' for Inactive)
ROOT
ATOM      1  C1  BNZ d   1       2.587   4.301  -5.952  0.00  0.00     0.000 A 
ATOM      2  C2  BNZ d   1       3.346   5.441  -5.932  0.00  0.00     0.000 A 
ATOM      3  C3  BNZ d   1       4.711   5.374  -5.970  0.00  0.00     0.000 A 
ATOM      4  C4  BNZ d   1       5.315   4.168  -5.987  0.00  0.00     0.000 A 
ATOM      5  C5  BNZ d   1       4.564   3.010  -5.999  0.00  0.00     0.000 A 
ATOM      6  C6  BNZ d   1       3.190   3.082  -6.000  0.00  0.00     0.000 A 
ENDROOT
TORSDOF 0
ENDMDL
