MODEL 1
REMARK minimizedAffinity -1.59244812
REMARK minimizedRMSD -1
REMARK  0 active torsions:
REMARK  status: ('A' for Active; 'I' for Inactive)
ROOT
ATOM      1  C1  BNZ d   1       1.758   3.534  -5.999  0.00  0.00     0.000 A 
ATOM      2  C2  BNZ d   1       2.919   4.259  -5.993  0.00  0.00     0.000 A 
ATOM      3  C3  BNZ d   1       4.135   3.634  -5.998  0.00  0.00     0.000 A 
ATOM      4  C4  BNZ d   1       4.187   2.286  -5.968  0.00  0.00     0.000 A 
ATOM      5  C5  BNZ d   1       3.025   1.541  -5.964  0.00  0.00     0.000 A 
ATOM      6  C6  BNZ d   1       1.803   2.174  -5.999  0.00  0.00     0.000 A 
ENDROOT
TORSDOF 0
ENDMDL
