MODEL 1
REMARK minimizedAffinity -1.58647227
REMARK minimizedRMSD -1
REMARK  0 active torsions:
REMARK  status: ('A' for Active; 'I' for Inactive)
ROOT
ATOM      1  C1  BNZ d   1       0.800   5.224   4.119  0.00  0.00     0.000 A 
ATOM      2  C2  BNZ d   1       0.896   6.000   5.244  0.00  0.00     0.000 A 
ATOM      3  C3  BNZ d   1       2.034   5.999   6.000  0.00  0.00     0.000 A 
ATOM      4  C4  BNZ d   1       3.060   5.194   5.654  0.00  0.00     0.000 A 
ATOM      5  C5  BNZ d   1       2.975   4.399   4.529  0.00  0.00     0.000 A 
ATOM      6  C6  BNZ d   1       1.842   4.431   3.748  0.00  0.00     0.000 A 
ENDROOT
TORSDOF 0
ENDMDL
