MODEL 1
REMARK minimizedAffinity -2.06790996
REMARK minimizedRMSD -1
REMARK  0 active torsions:
REMARK  status: ('A' for Active; 'I' for Inactive)
ROOT
ATOM      1  C1  BNZ d   1       1.157   5.985   4.462  0.00  0.00     0.000 A 
ATOM      2  C2  BNZ d   1       0.947   4.970   3.567  0.00  0.00     0.000 A 
ATOM      3  C3  BNZ d   1       1.848   3.949   3.443  0.00  0.00     0.000 A 
ATOM      4  C4  BNZ d   1       2.974   3.965   4.185  0.00  0.00     0.000 A 
ATOM      5  C5  BNZ d   1       3.204   4.986   5.085  0.00  0.00     0.000 A 
ATOM      6  C6  BNZ d   1       2.277   5.992   5.235  0.00  0.00     0.000 A 
ENDROOT
TORSDOF 0
ENDMDL
