MODEL 1
REMARK minimizedAffinity -2.11223984
REMARK minimizedRMSD -1
REMARK  0 active torsions:
REMARK  status: ('A' for Active; 'I' for Inactive)
ROOT
ATOM      1  C1  BNZ d   1       2.622   2.903  -5.964  0.00  0.00     0.000 A 
ATOM      2  C2  BNZ d   1       3.975   3.117  -5.981  0.00  0.00     0.000 A 
ATOM      3  C3  BNZ d   1       4.483   4.385  -5.979  0.00  0.00     0.000 A 
ATOM      4  C4  BNZ d   1       3.640   5.438  -6.000  0.00  0.00     0.000 A 
ATOM      5  C5  BNZ d   1       2.274   5.239  -5.992  0.00  0.00     0.000 A 
ATOM      6  C6  BNZ d   1       1.766   3.961  -5.955  0.00  0.00     0.000 A 
ENDROOT
TORSDOF 0
ENDMDL
