MODEL 1
REMARK minimizedAffinity 3.58865333
REMARK minimizedRMSD -1
REMARK  0 active torsions:
REMARK  status: ('A' for Active; 'I' for Inactive)
ROOT
ATOM      1  C1  BNZ d   1       3.791   3.184  -5.966  0.00  0.00     0.000 A 
ATOM      2  C2  BNZ d   1       2.453   2.892  -5.958  0.00  0.00     0.000 A 
ATOM      3  C3  BNZ d   1       1.519   3.889  -5.989  0.00  0.00     0.000 A 
ATOM      4  C4  BNZ d   1       1.922   5.176  -5.989  0.00  0.00     0.000 A 
ATOM      5  C5  BNZ d   1       3.268   5.487  -5.988  0.00  0.00     0.000 A 
ATOM      6  C6  BNZ d   1       4.206   4.480  -5.995  0.00  0.00     0.000 A 
ENDROOT
TORSDOF 0
ENDMDL
