MODEL 1
REMARK minimizedAffinity 3.18480062
REMARK minimizedRMSD -1
REMARK  0 active torsions:
REMARK  status: ('A' for Active; 'I' for Inactive)
ROOT
ATOM      1  C1  BNZ d   1       1.582   5.999   5.165  0.00  0.00     0.000 A 
ATOM      2  C2  BNZ d   1       2.868   6.000   5.635  0.00  0.00     0.000 A 
ATOM      3  C3  BNZ d   1       3.844   5.277   5.006  0.00  0.00     0.000 A 
ATOM      4  C4  BNZ d   1       3.524   4.524   3.934  0.00  0.00     0.000 A 
ATOM      5  C5  BNZ d   1       2.230   4.506   3.453  0.00  0.00     0.000 A 
ATOM      6  C6  BNZ d   1       1.259   5.265   4.065  0.00  0.00     0.000 A 
ENDROOT
TORSDOF 0
ENDMDL
