MODEL 1
REMARK minimizedAffinity -0.935041845
REMARK minimizedRMSD -1
REMARK  0 active torsions:
REMARK  status: ('A' for Active; 'I' for Inactive)
ROOT
ATOM      1  C1  BNZ d   1       2.348   6.000   5.394  0.00  0.00     0.000 A 
ATOM      2  C2  BNZ d   1       1.057   5.990   4.937  0.00  0.00     0.000 A 
ATOM      3  C3  BNZ d   1       0.632   5.031   4.060  0.00  0.00     0.000 A 
ATOM      4  C4  BNZ d   1       1.507   4.109   3.611  0.00  0.00     0.000 A 
ATOM      5  C5  BNZ d   1       2.814   4.111   4.056  0.00  0.00     0.000 A 
ATOM      6  C6  BNZ d   1       3.228   5.054   4.968  0.00  0.00     0.000 A 
ENDROOT
TORSDOF 0
ENDMDL
