MODEL 1
REMARK minimizedAffinity 3.65817451
REMARK minimizedRMSD -1
REMARK  2 active torsions:
REMARK  status: ('A' for Active; 'I' for Inactive)
REMARK    1  A    between atoms: C2'_3  and  C1'_4 
REMARK    2  A    between atoms: C1'_4  and  C1_5 
ROOT
ATOM      1  C1  I4B d   1      -0.430  -1.693  -3.077  0.00  0.00    -0.075 A 
ATOM      2  C2  I4B d   1      -0.232  -2.484  -4.182  0.00  0.00     0.003 A 
ATOM      3  C3  I4B d   1      -0.327  -1.930  -5.481  0.00  0.00     0.002 A 
ATOM      4  C4  I4B d   1      -0.671  -0.602  -5.631  0.00  0.00    -0.004 A 
ATOM      5  C5  I4B d   1      -0.849   0.203  -4.509  0.00  0.00     0.002 A 
ATOM      6  C6  I4B d   1      -0.716  -0.342  -3.224  0.00  0.00     0.003 A 
ENDROOT
BRANCH   1   7
ATOM      7  C1' I4B d   1      -0.354  -2.318  -1.720  0.00  0.00     0.060 C 
BRANCH   7   8
ATOM      8  C2' I4B d   1      -1.434  -1.697  -0.859  0.00  0.00    -0.013 C 
ATOM      9  C4' I4B d   1      -2.358  -2.747  -0.301  0.00  0.00     0.013 C 
ATOM     10  C3' I4B d   1      -0.765  -0.926   0.239  0.00  0.00     0.013 C 
ENDBRANCH   7   8
ENDBRANCH   1   7
TORSDOF 2
ENDMDL
