MODEL 1
REMARK minimizedAffinity 6.01370525
REMARK minimizedRMSD -1
REMARK  2 active torsions:
REMARK  status: ('A' for Active; 'I' for Inactive)
REMARK    1  A    between atoms: C2'_3  and  C1'_4 
REMARK    2  A    between atoms: C1'_4  and  C1_5 
ROOT
ATOM      1  C1  I4B d   1      -0.350  -1.490  -3.833  0.00  0.00    -0.075 A 
ATOM      2  C2  I4B d   1      -1.126  -0.742  -2.983  0.00  0.00     0.003 A 
ATOM      3  C3  I4B d   1      -1.269  -1.123  -1.627  0.00  0.00     0.002 A 
ATOM      4  C4  I4B d   1      -0.664  -2.280  -1.178  0.00  0.00    -0.004 A 
ATOM      5  C5  I4B d   1       0.140  -3.024  -2.036  0.00  0.00     0.002 A 
ATOM      6  C6  I4B d   1       0.309  -2.621  -3.368  0.00  0.00     0.003 A 
ENDROOT
BRANCH   1   7
ATOM      7  C1' I4B d   1      -0.247  -1.076  -5.267  0.00  0.00     0.060 C 
BRANCH   7   8
ATOM      8  C2' I4B d   1       0.113   0.395  -5.303  0.00  0.00    -0.013 C 
ATOM      9  C4' I4B d   1       1.430   0.617  -5.999  0.00  0.00     0.013 C 
ATOM     10  C3' I4B d   1      -0.997   1.125  -5.999  0.00  0.00     0.013 C 
ENDBRANCH   7   8
ENDBRANCH   1   7
TORSDOF 2
ENDMDL
