MODEL 1
REMARK minimizedAffinity 7.94647074
REMARK minimizedRMSD -1
REMARK  2 active torsions:
REMARK  status: ('A' for Active; 'I' for Inactive)
REMARK    1  A    between atoms: C2'_3  and  C1'_4 
REMARK    2  A    between atoms: C1'_4  and  C1_5 
ROOT
ATOM      1  C1  I4B d   1      -3.684  -0.413  -5.057  0.00  0.00    -0.075 A 
ATOM      2  C2  I4B d   1      -3.715  -1.371  -4.074  0.00  0.00     0.003 A 
ATOM      3  C3  I4B d   1      -4.872  -1.535  -3.275  0.00  0.00     0.002 A 
ATOM      4  C4  I4B d   1      -5.950  -0.693  -3.458  0.00  0.00    -0.004 A 
ATOM      5  C5  I4B d   1      -5.926   0.262  -4.471  0.00  0.00     0.002 A 
ATOM      6  C6  I4B d   1      -4.791   0.395  -5.284  0.00  0.00     0.003 A 
ENDROOT
BRANCH   1   7
ATOM      7  C1' I4B d   1      -2.434  -0.245  -5.861  0.00  0.00     0.060 C 
BRANCH   7   8
ATOM      8  C2' I4B d   1      -1.519   0.699  -5.108  0.00  0.00    -0.013 C 
ATOM      9  C4' I4B d   1      -1.054   0.090  -3.812  0.00  0.00     0.013 C 
ATOM     10  C3' I4B d   1      -0.358   1.027  -5.999  0.00  0.00     0.013 C 
ENDBRANCH   7   8
ENDBRANCH   1   7
TORSDOF 2
ENDMDL
