MODEL 1
REMARK minimizedAffinity 2.45439315
REMARK minimizedRMSD -1
REMARK  2 active torsions:
REMARK  status: ('A' for Active; 'I' for Inactive)
REMARK    1  A    between atoms: C2'_3  and  C1'_4 
REMARK    2  A    between atoms: C1'_4  and  C1_5 
ROOT
ATOM      1  C1  I4B d   1      -2.405  -0.682  -5.332  0.00  0.00    -0.075 A 
ATOM      2  C2  I4B d   1      -1.653  -0.129  -4.326  0.00  0.00     0.003 A 
ATOM      3  C3  I4B d   1      -0.420  -0.718  -3.952  0.00  0.00     0.002 A 
ATOM      4  C4  I4B d   1      -0.006  -1.879  -4.572  0.00  0.00    -0.004 A 
ATOM      5  C5  I4B d   1      -0.759  -2.425  -5.607  0.00  0.00     0.002 A 
ATOM      6  C6  I4B d   1      -1.960  -1.816  -5.999  0.00  0.00     0.003 A 
ENDROOT
BRANCH   1   7
ATOM      7  C1' I4B d   1      -3.717  -0.053  -5.679  0.00  0.00     0.060 C 
BRANCH   7   8
ATOM      8  C2' I4B d   1      -4.573  -0.038  -4.429  0.00  0.00    -0.013 C 
ATOM      9  C4' I4B d   1      -5.994   0.345  -4.746  0.00  0.00     0.013 C 
ATOM     10  C3' I4B d   1      -4.506  -1.400  -3.805  0.00  0.00     0.013 C 
ENDBRANCH   7   8
ENDBRANCH   1   7
TORSDOF 2
ENDMDL
