MODEL 1
REMARK minimizedAffinity 6.50676632
REMARK minimizedRMSD -1
REMARK  2 active torsions:
REMARK  status: ('A' for Active; 'I' for Inactive)
REMARK    1  A    between atoms: C2'_3  and  C1'_4 
REMARK    2  A    between atoms: C1'_4  and  C1_5 
ROOT
ATOM      1  C1  I4B d   1      -2.217  -1.743   0.336  0.00  0.00    -0.075 A 
ATOM      2  C2  I4B d   1      -1.824  -3.040   0.554  0.00  0.00     0.003 A 
ATOM      3  C3  I4B d   1      -2.671  -4.113   0.185  0.00  0.00     0.002 A 
ATOM      4  C4  I4B d   1      -3.915  -3.844  -0.350  0.00  0.00    -0.004 A 
ATOM      5  C5  I4B d   1      -4.301  -2.528  -0.592  0.00  0.00     0.002 A 
ATOM      6  C6  I4B d   1      -3.442  -1.471  -0.258  0.00  0.00     0.003 A 
ENDROOT
BRANCH   1   7
ATOM      7  C1' I4B d   1      -1.311  -0.633   0.769  0.00  0.00     0.060 C 
BRANCH   7   8
ATOM      8  C2' I4B d   1      -1.603  -0.335   2.226  0.00  0.00    -0.013 C 
ATOM      9  C4' I4B d   1      -0.372   0.161   2.937  0.00  0.00     0.013 C 
ATOM     10  C3' I4B d   1      -2.704   0.681   2.278  0.00  0.00     0.013 C 
ENDBRANCH   7   8
ENDBRANCH   1   7
TORSDOF 2
ENDMDL
