MODEL 1
REMARK minimizedAffinity 3.35338998
REMARK minimizedRMSD -1
REMARK  2 active torsions:
REMARK  status: ('A' for Active; 'I' for Inactive)
REMARK    1  A    between atoms: C2'_3  and  C1'_4 
REMARK    2  A    between atoms: C1'_4  and  C1_5 
ROOT
ATOM      1  C1  I4B d   1       4.532   3.106   4.047  0.00  0.00    -0.075 A 
ATOM      2  C2  I4B d   1       4.493   1.781   3.692  0.00  0.00     0.003 A 
ATOM      3  C3  I4B d   1       5.206   0.819   4.448  0.00  0.00     0.002 A 
ATOM      4  C4  I4B d   1       5.980   1.231   5.514  0.00  0.00    -0.004 A 
ATOM      5  C5  I4B d   1       5.999   2.572   5.887  0.00  0.00     0.002 A 
ATOM      6  C6  I4B d   1       5.261   3.514   5.156  0.00  0.00     0.003 A 
ENDROOT
BRANCH   1   7
ATOM      7  C1' I4B d   1       3.794   4.099   3.206  0.00  0.00     0.060 C 
BRANCH   7   8
ATOM      8  C2' I4B d   1       4.540   4.248   1.896  0.00  0.00    -0.013 C 
ATOM      9  C4' I4B d   1       5.854   4.957   2.095  0.00  0.00     0.013 C 
ATOM     10  C3' I4B d   1       4.746   2.878   1.322  0.00  0.00     0.013 C 
ENDBRANCH   7   8
ENDBRANCH   1   7
TORSDOF 2
ENDMDL
