MODEL 1
REMARK minimizedAffinity 10.408
REMARK minimizedRMSD -1
REMARK  2 active torsions:
REMARK  status: ('A' for Active; 'I' for Inactive)
REMARK    1  A    between atoms: C2'_3  and  C1'_4 
REMARK    2  A    between atoms: C1'_4  and  C1_5 
ROOT
ATOM      1  C1  I4B d   1       4.880   1.817   3.502  0.00  0.00    -0.075 A 
ATOM      2  C2  I4B d   1       5.463   0.590   3.697  0.00  0.00     0.003 A 
ATOM      3  C3  I4B d   1       5.972   0.237   4.970  0.00  0.00     0.002 A 
ATOM      4  C4  I4B d   1       5.923   1.154   6.000  0.00  0.00    -0.004 A 
ATOM      5  C5  I4B d   1       5.311   2.389   5.807  0.00  0.00     0.002 A 
ATOM      6  C6  I4B d   1       4.775   2.719   4.554  0.00  0.00     0.003 A 
ENDROOT
BRANCH   1   7
ATOM      7  C1' I4B d   1       4.382   2.170   2.136  0.00  0.00     0.060 C 
BRANCH   7   8
ATOM      8  C2' I4B d   1       4.476   3.674   1.979  0.00  0.00    -0.013 C 
ATOM      9  C4' I4B d   1       5.635   4.058   1.096  0.00  0.00     0.013 C 
ATOM     10  C3' I4B d   1       3.177   4.163   1.411  0.00  0.00     0.013 C 
ENDBRANCH   7   8
ENDBRANCH   1   7
TORSDOF 2
ENDMDL
