MODEL 1
REMARK minimizedAffinity -0.459937483
REMARK minimizedRMSD -1
REMARK  0 active torsions:
REMARK  status: ('A' for Active; 'I' for Inactive)
ROOT
ATOM      1  C2' OXE d   1       3.197   6.000  -5.423  0.00  0.00     0.078 C 
ATOM      2  C1' OXE d   1       6.000   5.855  -5.455  0.00  0.00     0.078 C 
ATOM      3  C1  OXE d   1       5.291   5.488  -4.175  0.00  0.00    -0.078 A 
ATOM      4  C2  OXE d   1       3.922   5.606  -4.155  0.00  0.00    -0.078 A 
ATOM      5  C3  OXE d   1       3.215   5.228  -3.017  0.00  0.00     0.003 A 
ATOM      6  C4  OXE d   1       3.894   4.875  -1.845  0.00  0.00    -0.002 A 
ATOM      7  C5  OXE d   1       5.290   4.786  -1.832  0.00  0.00    -0.002 A 
ATOM      8  C6  OXE d   1       6.000   5.047  -2.999  0.00  0.00     0.003 A 
ENDROOT
TORSDOF 0
ENDMDL
