MODEL 1
REMARK minimizedAffinity -4.9923234
REMARK minimizedRMSD -1
REMARK  0 active torsions:
REMARK  status: ('A' for Active; 'I' for Inactive)
ROOT
ATOM      1  C2' OXE d   1       2.994   5.723  -2.627  0.00  0.00     0.078 C 
ATOM      2  C1' OXE d   1       5.646   5.235  -1.847  0.00  0.00     0.078 C 
ATOM      3  C1  OXE d   1       5.150   4.572  -3.108  0.00  0.00    -0.078 A 
ATOM      4  C2  OXE d   1       3.837   4.779  -3.457  0.00  0.00    -0.078 A 
ATOM      5  C3  OXE d   1       3.344   4.235  -4.639  0.00  0.00     0.003 A 
ATOM      6  C4  OXE d   1       4.127   3.355  -5.396  0.00  0.00    -0.002 A 
ATOM      7  C5  OXE d   1       5.455   3.099  -5.037  0.00  0.00    -0.002 A 
ATOM      8  C6  OXE d   1       5.993   3.732  -3.922  0.00  0.00     0.003 A 
ENDROOT
TORSDOF 0
ENDMDL
