MODEL 1
REMARK minimizedAffinity 0.468047321
REMARK minimizedRMSD -1
REMARK  0 active torsions:
REMARK  status: ('A' for Active; 'I' for Inactive)
ROOT
ATOM      1  C2' OXE d   1       5.992   5.253  -0.989  0.00  0.00     0.078 C 
ATOM      2  C1' OXE d   1       3.412   4.153  -1.096  0.00  0.00     0.078 C 
ATOM      3  C1  OXE d   1       4.076   4.517  -2.400  0.00  0.00    -0.078 A 
ATOM      4  C2  OXE d   1       5.319   5.098  -2.336  0.00  0.00    -0.078 A 
ATOM      5  C3  OXE d   1       5.999   5.403  -3.512  0.00  0.00     0.003 A 
ATOM      6  C4  OXE d   1       5.366   5.266  -4.753  0.00  0.00    -0.002 A 
ATOM      7  C5  OXE d   1       4.084   4.713  -4.838  0.00  0.00    -0.002 A 
ATOM      8  C6  OXE d   1       3.443   4.295  -3.677  0.00  0.00     0.003 A 
ENDROOT
TORSDOF 0
ENDMDL
