MODEL 1
REMARK minimizedAffinity 0.565324903
REMARK minimizedRMSD -1
REMARK  0 active torsions:
REMARK  status: ('A' for Active; 'I' for Inactive)
ROOT
ATOM      1  C2' OXE d   1       5.977   2.561  -4.533  0.00  0.00     0.078 C 
ATOM      2  C1' OXE d   1       5.860   4.477  -2.484  0.00  0.00     0.078 C 
ATOM      3  C1  OXE d   1       4.990   4.691  -3.698  0.00  0.00    -0.078 A 
ATOM      4  C2  OXE d   1       5.088   3.773  -4.716  0.00  0.00    -0.078 A 
ATOM      5  C3  OXE d   1       4.268   3.894  -5.834  0.00  0.00     0.003 A 
ATOM      6  C4  OXE d   1       3.457   5.022  -6.000  0.00  0.00    -0.002 A 
ATOM      7  C5  OXE d   1       3.372   5.990  -4.992  0.00  0.00    -0.002 A 
ATOM      8  C6  OXE d   1       4.098   5.817  -3.819  0.00  0.00     0.003 A 
ENDROOT
TORSDOF 0
ENDMDL
