MODEL 1
REMARK minimizedAffinity -2.99510312
REMARK minimizedRMSD -1
REMARK  0 active torsions:
REMARK  status: ('A' for Active; 'I' for Inactive)
ROOT
ATOM      1  C2' OXE d   1       3.081   5.977  -4.199  0.00  0.00     0.078 C 
ATOM      2  C1' OXE d   1       4.803   5.155  -2.139  0.00  0.00     0.078 C 
ATOM      3  C1  OXE d   1       4.954   4.496  -3.487  0.00  0.00    -0.078 A 
ATOM      4  C2  OXE d   1       4.076   4.871  -4.476  0.00  0.00    -0.078 A 
ATOM      5  C3  OXE d   1       4.207   4.334  -5.754  0.00  0.00     0.003 A 
ATOM      6  C4  OXE d   1       5.123   3.304  -5.999  0.00  0.00    -0.002 A 
ATOM      7  C5  OXE d   1       6.000   2.879  -4.995  0.00  0.00    -0.002 A 
ATOM      8  C6  OXE d   1       5.957   3.493  -3.748  0.00  0.00     0.003 A 
ENDROOT
TORSDOF 0
ENDMDL
