MODEL 1
REMARK minimizedAffinity 3.1394341
REMARK minimizedRMSD -1
REMARK  0 active torsions:
REMARK  status: ('A' for Active; 'I' for Inactive)
ROOT
ATOM      1  C2' OXE d   1       3.368   4.859  -1.858  0.00  0.00     0.078 C 
ATOM      2  C1' OXE d   1       6.000   5.835  -1.810  0.00  0.00     0.078 C 
ATOM      3  C1  OXE d   1       5.338   5.660  -3.155  0.00  0.00    -0.078 A 
ATOM      4  C2  OXE d   1       4.067   5.138  -3.171  0.00  0.00    -0.078 A 
ATOM      5  C3  OXE d   1       3.391   5.007  -4.380  0.00  0.00     0.003 A 
ATOM      6  C4  OXE d   1       4.048   5.258  -5.591  0.00  0.00    -0.002 A 
ATOM      7  C5  OXE d   1       5.357   5.753  -5.599  0.00  0.00    -0.002 A 
ATOM      8  C6  OXE d   1       5.999   5.999  -4.390  0.00  0.00     0.003 A 
ENDROOT
TORSDOF 0
ENDMDL
