MODEL 1
REMARK minimizedAffinity -3.33473134
REMARK minimizedRMSD -1
REMARK  0 active torsions:
REMARK  status: ('A' for Active; 'I' for Inactive)
ROOT
ATOM      1  C2' OXE d   1       2.523   5.643  -3.677  0.00  0.00     0.078 C 
ATOM      2  C1' OXE d   1       4.722   5.252  -1.977  0.00  0.00     0.078 C 
ATOM      3  C1  OXE d   1       4.820   4.723  -3.386  0.00  0.00    -0.078 A 
ATOM      4  C2  OXE d   1       3.721   4.877  -4.197  0.00  0.00    -0.078 A 
ATOM      5  C3  OXE d   1       3.778   4.457  -5.522  0.00  0.00     0.003 A 
ATOM      6  C4  OXE d   1       4.886   3.741  -5.992  0.00  0.00    -0.002 A 
ATOM      7  C5  OXE d   1       6.000   3.538  -5.171  0.00  0.00    -0.002 A 
ATOM      8  C6  OXE d   1       6.000   4.058  -3.882  0.00  0.00     0.003 A 
ENDROOT
TORSDOF 0
ENDMDL
