MODEL 1
REMARK minimizedAffinity -2.08368182
REMARK minimizedRMSD -1
REMARK  0 active torsions:
REMARK  status: ('A' for Active; 'I' for Inactive)
ROOT
ATOM      1  C2' OXE d   1       3.197   6.000  -4.401  0.00  0.00     0.078 C 
ATOM      2  C1' OXE d   1       4.854   5.242  -2.266  0.00  0.00     0.078 C 
ATOM      3  C1  OXE d   1       4.998   4.494  -3.567  0.00  0.00    -0.078 A 
ATOM      4  C2  OXE d   1       4.151   4.840  -4.592  0.00  0.00    -0.078 A 
ATOM      5  C3  OXE d   1       4.278   4.219  -5.832  0.00  0.00     0.003 A 
ATOM      6  C4  OXE d   1       5.156   3.141  -5.997  0.00  0.00    -0.002 A 
ATOM      7  C5  OXE d   1       6.000   2.746  -4.954  0.00  0.00    -0.002 A 
ATOM      8  C6  OXE d   1       5.964   3.439  -3.749  0.00  0.00     0.003 A 
ENDROOT
TORSDOF 0
ENDMDL
