MODEL 1
REMARK minimizedAffinity -1.11151934
REMARK minimizedRMSD -1
REMARK  0 active torsions:
REMARK  status: ('A' for Active; 'I' for Inactive)
ROOT
ATOM      1  C2' OXE d   1       3.502   5.969  -5.906  0.00  0.00     0.078 C 
ATOM      2  C1' OXE d   1       5.862   4.452  -5.998  0.00  0.00     0.078 C 
ATOM      3  C1  OXE d   1       5.340   4.860  -4.643  0.00  0.00    -0.078 A 
ATOM      4  C2  OXE d   1       4.210   5.642  -4.610  0.00  0.00    -0.078 A 
ATOM      5  C3  OXE d   1       3.656   6.000  -3.384  0.00  0.00     0.003 A 
ATOM      6  C4  OXE d   1       4.322   5.701  -2.190  0.00  0.00    -0.002 A 
ATOM      7  C5  OXE d   1       5.496   4.939  -2.203  0.00  0.00    -0.002 A 
ATOM      8  C6  OXE d   1       5.993   4.476  -3.416  0.00  0.00     0.003 A 
ENDROOT
TORSDOF 0
ENDMDL
