MODEL 1
REMARK minimizedAffinity -2.70444131
REMARK minimizedRMSD -1
REMARK  0 active torsions:
REMARK  status: ('A' for Active; 'I' for Inactive)
ROOT
ATOM      1  C2' OXE d   1       5.395   6.000  -1.951  0.00  0.00     0.078 C 
ATOM      2  C1' OXE d   1       3.359   4.124  -2.417  0.00  0.00     0.078 C 
ATOM      3  C1  OXE d   1       4.197   4.559  -3.593  0.00  0.00    -0.078 A 
ATOM      4  C2  OXE d   1       5.161   5.512  -3.364  0.00  0.00    -0.078 A 
ATOM      5  C3  OXE d   1       5.998   5.908  -4.403  0.00  0.00     0.003 A 
ATOM      6  C4  OXE d   1       5.769   5.459  -5.709  0.00  0.00    -0.002 A 
ATOM      7  C5  OXE d   1       4.767   4.519  -5.971  0.00  0.00    -0.002 A 
ATOM      8  C6  OXE d   1       4.002   4.027  -4.919  0.00  0.00     0.003 A 
ENDROOT
TORSDOF 0
ENDMDL
