MODEL 1
REMARK minimizedAffinity 0.626994431
REMARK minimizedRMSD -1
REMARK  0 active torsions:
REMARK  status: ('A' for Active; 'I' for Inactive)
ROOT
ATOM      1  C2' OXE d   1      -1.662  -5.124  -4.763  0.00  0.00     0.078 C 
ATOM      2  C1' OXE d   1       0.292  -5.770  -2.854  0.00  0.00     0.078 C 
ATOM      3  C1  OXE d   1      -0.066  -4.316  -3.030  0.00  0.00    -0.078 A 
ATOM      4  C2  OXE d   1      -0.989  -4.004  -3.999  0.00  0.00    -0.078 A 
ATOM      5  C3  OXE d   1      -1.395  -2.683  -4.166  0.00  0.00     0.003 A 
ATOM      6  C4  OXE d   1      -0.760  -1.653  -3.463  0.00  0.00    -0.002 A 
ATOM      7  C5  OXE d   1       0.212  -1.944  -2.499  0.00  0.00    -0.002 A 
ATOM      8  C6  OXE d   1       0.539  -3.271  -2.241  0.00  0.00     0.003 A 
ENDROOT
TORSDOF 0
ENDMDL
