MODEL 1
REMARK minimizedAffinity -1.64444101
REMARK minimizedRMSD -1
REMARK  0 active torsions:
REMARK  status: ('A' for Active; 'I' for Inactive)
ROOT
ATOM      1  C2' OXE d   1       3.021   4.495  -2.116  0.00  0.00     0.078 C 
ATOM      2  C1' OXE d   1       5.311   5.999  -1.505  0.00  0.00     0.078 C 
ATOM      3  C1  OXE d   1       5.094   5.602  -2.944  0.00  0.00    -0.078 A 
ATOM      4  C2  OXE d   1       3.995   4.826  -3.226  0.00  0.00    -0.078 A 
ATOM      5  C3  OXE d   1       3.718   4.478  -4.545  0.00  0.00     0.003 A 
ATOM      6  C4  OXE d   1       4.629   4.780  -5.564  0.00  0.00    -0.002 A 
ATOM      7  C5  OXE d   1       5.775   5.535  -5.292  0.00  0.00    -0.002 A 
ATOM      8  C6  OXE d   1       6.000   5.989  -3.997  0.00  0.00     0.003 A 
ENDROOT
TORSDOF 0
ENDMDL
