MODEL 1
REMARK minimizedAffinity -0.0713401213
REMARK minimizedRMSD -1
REMARK  0 active torsions:
REMARK  status: ('A' for Active; 'I' for Inactive)
ROOT
ATOM      1  C2' OXE d   1       3.387   5.617  -5.127  0.00  0.00     0.078 C 
ATOM      2  C1' OXE d   1       2.184   3.816  -3.342  0.00  0.00     0.078 C 
ATOM      3  C1  OXE d   1       3.515   4.408  -2.953  0.00  0.00    -0.078 A 
ATOM      4  C2  OXE d   1       4.119   5.252  -3.854  0.00  0.00    -0.078 A 
ATOM      5  C3  OXE d   1       5.322   5.868  -3.521  0.00  0.00     0.003 A 
ATOM      6  C4  OXE d   1       5.997   5.517  -2.346  0.00  0.00    -0.002 A 
ATOM      7  C5  OXE d   1       5.419   4.629  -1.433  0.00  0.00    -0.002 A 
ATOM      8  C6  OXE d   1       4.161   4.099  -1.701  0.00  0.00     0.003 A 
ENDROOT
TORSDOF 0
ENDMDL
