MODEL 1
REMARK minimizedAffinity 0.106861226
REMARK minimizedRMSD -1
REMARK  0 active torsions:
REMARK  status: ('A' for Active; 'I' for Inactive)
ROOT
ATOM      1  C2' OXE d   1       4.869   5.721  -1.873  0.00  0.00     0.078 C 
ATOM      2  C1' OXE d   1       2.509   5.973  -3.372  0.00  0.00     0.078 C 
ATOM      3  C1  OXE d   1       3.711   5.364  -4.050  0.00  0.00    -0.078 A 
ATOM      4  C2  OXE d   1       4.875   5.288  -3.324  0.00  0.00    -0.078 A 
ATOM      5  C3  OXE d   1       5.998   4.685  -3.883  0.00  0.00     0.003 A 
ATOM      6  C4  OXE d   1       5.998   4.296  -5.228  0.00  0.00    -0.002 A 
ATOM      7  C5  OXE d   1       4.834   4.402  -5.998  0.00  0.00    -0.002 A 
ATOM      8  C6  OXE d   1       3.673   4.894  -5.412  0.00  0.00     0.003 A 
ENDROOT
TORSDOF 0
ENDMDL
