MODEL 1
REMARK minimizedAffinity 2.03682423
REMARK minimizedRMSD -1
REMARK  0 active torsions:
REMARK  status: ('A' for Active; 'I' for Inactive)
ROOT
ATOM      1  C2' OXE d   1       3.043  -3.455  -4.349  0.00  0.00     0.078 C 
ATOM      2  C1' OXE d   1       4.506  -1.171  -3.626  0.00  0.00     0.078 C 
ATOM      3  C1  OXE d   1       4.804  -2.457  -2.897  0.00  0.00    -0.078 A 
ATOM      4  C2  OXE d   1       4.051  -3.559  -3.225  0.00  0.00    -0.078 A 
ATOM      5  C3  OXE d   1       4.322  -4.783  -2.621  0.00  0.00     0.003 A 
ATOM      6  C4  OXE d   1       5.249  -4.868  -1.575  0.00  0.00    -0.002 A 
ATOM      7  C5  OXE d   1       5.999  -3.749  -1.198  0.00  0.00    -0.002 A 
ATOM      8  C6  OXE d   1       5.819  -2.548  -1.877  0.00  0.00     0.003 A 
ENDROOT
TORSDOF 0
ENDMDL
