MODEL 1
REMARK minimizedAffinity 2.41165662
REMARK minimizedRMSD -1
REMARK  0 active torsions:
REMARK  status: ('A' for Active; 'I' for Inactive)
ROOT
ATOM      1  C2' OXE d   1       3.299   4.121  -1.799  0.00  0.00     0.078 C 
ATOM      2  C1' OXE d   1       5.998   4.884  -1.682  0.00  0.00     0.078 C 
ATOM      3  C1  OXE d   1       5.319   4.903  -3.029  0.00  0.00    -0.078 A 
ATOM      4  C2  OXE d   1       4.012   4.483  -3.084  0.00  0.00    -0.078 A 
ATOM      5  C3  OXE d   1       3.322   4.533  -4.292  0.00  0.00     0.003 A 
ATOM      6  C4  OXE d   1       3.992   4.859  -5.478  0.00  0.00    -0.002 A 
ATOM      7  C5  OXE d   1       5.335   5.251  -5.450  0.00  0.00    -0.002 A 
ATOM      8  C6  OXE d   1       5.999   5.319  -4.230  0.00  0.00     0.003 A 
ENDROOT
TORSDOF 0
ENDMDL
