MODEL 1
REMARK minimizedAffinity 2.04476738
REMARK minimizedRMSD -1
REMARK  0 active torsions:
REMARK  status: ('A' for Active; 'I' for Inactive)
ROOT
ATOM      1  C2' OXE d   1       4.850   3.151  -4.949  0.00  0.00     0.078 C 
ATOM      2  C1' OXE d   1       3.203   5.412  -4.707  0.00  0.00     0.078 C 
ATOM      3  C1  OXE d   1       4.186   5.136  -3.597  0.00  0.00    -0.078 A 
ATOM      4  C2  OXE d   1       4.955   4.002  -3.701  0.00  0.00    -0.078 A 
ATOM      5  C3  OXE d   1       5.916   3.729  -2.731  0.00  0.00     0.003 A 
ATOM      6  C4  OXE d   1       5.999   4.515  -1.576  0.00  0.00    -0.002 A 
ATOM      7  C5  OXE d   1       5.198   5.652  -1.431  0.00  0.00    -0.002 A 
ATOM      8  C6  OXE d   1       4.318   6.000  -2.450  0.00  0.00     0.003 A 
ENDROOT
TORSDOF 0
ENDMDL
