MODEL 1
REMARK minimizedAffinity 14.8948984
REMARK minimizedRMSD -1
REMARK  0 active torsions:
REMARK  status: ('A' for Active; 'I' for Inactive)
ROOT
ATOM      1  C   UNL d   1       6.000  -0.096   2.166  0.00  0.00     0.020 A 
ATOM      2  C1  UNL d   1       5.495  -0.853   3.222  0.00  0.00     0.020 A 
ATOM      3  C2  UNL d   1       4.145  -0.757   3.568  0.00  0.00     0.034 A 
ATOM      4  C3  UNL d   1       3.296   0.099   2.856  0.00  0.00     0.017 A 
ATOM      5  C4  UNL d   1       3.804   0.858   1.796  0.00  0.00     0.017 A 
ATOM      6  C5  UNL d   1       5.156   0.758   1.454  0.00  0.00     0.034 A 
ATOM      7 Cl   UNL d   1       2.818   1.936   0.872  0.00  0.00    -0.070 Cl
ATOM      8 Cl1  UNL d   1       1.638   0.168   3.338  0.00  0.00    -0.070 Cl
ENDROOT
TORSDOF 0
ENDMDL
