MODEL 1
REMARK minimizedAffinity 3.70417976
REMARK minimizedRMSD -1
REMARK  0 active torsions:
REMARK  status: ('A' for Active; 'I' for Inactive)
ROOT
ATOM      1  C   UNL d   1      -1.881  -2.546  -5.614  0.00  0.00     0.020 A 
ATOM      2  C1  UNL d   1      -1.429  -3.837  -5.886  0.00  0.00     0.020 A 
ATOM      3  C2  UNL d   1      -2.342  -4.887  -6.000  0.00  0.00     0.034 A 
ATOM      4  C3  UNL d   1      -3.712  -4.650  -5.841  0.00  0.00     0.017 A 
ATOM      5  C4  UNL d   1      -4.165  -3.354  -5.567  0.00  0.00     0.017 A 
ATOM      6  C5  UNL d   1      -3.247  -2.306  -5.455  0.00  0.00     0.034 A 
ATOM      7 Cl   UNL d   1      -5.840  -2.983  -5.358  0.00  0.00    -0.070 Cl
ATOM      8 Cl1  UNL d   1      -4.784  -5.996  -5.994  0.00  0.00    -0.070 Cl
ENDROOT
TORSDOF 0
ENDMDL
