MODEL 1
REMARK minimizedAffinity 4.19293499
REMARK minimizedRMSD -1
REMARK  0 active torsions:
REMARK  status: ('A' for Active; 'I' for Inactive)
ROOT
ATOM      1  C   UNL d   1       5.448  -0.893   4.067  0.00  0.00     0.020 A 
ATOM      2  C1  UNL d   1       5.996  -1.187   5.315  0.00  0.00     0.020 A 
ATOM      3  C2  UNL d   1       5.997  -2.502   5.785  0.00  0.00     0.034 A 
ATOM      4  C3  UNL d   1       5.448  -3.528   5.006  0.00  0.00     0.017 A 
ATOM      5  C4  UNL d   1       4.899  -3.232   3.754  0.00  0.00     0.017 A 
ATOM      6  C5  UNL d   1       4.901  -1.913   3.288  0.00  0.00     0.034 A 
ATOM      7 Cl   UNL d   1       4.204  -4.444   2.736  0.00  0.00    -0.070 Cl
ATOM      8 Cl1  UNL d   1       5.483  -5.131   5.650  0.00  0.00    -0.070 Cl
ENDROOT
TORSDOF 0
ENDMDL
