MODEL 1
REMARK minimizedAffinity -1.70994437
REMARK minimizedRMSD -1
REMARK  0 active torsions:
REMARK  status: ('A' for Active; 'I' for Inactive)
ROOT
ATOM      1  C   UNL d   1       0.164  -0.166   3.000  0.00  0.00     0.020 A 
ATOM      2  C1  UNL d   1       1.149  -1.028   3.480  0.00  0.00     0.020 A 
ATOM      3  C2  UNL d   1       2.487  -0.820   3.137  0.00  0.00     0.034 A 
ATOM      4  C3  UNL d   1       2.843   0.253   2.313  0.00  0.00     0.017 A 
ATOM      5  C4  UNL d   1       1.853   1.119   1.832  0.00  0.00     0.017 A 
ATOM      6  C5  UNL d   1       0.516   0.905   2.178  0.00  0.00     0.034 A 
ATOM      7 Cl   UNL d   1       2.216   2.464   0.810  0.00  0.00    -0.070 Cl
ATOM      8 Cl1  UNL d   1       4.516   0.451   1.930  0.00  0.00    -0.070 Cl
ENDROOT
TORSDOF 0
ENDMDL
