MODEL 1
REMARK minimizedAffinity 2.73831344
REMARK minimizedRMSD -1
REMARK  0 active torsions:
REMARK  status: ('A' for Active; 'I' for Inactive)
ROOT
ATOM      1  C   UNL d   1       1.433   4.119  -5.442  0.00  0.00     0.020 A 
ATOM      2  C1  UNL d   1       2.070   5.193  -4.821  0.00  0.00     0.020 A 
ATOM      3  C2  UNL d   1       3.439   5.133  -4.552  0.00  0.00     0.034 A 
ATOM      4  C3  UNL d   1       4.176   3.997  -4.904  0.00  0.00     0.017 A 
ATOM      5  C4  UNL d   1       3.536   2.919  -5.527  0.00  0.00     0.017 A 
ATOM      6  C5  UNL d   1       2.165   2.985  -5.794  0.00  0.00     0.034 A 
ATOM      7 Cl   UNL d   1       4.379   1.483  -5.991  0.00  0.00    -0.070 Cl
ATOM      8 Cl1  UNL d   1       5.865   3.991  -4.542  0.00  0.00    -0.070 Cl
ENDROOT
TORSDOF 0
ENDMDL
