MODEL 1
REMARK minimizedAffinity 13.4302359
REMARK minimizedRMSD -1
REMARK  0 active torsions:
REMARK  status: ('A' for Active; 'I' for Inactive)
ROOT
ATOM      1  C   UNL d   1      -5.929  -4.519  -3.354  0.00  0.00     0.020 A 
ATOM      2  C1  UNL d   1      -5.972  -4.835  -1.996  0.00  0.00     0.020 A 
ATOM      3  C2  UNL d   1      -5.991  -3.814  -1.043  0.00  0.00     0.034 A 
ATOM      4  C3  UNL d   1      -5.965  -2.474  -1.445  0.00  0.00     0.017 A 
ATOM      5  C4  UNL d   1      -5.922  -2.159  -2.808  0.00  0.00     0.017 A 
ATOM      6  C5  UNL d   1      -5.904  -3.184  -3.759  0.00  0.00     0.034 A 
ATOM      7 Cl   UNL d   1      -5.889  -0.529  -3.382  0.00  0.00    -0.070 Cl
ATOM      8 Cl1  UNL d   1      -5.991  -1.264  -0.212  0.00  0.00    -0.070 Cl
ENDROOT
TORSDOF 0
ENDMDL
