MODEL 1
REMARK minimizedAffinity 14.3226776
REMARK minimizedRMSD -1
REMARK  0 active torsions:
REMARK  status: ('A' for Active; 'I' for Inactive)
ROOT
ATOM      1  C   UNL d   1       1.855  -0.478  -3.550  0.00  0.00     0.020 A 
ATOM      2  C1  UNL d   1       0.849  -1.274  -3.006  0.00  0.00     0.020 A 
ATOM      3  C2  UNL d   1       0.139  -0.835  -1.886  0.00  0.00     0.034 A 
ATOM      4  C3  UNL d   1       0.435   0.405  -1.308  0.00  0.00     0.017 A 
ATOM      5  C4  UNL d   1       1.445   1.204  -1.855  0.00  0.00     0.017 A 
ATOM      6  C5  UNL d   1       2.152   0.759  -2.976  0.00  0.00     0.034 A 
ATOM      7 Cl   UNL d   1       1.867   2.745  -1.196  0.00  0.00    -0.070 Cl
ATOM      8 Cl1  UNL d   1      -0.483   0.885   0.075  0.00  0.00    -0.070 Cl
ENDROOT
TORSDOF 0
ENDMDL
