MODEL 1
REMARK minimizedAffinity 10.388896
REMARK minimizedRMSD -1
REMARK  0 active torsions:
REMARK  status: ('A' for Active; 'I' for Inactive)
ROOT
ATOM      1  C   UNL d   1      -3.701  -5.415   1.636  0.00  0.00     0.020 A 
ATOM      2  C1  UNL d   1      -3.836  -6.000   0.377  0.00  0.00     0.020 A 
ATOM      3  C2  UNL d   1      -4.351  -5.255  -0.686  0.00  0.00     0.034 A 
ATOM      4  C3  UNL d   1      -4.733  -3.923  -0.494  0.00  0.00     0.017 A 
ATOM      5  C4  UNL d   1      -4.596  -3.337   0.770  0.00  0.00     0.017 A 
ATOM      6  C5  UNL d   1      -4.080  -4.086   1.832  0.00  0.00     0.034 A 
ATOM      7 Cl   UNL d   1      -5.045  -1.698   1.085  0.00  0.00    -0.070 Cl
ATOM      8 Cl1  UNL d   1      -5.361  -3.062  -1.854  0.00  0.00    -0.070 Cl
ENDROOT
TORSDOF 0
ENDMDL
