MODEL 1
REMARK minimizedAffinity 8.04845333
REMARK minimizedRMSD -1
REMARK  0 active torsions:
REMARK  status: ('A' for Active; 'I' for Inactive)
ROOT
ATOM      1  C   UNL d   1      -5.998  -4.313  -2.273  0.00  0.00     0.020 A 
ATOM      2  C1  UNL d   1      -5.999  -3.961  -3.622  0.00  0.00     0.020 A 
ATOM      3  C2  UNL d   1      -6.000  -2.615  -3.992  0.00  0.00     0.034 A 
ATOM      4  C3  UNL d   1      -5.999  -1.615  -3.013  0.00  0.00     0.017 A 
ATOM      5  C4  UNL d   1      -5.998  -1.969  -1.659  0.00  0.00     0.017 A 
ATOM      6  C5  UNL d   1      -5.998  -3.319  -1.293  0.00  0.00     0.034 A 
ATOM      7 Cl   UNL d   1      -5.997  -0.792  -0.393  0.00  0.00    -0.070 Cl
ATOM      8 Cl1  UNL d   1      -6.000   0.030  -3.543  0.00  0.00    -0.070 Cl
ENDROOT
TORSDOF 0
ENDMDL
