MODEL 1
REMARK minimizedAffinity 10.1103477
REMARK minimizedRMSD -1
REMARK  0 active torsions:
REMARK  status: ('A' for Active; 'I' for Inactive)
ROOT
ATOM      1  C   UNL d   1       1.873  -0.130  -2.641  0.00  0.00     0.020 A 
ATOM      2  C1  UNL d   1       3.011   0.669  -2.741  0.00  0.00     0.020 A 
ATOM      3  C2  UNL d   1       3.257   1.656  -1.784  0.00  0.00     0.034 A 
ATOM      4  C3  UNL d   1       2.364   1.846  -0.723  0.00  0.00     0.017 A 
ATOM      5  C4  UNL d   1       1.222   1.043  -0.624  0.00  0.00     0.017 A 
ATOM      6  C5  UNL d   1       0.981   0.056  -1.585  0.00  0.00     0.034 A 
ATOM      7 Cl   UNL d   1       0.074   1.218   0.657  0.00  0.00    -0.070 Cl
ATOM      8 Cl1  UNL d   1       2.731   3.084   0.424  0.00  0.00    -0.070 Cl
ENDROOT
TORSDOF 0
ENDMDL
