MODEL 1
REMARK minimizedAffinity 18.5540562
REMARK minimizedRMSD -1
REMARK  0 active torsions:
REMARK  status: ('A' for Active; 'I' for Inactive)
ROOT
ATOM      1  C   UNL d   1       1.165   0.216  -4.210  0.00  0.00     0.020 A 
ATOM      2  C1  UNL d   1       1.543  -1.125  -4.160  0.00  0.00     0.020 A 
ATOM      3  C2  UNL d   1       0.699  -2.108  -4.683  0.00  0.00     0.034 A 
ATOM      4  C3  UNL d   1      -0.526  -1.751  -5.257  0.00  0.00     0.017 A 
ATOM      5  C4  UNL d   1      -0.904  -0.404  -5.307  0.00  0.00     0.017 A 
ATOM      6  C5  UNL d   1      -0.056   0.576  -4.782  0.00  0.00     0.034 A 
ATOM      7 Cl   UNL d   1      -2.401   0.113  -6.000  0.00  0.00    -0.070 Cl
ATOM      8 Cl1  UNL d   1      -1.519  -3.018  -5.884  0.00  0.00    -0.070 Cl
ENDROOT
TORSDOF 0
ENDMDL
