MODEL 1
REMARK minimizedAffinity 7.21060753
REMARK minimizedRMSD -1
REMARK  0 active torsions:
REMARK  status: ('A' for Active; 'I' for Inactive)
ROOT
ATOM      1  C   UNL d   1       1.515   0.026  -3.780  0.00  0.00     0.020 A 
ATOM      2  C1  UNL d   1       0.904  -0.856  -2.889  0.00  0.00     0.020 A 
ATOM      3  C2  UNL d   1       0.629  -0.448  -1.582  0.00  0.00     0.034 A 
ATOM      4  C3  UNL d   1       0.964   0.844  -1.162  0.00  0.00     0.017 A 
ATOM      5  C4  UNL d   1       1.577   1.728  -2.057  0.00  0.00     0.017 A 
ATOM      6  C5  UNL d   1       1.850   1.316  -3.364  0.00  0.00     0.034 A 
ATOM      7 Cl   UNL d   1       2.019   3.339  -1.611  0.00  0.00    -0.070 Cl
ATOM      8 Cl1  UNL d   1       0.593   1.280   0.469  0.00  0.00    -0.070 Cl
ENDROOT
TORSDOF 0
ENDMDL
