MODEL 1
REMARK minimizedAffinity 11.7525167
REMARK minimizedRMSD -1
REMARK  0 active torsions:
REMARK  status: ('A' for Active; 'I' for Inactive)
ROOT
ATOM      1  C   UNL d   1       1.033   0.500  -2.708  0.00  0.00     0.020 A 
ATOM      2  C1  UNL d   1       1.103  -0.872  -2.951  0.00  0.00     0.020 A 
ATOM      3  C2  UNL d   1       0.585  -1.773  -2.019  0.00  0.00     0.034 A 
ATOM      4  C3  UNL d   1      -0.005  -1.304  -0.839  0.00  0.00     0.017 A 
ATOM      5  C4  UNL d   1      -0.074   0.072  -0.596  0.00  0.00     0.017 A 
ATOM      6  C5  UNL d   1       0.446   0.970  -1.533  0.00  0.00     0.034 A 
ATOM      7 Cl   UNL d   1      -0.786   0.726   0.836  0.00  0.00    -0.070 Cl
ATOM      8 Cl1  UNL d   1      -0.625  -2.475   0.270  0.00  0.00    -0.070 Cl
ENDROOT
TORSDOF 0
ENDMDL
