MODEL 1
REMARK minimizedAffinity 7.9584341
REMARK minimizedRMSD -1
REMARK  0 active torsions:
REMARK  status: ('A' for Active; 'I' for Inactive)
ROOT
ATOM      1  C   UNL d   1      -0.757  -1.232   4.338  0.00  0.00     0.020 A 
ATOM      2  C1  UNL d   1      -1.536  -0.169   3.883  0.00  0.00     0.020 A 
ATOM      3  C2  UNL d   1      -0.929   0.934   3.279  0.00  0.00     0.034 A 
ATOM      4  C3  UNL d   1       0.461   0.977   3.128  0.00  0.00     0.017 A 
ATOM      5  C4  UNL d   1       1.243  -0.090   3.585  0.00  0.00     0.017 A 
ATOM      6  C5  UNL d   1       0.630  -1.192   4.189  0.00  0.00     0.034 A 
ATOM      7 Cl   UNL d   1       2.965  -0.109   3.434  0.00  0.00    -0.070 Cl
ATOM      8 Cl1  UNL d   1       1.145   2.372   2.371  0.00  0.00    -0.070 Cl
ENDROOT
TORSDOF 0
ENDMDL
