MODEL 1
REMARK minimizedAffinity 9.62263489
REMARK minimizedRMSD -1
REMARK  0 active torsions:
REMARK  status: ('A' for Active; 'I' for Inactive)
ROOT
ATOM      1  C   UNL d   1       2.408  -0.255  -3.451  0.00  0.00     0.020 A 
ATOM      2  C1  UNL d   1       1.470  -1.136  -2.914  0.00  0.00     0.020 A 
ATOM      3  C2  UNL d   1       0.704  -0.753  -1.811  0.00  0.00     0.034 A 
ATOM      4  C3  UNL d   1       0.874   0.513  -1.241  0.00  0.00     0.017 A 
ATOM      5  C4  UNL d   1       1.816   1.397  -1.780  0.00  0.00     0.017 A 
ATOM      6  C5  UNL d   1       2.581   1.009  -2.885  0.00  0.00     0.034 A 
ATOM      7 Cl   UNL d   1       2.083   2.976  -1.131  0.00  0.00    -0.070 Cl
ATOM      8 Cl1  UNL d   1      -0.107   0.920   0.122  0.00  0.00    -0.070 Cl
ENDROOT
TORSDOF 0
ENDMDL
