MODEL 1
REMARK minimizedAffinity 11.812582
REMARK minimizedRMSD -1
REMARK  0 active torsions:
REMARK  status: ('A' for Active; 'I' for Inactive)
ROOT
ATOM      1  C   UNL d   1       2.167   4.659  -5.526  0.00  0.00     0.020 A 
ATOM      2  C1  UNL d   1       2.636   5.379  -4.428  0.00  0.00     0.020 A 
ATOM      3  C2  UNL d   1       3.822   4.995  -3.797  0.00  0.00     0.034 A 
ATOM      4  C3  UNL d   1       4.542   3.890  -4.264  0.00  0.00     0.017 A 
ATOM      5  C4  UNL d   1       4.070   3.168  -5.366  0.00  0.00     0.017 A 
ATOM      6  C5  UNL d   1       2.883   3.556  -5.994  0.00  0.00     0.034 A 
ATOM      7 Cl   UNL d   1       4.904   1.793  -6.000  0.00  0.00    -0.070 Cl
ATOM      8 Cl1  UNL d   1       6.000   3.473  -3.436  0.00  0.00    -0.070 Cl
ENDROOT
TORSDOF 0
ENDMDL
