MODEL 1
REMARK minimizedAffinity 9.44423103
REMARK minimizedRMSD -1
REMARK  0 active torsions:
REMARK  status: ('A' for Active; 'I' for Inactive)
ROOT
ATOM      1  C   UNL d   1       1.296  -1.262  -3.513  0.00  0.00     0.020 A 
ATOM      2  C1  UNL d   1       2.420  -0.549  -3.928  0.00  0.00     0.020 A 
ATOM      3  C2  UNL d   1       2.769   0.640  -3.284  0.00  0.00     0.034 A 
ATOM      4  C3  UNL d   1       1.993   1.121  -2.224  0.00  0.00     0.017 A 
ATOM      5  C4  UNL d   1       0.864   0.405  -1.809  0.00  0.00     0.017 A 
ATOM      6  C5  UNL d   1       0.519  -0.786  -2.456  0.00  0.00     0.034 A 
ATOM      7 Cl   UNL d   1      -0.143   0.935  -0.507  0.00  0.00    -0.070 Cl
ATOM      8 Cl1  UNL d   1       2.483   2.599  -1.474  0.00  0.00    -0.070 Cl
ENDROOT
TORSDOF 0
ENDMDL
