MODEL 1
REMARK minimizedAffinity 16.1881371
REMARK minimizedRMSD -1
REMARK  0 active torsions:
REMARK  status: ('A' for Active; 'I' for Inactive)
ROOT
ATOM      1  C   UNL d   1       0.687  -0.325  -4.304  0.00  0.00     0.020 A 
ATOM      2  C1  UNL d   1       1.891  -1.022  -4.222  0.00  0.00     0.020 A 
ATOM      3  C2  UNL d   1       2.872  -0.616  -3.314  0.00  0.00     0.034 A 
ATOM      4  C3  UNL d   1       2.649   0.489  -2.485  0.00  0.00     0.017 A 
ATOM      5  C4  UNL d   1       1.440   1.188  -2.568  0.00  0.00     0.017 A 
ATOM      6  C5  UNL d   1       0.462   0.778  -3.479  0.00  0.00     0.034 A 
ATOM      7 Cl   UNL d   1       1.093   2.562  -1.578  0.00  0.00    -0.070 Cl
ATOM      8 Cl1  UNL d   1       3.906   0.934  -1.385  0.00  0.00    -0.070 Cl
ENDROOT
TORSDOF 0
ENDMDL
