MODEL 1
REMARK minimizedAffinity 2.49641061
REMARK minimizedRMSD -1
REMARK  2 active torsions:
REMARK  status: ('A' for Active; 'I' for Inactive)
REMARK    1  A    between atoms: C2'_3  and  C1'_4 
REMARK    2  A    between atoms: C1'_4  and  C1_5 
ROOT
ATOM      1  C1  I4B d   1       1.381  -3.235   2.050  0.00  0.00    -0.075 A 
ATOM      2  C2  I4B d   1       2.407  -2.735   1.288  0.00  0.00     0.003 A 
ATOM      3  C3  I4B d   1       3.198  -3.606   0.500  0.00  0.00     0.002 A 
ATOM      4  C4  I4B d   1       2.962  -4.965   0.542  0.00  0.00    -0.004 A 
ATOM      5  C5  I4B d   1       1.906  -5.467   1.298  0.00  0.00     0.002 A 
ATOM      6  C6  I4B d   1       1.102  -4.595   2.047  0.00  0.00     0.003 A 
ENDROOT
BRANCH   1   7
ATOM      7  C1' I4B d   1       0.586  -2.291   2.896  0.00  0.00     0.060 C 
BRANCH   7   8
ATOM      8  C2' I4B d   1      -0.881  -2.510   2.589  0.00  0.00    -0.013 C 
ATOM      9  C4' I4B d   1      -1.438  -3.663   3.382  0.00  0.00     0.013 C 
ATOM     10  C3' I4B d   1      -1.614  -1.238   2.895  0.00  0.00     0.013 C 
ENDBRANCH   7   8
ENDBRANCH   1   7
TORSDOF 2
ENDMDL
