MODEL 1
REMARK minimizedAffinity 8.93301105
REMARK minimizedRMSD -1
REMARK  2 active torsions:
REMARK  status: ('A' for Active; 'I' for Inactive)
REMARK    1  A    between atoms: C2'_3  and  C1'_4 
REMARK    2  A    between atoms: C1'_4  and  C1_5 
ROOT
ATOM      1  C1  I4B d   1       1.934  -0.555   0.185  0.00  0.00    -0.075 A 
ATOM      2  C2  I4B d   1       2.516   0.686   0.113  0.00  0.00     0.003 A 
ATOM      3  C3  I4B d   1       2.103   1.611  -0.876  0.00  0.00     0.002 A 
ATOM      4  C4  I4B d   1       1.147   1.238  -1.798  0.00  0.00    -0.004 A 
ATOM      5  C5  I4B d   1       0.541  -0.013  -1.710  0.00  0.00     0.002 A 
ATOM      6  C6  I4B d   1       0.928  -0.911  -0.704  0.00  0.00     0.003 A 
ENDROOT
BRANCH   1   7
ATOM      7  C1' I4B d   1       2.418  -1.519   1.221  0.00  0.00     0.060 C 
BRANCH   7   8
ATOM      8  C2' I4B d   1       1.424  -2.661   1.297  0.00  0.00    -0.013 C 
ATOM      9  C4' I4B d   1       2.125  -3.994   1.305  0.00  0.00     0.013 C 
ATOM     10  C3' I4B d   1       0.599  -2.476   2.535  0.00  0.00     0.013 C 
ENDBRANCH   7   8
ENDBRANCH   1   7
TORSDOF 2
ENDMDL
