MODEL 1
REMARK minimizedAffinity 12.5086069
REMARK minimizedRMSD -1
REMARK  2 active torsions:
REMARK  status: ('A' for Active; 'I' for Inactive)
REMARK    1  A    between atoms: C2'_3  and  C1'_4 
REMARK    2  A    between atoms: C1'_4  and  C1_5 
ROOT
ATOM      1  C1  I4B d   1       0.727  -2.438   2.044  0.00  0.00    -0.075 A 
ATOM      2  C2  I4B d   1       1.430  -1.574   2.845  0.00  0.00     0.003 A 
ATOM      3  C3  I4B d   1       0.754  -0.776   3.800  0.00  0.00     0.002 A 
ATOM      4  C4  I4B d   1      -0.622  -0.837   3.884  0.00  0.00    -0.004 A 
ATOM      5  C5  I4B d   1      -1.331  -1.730   3.087  0.00  0.00     0.002 A 
ATOM      6  C6  I4B d   1      -0.652  -2.545   2.170  0.00  0.00     0.003 A 
ENDROOT
BRANCH   1   7
ATOM      7  C1' I4B d   1       1.469  -3.242   1.024  0.00  0.00     0.060 C 
BRANCH   7   8
ATOM      8  C2' I4B d   1       2.058  -2.281   0.011  0.00  0.00    -0.013 C 
ATOM      9  C4' I4B d   1       0.978  -1.507  -0.698  0.00  0.00     0.013 C 
ATOM     10  C3' I4B d   1       2.996  -1.362   0.736  0.00  0.00     0.013 C 
ENDBRANCH   7   8
ENDBRANCH   1   7
TORSDOF 2
ENDMDL
