MODEL 1
REMARK minimizedAffinity 8.34270477
REMARK minimizedRMSD -1
REMARK  2 active torsions:
REMARK  status: ('A' for Active; 'I' for Inactive)
REMARK    1  A    between atoms: C2'_3  and  C1'_4 
REMARK    2  A    between atoms: C1'_4  and  C1_5 
ROOT
ATOM      1  C1  I4B d   1       5.948   0.752  -4.961  0.00  0.00    -0.075 A 
ATOM      2  C2  I4B d   1       5.992  -0.156  -5.991  0.00  0.00     0.003 A 
ATOM      3  C3  I4B d   1       5.992  -1.545  -5.716  0.00  0.00     0.002 A 
ATOM      4  C4  I4B d   1       6.000  -1.979  -4.407  0.00  0.00    -0.004 A 
ATOM      5  C5  I4B d   1       5.932  -1.058  -3.365  0.00  0.00     0.002 A 
ATOM      6  C6  I4B d   1       5.894   0.316  -3.644  0.00  0.00     0.003 A 
ENDROOT
BRANCH   1   7
ATOM      7  C1' I4B d   1       5.982   2.212  -5.286  0.00  0.00     0.060 C 
BRANCH   7   8
ATOM      8  C2' I4B d   1       5.214   2.947  -4.207  0.00  0.00    -0.013 C 
ATOM      9  C4' I4B d   1       6.000   4.119  -3.681  0.00  0.00     0.013 C 
ATOM     10  C3' I4B d   1       3.906   3.391  -4.791  0.00  0.00     0.013 C 
ENDBRANCH   7   8
ENDBRANCH   1   7
TORSDOF 2
ENDMDL
