MODEL 1
REMARK minimizedAffinity 4.45998526
REMARK minimizedRMSD -1
REMARK  2 active torsions:
REMARK  status: ('A' for Active; 'I' for Inactive)
REMARK    1  A    between atoms: C2'_3  and  C1'_4 
REMARK    2  A    between atoms: C1'_4  and  C1_5 
ROOT
ATOM      1  C1  I4B d   1      -0.196  -1.644   2.023  0.00  0.00    -0.075 A 
ATOM      2  C2  I4B d   1      -0.088  -1.226   3.326  0.00  0.00     0.003 A 
ATOM      3  C3  I4B d   1      -1.119  -0.455   3.916  0.00  0.00     0.002 A 
ATOM      4  C4  I4B d   1      -2.210  -0.085   3.156  0.00  0.00    -0.004 A 
ATOM      5  C5  I4B d   1      -2.328  -0.528   1.842  0.00  0.00     0.002 A 
ATOM      6  C6  I4B d   1      -1.321  -1.323   1.275  0.00  0.00     0.003 A 
ENDROOT
BRANCH   1   7
ATOM      7  C1' I4B d   1       0.927  -2.428   1.423  0.00  0.00     0.060 C 
BRANCH   7   8
ATOM      8  C2' I4B d   1       1.673  -1.519   0.468  0.00  0.00    -0.013 C 
ATOM      9  C4' I4B d   1       3.138  -1.866   0.417  0.00  0.00     0.013 C 
ATOM     10  C3' I4B d   1       1.039  -1.647  -0.885  0.00  0.00     0.013 C 
ENDBRANCH   7   8
ENDBRANCH   1   7
TORSDOF 2
ENDMDL
