MODEL 1
REMARK minimizedAffinity 7.94120121
REMARK minimizedRMSD -1
REMARK  2 active torsions:
REMARK  status: ('A' for Active; 'I' for Inactive)
REMARK    1  A    between atoms: C2'_3  and  C1'_4 
REMARK    2  A    between atoms: C1'_4  and  C1_5 
ROOT
ATOM      1  C1  I4B d   1       3.211   0.009  -2.603  0.00  0.00    -0.075 A 
ATOM      2  C2  I4B d   1       3.935  -0.229  -1.461  0.00  0.00     0.003 A 
ATOM      3  C3  I4B d   1       5.319  -0.517  -1.541  0.00  0.00     0.002 A 
ATOM      4  C4  I4B d   1       5.924  -0.607  -2.778  0.00  0.00    -0.004 A 
ATOM      5  C5  I4B d   1       5.193  -0.343  -3.933  0.00  0.00     0.002 A 
ATOM      6  C6  I4B d   1       3.831  -0.021  -3.845  0.00  0.00     0.003 A 
ENDROOT
BRANCH   1   7
ATOM      7  C1' I4B d   1       1.744   0.277  -2.484  0.00  0.00     0.060 C 
BRANCH   7   8
ATOM      8  C2' I4B d   1       1.556   1.770  -2.307  0.00  0.00    -0.013 C 
ATOM      9  C4' I4B d   1       0.154   2.189  -2.663  0.00  0.00     0.013 C 
ATOM     10  C3' I4B d   1       1.878   2.112  -0.883  0.00  0.00     0.013 C 
ENDBRANCH   7   8
ENDBRANCH   1   7
TORSDOF 2
ENDMDL
