MODEL 1
REMARK minimizedAffinity 6.81223154
REMARK minimizedRMSD -1
REMARK  2 active torsions:
REMARK  status: ('A' for Active; 'I' for Inactive)
REMARK    1  A    between atoms: C2'_3  and  C1'_4 
REMARK    2  A    between atoms: C1'_4  and  C1_5 
ROOT
ATOM      1  C1  I4B d   1      -4.404   0.671  -3.576  0.00  0.00    -0.075 A 
ATOM      2  C2  I4B d   1      -5.129  -0.458  -3.868  0.00  0.00     0.003 A 
ATOM      3  C3  I4B d   1      -5.027  -1.604  -3.044  0.00  0.00     0.002 A 
ATOM      4  C4  I4B d   1      -4.156  -1.597  -1.974  0.00  0.00    -0.004 A 
ATOM      5  C5  I4B d   1      -3.439  -0.444  -1.665  0.00  0.00     0.002 A 
ATOM      6  C6  I4B d   1      -3.573   0.701  -2.464  0.00  0.00     0.003 A 
ENDROOT
BRANCH   1   7
ATOM      7  C1' I4B d   1      -4.511   1.852  -4.487  0.00  0.00     0.060 C 
BRANCH   7   8
ATOM      8  C2' I4B d   1      -3.997   3.066  -3.739  0.00  0.00    -0.013 C 
ATOM      9  C4' I4B d   1      -2.654   3.501  -4.264  0.00  0.00     0.013 C 
ATOM     10  C3' I4B d   1      -5.013   4.160  -3.878  0.00  0.00     0.013 C 
ENDBRANCH   7   8
ENDBRANCH   1   7
TORSDOF 2
ENDMDL
