MODEL 1
REMARK minimizedAffinity 5.23324776
REMARK minimizedRMSD -1
REMARK  0 active torsions:
REMARK  status: ('A' for Active; 'I' for Inactive)
ROOT
ATOM      1  C   UNL d   1       0.902  -0.746  -1.919  0.00  0.00    -0.002 A 
ATOM      2  C1  UNL d   1       0.044   0.323  -2.132  0.00  0.00     0.010 A 
ATOM      3  C2  UNL d   1      -0.465   1.051  -1.055  0.00  0.00     0.041 A 
ATOM      4  C3  UNL d   1      -0.092   0.684   0.253  0.00  0.00    -0.075 A 
ATOM      5  S   UNL d   1      -0.590   1.431   1.725  0.00  0.00     0.015 SA
ATOM      6  C4  UNL d   1       0.326   0.349   2.671  0.00  0.00     0.022 A 
ATOM      7  C5  UNL d   1       1.001  -0.567   1.899  0.00  0.00     0.026 A 
ATOM      8  C6  UNL d   1       0.772  -0.389   0.493  0.00  0.00    -0.082 A 
ATOM      9  C7  UNL d   1       1.270  -1.108  -0.620  0.00  0.00     0.045 A 
ENDROOT
TORSDOF 0
ENDMDL
