MODEL 1
REMARK minimizedAffinity 1.19114542
REMARK minimizedRMSD -1
REMARK  0 active torsions:
REMARK  status: ('A' for Active; 'I' for Inactive)
ROOT
ATOM      1  C   UNL d   1       5.552  -5.246  -0.858  0.00  0.00    -0.002 A 
ATOM      2  C1  UNL d   1       5.748  -3.900  -0.585  0.00  0.00     0.010 A 
ATOM      3  C2  UNL d   1       5.113  -2.920  -1.351  0.00  0.00     0.041 A 
ATOM      4  C3  UNL d   1       4.269  -3.320  -2.405  0.00  0.00    -0.075 A 
ATOM      5  S   UNL d   1       3.387  -2.296  -3.475  0.00  0.00     0.015 SA
ATOM      6  C4  UNL d   1       2.728  -3.622  -4.320  0.00  0.00     0.022 A 
ATOM      7  C5  UNL d   1       3.160  -4.824  -3.811  0.00  0.00     0.026 A 
ATOM      8  C6  UNL d   1       4.055  -4.670  -2.699  0.00  0.00    -0.082 A 
ATOM      9  C7  UNL d   1       4.713  -5.639  -1.905  0.00  0.00     0.045 A 
ENDROOT
TORSDOF 0
ENDMDL
