MODEL 1
REMARK minimizedAffinity 1.92137969
REMARK minimizedRMSD -1
REMARK  0 active torsions:
REMARK  status: ('A' for Active; 'I' for Inactive)
ROOT
ATOM      1  C   UNL d   1       4.907  -2.794  -0.430  0.00  0.00    -0.002 A 
ATOM      2  C1  UNL d   1       3.950  -2.047  -1.103  0.00  0.00     0.010 A 
ATOM      3  C2  UNL d   1       3.447  -2.479  -2.331  0.00  0.00     0.041 A 
ATOM      4  C3  UNL d   1       3.925  -3.686  -2.877  0.00  0.00    -0.075 A 
ATOM      5  S   UNL d   1       3.452  -4.412  -4.368  0.00  0.00     0.015 SA
ATOM      6  C4  UNL d   1       4.509  -5.731  -4.146  0.00  0.00     0.022 A 
ATOM      7  C5  UNL d   1       5.213  -5.636  -2.969  0.00  0.00     0.026 A 
ATOM      8  C6  UNL d   1       4.887  -4.456  -2.218  0.00  0.00    -0.082 A 
ATOM      9  C7  UNL d   1       5.378  -3.991  -0.974  0.00  0.00     0.045 A 
ENDROOT
TORSDOF 0
ENDMDL
