MODEL 1
REMARK minimizedAffinity 2.72434473
REMARK minimizedRMSD -1
REMARK  0 active torsions:
REMARK  status: ('A' for Active; 'I' for Inactive)
ROOT
ATOM      1  C   UNL d   1       0.124   3.992  -0.750  0.00  0.00    -0.002 A 
ATOM      2  C1  UNL d   1      -0.740   4.942  -1.275  0.00  0.00     0.010 A 
ATOM      3  C2  UNL d   1      -1.983   4.565  -1.788  0.00  0.00     0.041 A 
ATOM      4  C3  UNL d   1      -2.347   3.204  -1.762  0.00  0.00    -0.075 A 
ATOM      5  S   UNL d   1      -3.818   2.510  -2.333  0.00  0.00     0.015 SA
ATOM      6  C4  UNL d   1      -3.334   0.937  -1.893  0.00  0.00     0.022 A 
ATOM      7  C5  UNL d   1      -2.083   0.922  -1.324  0.00  0.00     0.026 A 
ATOM      8  C6  UNL d   1      -1.493   2.229  -1.238  0.00  0.00    -0.082 A 
ATOM      9  C7  UNL d   1      -0.240   2.643  -0.727  0.00  0.00     0.045 A 
ENDROOT
TORSDOF 0
ENDMDL
