MODEL 1
REMARK minimizedAffinity 6.74086761
REMARK minimizedRMSD -1
REMARK  0 active torsions:
REMARK  status: ('A' for Active; 'I' for Inactive)
ROOT
ATOM      1  C   UNL d   1       2.156  -5.303   0.214  0.00  0.00    -0.002 A 
ATOM      2  C1  UNL d   1       1.733  -5.407  -1.104  0.00  0.00     0.010 A 
ATOM      3  C2  UNL d   1       2.301  -4.606  -2.097  0.00  0.00     0.041 A 
ATOM      4  C3  UNL d   1       3.310  -3.691  -1.740  0.00  0.00    -0.075 A 
ATOM      5  S   UNL d   1       4.150  -2.609  -2.787  0.00  0.00     0.015 SA
ATOM      6  C4  UNL d   1       5.089  -1.983  -1.510  0.00  0.00     0.022 A 
ATOM      7  C5  UNL d   1       4.783  -2.574  -0.307  0.00  0.00     0.026 A 
ATOM      8  C6  UNL d   1       3.753  -3.569  -0.420  0.00  0.00    -0.082 A 
ATOM      9  C7  UNL d   1       3.158  -4.394   0.564  0.00  0.00     0.045 A 
ENDROOT
TORSDOF 0
ENDMDL
