MODEL 1
REMARK minimizedAffinity 6.22484541
REMARK minimizedRMSD -1
REMARK  0 active torsions:
REMARK  status: ('A' for Active; 'I' for Inactive)
ROOT
ATOM      1  C   UNL d   1      -1.504   1.724  -1.853  0.00  0.00    -0.002 A 
ATOM      2  C1  UNL d   1      -2.090   0.517  -1.498  0.00  0.00     0.010 A 
ATOM      3  C2  UNL d   1      -3.479   0.379  -1.482  0.00  0.00     0.041 A 
ATOM      4  C3  UNL d   1      -4.278   1.484  -1.835  0.00  0.00    -0.075 A 
ATOM      5  S   UNL d   1      -6.000   1.547  -1.888  0.00  0.00     0.015 SA
ATOM      6  C4  UNL d   1      -5.999   3.178  -2.384  0.00  0.00     0.022 A 
ATOM      7  C5  UNL d   1      -4.725   3.678  -2.511  0.00  0.00     0.026 A 
ATOM      8  C6  UNL d   1      -3.712   2.710  -2.197  0.00  0.00    -0.082 A 
ATOM      9  C7  UNL d   1      -2.300   2.819  -2.202  0.00  0.00     0.045 A 
ENDROOT
TORSDOF 0
ENDMDL
