MODEL 1
REMARK minimizedAffinity 10.5389977
REMARK minimizedRMSD -1
REMARK  0 active torsions:
REMARK  status: ('A' for Active; 'I' for Inactive)
ROOT
ATOM      1  C   UNL d   1       3.725  -5.230  -1.143  0.00  0.00    -0.002 A 
ATOM      2  C1  UNL d   1       4.134  -5.772  -2.353  0.00  0.00     0.010 A 
ATOM      3  C2  UNL d   1       4.333  -4.953  -3.466  0.00  0.00     0.041 A 
ATOM      4  C3  UNL d   1       4.114  -3.567  -3.341  0.00  0.00    -0.075 A 
ATOM      5  S   UNL d   1       4.295  -2.371  -4.570  0.00  0.00     0.015 SA
ATOM      6  C4  UNL d   1       3.835  -1.113  -3.517  0.00  0.00     0.022 A 
ATOM      7  C5  UNL d   1       3.546  -1.576  -2.255  0.00  0.00     0.026 A 
ATOM      8  C6  UNL d   1       3.703  -2.998  -2.133  0.00  0.00    -0.082 A 
ATOM      9  C7  UNL d   1       3.509  -3.855  -1.022  0.00  0.00     0.045 A 
ENDROOT
TORSDOF 0
ENDMDL
