MODEL 1
REMARK minimizedAffinity 12.6366529
REMARK minimizedRMSD -1
REMARK  0 active torsions:
REMARK  status: ('A' for Active; 'I' for Inactive)
ROOT
ATOM      1  C   UNL d   1      -0.406   1.353  -0.031  0.00  0.00    -0.002 A 
ATOM      2  C1  UNL d   1      -0.396   1.927   1.233  0.00  0.00     0.010 A 
ATOM      3  C2  UNL d   1      -0.133   3.289   1.392  0.00  0.00     0.041 A 
ATOM      4  C3  UNL d   1       0.120   4.073   0.249  0.00  0.00    -0.075 A 
ATOM      5  S   UNL d   1       0.465   5.761   0.202  0.00  0.00     0.015 SA
ATOM      6  C4  UNL d   1       0.607   5.761  -1.496  0.00  0.00     0.022 A 
ATOM      7  C5  UNL d   1       0.399   4.512  -2.031  0.00  0.00     0.026 A 
ATOM      8  C6  UNL d   1       0.115   3.518  -1.034  0.00  0.00    -0.082 A 
ATOM      9  C7  UNL d   1      -0.154   2.134  -1.162  0.00  0.00     0.045 A 
ENDROOT
TORSDOF 0
ENDMDL
