MODEL 1
REMARK minimizedAffinity 3.26976585
REMARK minimizedRMSD -1
REMARK  0 active torsions:
REMARK  status: ('A' for Active; 'I' for Inactive)
ROOT
ATOM      1  C   UNL d   1       2.505  -5.658  -1.828  0.00  0.00    -0.002 A 
ATOM      2  C1  UNL d   1       3.792  -6.000  -2.221  0.00  0.00     0.010 A 
ATOM      3  C2  UNL d   1       4.875  -5.182  -1.894  0.00  0.00     0.041 A 
ATOM      4  C3  UNL d   1       4.642  -4.004  -1.158  0.00  0.00    -0.075 A 
ATOM      5  S   UNL d   1       5.816  -2.851  -0.644  0.00  0.00     0.015 SA
ATOM      6  C4  UNL d   1       4.638  -1.877   0.110  0.00  0.00     0.022 A 
ATOM      7  C5  UNL d   1       3.375  -2.404  -0.018  0.00  0.00     0.026 A 
ATOM      8  C6  UNL d   1       3.356  -3.639  -0.750  0.00  0.00    -0.082 A 
ATOM      9  C7  UNL d   1       2.278  -4.488  -1.097  0.00  0.00     0.045 A 
ENDROOT
TORSDOF 0
ENDMDL
