MODEL 1
REMARK minimizedAffinity 1.86900461
REMARK minimizedRMSD -1
REMARK  0 active torsions:
REMARK  status: ('A' for Active; 'I' for Inactive)
ROOT
ATOM      1  C   UNL d   1      -0.941  -0.456   2.198  0.00  0.00     0.020 A 
ATOM      2  C1  UNL d   1      -0.442  -1.523   2.944  0.00  0.00     0.020 A 
ATOM      3  C2  UNL d   1       0.520  -2.372   2.392  0.00  0.00     0.034 A 
ATOM      4  C3  UNL d   1       0.985  -2.156   1.090  0.00  0.00     0.017 A 
ATOM      5  C4  UNL d   1       0.483  -1.085   0.341  0.00  0.00     0.017 A 
ATOM      6  C5  UNL d   1      -0.479  -0.238   0.899  0.00  0.00     0.034 A 
ATOM      7 Cl   UNL d   1       1.009  -0.755  -1.272  0.00  0.00    -0.070 Cl
ATOM      8 Cl1  UNL d   1       2.175  -3.245   0.471  0.00  0.00    -0.070 Cl
ENDROOT
TORSDOF 0
ENDMDL
