MODEL 1
REMARK minimizedAffinity 5.89819479
REMARK minimizedRMSD -1
REMARK  0 active torsions:
REMARK  status: ('A' for Active; 'I' for Inactive)
ROOT
ATOM      1  C   UNL d   1      -1.389  -2.887   3.764  0.00  0.00     0.020 A 
ATOM      2  C1  UNL d   1      -0.168  -3.296   3.228  0.00  0.00     0.020 A 
ATOM      3  C2  UNL d   1       0.508  -2.474   2.324  0.00  0.00     0.034 A 
ATOM      4  C3  UNL d   1      -0.036  -1.238   1.954  0.00  0.00     0.017 A 
ATOM      5  C4  UNL d   1      -1.261  -0.829   2.493  0.00  0.00     0.017 A 
ATOM      6  C5  UNL d   1      -1.934  -1.656   3.398  0.00  0.00     0.034 A 
ATOM      7 Cl   UNL d   1      -1.995   0.682   2.085  0.00  0.00    -0.070 Cl
ATOM      8 Cl1  UNL d   1       0.854  -0.272   0.832  0.00  0.00    -0.070 Cl
ENDROOT
TORSDOF 0
ENDMDL
