MODEL 1
REMARK minimizedAffinity 1.56750894
REMARK minimizedRMSD -1
REMARK  0 active torsions:
REMARK  status: ('A' for Active; 'I' for Inactive)
ROOT
ATOM      1  C   UNL d   1       1.479  -2.736   2.349  0.00  0.00     0.020 A 
ATOM      2  C1  UNL d   1       0.263  -2.592   3.016  0.00  0.00     0.020 A 
ATOM      3  C2  UNL d   1      -0.627  -1.586   2.634  0.00  0.00     0.034 A 
ATOM      4  C3  UNL d   1      -0.303  -0.720   1.584  0.00  0.00     0.017 A 
ATOM      5  C4  UNL d   1       0.918  -0.865   0.916  0.00  0.00     0.017 A 
ATOM      6  C5  UNL d   1       1.806  -1.874   1.301  0.00  0.00     0.034 A 
ATOM      7 Cl   UNL d   1       1.389   0.165  -0.390  0.00  0.00    -0.070 Cl
ATOM      8 Cl1  UNL d   1      -1.451   0.501   1.166  0.00  0.00    -0.070 Cl
ENDROOT
TORSDOF 0
ENDMDL
