MODEL 1
REMARK minimizedAffinity 3.81982088
REMARK minimizedRMSD -1
REMARK  0 active torsions:
REMARK  status: ('A' for Active; 'I' for Inactive)
ROOT
ATOM      1  C   UNL d   1       0.409  -2.739   2.905  0.00  0.00     0.020 A 
ATOM      2  C1  UNL d   1       1.291  -2.914   1.840  0.00  0.00     0.020 A 
ATOM      3  C2  UNL d   1       1.207  -2.083   0.720  0.00  0.00     0.034 A 
ATOM      4  C3  UNL d   1       0.239  -1.075   0.663  0.00  0.00     0.017 A 
ATOM      5  C4  UNL d   1      -0.647  -0.900   1.733  0.00  0.00     0.017 A 
ATOM      6  C5  UNL d   1      -0.558  -1.734   2.851  0.00  0.00     0.034 A 
ATOM      7 Cl   UNL d   1      -1.868   0.323   1.735  0.00  0.00    -0.070 Cl
ATOM      8 Cl1  UNL d   1       0.193  -0.084  -0.752  0.00  0.00    -0.070 Cl
ENDROOT
TORSDOF 0
ENDMDL
