MODEL 1
REMARK minimizedAffinity 5.40333939
REMARK minimizedRMSD -1
REMARK  0 active torsions:
REMARK  status: ('A' for Active; 'I' for Inactive)
ROOT
ATOM      1  C   UNL d   1       1.145  -1.371   2.341  0.00  0.00     0.020 A 
ATOM      2  C1  UNL d   1       1.197  -0.047   2.774  0.00  0.00     0.020 A 
ATOM      3  C2  UNL d   1       0.017   0.632   3.085  0.00  0.00     0.034 A 
ATOM      4  C3  UNL d   1      -1.220  -0.012   2.962  0.00  0.00     0.017 A 
ATOM      5  C4  UNL d   1      -1.270  -1.342   2.527  0.00  0.00     0.017 A 
ATOM      6  C5  UNL d   1      -0.086  -2.017   2.217  0.00  0.00     0.034 A 
ATOM      7 Cl   UNL d   1      -2.758  -2.203   2.351  0.00  0.00    -0.070 Cl
ATOM      8 Cl1  UNL d   1      -2.639   0.888   3.364  0.00  0.00    -0.070 Cl
ENDROOT
TORSDOF 0
ENDMDL
