MODEL 1
REMARK minimizedAffinity 15.5526371
REMARK minimizedRMSD -1
REMARK  0 active torsions:
REMARK  status: ('A' for Active; 'I' for Inactive)
ROOT
ATOM      1  C   UNL d   1       4.848  -5.326   2.151  0.00  0.00     0.020 A 
ATOM      2  C1  UNL d   1       5.261  -3.995   2.101  0.00  0.00     0.020 A 
ATOM      3  C2  UNL d   1       5.273  -3.224   3.266  0.00  0.00     0.034 A 
ATOM      4  C3  UNL d   1       4.871  -3.783   4.484  0.00  0.00     0.017 A 
ATOM      5  C4  UNL d   1       4.457  -5.119   4.533  0.00  0.00     0.017 A 
ATOM      6  C5  UNL d   1       4.447  -5.887   3.365  0.00  0.00     0.034 A 
ATOM      7 Cl   UNL d   1       3.948  -5.879   6.000  0.00  0.00    -0.070 Cl
ATOM      8 Cl1  UNL d   1       4.912  -2.771   5.884  0.00  0.00    -0.070 Cl
ENDROOT
TORSDOF 0
ENDMDL
