MODEL 1
REMARK minimizedAffinity 5.57718563
REMARK minimizedRMSD -1
REMARK  0 active torsions:
REMARK  status: ('A' for Active; 'I' for Inactive)
ROOT
ATOM      1  C   UNL d   1      -2.033  -0.607   0.630  0.00  0.00     0.020 A 
ATOM      2  C1  UNL d   1      -1.642   0.258   1.651  0.00  0.00     0.020 A 
ATOM      3  C2  UNL d   1      -2.595   0.780   2.527  0.00  0.00     0.034 A 
ATOM      4  C3  UNL d   1      -3.945   0.438   2.384  0.00  0.00     0.017 A 
ATOM      5  C4  UNL d   1      -4.337  -0.431   1.359  0.00  0.00     0.017 A 
ATOM      6  C5  UNL d   1      -3.378  -0.951   0.484  0.00  0.00     0.034 A 
ATOM      7 Cl   UNL d   1      -5.983  -0.899   1.119  0.00  0.00    -0.070 Cl
ATOM      8 Cl1  UNL d   1      -5.070   1.120   3.504  0.00  0.00    -0.070 Cl
ENDROOT
TORSDOF 0
ENDMDL
