MODEL 1
REMARK minimizedAffinity -2.17482996
REMARK minimizedRMSD -1
REMARK  0 active torsions:
REMARK  status: ('A' for Active; 'I' for Inactive)
ROOT
ATOM      1  C1  BNZ d   1       0.543   0.501   1.140  0.00  0.00     0.000 A 
ATOM      2  C2  BNZ d   1       0.514  -0.111  -0.084  0.00  0.00     0.000 A 
ATOM      3  C3  BNZ d   1       0.427   0.625  -1.233  0.00  0.00     0.000 A 
ATOM      4  C4  BNZ d   1       0.327   1.968  -1.154  0.00  0.00     0.000 A 
ATOM      5  C5  BNZ d   1       0.345   2.599   0.074  0.00  0.00     0.000 A 
ATOM      6  C6  BNZ d   1       0.473   1.858   1.226  0.00  0.00     0.000 A 
ENDROOT
TORSDOF 0
ENDMDL
