MODEL 1
REMARK minimizedAffinity -2.01034069
REMARK minimizedRMSD -1
REMARK  0 active torsions:
REMARK  status: ('A' for Active; 'I' for Inactive)
ROOT
ATOM      1  C1  BNZ d   1      -0.334  -2.271  -2.109  0.00  0.00     0.000 A 
ATOM      2  C2  BNZ d   1       0.733  -2.280  -1.252  0.00  0.00     0.000 A 
ATOM      3  C3  BNZ d   1       1.117  -3.432  -0.624  0.00  0.00     0.000 A 
ATOM      4  C4  BNZ d   1       0.410  -4.563  -0.823  0.00  0.00     0.000 A 
ATOM      5  C5  BNZ d   1      -0.675  -4.568  -1.677  0.00  0.00     0.000 A 
ATOM      6  C6  BNZ d   1      -1.035  -3.416  -2.338  0.00  0.00     0.000 A 
ENDROOT
TORSDOF 0
ENDMDL
