MODEL 1
REMARK minimizedAffinity -1.0622133
REMARK minimizedRMSD -1
REMARK  0 active torsions:
REMARK  status: ('A' for Active; 'I' for Inactive)
ROOT
ATOM      1  C1  BNZ d   1       0.076  -0.584  -0.788  0.00  0.00     0.000 A 
ATOM      2  C2  BNZ d   1       0.204  -0.910   0.536  0.00  0.00     0.000 A 
ATOM      3  C3  BNZ d   1       0.164   0.057   1.502  0.00  0.00     0.000 A 
ATOM      4  C4  BNZ d   1       0.036   1.350   1.141  0.00  0.00     0.000 A 
ATOM      5  C5  BNZ d   1      -0.084   1.696  -0.191  0.00  0.00     0.000 A 
ATOM      6  C6  BNZ d   1      -0.082   0.717  -1.158  0.00  0.00     0.000 A 
ENDROOT
TORSDOF 0
ENDMDL
