MODEL 1
REMARK minimizedAffinity -3.8847661
REMARK minimizedRMSD -1
REMARK  0 active torsions:
REMARK  status: ('A' for Active; 'I' for Inactive)
ROOT
ATOM      1  C1  BNZ d   1       1.105  -0.214   0.793  0.00  0.00     0.000 A 
ATOM      2  C2  BNZ d   1       1.096  -0.598  -0.521  0.00  0.00     0.000 A 
ATOM      3  C3  BNZ d   1       0.000  -1.208  -1.064  0.00  0.00     0.000 A 
ATOM      4  C4  BNZ d   1      -1.068  -1.471  -0.284  0.00  0.00     0.000 A 
ATOM      5  C5  BNZ d   1      -1.070  -1.099   1.046  0.00  0.00     0.000 A 
ATOM      6  C6  BNZ d   1       0.020  -0.449   1.579  0.00  0.00     0.000 A 
ENDROOT
TORSDOF 0
ENDMDL
