MODEL 1
REMARK minimizedAffinity -4.48463535
REMARK minimizedRMSD -1
REMARK  0 active torsions:
REMARK  status: ('A' for Active; 'I' for Inactive)
ROOT
ATOM      1  C1  BNZ d   1       0.101   0.322   1.429  0.00  0.00     0.000 A 
ATOM      2  C2  BNZ d   1      -0.436   1.479   1.926  0.00  0.00     0.000 A 
ATOM      3  C3  BNZ d   1      -0.904   2.451   1.086  0.00  0.00     0.000 A 
ATOM      4  C4  BNZ d   1      -0.798   2.282  -0.248  0.00  0.00     0.000 A 
ATOM      5  C5  BNZ d   1      -0.250   1.125  -0.764  0.00  0.00     0.000 A 
ATOM      6  C6  BNZ d   1       0.185   0.132   0.084  0.00  0.00     0.000 A 
ENDROOT
TORSDOF 0
ENDMDL
