MODEL 1
REMARK minimizedAffinity -3.343472
REMARK minimizedRMSD -1
REMARK  0 active torsions:
REMARK  status: ('A' for Active; 'I' for Inactive)
ROOT
ATOM      1  C2' OXE d   1       4.579   0.428  -0.405  0.00  0.00     0.078 C 
ATOM      2  C1' OXE d   1       3.874  -0.790  -2.834  0.00  0.00     0.078 C 
ATOM      3  C1  OXE d   1       2.761  -0.266  -1.961  0.00  0.00    -0.078 A 
ATOM      4  C2  OXE d   1       3.113   0.287  -0.753  0.00  0.00    -0.078 A 
ATOM      5  C3  OXE d   1       2.130   0.835   0.067  0.00  0.00     0.003 A 
ATOM      6  C4  OXE d   1       0.776   0.691  -0.257  0.00  0.00    -0.002 A 
ATOM      7  C5  OXE d   1       0.394   0.096  -1.464  0.00  0.00    -0.002 A 
ATOM      8  C6  OXE d   1       1.374  -0.348  -2.345  0.00  0.00     0.003 A 
ENDROOT
TORSDOF 0
ENDMDL
