MODEL 1
REMARK minimizedAffinity 0.0315934159
REMARK minimizedRMSD -1
REMARK  0 active torsions:
REMARK  status: ('A' for Active; 'I' for Inactive)
ROOT
ATOM      1  C2' OXE d   1       0.135  -0.204  -3.410  0.00  0.00     0.078 C 
ATOM      2  C1' OXE d   1       0.297   1.253  -1.016  0.00  0.00     0.078 C 
ATOM      3  C1  OXE d   1       1.452   0.350  -1.369  0.00  0.00    -0.078 A 
ATOM      4  C2  OXE d   1       1.343  -0.395  -2.519  0.00  0.00    -0.078 A 
ATOM      5  C3  OXE d   1       2.404  -1.202  -2.920  0.00  0.00     0.003 A 
ATOM      6  C4  OXE d   1       3.514  -1.381  -2.085  0.00  0.00    -0.002 A 
ATOM      7  C5  OXE d   1       3.626  -0.662  -0.890  0.00  0.00    -0.002 A 
ATOM      8  C6  OXE d   1       2.626   0.238  -0.539  0.00  0.00     0.003 A 
ENDROOT
TORSDOF 0
ENDMDL
