MODEL 1
REMARK minimizedAffinity -0.0809621289
REMARK minimizedRMSD -1
REMARK  0 active torsions:
REMARK  status: ('A' for Active; 'I' for Inactive)
ROOT
ATOM      1  C2' OXE d   1      -5.245   3.364  -5.991  0.00  0.00     0.078 C 
ATOM      2  C1' OXE d   1      -2.608   4.326  -5.971  0.00  0.00     0.078 C 
ATOM      3  C1  OXE d   1      -2.812   2.831  -5.977  0.00  0.00    -0.078 A 
ATOM      4  C2  OXE d   1      -4.106   2.369  -5.939  0.00  0.00    -0.078 A 
ATOM      5  C3  OXE d   1      -4.351   1.001  -5.998  0.00  0.00     0.003 A 
ATOM      6  C4  OXE d   1      -3.291   0.087  -5.940  0.00  0.00    -0.002 A 
ATOM      7  C5  OXE d   1      -1.967   0.536  -5.937  0.00  0.00    -0.002 A 
ATOM      8  C6  OXE d   1      -1.710   1.902  -5.998  0.00  0.00     0.003 A 
ENDROOT
TORSDOF 0
ENDMDL
