MODEL 1
REMARK minimizedAffinity 0.258129835
REMARK minimizedRMSD -1
REMARK  0 active torsions:
REMARK  status: ('A' for Active; 'I' for Inactive)
ROOT
ATOM      1  C2' OXE d   1      -5.532   4.192  -5.998  0.00  0.00     0.078 C 
ATOM      2  C1' OXE d   1      -2.923   5.228  -5.983  0.00  0.00     0.078 C 
ATOM      3  C1  OXE d   1      -3.085   3.728  -5.980  0.00  0.00    -0.078 A 
ATOM      4  C2  OXE d   1      -4.365   3.230  -5.941  0.00  0.00    -0.078 A 
ATOM      5  C3  OXE d   1      -4.572   1.855  -5.992  0.00  0.00     0.003 A 
ATOM      6  C4  OXE d   1      -3.487   0.972  -5.928  0.00  0.00    -0.002 A 
ATOM      7  C5  OXE d   1      -2.175   1.458  -5.928  0.00  0.00    -0.002 A 
ATOM      8  C6  OXE d   1      -1.957   2.830  -5.996  0.00  0.00     0.003 A 
ENDROOT
TORSDOF 0
ENDMDL
