MODEL 1
REMARK minimizedAffinity -0.03868898
REMARK minimizedRMSD -1
REMARK  0 active torsions:
REMARK  status: ('A' for Active; 'I' for Inactive)
ROOT
ATOM      1  C2' OXE d   1      -5.963   3.382  -5.987  0.00  0.00     0.078 C 
ATOM      2  C1' OXE d   1      -3.232   4.031  -5.951  0.00  0.00     0.078 C 
ATOM      3  C1  OXE d   1      -3.608   2.570  -5.961  0.00  0.00    -0.078 A 
ATOM      4  C2  OXE d   1      -4.947   2.262  -5.932  0.00  0.00    -0.078 A 
ATOM      5  C3  OXE d   1      -5.349   0.930  -5.995  0.00  0.00     0.003 A 
ATOM      6  C4  OXE d   1      -4.402  -0.099  -5.933  0.00  0.00    -0.002 A 
ATOM      7  C5  OXE d   1      -3.034   0.193  -5.923  0.00  0.00    -0.002 A 
ATOM      8  C6  OXE d   1      -2.621   1.519  -5.980  0.00  0.00     0.003 A 
ENDROOT
TORSDOF 0
ENDMDL
