MODEL 1
REMARK minimizedAffinity -0.855201244
REMARK minimizedRMSD -1
REMARK  0 active torsions:
REMARK  status: ('A' for Active; 'I' for Inactive)
ROOT
ATOM      1  C2' OXE d   1      -5.573   4.202  -6.000  0.00  0.00     0.078 C 
ATOM      2  C1' OXE d   1      -2.831   4.800  -5.990  0.00  0.00     0.078 C 
ATOM      3  C1  OXE d   1      -3.234   3.347  -5.980  0.00  0.00    -0.078 A 
ATOM      4  C2  OXE d   1      -4.578   3.064  -5.938  0.00  0.00    -0.078 A 
ATOM      5  C3  OXE d   1      -5.005   1.740  -5.982  0.00  0.00     0.003 A 
ATOM      6  C4  OXE d   1      -4.078   0.693  -5.915  0.00  0.00    -0.002 A 
ATOM      7  C5  OXE d   1      -2.705   0.960  -5.917  0.00  0.00    -0.002 A 
ATOM      8  C6  OXE d   1      -2.267   2.277  -5.992  0.00  0.00     0.003 A 
ENDROOT
TORSDOF 0
ENDMDL
