MODEL 1
REMARK minimizedAffinity -0.111695774
REMARK minimizedRMSD -1
REMARK  0 active torsions:
REMARK  status: ('A' for Active; 'I' for Inactive)
ROOT
ATOM      1  C2' OXE d   1      -2.962   4.919  -5.945  0.00  0.00     0.078 C 
ATOM      2  C1' OXE d   1      -5.738   4.505  -6.000  0.00  0.00     0.078 C 
ATOM      3  C1  OXE d   1      -4.845   3.289  -5.976  0.00  0.00    -0.078 A 
ATOM      4  C2  OXE d   1      -3.488   3.501  -5.996  0.00  0.00    -0.078 A 
ATOM      5  C3  OXE d   1      -2.619   2.415  -5.920  0.00  0.00     0.003 A 
ATOM      6  C4  OXE d   1      -3.114   1.107  -5.978  0.00  0.00    -0.002 A 
ATOM      7  C5  OXE d   1      -4.492   0.869  -5.998  0.00  0.00    -0.002 A 
ATOM      8  C6  OXE d   1      -5.370   1.946  -5.954  0.00  0.00     0.003 A 
ENDROOT
TORSDOF 0
ENDMDL
