MODEL 1
REMARK minimizedAffinity -0.94889611
REMARK minimizedRMSD -1
REMARK  0 active torsions:
REMARK  status: ('A' for Active; 'I' for Inactive)
ROOT
ATOM      1  C2' OXE d   1      -2.202   0.912  -5.994  0.00  0.00     0.078 C 
ATOM      2  C1' OXE d   1      -4.879   0.066  -5.975  0.00  0.00     0.078 C 
ATOM      3  C1  OXE d   1      -4.610   1.550  -5.979  0.00  0.00    -0.078 A 
ATOM      4  C2  OXE d   1      -3.297   1.955  -5.941  0.00  0.00    -0.078 A 
ATOM      5  C3  OXE d   1      -2.992   3.312  -5.998  0.00  0.00     0.003 A 
ATOM      6  C4  OXE d   1      -4.011   4.271  -5.938  0.00  0.00    -0.002 A 
ATOM      7  C5  OXE d   1      -5.354   3.880  -5.936  0.00  0.00    -0.002 A 
ATOM      8  C6  OXE d   1      -5.670   2.527  -5.999  0.00  0.00     0.003 A 
ENDROOT
TORSDOF 0
ENDMDL
