MODEL 1
REMARK minimizedAffinity 1.56204283
REMARK minimizedRMSD -1
REMARK  0 active torsions:
REMARK  status: ('A' for Active; 'I' for Inactive)
ROOT
ATOM      1  C2' OXE d   1      -2.257   1.812  -5.982  0.00  0.00     0.078 C 
ATOM      2  C1' OXE d   1      -4.713   0.452  -6.000  0.00  0.00     0.078 C 
ATOM      3  C1  OXE d   1      -4.744   1.960  -5.981  0.00  0.00    -0.078 A 
ATOM      4  C2  OXE d   1      -3.538   2.616  -5.926  0.00  0.00    -0.078 A 
ATOM      5  C3  OXE d   1      -3.507   4.008  -5.962  0.00  0.00     0.003 A 
ATOM      6  C4  OXE d   1      -4.696   4.744  -5.899  0.00  0.00    -0.002 A 
ATOM      7  C5  OXE d   1      -5.935   4.095  -5.915  0.00  0.00    -0.002 A 
ATOM      8  C6  OXE d   1      -5.977   2.707  -5.999  0.00  0.00     0.003 A 
ENDROOT
TORSDOF 0
ENDMDL
