MODEL 1
REMARK minimizedAffinity 3.96945381
REMARK minimizedRMSD -1
REMARK  0 active torsions:
REMARK  status: ('A' for Active; 'I' for Inactive)
ROOT
ATOM      1  C2' OXE d   1      -5.259   4.143  -5.979  0.00  0.00     0.078 C 
ATOM      2  C1' OXE d   1      -2.660   5.205  -5.959  0.00  0.00     0.078 C 
ATOM      3  C1  OXE d   1      -2.807   3.704  -5.971  0.00  0.00    -0.078 A 
ATOM      4  C2  OXE d   1      -4.081   3.193  -5.934  0.00  0.00    -0.078 A 
ATOM      5  C3  OXE d   1      -4.274   1.816  -5.999  0.00  0.00     0.003 A 
ATOM      6  C4  OXE d   1      -3.180   0.944  -5.947  0.00  0.00    -0.002 A 
ATOM      7  C5  OXE d   1      -1.873   1.444  -5.945  0.00  0.00    -0.002 A 
ATOM      8  C6  OXE d   1      -1.669   2.818  -5.999  0.00  0.00     0.003 A 
ENDROOT
TORSDOF 0
ENDMDL
