MODEL 1
REMARK minimizedAffinity -1.92794073
REMARK minimizedRMSD -1
REMARK  0 active torsions:
REMARK  status: ('A' for Active; 'I' for Inactive)
ROOT
ATOM      1  C2' OXE d   1      -2.882   4.136  -5.987  0.00  0.00     0.078 C 
ATOM      2  C1' OXE d   1      -1.537   1.672  -5.966  0.00  0.00     0.078 C 
ATOM      3  C1  OXE d   1      -3.045   1.651  -5.975  0.00  0.00    -0.078 A 
ATOM      4  C2  OXE d   1      -3.695   2.861  -5.938  0.00  0.00    -0.078 A 
ATOM      5  C3  OXE d   1      -5.085   2.899  -6.000  0.00  0.00     0.003 A 
ATOM      6  C4  OXE d   1      -5.830   1.715  -5.944  0.00  0.00    -0.002 A 
ATOM      7  C5  OXE d   1      -5.188   0.472  -5.941  0.00  0.00    -0.002 A 
ATOM      8  C6  OXE d   1      -3.800   0.422  -5.999  0.00  0.00     0.003 A 
ENDROOT
TORSDOF 0
ENDMDL
