MODEL 1
REMARK minimizedAffinity -1.67605054
REMARK minimizedRMSD -1
REMARK  0 active torsions:
REMARK  status: ('A' for Active; 'I' for Inactive)
ROOT
ATOM      1  C2' OXE d   1      -4.117  -0.207  -5.954  0.00  0.00     0.078 C 
ATOM      2  C1' OXE d   1      -1.698   1.217  -5.943  0.00  0.00     0.078 C 
ATOM      3  C1  OXE d   1      -2.981   2.010  -5.945  0.00  0.00    -0.078 A 
ATOM      4  C2  OXE d   1      -4.160   1.305  -5.998  0.00  0.00    -0.078 A 
ATOM      5  C3  OXE d   1      -5.373   1.985  -5.946  0.00  0.00     0.003 A 
ATOM      6  C4  OXE d   1      -5.404   3.384  -5.997  0.00  0.00    -0.002 A 
ATOM      7  C5  OXE d   1      -4.215   4.122  -5.984  0.00  0.00    -0.002 A 
ATOM      8  C6  OXE d   1      -2.998   3.452  -5.916  0.00  0.00     0.003 A 
ENDROOT
TORSDOF 0
ENDMDL
