MODEL 1
REMARK minimizedAffinity -3.83753157
REMARK minimizedRMSD -1
REMARK  0 active torsions:
REMARK  status: ('A' for Active; 'I' for Inactive)
ROOT
ATOM      1  C2' OXE d   1      -5.318  -0.082  -5.976  0.00  0.00     0.078 C 
ATOM      2  C1' OXE d   1      -2.638   0.689  -5.655  0.00  0.00     0.078 C 
ATOM      3  C1  OXE d   1      -3.676   1.778  -5.752  0.00  0.00    -0.078 A 
ATOM      4  C2  OXE d   1      -4.980   1.393  -5.956  0.00  0.00    -0.078 A 
ATOM      5  C3  OXE d   1      -5.984   2.356  -5.999  0.00  0.00     0.003 A 
ATOM      6  C4  OXE d   1      -5.661   3.718  -5.990  0.00  0.00    -0.002 A 
ATOM      7  C5  OXE d   1      -4.336   4.133  -5.823  0.00  0.00    -0.002 A 
ATOM      8  C6  OXE d   1      -3.338   3.177  -5.660  0.00  0.00     0.003 A 
ENDROOT
TORSDOF 0
ENDMDL
