MODEL 1
REMARK minimizedAffinity 1.92906356
REMARK minimizedRMSD -1
REMARK  0 active torsions:
REMARK  status: ('A' for Active; 'I' for Inactive)
ROOT
ATOM      1  C2' OXE d   1      -0.750  -0.246  -2.689  0.00  0.00     0.078 C 
ATOM      2  C1' OXE d   1      -1.037   0.890  -0.139  0.00  0.00     0.078 C 
ATOM      3  C1  OXE d   1       0.328   0.386  -0.535  0.00  0.00    -0.078 A 
ATOM      4  C2  OXE d   1       0.449  -0.211  -1.766  0.00  0.00    -0.078 A 
ATOM      5  C3  OXE d   1       1.697  -0.644  -2.203  0.00  0.00     0.003 A 
ATOM      6  C4  OXE d   1       2.799  -0.617  -1.340  0.00  0.00    -0.002 A 
ATOM      7  C5  OXE d   1       2.689  -0.049  -0.066  0.00  0.00    -0.002 A 
ATOM      8  C6  OXE d   1       1.473   0.494   0.335  0.00  0.00     0.003 A 
ENDROOT
TORSDOF 0
ENDMDL
