MODEL 1
REMARK minimizedAffinity -0.295411974
REMARK minimizedRMSD -1
REMARK  0 active torsions:
REMARK  status: ('A' for Active; 'I' for Inactive)
ROOT
ATOM      1  C2' OXE d   1      -5.377   2.620  -6.000  0.00  0.00     0.078 C 
ATOM      2  C1' OXE d   1      -2.672   3.276  -5.635  0.00  0.00     0.078 C 
ATOM      3  C1  OXE d   1      -3.036   1.815  -5.726  0.00  0.00    -0.078 A 
ATOM      4  C2  OXE d   1      -4.367   1.502  -5.857  0.00  0.00    -0.078 A 
ATOM      5  C3  OXE d   1      -4.752   0.172  -6.000  0.00  0.00     0.003 A 
ATOM      6  C4  OXE d   1      -3.813  -0.857  -5.857  0.00  0.00    -0.002 A 
ATOM      7  C5  OXE d   1      -2.457  -0.561  -5.682  0.00  0.00    -0.002 A 
ATOM      8  C6  OXE d   1      -2.047   0.768  -5.658  0.00  0.00     0.003 A 
ENDROOT
TORSDOF 0
ENDMDL
