MODEL 1
REMARK minimizedAffinity -0.50720799
REMARK minimizedRMSD -1
REMARK  0 active torsions:
REMARK  status: ('A' for Active; 'I' for Inactive)
ROOT
ATOM      1  C2' OXE d   1      -3.738  -0.663  -5.937  0.00  0.00     0.078 C 
ATOM      2  C1' OXE d   1      -1.135   0.385  -6.000  0.00  0.00     0.078 C 
ATOM      3  C1  OXE d   1      -2.285   1.360  -5.975  0.00  0.00    -0.078 A 
ATOM      4  C2  OXE d   1      -3.556   0.838  -5.991  0.00  0.00    -0.078 A 
ATOM      5  C3  OXE d   1      -4.653   1.692  -5.914  0.00  0.00     0.003 A 
ATOM      6  C4  OXE d   1      -4.477   3.080  -5.975  0.00  0.00    -0.002 A 
ATOM      7  C5  OXE d   1      -3.191   3.632  -5.999  0.00  0.00    -0.002 A 
ATOM      8  C6  OXE d   1      -2.087   2.788  -5.956  0.00  0.00     0.003 A 
ENDROOT
TORSDOF 0
ENDMDL
