MODEL 1
REMARK minimizedAffinity -2.80538416
REMARK minimizedRMSD -1
REMARK  0 active torsions:
REMARK  status: ('A' for Active; 'I' for Inactive)
ROOT
ATOM      1  C2' OXE d   1      -5.275  -2.704  -5.803  0.00  0.00     0.078 C 
ATOM      2  C1' OXE d   1      -2.627  -1.774  -5.796  0.00  0.00     0.078 C 
ATOM      3  C1  OXE d   1      -2.849  -3.264  -5.880  0.00  0.00    -0.078 A 
ATOM      4  C2  OXE d   1      -4.147  -3.712  -5.836  0.00  0.00    -0.078 A 
ATOM      5  C3  OXE d   1      -4.411  -5.073  -5.964  0.00  0.00     0.003 A 
ATOM      6  C4  OXE d   1      -3.361  -6.000  -5.984  0.00  0.00    -0.002 A 
ATOM      7  C5  OXE d   1      -2.031  -5.566  -5.989  0.00  0.00    -0.002 A 
ATOM      8  C6  OXE d   1      -1.759  -4.202  -5.981  0.00  0.00     0.003 A 
ENDROOT
TORSDOF 0
ENDMDL
