MODEL 1
REMARK minimizedAffinity 3.00574493
REMARK minimizedRMSD -1
REMARK  0 active torsions:
REMARK  status: ('A' for Active; 'I' for Inactive)
ROOT
ATOM      1  C2' OXE d   1      -4.728   2.786  -5.289  0.00  0.00     0.078 C 
ATOM      2  C1' OXE d   1      -2.316   1.351  -5.262  0.00  0.00     0.078 C 
ATOM      3  C1  OXE d   1      -3.586   0.587  -5.541  0.00  0.00    -0.078 A 
ATOM      4  C2  OXE d   1      -4.767   1.289  -5.506  0.00  0.00    -0.078 A 
ATOM      5  C3  OXE d   1      -5.961   0.643  -5.810  0.00  0.00     0.003 A 
ATOM      6  C4  OXE d   1      -5.989  -0.744  -5.999  0.00  0.00    -0.002 A 
ATOM      7  C5  OXE d   1      -4.802  -1.484  -6.000  0.00  0.00    -0.002 A 
ATOM      8  C6  OXE d   1      -3.590  -0.829  -5.814  0.00  0.00     0.003 A 
ENDROOT
TORSDOF 0
ENDMDL
