MODEL 1
REMARK minimizedAffinity 0.420626581
REMARK minimizedRMSD -1
REMARK  1 active torsions:
REMARK  status: ('A' for Active; 'I' for Inactive)
REMARK    1  A    between atoms: C1_2  and  C2_3 
ROOT
ATOM      1  C2  UNL d   1       0.913  -1.481  -0.889  0.00  0.00    -0.076 A 
ATOM      2  C3  UNL d   1       0.491  -0.654  -1.944  0.00  0.00     0.004 A 
ATOM      3  C4  UNL d   1       0.436  -1.131  -3.252  0.00  0.00    -0.003 A 
ATOM      4  C5  UNL d   1       0.802  -2.444  -3.527  0.00  0.00     0.000 A 
ATOM      5  C6  UNL d   1       1.206  -3.284  -2.490  0.00  0.00     0.000 A 
ATOM      6  C7  UNL d   1       1.252  -2.824  -1.163  0.00  0.00    -0.073 A 
ATOM      7  C8  UNL d   1       1.702  -3.771  -0.085  0.00  0.00     0.078 C 
ENDROOT
BRANCH   1   8
ATOM      8  C1  UNL d   1       0.979  -0.900   0.505  0.00  0.00     0.053 C 
ATOM      9  C   UNL d   1      -0.365  -0.368   0.979  0.00  0.00     0.018 C 
ENDBRANCH   1   8
TORSDOF 1
ENDMDL
