MODEL 1
REMARK minimizedAffinity -1.35001194
REMARK minimizedRMSD -1
REMARK  1 active torsions:
REMARK  status: ('A' for Active; 'I' for Inactive)
REMARK    1  A    between atoms: C1_2  and  C2_3 
ROOT
ATOM      1  C2  UNL d   1       0.420  -1.521  -0.702  0.00  0.00    -0.076 A 
ATOM      2  C3  UNL d   1      -0.820  -1.895  -0.157  0.00  0.00     0.004 A 
ATOM      3  C4  UNL d   1      -1.449  -1.106   0.805  0.00  0.00    -0.003 A 
ATOM      4  C5  UNL d   1      -0.847   0.071   1.237  0.00  0.00     0.000 A 
ATOM      5  C6  UNL d   1       0.375   0.467   0.694  0.00  0.00     0.000 A 
ATOM      6  C7  UNL d   1       1.014  -0.309  -0.288  0.00  0.00    -0.073 A 
ATOM      7  C8  UNL d   1       2.334   0.162  -0.835  0.00  0.00     0.078 C 
ENDROOT
BRANCH   1   8
ATOM      8  C1  UNL d   1       1.067  -2.431  -1.722  0.00  0.00     0.053 C 
ATOM      9  C   UNL d   1       0.049  -3.110  -2.625  0.00  0.00     0.018 C 
ENDBRANCH   1   8
TORSDOF 1
ENDMDL
