MODEL 1
REMARK minimizedAffinity -2.04830003
REMARK minimizedRMSD -1
REMARK  1 active torsions:
REMARK  status: ('A' for Active; 'I' for Inactive)
REMARK    1  A    between atoms: C1_2  and  C2_3 
ROOT
ATOM      1  C2  UNL d   1       0.350  -1.238  -0.646  0.00  0.00    -0.076 A 
ATOM      2  C3  UNL d   1      -0.416  -2.408  -0.508  0.00  0.00     0.004 A 
ATOM      3  C4  UNL d   1      -0.337  -3.433  -1.449  0.00  0.00    -0.003 A 
ATOM      4  C5  UNL d   1       0.510  -3.304  -2.545  0.00  0.00     0.000 A 
ATOM      5  C6  UNL d   1       1.291  -2.157  -2.689  0.00  0.00     0.000 A 
ATOM      6  C7  UNL d   1       1.235  -1.122  -1.740  0.00  0.00    -0.073 A 
ATOM      7  C8  UNL d   1       2.094   0.095  -1.948  0.00  0.00     0.078 C 
ENDROOT
BRANCH   1   8
ATOM      8  C1  UNL d   1       0.202  -0.148   0.392  0.00  0.00     0.053 C 
ATOM      9  C   UNL d   1      -0.645  -0.585   1.577  0.00  0.00     0.018 C 
ENDBRANCH   1   8
TORSDOF 1
ENDMDL
