MODEL 1
REMARK minimizedAffinity -3.82963848
REMARK minimizedRMSD -1
REMARK  1 active torsions:
REMARK  status: ('A' for Active; 'I' for Inactive)
REMARK    1  A    between atoms: C1_2  and  C2_3 
ROOT
ATOM      1  C2  UNL d   1       0.502  -1.425  -0.483  0.00  0.00    -0.076 A 
ATOM      2  C3  UNL d   1      -0.244  -2.617  -0.474  0.00  0.00     0.004 A 
ATOM      3  C4  UNL d   1      -0.072  -3.578  -1.468  0.00  0.00    -0.003 A 
ATOM      4  C5  UNL d   1       0.850  -3.365  -2.487  0.00  0.00     0.000 A 
ATOM      5  C6  UNL d   1       1.612  -2.197  -2.501  0.00  0.00     0.000 A 
ATOM      6  C7  UNL d   1       1.462  -1.224  -1.497  0.00  0.00    -0.073 A 
ATOM      7  C8  UNL d   1       2.305   0.019  -1.566  0.00  0.00     0.078 C 
ENDROOT
BRANCH   1   8
ATOM      8  C1  UNL d   1       0.253  -0.407   0.607  0.00  0.00     0.053 C 
ATOM      9  C   UNL d   1      -1.105  -0.581   1.268  0.00  0.00     0.018 C 
ENDBRANCH   1   8
TORSDOF 1
ENDMDL
