MODEL 1
REMARK minimizedAffinity -0.0297742877
REMARK minimizedRMSD -1
REMARK  1 active torsions:
REMARK  status: ('A' for Active; 'I' for Inactive)
REMARK    1  A    between atoms: C1_2  and  C2_3 
ROOT
ATOM      1  C2  UNL d   1      -0.204   1.401   0.455  0.00  0.00    -0.076 A 
ATOM      2  C3  UNL d   1      -1.152   1.783   1.421  0.00  0.00     0.004 A 
ATOM      3  C4  UNL d   1      -1.641   0.865   2.348  0.00  0.00    -0.003 A 
ATOM      4  C5  UNL d   1      -1.190  -0.450   2.326  0.00  0.00     0.000 A 
ATOM      5  C6  UNL d   1      -0.237  -0.842   1.386  0.00  0.00     0.000 A 
ATOM      6  C7  UNL d   1       0.278   0.075   0.454  0.00  0.00    -0.073 A 
ATOM      7  C8  UNL d   1       1.300  -0.404  -0.540  0.00  0.00     0.078 C 
ENDROOT
BRANCH   1   8
ATOM      8  C1  UNL d   1       0.270   2.434  -0.542  0.00  0.00     0.053 C 
ATOM      9  C   UNL d   1       0.069   3.858  -0.047  0.00  0.00     0.018 C 
ENDBRANCH   1   8
TORSDOF 1
ENDMDL
