MODEL 1
REMARK minimizedAffinity -1.84804869
REMARK minimizedRMSD -1
REMARK  1 active torsions:
REMARK  status: ('A' for Active; 'I' for Inactive)
REMARK    1  A    between atoms: C1_2  and  C2_3 
ROOT
ATOM      1  C2  UNL d   1      -0.217  -2.127  -0.822  0.00  0.00    -0.076 A 
ATOM      2  C3  UNL d   1       0.869  -1.318  -1.199  0.00  0.00     0.004 A 
ATOM      3  C4  UNL d   1       1.207  -0.183  -0.464  0.00  0.00    -0.003 A 
ATOM      4  C5  UNL d   1       0.465   0.160   0.661  0.00  0.00     0.000 A 
ATOM      5  C6  UNL d   1      -0.604  -0.641   1.060  0.00  0.00     0.000 A 
ATOM      6  C7  UNL d   1      -0.948  -1.797   0.339  0.00  0.00    -0.073 A 
ATOM      7  C8  UNL d   1      -2.115  -2.621   0.811  0.00  0.00     0.078 C 
ENDROOT
BRANCH   1   8
ATOM      8  C1  UNL d   1      -0.554  -3.331  -1.673  0.00  0.00     0.053 C 
ATOM      9  C   UNL d   1      -0.023  -3.207  -3.093  0.00  0.00     0.018 C 
ENDBRANCH   1   8
TORSDOF 1
ENDMDL
