MODEL 1
REMARK minimizedAffinity -1.88586068
REMARK minimizedRMSD -1
REMARK  1 active torsions:
REMARK  status: ('A' for Active; 'I' for Inactive)
REMARK    1  A    between atoms: C1_2  and  C2_3 
ROOT
ATOM      1  C2  UNL d   1       0.759  -1.739  -0.765  0.00  0.00    -0.076 A 
ATOM      2  C3  UNL d   1      -0.463  -2.104  -0.174  0.00  0.00     0.004 A 
ATOM      3  C4  UNL d   1      -1.025  -1.335   0.844  0.00  0.00    -0.003 A 
ATOM      4  C5  UNL d   1      -0.374  -0.189   1.288  0.00  0.00     0.000 A 
ATOM      5  C6  UNL d   1       0.830   0.197   0.701  0.00  0.00     0.000 A 
ATOM      6  C7  UNL d   1       1.402  -0.557  -0.338  0.00  0.00    -0.073 A 
ATOM      7  C8  UNL d   1       2.706  -0.098  -0.931  0.00  0.00     0.078 C 
ENDROOT
BRANCH   1   8
ATOM      8  C1  UNL d   1       1.334  -2.626  -1.846  0.00  0.00     0.053 C 
ATOM      9  C   UNL d   1       0.331  -2.925  -2.949  0.00  0.00     0.018 C 
ENDBRANCH   1   8
TORSDOF 1
ENDMDL
