MODEL 1
REMARK minimizedAffinity -3.96585011
REMARK minimizedRMSD -1
REMARK  1 active torsions:
REMARK  status: ('A' for Active; 'I' for Inactive)
REMARK    1  A    between atoms: C1_2  and  C2_3 
ROOT
ATOM      1  C2  UNL d   1       0.335  -1.460  -0.804  0.00  0.00    -0.076 A 
ATOM      2  C3  UNL d   1      -0.853  -1.816  -0.142  0.00  0.00     0.004 A 
ATOM      3  C4  UNL d   1      -1.345  -1.047   0.912  0.00  0.00    -0.003 A 
ATOM      4  C5  UNL d   1      -0.657   0.090   1.321  0.00  0.00     0.000 A 
ATOM      5  C6  UNL d   1       0.514   0.468   0.664  0.00  0.00     0.000 A 
ATOM      6  C7  UNL d   1       1.014  -0.287  -0.411  0.00  0.00    -0.073 A 
ATOM      7  C8  UNL d   1       2.284   0.163  -1.080  0.00  0.00     0.078 C 
ENDROOT
BRANCH   1   8
ATOM      8  C1  UNL d   1       0.834  -2.347  -1.922  0.00  0.00     0.053 C 
ATOM      9  C   UNL d   1       0.269  -3.756  -1.844  0.00  0.00     0.018 C 
ENDBRANCH   1   8
TORSDOF 1
ENDMDL
