MODEL 1
REMARK minimizedAffinity -1.71697986
REMARK minimizedRMSD -1
REMARK  1 active torsions:
REMARK  status: ('A' for Active; 'I' for Inactive)
REMARK    1  A    between atoms: C1_2  and  C2_3 
ROOT
ATOM      1  C2  UNL d   1       0.783  -1.151  -0.473  0.00  0.00    -0.076 A 
ATOM      2  C3  UNL d   1       0.920  -2.535  -0.679  0.00  0.00     0.004 A 
ATOM      3  C4  UNL d   1       0.912  -3.073  -1.965  0.00  0.00    -0.003 A 
ATOM      4  C5  UNL d   1       0.768  -2.236  -3.066  0.00  0.00     0.000 A 
ATOM      5  C6  UNL d   1       0.649  -0.859  -2.881  0.00  0.00     0.000 A 
ATOM      6  C7  UNL d   1       0.672  -0.299  -1.592  0.00  0.00    -0.073 A 
ATOM      7  C8  UNL d   1       0.534   1.193  -1.451  0.00  0.00     0.078 C 
ENDROOT
BRANCH   1   8
ATOM      8  C1  UNL d   1       0.772  -0.628   0.945  0.00  0.00     0.053 C 
ATOM      9  C   UNL d   1      -0.615  -0.193   1.395  0.00  0.00     0.018 C 
ENDBRANCH   1   8
TORSDOF 1
ENDMDL
