MODEL 1
REMARK minimizedAffinity -6.55500364
REMARK minimizedRMSD -1
REMARK  1 active torsions:
REMARK  status: ('A' for Active; 'I' for Inactive)
REMARK    1  A    between atoms: C1_2  and  C2_3 
ROOT
ATOM      1  C2  UNL d   1      -0.195   2.566   0.134  0.00  0.00    -0.076 A 
ATOM      2  C3  UNL d   1       0.442   2.406  -1.109  0.00  0.00     0.004 A 
ATOM      3  C4  UNL d   1       0.572   1.146  -1.691  0.00  0.00    -0.003 A 
ATOM      4  C5  UNL d   1       0.066   0.027  -1.040  0.00  0.00     0.000 A 
ATOM      5  C6  UNL d   1      -0.585   0.169   0.185  0.00  0.00     0.000 A 
ATOM      6  C7  UNL d   1      -0.739   1.434   0.778  0.00  0.00    -0.073 A 
ATOM      7  C8  UNL d   1      -1.444   1.529   2.103  0.00  0.00     0.078 C 
ENDROOT
BRANCH   1   8
ATOM      8  C1  UNL d   1      -0.283   3.953   0.730  0.00  0.00     0.053 C 
ATOM      9  C   UNL d   1       0.783   4.891   0.182  0.00  0.00     0.018 C 
ENDBRANCH   1   8
TORSDOF 1
ENDMDL
