MODEL 1
REMARK minimizedAffinity -2.63122892
REMARK minimizedRMSD -1
REMARK  1 active torsions:
REMARK  status: ('A' for Active; 'I' for Inactive)
REMARK    1  A    between atoms: C1_2  and  C2_3 
ROOT
ATOM      1  C2  UNL d   1      -0.126  -1.053  -0.593  0.00  0.00    -0.076 A 
ATOM      2  C3  UNL d   1      -1.140  -1.535   0.252  0.00  0.00     0.004 A 
ATOM      3  C4  UNL d   1      -1.503  -0.841   1.405  0.00  0.00    -0.003 A 
ATOM      4  C5  UNL d   1      -0.857   0.347   1.732  0.00  0.00     0.000 A 
ATOM      5  C6  UNL d   1       0.139   0.849   0.895  0.00  0.00     0.000 A 
ATOM      6  C7  UNL d   1       0.505   0.170  -0.280  0.00  0.00    -0.073 A 
ATOM      7  C8  UNL d   1       1.591   0.754  -1.143  0.00  0.00     0.078 C 
ENDROOT
BRANCH   1   8
ATOM      8  C1  UNL d   1       0.243  -1.862  -1.816  0.00  0.00     0.053 C 
ATOM      9  C   UNL d   1       0.307  -3.355  -1.530  0.00  0.00     0.018 C 
ENDBRANCH   1   8
TORSDOF 1
ENDMDL
