MODEL 1
REMARK minimizedAffinity -2.6493392
REMARK minimizedRMSD -1
REMARK  1 active torsions:
REMARK  status: ('A' for Active; 'I' for Inactive)
REMARK    1  A    between atoms: C1_2  and  C2_3 
ROOT
ATOM      1  C2  UNL d   1      -0.260   0.882   0.548  0.00  0.00    -0.076 A 
ATOM      2  C3  UNL d   1      -0.465  -0.370   1.153  0.00  0.00     0.004 A 
ATOM      3  C4  UNL d   1      -0.211  -1.553   0.460  0.00  0.00    -0.003 A 
ATOM      4  C5  UNL d   1       0.253  -1.502  -0.849  0.00  0.00     0.000 A 
ATOM      5  C6  UNL d   1       0.479  -0.269  -1.460  0.00  0.00     0.000 A 
ATOM      6  C7  UNL d   1       0.244   0.932  -0.770  0.00  0.00    -0.073 A 
ATOM      7  C8  UNL d   1       0.499   2.234  -1.479  0.00  0.00     0.078 C 
ENDROOT
BRANCH   1   8
ATOM      8  C1  UNL d   1      -0.578   2.130   1.339  0.00  0.00     0.053 C 
ATOM      9  C   UNL d   1      -1.795   1.957   2.235  0.00  0.00     0.018 C 
ENDBRANCH   1   8
TORSDOF 1
ENDMDL
