MODEL 1
REMARK minimizedAffinity -2.74512196
REMARK minimizedRMSD -1
REMARK  1 active torsions:
REMARK  status: ('A' for Active; 'I' for Inactive)
REMARK    1  A    between atoms: C1_2  and  C2_3 
ROOT
ATOM      1  C2  UNL d   1      -0.026   0.934   0.570  0.00  0.00    -0.076 A 
ATOM      2  C3  UNL d   1      -0.819   1.424   1.622  0.00  0.00     0.004 A 
ATOM      3  C4  UNL d   1      -1.004   2.793   1.803  0.00  0.00    -0.003 A 
ATOM      4  C5  UNL d   1      -0.401   3.695   0.934  0.00  0.00     0.000 A 
ATOM      5  C6  UNL d   1       0.375   3.227  -0.126  0.00  0.00     0.000 A 
ATOM      6  C7  UNL d   1       0.559   1.849  -0.332  0.00  0.00    -0.073 A 
ATOM      7  C8  UNL d   1       1.410   1.399  -1.488  0.00  0.00     0.078 C 
ENDROOT
BRANCH   1   8
ATOM      8  C1  UNL d   1       0.161  -0.561   0.439  0.00  0.00     0.053 C 
ATOM      9  C   UNL d   1      -0.794  -1.182  -0.568  0.00  0.00     0.018 C 
ENDBRANCH   1   8
TORSDOF 1
ENDMDL
