MODEL 1
REMARK minimizedAffinity -0.530447721
REMARK minimizedRMSD -1
REMARK  1 active torsions:
REMARK  status: ('A' for Active; 'I' for Inactive)
REMARK    1  A    between atoms: C1_2  and  C2_3 
ROOT
ATOM      1  C2  UNL d   1      -3.720   3.665  -2.172  0.00  0.00    -0.077 A 
ATOM      2  C3  UNL d   1      -3.237   2.812  -1.169  0.00  0.00     0.002 A 
ATOM      3  C4  UNL d   1      -2.409   1.736  -1.496  0.00  0.00     0.002 A 
ATOM      4  C5  UNL d   1      -2.054   1.506  -2.824  0.00  0.00    -0.004 A 
ATOM      5  C6  UNL d   1      -2.532   2.347  -3.828  0.00  0.00     0.002 A 
ATOM      6  C7  UNL d   1      -3.360   3.422  -3.503  0.00  0.00     0.002 A 
ENDROOT
BRANCH   1   7
ATOM      7  C1  UNL d   1      -4.573   4.855  -1.816  0.00  0.00     0.055 C 
ATOM      8  C   UNL d   1      -5.998   4.435  -1.486  0.00  0.00     0.019 C 
ENDBRANCH   1   7
TORSDOF 1
ENDMDL
