MODEL 1
REMARK minimizedAffinity 4.55224133
REMARK minimizedRMSD -1
REMARK  1 active torsions:
REMARK  status: ('A' for Active; 'I' for Inactive)
REMARK    1  A    between atoms: C1_2  and  C2_3 
ROOT
ATOM      1  C2  UNL d   1      -2.839  -1.738  -3.182  0.00  0.00    -0.077 A 
ATOM      2  C3  UNL d   1      -4.005  -2.436  -2.838  0.00  0.00     0.002 A 
ATOM      3  C4  UNL d   1      -3.925  -3.659  -2.168  0.00  0.00     0.002 A 
ATOM      4  C5  UNL d   1      -2.681  -4.192  -1.834  0.00  0.00    -0.004 A 
ATOM      5  C6  UNL d   1      -1.516  -3.507  -2.175  0.00  0.00     0.002 A 
ATOM      6  C7  UNL d   1      -1.594  -2.285  -2.845  0.00  0.00     0.002 A 
ENDROOT
BRANCH   1   7
ATOM      7  C1  UNL d   1      -2.924  -0.396  -3.861  0.00  0.00     0.055 C 
ATOM      8  C   UNL d   1      -2.078   0.643  -3.140  0.00  0.00     0.019 C 
ENDBRANCH   1   7
TORSDOF 1
ENDMDL
