MODEL 1
REMARK minimizedAffinity -3.20921111
REMARK minimizedRMSD -1
REMARK  1 active torsions:
REMARK  status: ('A' for Active; 'I' for Inactive)
REMARK    1  A    between atoms: C1_2  and  C2_3 
ROOT
ATOM      1  C2  UNL d   1       3.574  -4.861  -2.879  0.00  0.00    -0.077 A 
ATOM      2  C3  UNL d   1       2.933  -5.791  -3.708  0.00  0.00     0.002 A 
ATOM      3  C4  UNL d   1       3.377  -5.996  -5.016  0.00  0.00     0.002 A 
ATOM      4  C5  UNL d   1       4.466  -5.278  -5.504  0.00  0.00    -0.004 A 
ATOM      5  C6  UNL d   1       5.110  -4.349  -4.688  0.00  0.00     0.002 A 
ATOM      6  C7  UNL d   1       4.666  -4.141  -3.381  0.00  0.00     0.002 A 
ENDROOT
BRANCH   1   7
ATOM      7  C1  UNL d   1       3.127  -4.674  -1.453  0.00  0.00     0.055 C 
ATOM      8  C   UNL d   1       2.627  -5.980  -0.853  0.00  0.00     0.019 C 
ENDBRANCH   1   7
TORSDOF 1
ENDMDL
