MODEL 1
REMARK minimizedAffinity 10.5232496
REMARK minimizedRMSD -1
REMARK  1 active torsions:
REMARK  status: ('A' for Active; 'I' for Inactive)
REMARK    1  A    between atoms: C1_2  and  C2_3 
ROOT
ATOM      1  C2  UNL d   1      -0.340   3.625   0.806  0.00  0.00    -0.077 A 
ATOM      2  C3  UNL d   1      -1.092   2.452   0.654  0.00  0.00     0.002 A 
ATOM      3  C4  UNL d   1      -0.607   1.398  -0.123  0.00  0.00     0.002 A 
ATOM      4  C5  UNL d   1       0.632   1.506  -0.750  0.00  0.00    -0.004 A 
ATOM      5  C6  UNL d   1       1.386   2.670  -0.607  0.00  0.00     0.002 A 
ATOM      6  C7  UNL d   1       0.903   3.725   0.168  0.00  0.00     0.002 A 
ENDROOT
BRANCH   1   7
ATOM      7  C1  UNL d   1      -0.840   4.743   1.684  0.00  0.00     0.055 C 
ATOM      8  C   UNL d   1      -1.124   5.999   0.873  0.00  0.00     0.019 C 
ENDBRANCH   1   7
TORSDOF 1
ENDMDL
