MODEL 1
REMARK minimizedAffinity 6.67286396
REMARK minimizedRMSD -1
REMARK  1 active torsions:
REMARK  status: ('A' for Active; 'I' for Inactive)
REMARK    1  A    between atoms: C1_2  and  C2_3 
ROOT
ATOM      1  C2  UNL d   1       1.939   0.361   2.277  0.00  0.00    -0.077 A 
ATOM      2  C3  UNL d   1       2.683   1.469   1.849  0.00  0.00     0.002 A 
ATOM      3  C4  UNL d   1       2.334   2.144   0.678  0.00  0.00     0.002 A 
ATOM      4  C5  UNL d   1       1.239   1.721  -0.072  0.00  0.00    -0.004 A 
ATOM      5  C6  UNL d   1       0.494   0.618   0.344  0.00  0.00     0.002 A 
ATOM      6  C7  UNL d   1       0.842  -0.058   1.513  0.00  0.00     0.002 A 
ENDROOT
BRANCH   1   7
ATOM      7  C1  UNL d   1       2.284  -0.338   3.566  0.00  0.00     0.055 C 
ATOM      8  C   UNL d   1       1.814  -1.786   3.554  0.00  0.00     0.019 C 
ENDBRANCH   1   7
TORSDOF 1
ENDMDL
