MODEL 1
REMARK minimizedAffinity -3.87317181
REMARK minimizedRMSD -1
REMARK  1 active torsions:
REMARK  status: ('A' for Active; 'I' for Inactive)
REMARK    1  A    between atoms: C1_2  and  C2_3 
ROOT
ATOM      1  C2  UNL d   1       4.969  -1.824  -5.520  0.00  0.00    -0.077 A 
ATOM      2  C3  UNL d   1       3.635  -1.477  -5.774  0.00  0.00     0.002 A 
ATOM      3  C4  UNL d   1       2.678  -2.468  -6.000  0.00  0.00     0.002 A 
ATOM      4  C5  UNL d   1       3.044  -3.812  -5.969  0.00  0.00    -0.004 A 
ATOM      5  C6  UNL d   1       4.369  -4.168  -5.718  0.00  0.00     0.002 A 
ATOM      6  C7  UNL d   1       5.327  -3.178  -5.494  0.00  0.00     0.002 A 
ENDROOT
BRANCH   1   7
ATOM      7  C1  UNL d   1       5.993  -0.758  -5.228  0.00  0.00     0.055 C 
ATOM      8  C   UNL d   1       6.000  -0.387  -3.752  0.00  0.00     0.019 C 
ENDBRANCH   1   7
TORSDOF 1
ENDMDL
