MODEL 1
REMARK minimizedAffinity -0.388494581
REMARK minimizedRMSD -1
REMARK  1 active torsions:
REMARK  status: ('A' for Active; 'I' for Inactive)
REMARK    1  A    between atoms: C1_2  and  C2_3 
ROOT
ATOM      1  C2  UNL d   1      -0.740   0.111  -0.093  0.00  0.00    -0.077 A 
ATOM      2  C3  UNL d   1      -0.492  -0.948   0.793  0.00  0.00     0.002 A 
ATOM      3  C4  UNL d   1      -0.699  -2.269   0.390  0.00  0.00     0.002 A 
ATOM      4  C5  UNL d   1      -1.150  -2.543  -0.900  0.00  0.00    -0.004 A 
ATOM      5  C6  UNL d   1      -1.401  -1.497  -1.787  0.00  0.00     0.002 A 
ATOM      6  C7  UNL d   1      -1.196  -0.176  -1.386  0.00  0.00     0.002 A 
ENDROOT
BRANCH   1   7
ATOM      7  C1  UNL d   1      -0.471   1.533   0.324  0.00  0.00     0.055 C 
ATOM      8  C   UNL d   1       0.960   1.942   0.006  0.00  0.00     0.019 C 
ENDBRANCH   1   7
TORSDOF 1
ENDMDL
