MODEL 1
REMARK minimizedAffinity 2.43337059
REMARK minimizedRMSD -1
REMARK  1 active torsions:
REMARK  status: ('A' for Active; 'I' for Inactive)
REMARK    1  A    between atoms: C1_2  and  C2_3 
ROOT
ATOM      1  C2  UNL d   1      -2.933   1.891  -3.031  0.00  0.00    -0.077 A 
ATOM      2  C3  UNL d   1      -2.426   1.745  -1.732  0.00  0.00     0.002 A 
ATOM      3  C4  UNL d   1      -1.706   0.602  -1.379  0.00  0.00     0.002 A 
ATOM      4  C5  UNL d   1      -1.483  -0.401  -2.320  0.00  0.00    -0.004 A 
ATOM      5  C6  UNL d   1      -1.984  -0.266  -3.614  0.00  0.00     0.002 A 
ATOM      6  C7  UNL d   1      -2.705   0.875  -3.969  0.00  0.00     0.002 A 
ENDROOT
BRANCH   1   7
ATOM      7  C1  UNL d   1      -3.667   3.145  -3.428  0.00  0.00     0.055 C 
ATOM      8  C   UNL d   1      -4.255   3.849  -2.214  0.00  0.00     0.019 C 
ENDBRANCH   1   7
TORSDOF 1
ENDMDL
