MODEL 1
REMARK minimizedAffinity -2.21615076
REMARK minimizedRMSD -1
REMARK  1 active torsions:
REMARK  status: ('A' for Active; 'I' for Inactive)
REMARK    1  A    between atoms: C1_2  and  C2_3 
ROOT
ATOM      1  C2  UNL d   1       2.631  -0.832   1.970  0.00  0.00    -0.077 A 
ATOM      2  C3  UNL d   1       2.509  -0.057   3.132  0.00  0.00     0.002 A 
ATOM      3  C4  UNL d   1       2.473   1.337   3.051  0.00  0.00     0.002 A 
ATOM      4  C5  UNL d   1       2.554   1.967   1.811  0.00  0.00    -0.004 A 
ATOM      5  C6  UNL d   1       2.677   1.205   0.650  0.00  0.00     0.002 A 
ATOM      6  C7  UNL d   1       2.714  -0.188   0.729  0.00  0.00     0.002 A 
ENDROOT
BRANCH   1   7
ATOM      7  C1  UNL d   1       2.621  -2.336   2.052  0.00  0.00     0.055 C 
ATOM      8  C   UNL d   1       1.367  -2.916   1.413  0.00  0.00     0.019 C 
ENDBRANCH   1   7
TORSDOF 1
ENDMDL
