MODEL 1
REMARK minimizedAffinity -5.81580496
REMARK minimizedRMSD -1
REMARK  1 active torsions:
REMARK  status: ('A' for Active; 'I' for Inactive)
REMARK    1  A    between atoms: C1_2  and  C2_3 
ROOT
ATOM      1  C2  UNL d   1      -0.600   4.595   1.537  0.00  0.00    -0.081 A 
ATOM      2  C3  UNL d   1      -0.432   3.375   0.869  0.00  0.00     0.006 A 
ATOM      3  C4  UNL d   1       0.831   2.785   0.780  0.00  0.00     0.002 A 
ATOM      4  C5  UNL d   1       1.945   3.399   1.363  0.00  0.00    -0.080 A 
ATOM      5  C6  UNL d   1       3.300   2.760   1.301  0.00  0.00     0.076 C 
ATOM      6  C7  UNL d   1       1.780   4.625   2.015  0.00  0.00     0.002 A 
ATOM      7  C8  UNL d   1       0.518   5.217   2.104  0.00  0.00     0.006 A 
ENDROOT
BRANCH   1   8
ATOM      8  C1  UNL d   1      -1.971   5.202   1.690  0.00  0.00     0.054 C 
ATOM      9  C   UNL d   1      -2.535   5.641   0.347  0.00  0.00     0.018 C 
ENDBRANCH   1   8
TORSDOF 1
ENDMDL
