MODEL 1
REMARK minimizedAffinity -4.23072767
REMARK minimizedRMSD -1
REMARK  1 active torsions:
REMARK  status: ('A' for Active; 'I' for Inactive)
REMARK    1  A    between atoms: C1_2  and  C2_3 
ROOT
ATOM      1  C2  UNL d   1       0.624   1.808  -0.060  0.00  0.00    -0.081 A 
ATOM      2  C3  UNL d   1       0.791   0.967   1.047  0.00  0.00     0.006 A 
ATOM      3  C4  UNL d   1       0.311  -0.344   1.019  0.00  0.00     0.002 A 
ATOM      4  C5  UNL d   1      -0.337  -0.838  -0.118  0.00  0.00    -0.080 A 
ATOM      5  C6  UNL d   1      -0.831  -2.254  -0.172  0.00  0.00     0.076 C 
ATOM      6  C7  UNL d   1      -0.520   0.007  -1.217  0.00  0.00     0.002 A 
ATOM      7  C8  UNL d   1      -0.040   1.319  -1.189  0.00  0.00     0.006 A 
ENDROOT
BRANCH   1   8
ATOM      8  C1  UNL d   1       1.198   3.202  -0.057  0.00  0.00     0.054 C 
ATOM      9  C   UNL d   1       2.333   3.331   0.949  0.00  0.00     0.018 C 
ENDBRANCH   1   8
TORSDOF 1
ENDMDL
