MODEL 1
REMARK minimizedAffinity -2.33346105
REMARK minimizedRMSD -1
REMARK  1 active torsions:
REMARK  status: ('A' for Active; 'I' for Inactive)
REMARK    1  A    between atoms: C1_2  and  C2_3 
ROOT
ATOM      1  C2  UNL d   1      -0.358   4.410   1.681  0.00  0.00    -0.081 A 
ATOM      2  C3  UNL d   1       0.649   4.866   2.541  0.00  0.00     0.006 A 
ATOM      3  C4  UNL d   1       1.979   4.490   2.336  0.00  0.00     0.002 A 
ATOM      4  C5  UNL d   1       2.325   3.660   1.264  0.00  0.00    -0.080 A 
ATOM      5  C6  UNL d   1       3.752   3.274   1.015  0.00  0.00     0.076 C 
ATOM      6  C7  UNL d   1       1.316   3.190   0.415  0.00  0.00     0.002 A 
ATOM      7  C8  UNL d   1      -0.013   3.565   0.620  0.00  0.00     0.006 A 
ENDROOT
BRANCH   1   8
ATOM      8  C1  UNL d   1      -1.784   4.866   1.861  0.00  0.00     0.054 C 
ATOM      9  C   UNL d   1      -2.240   5.729   0.694  0.00  0.00     0.018 C 
ENDBRANCH   1   8
TORSDOF 1
ENDMDL
