MODEL 1
REMARK minimizedAffinity -4.78195667
REMARK minimizedRMSD -1
REMARK  1 active torsions:
REMARK  status: ('A' for Active; 'I' for Inactive)
REMARK    1  A    between atoms: C1_2  and  C2_3 
ROOT
ATOM      1  C2  UNL d   1      -0.463   1.878  -0.023  0.00  0.00    -0.081 A 
ATOM      2  C3  UNL d   1      -1.248   1.240   0.945  0.00  0.00     0.006 A 
ATOM      3  C4  UNL d   1      -1.419  -0.146   0.917  0.00  0.00     0.002 A 
ATOM      4  C5  UNL d   1      -0.803  -0.917  -0.075  0.00  0.00    -0.080 A 
ATOM      5  C6  UNL d   1      -0.954  -2.409  -0.099  0.00  0.00     0.076 C 
ATOM      6  C7  UNL d   1      -0.034  -0.278  -1.052  0.00  0.00     0.002 A 
ATOM      7  C8  UNL d   1       0.137   1.108  -1.025  0.00  0.00     0.006 A 
ENDROOT
BRANCH   1   8
ATOM      8  C1  UNL d   1      -0.224   3.365   0.043  0.00  0.00     0.054 C 
ATOM      9  C   UNL d   1      -1.324   4.068   0.825  0.00  0.00     0.018 C 
ENDBRANCH   1   8
TORSDOF 1
ENDMDL
