MODEL 1
REMARK minimizedAffinity -4.32329941
REMARK minimizedRMSD -1
REMARK  1 active torsions:
REMARK  status: ('A' for Active; 'I' for Inactive)
REMARK    1  A    between atoms: C1_2  and  C2_3 
ROOT
ATOM      1  C2  UNL d   1      -0.594   0.975  -0.205  0.00  0.00    -0.081 A 
ATOM      2  C3  UNL d   1      -1.267   0.478   0.917  0.00  0.00     0.006 A 
ATOM      3  C4  UNL d   1      -1.293  -0.894   1.178  0.00  0.00     0.002 A 
ATOM      4  C5  UNL d   1      -0.640  -1.791   0.326  0.00  0.00    -0.080 A 
ATOM      5  C6  UNL d   1      -0.634  -3.264   0.611  0.00  0.00     0.076 C 
ATOM      6  C7  UNL d   1       0.019  -1.296  -0.805  0.00  0.00     0.002 A 
ATOM      7  C8  UNL d   1       0.044   0.075  -1.067  0.00  0.00     0.006 A 
ENDROOT
BRANCH   1   8
ATOM      8  C1  UNL d   1      -0.509   2.459  -0.454  0.00  0.00     0.054 C 
ATOM      9  C   UNL d   1      -0.994   3.250   0.752  0.00  0.00     0.018 C 
ENDBRANCH   1   8
TORSDOF 1
ENDMDL
