MODEL 1
REMARK minimizedAffinity -4.3889451
REMARK minimizedRMSD -1
REMARK  1 active torsions:
REMARK  status: ('A' for Active; 'I' for Inactive)
REMARK    1  A    between atoms: C1_2  and  C2_3 
ROOT
ATOM      1  C2  UNL d   1       2.024   3.658   1.409  0.00  0.00    -0.081 A 
ATOM      2  C3  UNL d   1       1.180   3.233   0.376  0.00  0.00     0.006 A 
ATOM      3  C4  UNL d   1      -0.061   3.843   0.179  0.00  0.00     0.002 A 
ATOM      4  C5  UNL d   1      -0.475   4.892   1.006  0.00  0.00    -0.080 A 
ATOM      5  C6  UNL d   1      -1.792   5.576   0.787  0.00  0.00     0.076 C 
ATOM      6  C7  UNL d   1       0.360   5.305   2.050  0.00  0.00     0.002 A 
ATOM      7  C8  UNL d   1       1.601   4.695   2.247  0.00  0.00     0.006 A 
ENDROOT
BRANCH   1   8
ATOM      8  C1  UNL d   1       3.390   3.045   1.584  0.00  0.00     0.054 C 
ATOM      9  C   UNL d   1       3.297   1.547   1.836  0.00  0.00     0.018 C 
ENDBRANCH   1   8
TORSDOF 1
ENDMDL
