MODEL 1
REMARK minimizedAffinity -5.65685081
REMARK minimizedRMSD -1
REMARK  1 active torsions:
REMARK  status: ('A' for Active; 'I' for Inactive)
REMARK    1  A    between atoms: C1_2  and  C2_3 
ROOT
ATOM      1  C2  UNL d   1      -0.510   3.045   0.615  0.00  0.00    -0.081 A 
ATOM      2  C3  UNL d   1      -1.463   2.030   0.764  0.00  0.00     0.006 A 
ATOM      3  C4  UNL d   1      -1.349   0.840   0.043  0.00  0.00     0.002 A 
ATOM      4  C5  UNL d   1      -0.277   0.640  -0.833  0.00  0.00    -0.080 A 
ATOM      5  C6  UNL d   1      -0.126  -0.646  -1.590  0.00  0.00     0.076 C 
ATOM      6  C7  UNL d   1       0.666   1.661  -0.995  0.00  0.00     0.002 A 
ATOM      7  C8  UNL d   1       0.552   2.852  -0.275  0.00  0.00     0.006 A 
ENDROOT
BRANCH   1   8
ATOM      8  C1  UNL d   1      -0.595   4.304   1.440  0.00  0.00     0.054 C 
ATOM      9  C   UNL d   1      -1.794   5.150   1.036  0.00  0.00     0.018 C 
ENDBRANCH   1   8
TORSDOF 1
ENDMDL
