MODEL 1
REMARK minimizedAffinity -2.60803056
REMARK minimizedRMSD -1
REMARK  1 active torsions:
REMARK  status: ('A' for Active; 'I' for Inactive)
REMARK    1  A    between atoms: C1_2  and  C2_3 
ROOT
ATOM      1  C2  UNL d   1      -1.229   2.806   0.317  0.00  0.00    -0.081 A 
ATOM      2  C3  UNL d   1      -0.013   2.945  -0.365  0.00  0.00     0.006 A 
ATOM      3  C4  UNL d   1       0.554   1.854  -1.028  0.00  0.00     0.002 A 
ATOM      4  C5  UNL d   1      -0.087   0.611  -1.028  0.00  0.00    -0.080 A 
ATOM      5  C6  UNL d   1       0.496  -0.560  -1.762  0.00  0.00     0.076 C 
ATOM      6  C7  UNL d   1      -1.293   0.468  -0.332  0.00  0.00     0.002 A 
ATOM      7  C8  UNL d   1      -1.860   1.558   0.332  0.00  0.00     0.006 A 
ENDROOT
BRANCH   1   8
ATOM      8  C1  UNL d   1      -1.875   3.996   0.979  0.00  0.00     0.054 C 
ATOM      9  C   UNL d   1      -0.835   5.008   1.438  0.00  0.00     0.018 C 
ENDBRANCH   1   8
TORSDOF 1
ENDMDL
