MODEL 1
REMARK minimizedAffinity 0.283935606
REMARK minimizedRMSD -1
REMARK  1 active torsions:
REMARK  status: ('A' for Active; 'I' for Inactive)
REMARK    1  A    between atoms: C1_2  and  C2_3 
ROOT
ATOM      1  C2  UNL d   1      -0.928   1.846   0.116  0.00  0.00    -0.081 A 
ATOM      2  C3  UNL d   1      -0.950   0.629   0.808  0.00  0.00     0.006 A 
ATOM      3  C4  UNL d   1      -0.503  -0.543   0.192  0.00  0.00     0.002 A 
ATOM      4  C5  UNL d   1      -0.020  -0.516  -1.120  0.00  0.00    -0.080 A 
ATOM      5  C6  UNL d   1       0.491  -1.762  -1.782  0.00  0.00     0.076 C 
ATOM      6  C7  UNL d   1      -0.014   0.697  -1.817  0.00  0.00     0.002 A 
ATOM      7  C8  UNL d   1      -0.461   1.869  -1.203  0.00  0.00     0.006 A 
ENDROOT
BRANCH   1   8
ATOM      8  C1  UNL d   1      -1.348   3.123   0.799  0.00  0.00     0.054 C 
ATOM      9  C   UNL d   1      -0.141   3.955   1.208  0.00  0.00     0.018 C 
ENDBRANCH   1   8
TORSDOF 1
ENDMDL
