MODEL 1
REMARK minimizedAffinity -5.49288511
REMARK minimizedRMSD -1
REMARK  1 active torsions:
REMARK  status: ('A' for Active; 'I' for Inactive)
REMARK    1  A    between atoms: C1_2  and  C2_3 
ROOT
ATOM      1  C2  UNL d   1      -0.080   0.914  -1.074  0.00  0.00    -0.081 A 
ATOM      2  C3  UNL d   1      -0.775   0.817   0.138  0.00  0.00     0.006 A 
ATOM      3  C4  UNL d   1      -1.200  -0.426   0.612  0.00  0.00     0.002 A 
ATOM      4  C5  UNL d   1      -0.932  -1.592  -0.112  0.00  0.00    -0.080 A 
ATOM      5  C6  UNL d   1      -1.357  -2.936   0.401  0.00  0.00     0.076 C 
ATOM      6  C7  UNL d   1      -0.253  -1.494  -1.332  0.00  0.00     0.002 A 
ATOM      7  C8  UNL d   1       0.172  -0.251  -1.807  0.00  0.00     0.006 A 
ENDROOT
BRANCH   1   8
ATOM      8  C1  UNL d   1       0.436   2.245  -1.557  0.00  0.00     0.054 C 
ATOM      9  C   UNL d   1       1.054   3.045  -0.418  0.00  0.00     0.018 C 
ENDBRANCH   1   8
TORSDOF 1
ENDMDL
