MODEL 1
REMARK minimizedAffinity -2.37379384
REMARK minimizedRMSD -1
REMARK  1 active torsions:
REMARK  status: ('A' for Active; 'I' for Inactive)
REMARK    1  A    between atoms: C1_2  and  C2_3 
ROOT
ATOM      1  C2  UNL d   1      -0.447   0.824  -0.737  0.00  0.00    -0.081 A 
ATOM      2  C3  UNL d   1      -1.244   0.702   0.408  0.00  0.00     0.006 A 
ATOM      3  C4  UNL d   1      -1.512  -0.556   0.953  0.00  0.00     0.002 A 
ATOM      4  C5  UNL d   1      -0.982  -1.711   0.368  0.00  0.00    -0.080 A 
ATOM      5  C6  UNL d   1      -1.237  -3.065   0.961  0.00  0.00     0.076 C 
ATOM      6  C7  UNL d   1      -0.200  -1.590  -0.785  0.00  0.00     0.002 A 
ATOM      7  C8  UNL d   1       0.068  -0.333  -1.332  0.00  0.00     0.006 A 
ENDROOT
BRANCH   1   8
ATOM      8  C1  UNL d   1      -0.103   2.184  -1.290  0.00  0.00     0.054 C 
ATOM      9  C   UNL d   1       0.469   3.091  -0.210  0.00  0.00     0.018 C 
ENDBRANCH   1   8
TORSDOF 1
ENDMDL
