MODEL 1
REMARK minimizedAffinity -3.53179479
REMARK minimizedRMSD -1
REMARK  1 active torsions:
REMARK  status: ('A' for Active; 'I' for Inactive)
REMARK    1  A    between atoms: C1_2  and  C2_3 
ROOT
ATOM      1  C2  UNL d   1       0.382   1.684   0.098  0.00  0.00    -0.081 A 
ATOM      2  C3  UNL d   1      -0.117   0.880  -0.934  0.00  0.00     0.006 A 
ATOM      3  C4  UNL d   1      -0.698  -0.358  -0.649  0.00  0.00     0.002 A 
ATOM      4  C5  UNL d   1      -0.796  -0.809   0.671  0.00  0.00    -0.080 A 
ATOM      5  C6  UNL d   1      -1.445  -2.123   0.993  0.00  0.00     0.076 C 
ATOM      6  C7  UNL d   1      -0.282  -0.014   1.701  0.00  0.00     0.002 A 
ATOM      7  C8  UNL d   1       0.300   1.224   1.416  0.00  0.00     0.006 A 
ENDROOT
BRANCH   1   8
ATOM      8  C1  UNL d   1       0.951   3.048  -0.200  0.00  0.00     0.054 C 
ATOM      9  C   UNL d   1       1.621   3.648   1.027  0.00  0.00     0.018 C 
ENDBRANCH   1   8
TORSDOF 1
ENDMDL
