MODEL 1
REMARK minimizedAffinity 1.17961061
REMARK minimizedRMSD -1
REMARK  0 active torsions:
REMARK  status: ('A' for Active; 'I' for Inactive)
ROOT
ATOM      1  C1  BNZ d   1       0.038   3.722  -1.195  0.00  0.00     0.000 A 
ATOM      2  C2  BNZ d   1      -1.296   3.421  -1.110  0.00  0.00     0.000 A 
ATOM      3  C3  BNZ d   1      -2.218   4.116  -1.841  0.00  0.00     0.000 A 
ATOM      4  C4  BNZ d   1      -1.812   5.136  -2.624  0.00  0.00     0.000 A 
ATOM      5  C5  BNZ d   1      -0.472   5.458  -2.713  0.00  0.00     0.000 A 
ATOM      6  C6  BNZ d   1       0.458   4.731  -2.006  0.00  0.00     0.000 A 
ENDROOT
TORSDOF 0
ENDMDL
