MODEL 1
REMARK minimizedAffinity -0.838746846
REMARK minimizedRMSD -1
REMARK  0 active torsions:
REMARK  status: ('A' for Active; 'I' for Inactive)
ROOT
ATOM      1  C1  BNZ d   1      -5.998   2.475  -3.000  0.00  0.00     0.000 A 
ATOM      2  C2  BNZ d   1      -6.000   3.024  -4.255  0.00  0.00     0.000 A 
ATOM      3  C3  BNZ d   1      -4.925   3.735  -4.710  0.00  0.00     0.000 A 
ATOM      4  C4  BNZ d   1      -3.867   3.930  -3.897  0.00  0.00     0.000 A 
ATOM      5  C5  BNZ d   1      -3.853   3.392  -2.626  0.00  0.00     0.000 A 
ATOM      6  C6  BNZ d   1      -4.921   2.644  -2.185  0.00  0.00     0.000 A 
ENDROOT
TORSDOF 0
ENDMDL
