MODEL 1
REMARK minimizedAffinity -0.0512500405
REMARK minimizedRMSD -1
REMARK  0 active torsions:
REMARK  status: ('A' for Active; 'I' for Inactive)
ROOT
ATOM      1  C1  BNZ d   1      -0.959   3.225   2.170  0.00  0.00     0.000 A 
ATOM      2  C2  BNZ d   1      -1.104   4.342   1.391  0.00  0.00     0.000 A 
ATOM      3  C3  BNZ d   1      -0.072   4.793   0.615  0.00  0.00     0.000 A 
ATOM      4  C4  BNZ d   1       1.113   4.151   0.651  0.00  0.00     0.000 A 
ATOM      5  C5  BNZ d   1       1.278   3.030   1.439  0.00  0.00     0.000 A 
ATOM      6  C6  BNZ d   1       0.226   2.556   2.188  0.00  0.00     0.000 A 
ENDROOT
TORSDOF 0
ENDMDL
