MODEL 1
REMARK minimizedAffinity -2.51588011
REMARK minimizedRMSD -1
REMARK  0 active torsions:
REMARK  status: ('A' for Active; 'I' for Inactive)
ROOT
ATOM      1  C1  BNZ d   1      -4.953   2.624  -2.629  0.00  0.00     0.000 A 
ATOM      2  C2  BNZ d   1      -6.000   3.396  -3.059  0.00  0.00     0.000 A 
ATOM      3  C3  BNZ d   1      -5.999   3.940  -4.313  0.00  0.00     0.000 A 
ATOM      4  C4  BNZ d   1      -4.935   3.747  -5.119  0.00  0.00     0.000 A 
ATOM      5  C5  BNZ d   1      -3.868   2.980  -4.696  0.00  0.00     0.000 A 
ATOM      6  C6  BNZ d   1      -3.890   2.401  -3.448  0.00  0.00     0.000 A 
ENDROOT
TORSDOF 0
ENDMDL
