MODEL 1
REMARK minimizedAffinity 3.85789824
REMARK minimizedRMSD -1
REMARK  0 active torsions:
REMARK  status: ('A' for Active; 'I' for Inactive)
ROOT
ATOM      1  C1  BNZ d   1      -0.717  -3.764  -2.355  0.00  0.00     0.000 A 
ATOM      2  C2  BNZ d   1      -0.648  -2.397  -2.366  0.00  0.00     0.000 A 
ATOM      3  C3  BNZ d   1       0.273  -1.736  -1.603  0.00  0.00     0.000 A 
ATOM      4  C4  BNZ d   1       1.096  -2.441  -0.799  0.00  0.00     0.000 A 
ATOM      5  C5  BNZ d   1       1.032  -3.819  -0.770  0.00  0.00     0.000 A 
ATOM      6  C6  BNZ d   1       0.130  -4.483  -1.569  0.00  0.00     0.000 A 
ENDROOT
TORSDOF 0
ENDMDL
