MODEL 1
REMARK minimizedAffinity -1.4690237
REMARK minimizedRMSD -1
REMARK  0 active torsions:
REMARK  status: ('A' for Active; 'I' for Inactive)
ROOT
ATOM      1  C1  BNZ d   1      -0.846   6.000   0.756  0.00  0.00     0.000 A 
ATOM      2  C2  BNZ d   1      -0.972   4.856   1.498  0.00  0.00     0.000 A 
ATOM      3  C3  BNZ d   1      -0.338   3.704   1.121  0.00  0.00     0.000 A 
ATOM      4  C4  BNZ d   1       0.386   3.688  -0.017  0.00  0.00     0.000 A 
ATOM      5  C5  BNZ d   1       0.515   4.831  -0.780  0.00  0.00     0.000 A 
ATOM      6  C6  BNZ d   1      -0.093   5.998  -0.377  0.00  0.00     0.000 A 
ENDROOT
TORSDOF 0
ENDMDL
