MODEL 1
REMARK minimizedAffinity -3.82429338
REMARK minimizedRMSD -1
REMARK  0 active torsions:
REMARK  status: ('A' for Active; 'I' for Inactive)
ROOT
ATOM      1  C2' OXE d   1       0.279   1.160   3.461  0.00  0.00     0.078 C 
ATOM      2  C1' OXE d   1      -1.400  -0.518   1.962  0.00  0.00     0.078 C 
ATOM      3  C1  OXE d   1      -0.400   0.328   1.213  0.00  0.00    -0.078 A 
ATOM      4  C2  OXE d   1       0.386   1.180   1.951  0.00  0.00    -0.078 A 
ATOM      5  C3  OXE d   1       1.362   1.942   1.315  0.00  0.00     0.003 A 
ATOM      6  C4  OXE d   1       1.447   1.962  -0.082  0.00  0.00    -0.002 A 
ATOM      7  C5  OXE d   1       0.630   1.131  -0.855  0.00  0.00    -0.002 A 
ATOM      8  C6  OXE d   1      -0.268   0.278  -0.222  0.00  0.00     0.003 A 
ENDROOT
TORSDOF 0
ENDMDL
