MODEL 1
REMARK minimizedAffinity -5.90097523
REMARK minimizedRMSD -1
REMARK  0 active torsions:
REMARK  status: ('A' for Active; 'I' for Inactive)
ROOT
ATOM      1  C2' OXE d   1       0.699  -1.090  -0.772  0.00  0.00     0.078 C 
ATOM      2  C1' OXE d   1      -0.965   0.116   1.141  0.00  0.00     0.078 C 
ATOM      3  C1  OXE d   1       0.378   0.750   0.877  0.00  0.00    -0.078 A 
ATOM      4  C2  OXE d   1       1.205   0.127  -0.027  0.00  0.00    -0.078 A 
ATOM      5  C3  OXE d   1       2.432   0.700  -0.348  0.00  0.00     0.003 A 
ATOM      6  C4  OXE d   1       2.896   1.820   0.353  0.00  0.00    -0.002 A 
ATOM      7  C5  OXE d   1       2.087   2.447   1.305  0.00  0.00    -0.002 A 
ATOM      8  C6  OXE d   1       0.811   1.951   1.548  0.00  0.00     0.003 A 
ENDROOT
TORSDOF 0
ENDMDL
