MODEL 1
REMARK minimizedAffinity -0.192388102
REMARK minimizedRMSD -1
REMARK  0 active torsions:
REMARK  status: ('A' for Active; 'I' for Inactive)
ROOT
ATOM      1  C2' OXE d   1      -1.032  -0.270  -3.720  0.00  0.00     0.078 C 
ATOM      2  C1' OXE d   1      -0.576  -0.916  -1.027  0.00  0.00     0.078 C 
ATOM      3  C1  OXE d   1      -1.856  -1.401  -1.659  0.00  0.00    -0.078 A 
ATOM      4  C2  OXE d   1      -2.093  -1.040  -2.964  0.00  0.00    -0.078 A 
ATOM      5  C3  OXE d   1      -3.233  -1.507  -3.612  0.00  0.00     0.003 A 
ATOM      6  C4  OXE d   1      -4.214  -2.210  -2.902  0.00  0.00    -0.002 A 
ATOM      7  C5  OXE d   1      -4.011  -2.554  -1.561  0.00  0.00    -0.002 A 
ATOM      8  C6  OXE d   1      -2.821  -2.194  -0.938  0.00  0.00     0.003 A 
ENDROOT
TORSDOF 0
ENDMDL
