MODEL 1
REMARK minimizedAffinity -1.80984378
REMARK minimizedRMSD -1
REMARK  0 active torsions:
REMARK  status: ('A' for Active; 'I' for Inactive)
ROOT
ATOM      1  C2' OXE d   1      -1.117  -0.423   1.962  0.00  0.00     0.078 C 
ATOM      2  C1' OXE d   1       0.078  -1.007  -0.511  0.00  0.00     0.078 C 
ATOM      3  C1  OXE d   1       0.362   0.339   0.108  0.00  0.00    -0.078 A 
ATOM      4  C2  OXE d   1      -0.264   0.634   1.295  0.00  0.00    -0.078 A 
ATOM      5  C3  OXE d   1       0.006   1.840   1.935  0.00  0.00     0.003 A 
ATOM      6  C4  OXE d   1       0.788   2.817   1.307  0.00  0.00    -0.002 A 
ATOM      7  C5  OXE d   1       1.402   2.552   0.078  0.00  0.00    -0.002 A 
ATOM      8  C6  OXE d   1       1.234   1.305  -0.513  0.00  0.00     0.003 A 
ENDROOT
TORSDOF 0
ENDMDL
