MODEL 1
REMARK minimizedAffinity -0.953000903
REMARK minimizedRMSD -1
REMARK  0 active torsions:
REMARK  status: ('A' for Active; 'I' for Inactive)
ROOT
ATOM      1  C2' OXE d   1       0.662   2.533   1.135  0.00  0.00     0.078 C 
ATOM      2  C1' OXE d   1      -1.422   0.992   2.214  0.00  0.00     0.078 C 
ATOM      3  C1  OXE d   1      -0.563   0.363   1.145  0.00  0.00    -0.078 A 
ATOM      4  C2  OXE d   1       0.425   1.140   0.590  0.00  0.00    -0.078 A 
ATOM      5  C3  OXE d   1       1.281   0.592  -0.361  0.00  0.00     0.003 A 
ATOM      6  C4  OXE d   1       1.049  -0.693  -0.867  0.00  0.00    -0.002 A 
ATOM      7  C5  OXE d   1       0.023  -1.487  -0.343  0.00  0.00    -0.002 A 
ATOM      8  C6  OXE d   1      -0.763  -0.991   0.691  0.00  0.00     0.003 A 
ENDROOT
TORSDOF 0
ENDMDL
