MODEL 1
REMARK minimizedAffinity -2.76317978
REMARK minimizedRMSD -1
REMARK  0 active torsions:
REMARK  status: ('A' for Active; 'I' for Inactive)
ROOT
ATOM      1  C2' OXE d   1       2.611   1.913   1.921  0.00  0.00     0.078 C 
ATOM      2  C1' OXE d   1       2.763   0.261  -0.343  0.00  0.00     0.078 C 
ATOM      3  C1  OXE d   1       1.401   0.510   0.256  0.00  0.00    -0.078 A 
ATOM      4  C2  OXE d   1       1.342   1.281   1.391  0.00  0.00    -0.078 A 
ATOM      5  C3  OXE d   1       0.105   1.587   1.953  0.00  0.00     0.003 A 
ATOM      6  C4  OXE d   1      -1.063   0.991   1.463  0.00  0.00    -0.002 A 
ATOM      7  C5  OXE d   1      -1.020   0.170   0.331  0.00  0.00    -0.002 A 
ATOM      8  C6  OXE d   1       0.196  -0.046  -0.308  0.00  0.00     0.003 A 
ENDROOT
TORSDOF 0
ENDMDL
