MODEL 1
REMARK minimizedAffinity -3.15024877
REMARK minimizedRMSD -1
REMARK  0 active torsions:
REMARK  status: ('A' for Active; 'I' for Inactive)
ROOT
ATOM      1  C2' OXE d   1      -0.701  -0.873  -0.667  0.00  0.00     0.078 C 
ATOM      2  C1' OXE d   1      -1.308  -0.607   2.061  0.00  0.00     0.078 C 
ATOM      3  C1  OXE d   1      -0.472   0.471   1.418  0.00  0.00    -0.078 A 
ATOM      4  C2  OXE d   1      -0.140   0.309   0.094  0.00  0.00    -0.078 A 
ATOM      5  C3  OXE d   1       0.584   1.301  -0.561  0.00  0.00     0.003 A 
ATOM      6  C4  OXE d   1       1.107   2.386   0.153  0.00  0.00    -0.002 A 
ATOM      7  C5  OXE d   1       0.814   2.549   1.511  0.00  0.00    -0.002 A 
ATOM      8  C6  OXE d   1      -0.007   1.625   2.147  0.00  0.00     0.003 A 
ENDROOT
TORSDOF 0
ENDMDL
