MODEL 1
REMARK minimizedAffinity -2.23813653
REMARK minimizedRMSD -1
REMARK  0 active torsions:
REMARK  status: ('A' for Active; 'I' for Inactive)
ROOT
ATOM      1  C2' OXE d   1      -0.546  -1.562  -3.827  0.00  0.00     0.078 C 
ATOM      2  C1' OXE d   1      -0.046  -2.560  -1.251  0.00  0.00     0.078 C 
ATOM      3  C1  OXE d   1      -1.446  -2.690  -1.797  0.00  0.00    -0.078 A 
ATOM      4  C2  OXE d   1      -1.693  -2.158  -3.039  0.00  0.00    -0.078 A 
ATOM      5  C3  OXE d   1      -2.954  -2.299  -3.612  0.00  0.00     0.003 A 
ATOM      6  C4  OXE d   1      -4.011  -2.842  -2.872  0.00  0.00    -0.002 A 
ATOM      7  C5  OXE d   1      -3.791  -3.355  -1.590  0.00  0.00    -0.002 A 
ATOM      8  C6  OXE d   1      -2.508  -3.326  -1.055  0.00  0.00     0.003 A 
ENDROOT
TORSDOF 0
ENDMDL
