MODEL 1
REMARK minimizedAffinity -3.41499376
REMARK minimizedRMSD -1
REMARK  0 active torsions:
REMARK  status: ('A' for Active; 'I' for Inactive)
ROOT
ATOM      1  C2' OXE d   1      -0.670  -0.640   2.521  0.00  0.00     0.078 C 
ATOM      2  C1' OXE d   1      -0.295  -0.980  -0.241  0.00  0.00     0.078 C 
ATOM      3  C1  OXE d   1       0.229   0.286   0.390  0.00  0.00    -0.078 A 
ATOM      4  C2  OXE d   1       0.001   0.465   1.733  0.00  0.00    -0.078 A 
ATOM      5  C3  OXE d   1       0.511   1.589   2.376  0.00  0.00     0.003 A 
ATOM      6  C4  OXE d   1       1.121   2.611   1.638  0.00  0.00    -0.002 A 
ATOM      7  C5  OXE d   1       1.329   2.467   0.262  0.00  0.00    -0.002 A 
ATOM      8  C6  OXE d   1       0.928   1.294  -0.368  0.00  0.00     0.003 A 
ENDROOT
TORSDOF 0
ENDMDL
