MODEL 1
REMARK minimizedAffinity -2.40415621
REMARK minimizedRMSD -1
REMARK  0 active torsions:
REMARK  status: ('A' for Active; 'I' for Inactive)
ROOT
ATOM      1  C2' OXE d   1       1.364   1.614   1.961  0.00  0.00     0.078 C 
ATOM      2  C1' OXE d   1       2.518   0.586  -0.382  0.00  0.00     0.078 C 
ATOM      3  C1  OXE d   1       1.120   0.141  -0.033  0.00  0.00    -0.078 A 
ATOM      4  C2  OXE d   1       0.581   0.612   1.140  0.00  0.00    -0.078 A 
ATOM      5  C3  OXE d   1      -0.725   0.276   1.482  0.00  0.00     0.003 A 
ATOM      6  C4  OXE d   1      -1.439  -0.659   0.722  0.00  0.00    -0.002 A 
ATOM      7  C5  OXE d   1      -0.893  -1.182  -0.455  0.00  0.00    -0.002 A 
ATOM      8  C6  OXE d   1       0.366  -0.761  -0.868  0.00  0.00     0.003 A 
ENDROOT
TORSDOF 0
ENDMDL
