MODEL 1
REMARK minimizedAffinity -2.42826962
REMARK minimizedRMSD -1
REMARK  0 active torsions:
REMARK  status: ('A' for Active; 'I' for Inactive)
ROOT
ATOM      1  C2' OXE d   1       1.190   0.143  -0.540  0.00  0.00     0.078 C 
ATOM      2  C1' OXE d   1      -0.667  -1.244   1.043  0.00  0.00     0.078 C 
ATOM      3  C1  OXE d   1      -0.942  -1.140  -0.436  0.00  0.00    -0.078 A 
ATOM      4  C2  OXE d   1      -0.052  -0.420  -1.196  0.00  0.00    -0.078 A 
ATOM      5  C3  OXE d   1      -0.230  -0.339  -2.574  0.00  0.00     0.003 A 
ATOM      6  C4  OXE d   1      -1.387  -0.854  -3.171  0.00  0.00    -0.002 A 
ATOM      7  C5  OXE d   1      -2.326  -1.557  -2.409  0.00  0.00    -0.002 A 
ATOM      8  C6  OXE d   1      -2.098  -1.746  -1.051  0.00  0.00     0.003 A 
ENDROOT
TORSDOF 0
ENDMDL
