MODEL 1
REMARK minimizedAffinity 4.40688705
REMARK minimizedRMSD -1
REMARK  0 active torsions:
REMARK  status: ('A' for Active; 'I' for Inactive)
ROOT
ATOM      1  C2' OXE d   1      -1.036  -0.775   0.408  0.00  0.00     0.078 C 
ATOM      2  C1' OXE d   1       0.460  -0.186  -1.893  0.00  0.00     0.078 C 
ATOM      3  C1  OXE d   1      -0.942  -0.709  -2.081  0.00  0.00    -0.078 A 
ATOM      4  C2  OXE d   1      -1.650  -1.039  -0.950  0.00  0.00    -0.078 A 
ATOM      5  C3  OXE d   1      -2.967  -1.475  -1.065  0.00  0.00     0.003 A 
ATOM      6  C4  OXE d   1      -3.524  -1.725  -2.325  0.00  0.00    -0.002 A 
ATOM      7  C5  OXE d   1      -2.806  -1.434  -3.489  0.00  0.00    -0.002 A 
ATOM      8  C6  OXE d   1      -1.532  -0.886  -3.385  0.00  0.00     0.003 A 
ENDROOT
TORSDOF 0
ENDMDL
