MODEL 1
REMARK minimizedAffinity -2.95204592
REMARK minimizedRMSD -1
REMARK  0 active torsions:
REMARK  status: ('A' for Active; 'I' for Inactive)
ROOT
ATOM      1  C2' OXE d   1      -1.412  -0.099   2.178  0.00  0.00     0.078 C 
ATOM      2  C1' OXE d   1       0.455   1.993   2.311  0.00  0.00     0.078 C 
ATOM      3  C1  OXE d   1       0.523   1.064   1.125  0.00  0.00    -0.078 A 
ATOM      4  C2  OXE d   1      -0.365   0.016   1.092  0.00  0.00    -0.078 A 
ATOM      5  C3  OXE d   1      -0.382  -0.839  -0.007  0.00  0.00     0.003 A 
ATOM      6  C4  OXE d   1       0.597  -0.732  -1.003  0.00  0.00    -0.002 A 
ATOM      7  C5  OXE d   1       1.535   0.304  -0.968  0.00  0.00    -0.002 A 
ATOM      8  C6  OXE d   1       1.485   1.234   0.065  0.00  0.00     0.003 A 
ENDROOT
TORSDOF 0
ENDMDL
