MODEL 1
REMARK minimizedAffinity -0.604462385
REMARK minimizedRMSD -1
REMARK  0 active torsions:
REMARK  status: ('A' for Active; 'I' for Inactive)
ROOT
ATOM      1  C2' OXE d   1      -3.869  -2.903  -1.538  0.00  0.00     0.078 C 
ATOM      2  C1' OXE d   1      -3.390  -1.448  -3.890  0.00  0.00     0.078 C 
ATOM      3  C1  OXE d   1      -2.329  -1.422  -2.819  0.00  0.00    -0.078 A 
ATOM      4  C2  OXE d   1      -2.592  -2.099  -1.652  0.00  0.00    -0.078 A 
ATOM      5  C3  OXE d   1      -1.625  -2.152  -0.653  0.00  0.00     0.003 A 
ATOM      6  C4  OXE d   1      -0.451  -1.397  -0.762  0.00  0.00    -0.002 A 
ATOM      7  C5  OXE d   1      -0.181  -0.669  -1.926  0.00  0.00    -0.002 A 
ATOM      8  C6  OXE d   1      -1.088  -0.705  -2.978  0.00  0.00     0.003 A 
ENDROOT
TORSDOF 0
ENDMDL
