MODEL 1
REMARK minimizedAffinity -4.50059795
REMARK minimizedRMSD -1
REMARK  0 active torsions:
REMARK  status: ('A' for Active; 'I' for Inactive)
ROOT
ATOM      1  C2' OXE d   1      -0.842  -1.154  -0.365  0.00  0.00     0.078 C 
ATOM      2  C1' OXE d   1      -2.298   0.524   1.350  0.00  0.00     0.078 C 
ATOM      3  C1  OXE d   1      -0.843   0.845   1.121  0.00  0.00    -0.078 A 
ATOM      4  C2  OXE d   1      -0.126  -0.008   0.317  0.00  0.00    -0.078 A 
ATOM      5  C3  OXE d   1       1.206   0.273   0.028  0.00  0.00     0.003 A 
ATOM      6  C4  OXE d   1       1.864   1.329   0.670  0.00  0.00    -0.002 A 
ATOM      7  C5  OXE d   1       1.162   2.187   1.524  0.00  0.00    -0.002 A 
ATOM      8  C6  OXE d   1      -0.199   1.985   1.726  0.00  0.00     0.003 A 
ENDROOT
TORSDOF 0
ENDMDL
