MODEL 1
REMARK minimizedAffinity -2.30518961
REMARK minimizedRMSD -1
REMARK  0 active torsions:
REMARK  status: ('A' for Active; 'I' for Inactive)
ROOT
ATOM      1  C2' OXE d   1       0.866   1.624   2.161  0.00  0.00     0.078 C 
ATOM      2  C1' OXE d   1       2.323   1.448  -0.232  0.00  0.00     0.078 C 
ATOM      3  C1  OXE d   1       1.055   0.639  -0.119  0.00  0.00    -0.078 A 
ATOM      4  C2  OXE d   1       0.373   0.695   1.073  0.00  0.00    -0.078 A 
ATOM      5  C3  OXE d   1      -0.832   0.012   1.211  0.00  0.00     0.003 A 
ATOM      6  C4  OXE d   1      -1.275  -0.853   0.203  0.00  0.00    -0.002 A 
ATOM      7  C5  OXE d   1      -0.575  -0.955  -1.004  0.00  0.00    -0.002 A 
ATOM      8  C6  OXE d   1       0.567  -0.185  -1.197  0.00  0.00     0.003 A 
ENDROOT
TORSDOF 0
ENDMDL
