MODEL 1
REMARK minimizedAffinity -4.03465748
REMARK minimizedRMSD -1
REMARK  0 active torsions:
REMARK  status: ('A' for Active; 'I' for Inactive)
ROOT
ATOM      1  C2' OXE d   1      -3.790  -3.008  -3.887  0.00  0.00     0.078 C 
ATOM      2  C1' OXE d   1      -3.629  -3.988  -1.261  0.00  0.00     0.078 C 
ATOM      3  C1  OXE d   1      -2.653  -2.915  -1.672  0.00  0.00    -0.078 A 
ATOM      4  C2  OXE d   1      -2.708  -2.474  -2.973  0.00  0.00    -0.078 A 
ATOM      5  C3  OXE d   1      -1.866  -1.447  -3.389  0.00  0.00     0.003 A 
ATOM      6  C4  OXE d   1      -0.861  -0.966  -2.541  0.00  0.00    -0.002 A 
ATOM      7  C5  OXE d   1      -0.762  -1.429  -1.224  0.00  0.00    -0.002 A 
ATOM      8  C6  OXE d   1      -1.675  -2.371  -0.762  0.00  0.00     0.003 A 
ENDROOT
TORSDOF 0
ENDMDL
