MODEL 1
REMARK minimizedAffinity -5.84881973
REMARK minimizedRMSD -1
REMARK  0 active torsions:
REMARK  status: ('A' for Active; 'I' for Inactive)
ROOT
ATOM      1  C2' OXE d   1      -1.536   0.759   1.514  0.00  0.00     0.078 C 
ATOM      2  C1' OXE d   1      -0.157  -0.850  -0.327  0.00  0.00     0.078 C 
ATOM      3  C1  OXE d   1       0.577   0.326   0.267  0.00  0.00    -0.078 A 
ATOM      4  C2  OXE d   1      -0.121   1.135   1.131  0.00  0.00    -0.078 A 
ATOM      5  C3  OXE d   1       0.525   2.202   1.750  0.00  0.00     0.003 A 
ATOM      6  C4  OXE d   1       1.831   2.549   1.383  0.00  0.00    -0.002 A 
ATOM      7  C5  OXE d   1       2.546   1.762   0.474  0.00  0.00    -0.002 A 
ATOM      8  C6  OXE d   1       1.949   0.625  -0.059  0.00  0.00     0.003 A 
ENDROOT
TORSDOF 0
ENDMDL
