MODEL 1
REMARK minimizedAffinity -4.33874083
REMARK minimizedRMSD -1
REMARK  0 active torsions:
REMARK  status: ('A' for Active; 'I' for Inactive)
ROOT
ATOM      1  C2' OXE d   1      -1.020  -1.146  -0.654  0.00  0.00     0.078 C 
ATOM      2  C1' OXE d   1      -1.900   0.666   1.301  0.00  0.00     0.078 C 
ATOM      3  C1  OXE d   1      -0.425   0.630   0.988  0.00  0.00    -0.078 A 
ATOM      4  C2  OXE d   1       0.003  -0.292   0.064  0.00  0.00    -0.078 A 
ATOM      5  C3  OXE d   1       1.345  -0.330  -0.302  0.00  0.00     0.003 A 
ATOM      6  C4  OXE d   1       2.287   0.457   0.374  0.00  0.00    -0.002 A 
ATOM      7  C5  OXE d   1       1.877   1.374   1.347  0.00  0.00    -0.002 A 
ATOM      8  C6  OXE d   1       0.523   1.503   1.635  0.00  0.00     0.003 A 
ENDROOT
TORSDOF 0
ENDMDL
