MODEL 1
REMARK minimizedAffinity 2.16075826
REMARK minimizedRMSD -1
REMARK  0 active torsions:
REMARK  status: ('A' for Active; 'I' for Inactive)
ROOT
ATOM      1  C4' PXY d   1       0.279   5.110   5.990  0.00  0.00     0.077 C 
ATOM      2  C1' PXY d   1       5.482   2.591   5.990  0.00  0.00     0.077 C 
ATOM      3  C1  PXY d   1       4.123   3.263   5.995  0.00  0.00    -0.082 A 
ATOM      4  C2  PXY d   1       3.027   2.521   6.000  0.00  0.00     0.003 A 
ATOM      5  C3  PXY d   1       1.790   3.111   5.972  0.00  0.00     0.003 A 
ATOM      6  C4  PXY d   1       1.672   4.475   5.994  0.00  0.00    -0.082 A 
ATOM      7  C5  PXY d   1       2.785   5.239   6.000  0.00  0.00     0.003 A 
ATOM      8  C6  PXY d   1       4.032   4.620   5.986  0.00  0.00     0.003 A 
ENDROOT
TORSDOF 0
ENDMDL
