MODEL 1
REMARK minimizedAffinity 11.6439304
REMARK minimizedRMSD -1
REMARK  0 active torsions:
REMARK  status: ('A' for Active; 'I' for Inactive)
ROOT
ATOM      1  C4' PXY d   1       2.846   0.180   5.973  0.00  0.00     0.077 C 
ATOM      2  C1' PXY d   1       3.621   5.900   5.657  0.00  0.00     0.077 C 
ATOM      3  C1  PXY d   1       3.428   4.398   5.733  0.00  0.00    -0.082 A 
ATOM      4  C2  PXY d   1       2.213   3.902   5.897  0.00  0.00     0.003 A 
ATOM      5  C3  PXY d   1       2.025   2.547   6.000  0.00  0.00     0.003 A 
ATOM      6  C4  PXY d   1       3.086   1.690   5.881  0.00  0.00    -0.082 A 
ATOM      7  C5  PXY d   1       4.328   2.188   5.704  0.00  0.00     0.003 A 
ATOM      8  C6  PXY d   1       4.502   3.568   5.643  0.00  0.00     0.003 A 
ENDROOT
TORSDOF 0
ENDMDL
