MODEL 1
REMARK minimizedAffinity 7.42618275
REMARK minimizedRMSD -1
REMARK  0 active torsions:
REMARK  status: ('A' for Active; 'I' for Inactive)
ROOT
ATOM      1  C4' PXY d   1      -0.206   5.997   5.479  0.00  0.00     0.077 C 
ATOM      2  C1' PXY d   1       4.606   2.795   5.547  0.00  0.00     0.077 C 
ATOM      3  C1  PXY d   1       3.351   3.646   5.529  0.00  0.00    -0.082 A 
ATOM      4  C2  PXY d   1       2.217   3.148   5.995  0.00  0.00     0.003 A 
ATOM      5  C3  PXY d   1       1.066   3.892   5.957  0.00  0.00     0.003 A 
ATOM      6  C4  PXY d   1       1.088   5.178   5.486  0.00  0.00    -0.082 A 
ATOM      7  C5  PXY d   1       2.243   5.696   5.019  0.00  0.00     0.003 A 
ATOM      8  C6  PXY d   1       3.392   4.910   5.028  0.00  0.00     0.003 A 
ENDROOT
TORSDOF 0
ENDMDL
