MODEL 1
REMARK minimizedAffinity 9.63234138
REMARK minimizedRMSD -1
REMARK  0 active torsions:
REMARK  status: ('A' for Active; 'I' for Inactive)
ROOT
ATOM      1  C4' PXY d   1       2.377  -2.258   5.718  0.00  0.00     0.077 C 
ATOM      2  C1' PXY d   1       1.741  -1.154   0.080  0.00  0.00     0.077 C 
ATOM      3  C1  PXY d   1       1.895  -1.446   1.560  0.00  0.00    -0.082 A 
ATOM      4  C2  PXY d   1       2.934  -0.958   2.218  0.00  0.00     0.003 A 
ATOM      5  C3  PXY d   1       3.105  -1.238   3.549  0.00  0.00     0.003 A 
ATOM      6  C4  PXY d   1       2.176  -1.982   4.226  0.00  0.00    -0.082 A 
ATOM      7  C5  PXY d   1       1.108  -2.474   3.564  0.00  0.00     0.003 A 
ATOM      8  C6  PXY d   1       0.973  -2.212   2.203  0.00  0.00     0.003 A 
ENDROOT
TORSDOF 0
ENDMDL
