MODEL 1
REMARK minimizedAffinity 1.32414746
REMARK minimizedRMSD -1
REMARK  0 active torsions:
REMARK  status: ('A' for Active; 'I' for Inactive)
ROOT
ATOM      1  C4' PXY d   1       0.994   6.000   5.394  0.00  0.00     0.077 C 
ATOM      2  C1' PXY d   1       4.156   1.161   5.411  0.00  0.00     0.077 C 
ATOM      3  C1  PXY d   1       3.338   2.437   5.405  0.00  0.00    -0.082 A 
ATOM      4  C2  PXY d   1       2.156   2.459   6.000  0.00  0.00     0.003 A 
ATOM      5  C3  PXY d   1       1.389   3.595   5.976  0.00  0.00     0.003 A 
ATOM      6  C4  PXY d   1       1.859   4.736   5.383  0.00  0.00    -0.082 A 
ATOM      7  C5  PXY d   1       3.068   4.725   4.783  0.00  0.00     0.003 A 
ATOM      8  C6  PXY d   1       3.814   3.550   4.783  0.00  0.00     0.003 A 
ENDROOT
TORSDOF 0
ENDMDL
