MODEL 1
REMARK minimizedAffinity 3.67869782
REMARK minimizedRMSD -1
REMARK  0 active torsions:
REMARK  status: ('A' for Active; 'I' for Inactive)
ROOT
ATOM      1  C4' PXY d   1       0.004   5.987   5.267  0.00  0.00     0.077 C 
ATOM      2  C1' PXY d   1       4.699   2.695   5.999  0.00  0.00     0.077 C 
ATOM      3  C1  PXY d   1       3.475   3.569   5.809  0.00  0.00    -0.082 A 
ATOM      4  C2  PXY d   1       2.270   3.057   5.999  0.00  0.00     0.003 A 
ATOM      5  C3  PXY d   1       1.151   3.825   5.801  0.00  0.00     0.003 A 
ATOM      6  C4  PXY d   1       1.269   5.144   5.456  0.00  0.00    -0.082 A 
ATOM      7  C5  PXY d   1       2.495   5.677   5.271  0.00  0.00     0.003 A 
ATOM      8  C6  PXY d   1       3.617   4.870   5.437  0.00  0.00     0.003 A 
ENDROOT
TORSDOF 0
ENDMDL
