MODEL 1
REMARK minimizedAffinity -1.20324183
REMARK minimizedRMSD -1
REMARK  0 active torsions:
REMARK  status: ('A' for Active; 'I' for Inactive)
ROOT
ATOM      1  C4' PXY d   1      -1.459  -4.872   5.112  0.00  0.00     0.077 C 
ATOM      2  C1' PXY d   1       2.570  -0.727   5.071  0.00  0.00     0.077 C 
ATOM      3  C1  PXY d   1       1.505  -1.806   5.075  0.00  0.00    -0.082 A 
ATOM      4  C2  PXY d   1       1.537  -2.753   5.999  0.00  0.00     0.003 A 
ATOM      5  C3  PXY d   1       0.601  -3.755   5.998  0.00  0.00     0.003 A 
ATOM      6  C4  PXY d   1      -0.410  -3.758   5.075  0.00  0.00    -0.082 A 
ATOM      7  C5  PXY d   1      -0.456  -2.789   4.136  0.00  0.00     0.003 A 
ATOM      8  C6  PXY d   1       0.528  -1.804   4.128  0.00  0.00     0.003 A 
ENDROOT
TORSDOF 0
ENDMDL
