MODEL 1
REMARK minimizedAffinity 0.226740569
REMARK minimizedRMSD -1
REMARK  0 active torsions:
REMARK  status: ('A' for Active; 'I' for Inactive)
ROOT
ATOM      1  C4' PXY d   1      -2.227  -5.984   5.941  0.00  0.00     0.077 C 
ATOM      2  C1' PXY d   1       1.745  -2.440   3.686  0.00  0.00     0.077 C 
ATOM      3  C1  PXY d   1       0.700  -3.374   4.266  0.00  0.00    -0.082 A 
ATOM      4  C2  PXY d   1       0.165  -3.105   5.446  0.00  0.00     0.003 A 
ATOM      5  C3  PXY d   1      -0.757  -3.956   5.999  0.00  0.00     0.003 A 
ATOM      6  C4  PXY d   1      -1.176  -5.065   5.313  0.00  0.00    -0.082 A 
ATOM      7  C5  PXY d   1      -0.643  -5.340   4.104  0.00  0.00     0.003 A 
ATOM      8  C6  PXY d   1       0.323  -4.486   3.578  0.00  0.00     0.003 A 
ENDROOT
TORSDOF 0
ENDMDL
