MODEL 1
REMARK minimizedAffinity -2.98916101
REMARK minimizedRMSD -1
REMARK  0 active torsions:
REMARK  status: ('A' for Active; 'I' for Inactive)
ROOT
ATOM      1  C4' PXY d   1       0.612   5.206   6.000  0.00  0.00     0.077 C 
ATOM      2  C1' PXY d   1       5.928   2.939   5.872  0.00  0.00     0.077 C 
ATOM      3  C1  PXY d   1       4.529   3.522   5.901  0.00  0.00    -0.082 A 
ATOM      4  C2  PXY d   1       4.367   4.835   5.855  0.00  0.00     0.003 A 
ATOM      5  C3  PXY d   1       3.110   5.380   5.913  0.00  0.00     0.003 A 
ATOM      6  C4  PXY d   1       2.006   4.572   5.964  0.00  0.00    -0.082 A 
ATOM      7  C5  PXY d   1       2.163   3.232   6.000  0.00  0.00     0.003 A 
ATOM      8  C6  PXY d   1       3.449   2.699   5.982  0.00  0.00     0.003 A 
ENDROOT
TORSDOF 0
ENDMDL
