MODEL 1
REMARK minimizedAffinity -1.6589092
REMARK minimizedRMSD -1
REMARK  0 active torsions:
REMARK  status: ('A' for Active; 'I' for Inactive)
ROOT
ATOM      1  C4' PXY d   1       2.926  -0.683   5.589  0.00  0.00     0.077 C 
ATOM      2  C1' PXY d   1       2.932   5.096   5.701  0.00  0.00     0.077 C 
ATOM      3  C1  PXY d   1       2.940   3.581   5.663  0.00  0.00    -0.082 A 
ATOM      4  C2  PXY d   1       1.847   2.912   5.993  0.00  0.00     0.003 A 
ATOM      5  C3  PXY d   1       1.846   1.541   5.995  0.00  0.00     0.003 A 
ATOM      6  C4  PXY d   1       2.960   0.848   5.604  0.00  0.00    -0.082 A 
ATOM      7  C5  PXY d   1       4.076   1.523   5.255  0.00  0.00     0.003 A 
ATOM      8  C6  PXY d   1       4.069   2.914   5.300  0.00  0.00     0.003 A 
ENDROOT
TORSDOF 0
ENDMDL
