MODEL 1
REMARK minimizedAffinity 9.54494762
REMARK minimizedRMSD -1
REMARK  0 active torsions:
REMARK  status: ('A' for Active; 'I' for Inactive)
ROOT
ATOM      1  C4' PXY d   1       0.322   5.802   5.973  0.00  0.00     0.077 C 
ATOM      2  C1' PXY d   1       3.807   1.190   5.999  0.00  0.00     0.077 C 
ATOM      3  C1  PXY d   1       2.903   2.406   5.997  0.00  0.00    -0.082 A 
ATOM      4  C2  PXY d   1       1.589   2.245   5.996  0.00  0.00     0.003 A 
ATOM      5  C3  PXY d   1       0.757   3.334   5.963  0.00  0.00     0.003 A 
ATOM      6  C4  PXY d   1       1.274   4.602   5.984  0.00  0.00    -0.082 A 
ATOM      7  C5  PXY d   1       2.612   4.775   5.995  0.00  0.00     0.003 A 
ATOM      8  C6  PXY d   1       3.441   3.656   5.988  0.00  0.00     0.003 A 
ENDROOT
TORSDOF 0
ENDMDL
