MODEL 1
REMARK minimizedAffinity 7.45590496
REMARK minimizedRMSD -1
REMARK  0 active torsions:
REMARK  status: ('A' for Active; 'I' for Inactive)
ROOT
ATOM      1  C4' PXY d   1       2.671  -1.712  -1.023  0.00  0.00     0.077 C 
ATOM      2  C1' PXY d   1       4.786   3.526   0.202  0.00  0.00     0.077 C 
ATOM      3  C1  PXY d   1       4.227   2.152  -0.107  0.00  0.00    -0.082 A 
ATOM      4  C2  PXY d   1       4.773   1.424  -1.067  0.00  0.00     0.003 A 
ATOM      5  C3  PXY d   1       4.260   0.192  -1.381  0.00  0.00     0.003 A 
ATOM      6  C4  PXY d   1       3.209  -0.323  -0.670  0.00  0.00    -0.082 A 
ATOM      7  C5  PXY d   1       2.653   0.409   0.319  0.00  0.00     0.003 A 
ATOM      8  C6  PXY d   1       3.163   1.675   0.594  0.00  0.00     0.003 A 
ENDROOT
TORSDOF 0
ENDMDL
