MODEL 1
REMARK minimizedAffinity 16.4539928
REMARK minimizedRMSD -1
REMARK  2 active torsions:
REMARK  status: ('A' for Active; 'I' for Inactive)
REMARK    1  A    between atoms: C1_2  and  C2_3 
REMARK    2  A    between atoms: C2_3  and  C3_4 
ROOT
ATOM      1  C3  UNL d   1       0.782  -1.614  -2.450  0.00  0.00    -0.075 A 
ATOM      2  C4  UNL d   1       1.229  -2.695  -1.676  0.00  0.00     0.002 A 
ATOM      3  C5  UNL d   1       2.323  -3.456  -2.088  0.00  0.00     0.002 A 
ATOM      4  C6  UNL d   1       2.977  -3.154  -3.281  0.00  0.00    -0.004 A 
ATOM      5  C7  UNL d   1       2.530  -2.093  -4.066  0.00  0.00     0.002 A 
ATOM      6  C8  UNL d   1       1.438  -1.327  -3.654  0.00  0.00     0.002 A 
ENDROOT
BRANCH   1   7
ATOM      7  C2  UNL d   1      -0.384  -0.768  -1.995  0.00  0.00     0.056 C 
BRANCH   7   8
ATOM      8  C1  UNL d   1      -1.619  -0.872  -2.897  0.00  0.00     0.007 C 
ATOM      9  C   UNL d   1      -2.897  -1.182  -2.130  0.00  0.00     0.009 C 
ENDBRANCH   7   8
ENDBRANCH   1   7
TORSDOF 2
ENDMDL
