MODEL 1
REMARK minimizedAffinity 13.1128492
REMARK minimizedRMSD -1
REMARK  2 active torsions:
REMARK  status: ('A' for Active; 'I' for Inactive)
REMARK    1  A    between atoms: C1_2  and  C2_3 
REMARK    2  A    between atoms: C2_3  and  C3_4 
ROOT
ATOM      1  C3  UNL d   1      -4.577   1.406  -0.359  0.00  0.00    -0.075 A 
ATOM      2  C4  UNL d   1      -3.569   0.681  -1.011  0.00  0.00     0.002 A 
ATOM      3  C5  UNL d   1      -3.782  -0.646  -1.388  0.00  0.00     0.002 A 
ATOM      4  C6  UNL d   1      -4.997  -1.266  -1.107  0.00  0.00    -0.004 A 
ATOM      5  C7  UNL d   1      -5.999  -0.561  -0.444  0.00  0.00     0.002 A 
ATOM      6  C8  UNL d   1      -5.791   0.768  -0.071  0.00  0.00     0.002 A 
ENDROOT
BRANCH   1   7
ATOM      7  C2  UNL d   1      -4.364   2.851   0.025  0.00  0.00     0.056 C 
BRANCH   7   8
ATOM      8  C1  UNL d   1      -4.497   3.833  -1.144  0.00  0.00     0.007 C 
ATOM      9  C   UNL d   1      -5.830   3.721  -1.873  0.00  0.00     0.009 C 
ENDBRANCH   7   8
ENDBRANCH   1   7
TORSDOF 2
ENDMDL
