MODEL 1
REMARK minimizedAffinity 5.86313963
REMARK minimizedRMSD -1
REMARK  2 active torsions:
REMARK  status: ('A' for Active; 'I' for Inactive)
REMARK    1  A    between atoms: C1_2  and  C2_3 
REMARK    2  A    between atoms: C2_3  and  C3_4 
ROOT
ATOM      1  C3  UNL d   1       2.233  -0.567  -0.334  0.00  0.00    -0.075 A 
ATOM      2  C4  UNL d   1       2.060   0.616  -1.067  0.00  0.00     0.002 A 
ATOM      3  C5  UNL d   1       2.231   1.859  -0.457  0.00  0.00     0.002 A 
ATOM      4  C6  UNL d   1       2.565   1.935   0.893  0.00  0.00    -0.004 A 
ATOM      5  C7  UNL d   1       2.723   0.767   1.635  0.00  0.00     0.002 A 
ATOM      6  C8  UNL d   1       2.557  -0.478   1.026  0.00  0.00     0.002 A 
ENDROOT
BRANCH   1   7
ATOM      7  C2  UNL d   1       2.078  -1.915  -0.996  0.00  0.00     0.056 C 
BRANCH   7   8
ATOM      8  C1  UNL d   1       1.566  -1.847  -2.438  0.00  0.00     0.007 C 
ATOM      9  C   UNL d   1       2.067  -2.992  -3.308  0.00  0.00     0.009 C 
ENDBRANCH   7   8
ENDBRANCH   1   7
TORSDOF 2
ENDMDL
