MODEL 1
REMARK minimizedAffinity 8.35508728
REMARK minimizedRMSD -1
REMARK  2 active torsions:
REMARK  status: ('A' for Active; 'I' for Inactive)
REMARK    1  A    between atoms: C1_2  and  C2_3 
REMARK    2  A    between atoms: C2_3  and  C3_4 
ROOT
ATOM      1  C3  UNL d   1       1.643  -1.927  -0.782  0.00  0.00    -0.075 A 
ATOM      2  C4  UNL d   1       1.789  -0.705  -1.454  0.00  0.00     0.002 A 
ATOM      3  C5  UNL d   1       2.505   0.342  -0.872  0.00  0.00     0.002 A 
ATOM      4  C6  UNL d   1       3.073   0.185   0.391  0.00  0.00    -0.004 A 
ATOM      5  C7  UNL d   1       2.919  -1.020   1.074  0.00  0.00     0.002 A 
ATOM      6  C8  UNL d   1       2.208  -2.070   0.492  0.00  0.00     0.002 A 
ENDROOT
BRANCH   1   7
ATOM      7  C2  UNL d   1       0.895  -3.074  -1.419  0.00  0.00     0.056 C 
BRANCH   7   8
ATOM      8  C1  UNL d   1      -0.041  -3.818  -0.460  0.00  0.00     0.007 C 
ATOM      9  C   UNL d   1      -1.318  -4.310  -1.128  0.00  0.00     0.009 C 
ENDBRANCH   7   8
ENDBRANCH   1   7
TORSDOF 2
ENDMDL
