MODEL 1
REMARK minimizedAffinity 12.1120119
REMARK minimizedRMSD -1
REMARK  2 active torsions:
REMARK  status: ('A' for Active; 'I' for Inactive)
REMARK    1  A    between atoms: C1_2  and  C2_3 
REMARK    2  A    between atoms: C2_3  and  C3_4 
ROOT
ATOM      1  C3  UNL d   1       2.930   0.844  -0.384  0.00  0.00    -0.075 A 
ATOM      2  C4  UNL d   1       3.460   0.396   0.834  0.00  0.00     0.002 A 
ATOM      3  C5  UNL d   1       3.172  -0.886   1.303  0.00  0.00     0.002 A 
ATOM      4  C6  UNL d   1       2.345  -1.731   0.567  0.00  0.00    -0.004 A 
ATOM      5  C7  UNL d   1       1.800  -1.291  -0.637  0.00  0.00     0.002 A 
ATOM      6  C8  UNL d   1       2.090  -0.010  -1.111  0.00  0.00     0.002 A 
ENDROOT
BRANCH   1   7
ATOM      7  C2  UNL d   1       3.261   2.220  -0.912  0.00  0.00     0.056 C 
BRANCH   7   8
ATOM      8  C1  UNL d   1       4.027   2.211  -2.239  0.00  0.00     0.007 C 
ATOM      9  C   UNL d   1       5.380   2.906  -2.156  0.00  0.00     0.009 C 
ENDBRANCH   7   8
ENDBRANCH   1   7
TORSDOF 2
ENDMDL
