MODEL 1
REMARK minimizedAffinity 13.6164255
REMARK minimizedRMSD -1
REMARK  2 active torsions:
REMARK  status: ('A' for Active; 'I' for Inactive)
REMARK    1  A    between atoms: C1_2  and  C2_3 
REMARK    2  A    between atoms: C2_3  and  C3_4 
ROOT
ATOM      1  C3  UNL d   1       3.902   1.107   0.444  0.00  0.00    -0.075 A 
ATOM      2  C4  UNL d   1       3.592   0.006   1.255  0.00  0.00     0.002 A 
ATOM      3  C5  UNL d   1       2.581  -0.883   0.887  0.00  0.00     0.002 A 
ATOM      4  C6  UNL d   1       1.863  -0.677  -0.288  0.00  0.00    -0.004 A 
ATOM      5  C7  UNL d   1       2.151   0.423  -1.093  0.00  0.00     0.002 A 
ATOM      6  C8  UNL d   1       3.165   1.311  -0.730  0.00  0.00     0.002 A 
ENDROOT
BRANCH   1   7
ATOM      7  C2  UNL d   1       5.015   2.056   0.821  0.00  0.00     0.056 C 
BRANCH   7   8
ATOM      8  C1  UNL d   1       4.754   2.840   2.112  0.00  0.00     0.007 C 
ATOM      9  C   UNL d   1       3.601   3.828   1.991  0.00  0.00     0.009 C 
ENDBRANCH   7   8
ENDBRANCH   1   7
TORSDOF 2
ENDMDL
