MODEL 1
REMARK minimizedAffinity 8.64856529
REMARK minimizedRMSD -1
REMARK  2 active torsions:
REMARK  status: ('A' for Active; 'I' for Inactive)
REMARK    1  A    between atoms: C1_2  and  C2_3 
REMARK    2  A    between atoms: C2_3  and  C3_4 
ROOT
ATOM      1  C3  UNL d   1       4.919   1.635  -1.210  0.00  0.00    -0.075 A 
ATOM      2  C4  UNL d   1       3.565   1.757  -1.556  0.00  0.00     0.002 A 
ATOM      3  C5  UNL d   1       2.600   0.969  -0.930  0.00  0.00     0.002 A 
ATOM      4  C6  UNL d   1       2.975   0.042   0.041  0.00  0.00    -0.004 A 
ATOM      5  C7  UNL d   1       4.318  -0.100   0.381  0.00  0.00     0.002 A 
ATOM      6  C8  UNL d   1       5.286   0.691  -0.241  0.00  0.00     0.002 A 
ENDROOT
BRANCH   1   7
ATOM      7  C2  UNL d   1       5.965   2.506  -1.862  0.00  0.00     0.056 C 
BRANCH   7   8
ATOM      8  C1  UNL d   1       6.000   3.943  -1.332  0.00  0.00     0.007 C 
ATOM      9  C   UNL d   1       5.980   4.991  -2.436  0.00  0.00     0.009 C 
ENDBRANCH   7   8
ENDBRANCH   1   7
TORSDOF 2
ENDMDL
