MODEL 1
REMARK minimizedAffinity 8.88255024
REMARK minimizedRMSD -1
REMARK  2 active torsions:
REMARK  status: ('A' for Active; 'I' for Inactive)
REMARK    1  A    between atoms: C1_2  and  C2_3 
REMARK    2  A    between atoms: C2_3  and  C3_4 
ROOT
ATOM      1  C3  UNL d   1       3.007   4.036   3.714  0.00  0.00    -0.075 A 
ATOM      2  C4  UNL d   1       1.847   4.548   3.114  0.00  0.00     0.002 A 
ATOM      3  C5  UNL d   1       1.090   5.527   3.757  0.00  0.00     0.002 A 
ATOM      4  C6  UNL d   1       1.475   5.999   5.010  0.00  0.00    -0.004 A 
ATOM      5  C7  UNL d   1       2.616   5.486   5.622  0.00  0.00     0.002 A 
ATOM      6  C8  UNL d   1       3.378   4.509   4.979  0.00  0.00     0.002 A 
ENDROOT
BRANCH   1   7
ATOM      7  C2  UNL d   1       3.847   2.997   3.010  0.00  0.00     0.056 C 
BRANCH   7   8
ATOM      8  C1  UNL d   1       3.368   2.663   1.593  0.00  0.00     0.007 C 
ATOM      9  C   UNL d   1       3.034   1.189   1.404  0.00  0.00     0.009 C 
ENDBRANCH   7   8
ENDBRANCH   1   7
TORSDOF 2
ENDMDL
