MODEL 1
REMARK minimizedAffinity 10.250432
REMARK minimizedRMSD -1
REMARK  2 active torsions:
REMARK  status: ('A' for Active; 'I' for Inactive)
REMARK    1  A    between atoms: C1_2  and  C2_3 
REMARK    2  A    between atoms: C2_3  and  C3_4 
ROOT
ATOM      1  C3  UNL d   1      -4.126  -0.193  -1.189  0.00  0.00    -0.075 A 
ATOM      2  C4  UNL d   1      -5.441   0.212  -0.917  0.00  0.00     0.002 A 
ATOM      3  C5  UNL d   1      -5.694   1.215   0.019  0.00  0.00     0.002 A 
ATOM      4  C6  UNL d   1      -4.639   1.819   0.700  0.00  0.00    -0.004 A 
ATOM      5  C7  UNL d   1      -3.330   1.413   0.450  0.00  0.00     0.002 A 
ATOM      6  C8  UNL d   1      -3.074   0.413  -0.489  0.00  0.00     0.002 A 
ENDROOT
BRANCH   1   7
ATOM      7  C2  UNL d   1      -3.843  -1.258  -2.221  0.00  0.00     0.056 C 
BRANCH   7   8
ATOM      8  C1  UNL d   1      -3.634  -0.713  -3.638  0.00  0.00     0.007 C 
ATOM      9  C   UNL d   1      -2.172  -0.441  -3.967  0.00  0.00     0.009 C 
ENDBRANCH   7   8
ENDBRANCH   1   7
TORSDOF 2
ENDMDL
