MODEL 1
REMARK minimizedAffinity 18.7428246
REMARK minimizedRMSD -1
REMARK  2 active torsions:
REMARK  status: ('A' for Active; 'I' for Inactive)
REMARK    1  A    between atoms: C1_2  and  C2_3 
REMARK    2  A    between atoms: C2_3  and  C3_4 
ROOT
ATOM      1  C3  UNL d   1      -3.841   2.002   0.079  0.00  0.00    -0.075 A 
ATOM      2  C4  UNL d   1      -2.695   1.921  -0.725  0.00  0.00     0.002 A 
ATOM      3  C5  UNL d   1      -2.471   0.803  -1.530  0.00  0.00     0.002 A 
ATOM      4  C6  UNL d   1      -3.383  -0.250  -1.533  0.00  0.00    -0.004 A 
ATOM      5  C7  UNL d   1      -4.517  -0.187  -0.725  0.00  0.00     0.002 A 
ATOM      6  C8  UNL d   1      -4.745   0.932   0.077  0.00  0.00     0.002 A 
ENDROOT
BRANCH   1   7
ATOM      7  C2  UNL d   1      -4.103   3.222   0.930  0.00  0.00     0.056 C 
BRANCH   7   8
ATOM      8  C1  UNL d   1      -3.651   4.538   0.289  0.00  0.00     0.007 C 
ATOM      9  C   UNL d   1      -4.797   5.509   0.040  0.00  0.00     0.009 C 
ENDBRANCH   7   8
ENDBRANCH   1   7
TORSDOF 2
ENDMDL
