MODEL 1
REMARK minimizedAffinity 13.0137396
REMARK minimizedRMSD -1
REMARK  2 active torsions:
REMARK  status: ('A' for Active; 'I' for Inactive)
REMARK    1  A    between atoms: C1_2  and  C2_3 
REMARK    2  A    between atoms: C2_3  and  C3_4 
ROOT
ATOM      1  C3  UNL d   1       2.843   3.656   3.492  0.00  0.00    -0.075 A 
ATOM      2  C4  UNL d   1       2.092   2.915   4.416  0.00  0.00     0.002 A 
ATOM      3  C5  UNL d   1       1.257   3.559   5.330  0.00  0.00     0.002 A 
ATOM      4  C6  UNL d   1       1.170   4.949   5.338  0.00  0.00    -0.004 A 
ATOM      5  C7  UNL d   1       1.923   5.696   4.435  0.00  0.00     0.002 A 
ATOM      6  C8  UNL d   1       2.756   5.054   3.517  0.00  0.00     0.002 A 
ENDROOT
BRANCH   1   7
ATOM      7  C2  UNL d   1       3.726   2.963   2.482  0.00  0.00     0.056 C 
BRANCH   7   8
ATOM      8  C1  UNL d   1       3.023   2.635   1.160  0.00  0.00     0.007 C 
ATOM      9  C   UNL d   1       2.976   1.143   0.859  0.00  0.00     0.009 C 
ENDBRANCH   7   8
ENDBRANCH   1   7
TORSDOF 2
ENDMDL
