MODEL 1
REMARK minimizedAffinity -3.59634757
REMARK minimizedRMSD -1
REMARK  0 active torsions:
REMARK  status: ('A' for Active; 'I' for Inactive)
ROOT
ATOM      1  C   UNL d   1      -0.776  -3.057   0.412  0.00  0.00     0.023 A 
ATOM      2  C1  UNL d   1       0.326  -2.877  -0.423  0.00  0.00     0.003 A 
ATOM      3  C2  UNL d   1       0.860  -1.601  -0.613  0.00  0.00     0.048 A 
ATOM      4  C3  UNL d   1       0.286  -0.508   0.036  0.00  0.00     0.023 A 
ATOM      5  C4  UNL d   1      -0.817  -0.683   0.874  0.00  0.00     0.048 A 
ATOM      6  C5  UNL d   1      -1.347  -1.961   1.060  0.00  0.00     0.003 A 
ATOM      7  I   UNL d   1       1.078   1.393  -0.245  0.00  0.00    -0.146 I 
ENDROOT
TORSDOF 0
ENDMDL
