MODEL 1
REMARK minimizedAffinity -2.38554382
REMARK minimizedRMSD -1
REMARK  0 active torsions:
REMARK  status: ('A' for Active; 'I' for Inactive)
ROOT
ATOM      1  C   UNL d   1      -0.090  -1.207  -3.048  0.00  0.00     0.023 A 
ATOM      2  C1  UNL d   1      -0.536  -2.384  -2.446  0.00  0.00     0.003 A 
ATOM      3  C2  UNL d   1      -0.785  -2.416  -1.073  0.00  0.00     0.048 A 
ATOM      4  C3  UNL d   1      -0.588  -1.268  -0.307  0.00  0.00     0.023 A 
ATOM      5  C4  UNL d   1      -0.144  -0.087  -0.905  0.00  0.00     0.048 A 
ATOM      6  C5  UNL d   1       0.105  -0.060  -2.279  0.00  0.00     0.003 A 
ATOM      7  I   UNL d   1      -0.959  -1.313   1.737  0.00  0.00    -0.146 I 
ENDROOT
TORSDOF 0
ENDMDL
