MODEL 1
REMARK minimizedAffinity -3.54935145
REMARK minimizedRMSD -1
REMARK  0 active torsions:
REMARK  status: ('A' for Active; 'I' for Inactive)
ROOT
ATOM      1  C   UNL d   1      -0.372  -1.673   0.005  0.00  0.00     0.023 A 
ATOM      2  C1  UNL d   1      -0.491  -1.062   1.253  0.00  0.00     0.003 A 
ATOM      3  C2  UNL d   1      -0.022   0.240   1.441  0.00  0.00     0.048 A 
ATOM      4  C3  UNL d   1       0.564   0.925   0.377  0.00  0.00     0.023 A 
ATOM      5  C4  UNL d   1       0.685   0.317  -0.874  0.00  0.00     0.048 A 
ATOM      6  C5  UNL d   1       0.215  -0.985  -1.057  0.00  0.00     0.003 A 
ATOM      7  I   UNL d   1       1.263   2.862   0.656  0.00  0.00    -0.146 I 
ENDROOT
TORSDOF 0
ENDMDL
