MODEL 1
REMARK minimizedAffinity -3.23088288
REMARK minimizedRMSD -1
REMARK  0 active torsions:
REMARK  status: ('A' for Active; 'I' for Inactive)
ROOT
ATOM      1  C   UNL d   1      -0.923  -2.266   0.380  0.00  0.00     0.023 A 
ATOM      2  C1  UNL d   1      -0.193  -1.818  -0.722  0.00  0.00     0.003 A 
ATOM      3  C2  UNL d   1       0.268  -0.501  -0.766  0.00  0.00     0.048 A 
ATOM      4  C3  UNL d   1      -0.003   0.363   0.295  0.00  0.00     0.023 A 
ATOM      5  C4  UNL d   1      -0.732  -0.081   1.399  0.00  0.00     0.048 A 
ATOM      6  C5  UNL d   1      -1.192  -1.399   1.439  0.00  0.00     0.003 A 
ATOM      7  I   UNL d   1       0.683   2.324   0.231  0.00  0.00    -0.146 I 
ENDROOT
TORSDOF 0
ENDMDL
