MODEL 1
REMARK minimizedAffinity -4.68610048
REMARK minimizedRMSD -1
REMARK  0 active torsions:
REMARK  status: ('A' for Active; 'I' for Inactive)
ROOT
ATOM      1  C   UNL d   1      -0.231  -3.152   0.227  0.00  0.00     0.023 A 
ATOM      2  C1  UNL d   1       0.467  -2.503  -0.791  0.00  0.00     0.003 A 
ATOM      3  C2  UNL d   1       0.757  -1.142  -0.683  0.00  0.00     0.048 A 
ATOM      4  C3  UNL d   1       0.347  -0.435   0.447  0.00  0.00     0.023 A 
ATOM      5  C4  UNL d   1      -0.350  -1.080   1.469  0.00  0.00     0.048 A 
ATOM      6  C5  UNL d   1      -0.639  -2.441   1.356  0.00  0.00     0.003 A 
ATOM      7  I   UNL d   1       0.778   1.592   0.610  0.00  0.00    -0.146 I 
ENDROOT
TORSDOF 0
ENDMDL
