MODEL 1
REMARK minimizedAffinity 0.677956939
REMARK minimizedRMSD -1
REMARK  0 active torsions:
REMARK  status: ('A' for Active; 'I' for Inactive)
ROOT
ATOM      1  C   UNL d   1      -1.086  -1.494   0.662  0.00  0.00     0.023 A 
ATOM      2  C1  UNL d   1      -0.764  -1.013  -0.607  0.00  0.00     0.003 A 
ATOM      3  C2  UNL d   1      -0.084   0.198  -0.745  0.00  0.00     0.048 A 
ATOM      4  C3  UNL d   1       0.272   0.924   0.392  0.00  0.00     0.023 A 
ATOM      5  C4  UNL d   1      -0.047   0.447   1.664  0.00  0.00     0.048 A 
ATOM      6  C5  UNL d   1      -0.728  -0.765   1.796  0.00  0.00     0.003 A 
ATOM      7  I   UNL d   1       1.285   2.728   0.190  0.00  0.00    -0.146 I 
ENDROOT
TORSDOF 0
ENDMDL
