MODEL 1
REMARK minimizedAffinity -4.88410044
REMARK minimizedRMSD -1
REMARK  0 active torsions:
REMARK  status: ('A' for Active; 'I' for Inactive)
ROOT
ATOM      1  C   UNL d   1      -0.408  -3.236  -0.504  0.00  0.00     0.023 A 
ATOM      2  C1  UNL d   1      -0.396  -2.639   0.757  0.00  0.00     0.003 A 
ATOM      3  C2  UNL d   1      -0.065  -1.289   0.888  0.00  0.00     0.048 A 
ATOM      4  C3  UNL d   1       0.252  -0.542  -0.246  0.00  0.00     0.023 A 
ATOM      5  C4  UNL d   1       0.240  -1.135  -1.509  0.00  0.00     0.048 A 
ATOM      6  C5  UNL d   1      -0.091  -2.485  -1.635  0.00  0.00     0.003 A 
ATOM      7  I   UNL d   1       0.745   1.468  -0.053  0.00  0.00    -0.146 I 
ENDROOT
TORSDOF 0
ENDMDL
