MODEL 1
REMARK minimizedAffinity -4.43266439
REMARK minimizedRMSD -1
REMARK  0 active torsions:
REMARK  status: ('A' for Active; 'I' for Inactive)
ROOT
ATOM      1  C   UNL d   1       1.811   2.756   0.411  0.00  0.00     0.023 A 
ATOM      2  C1  UNL d   1       2.253   1.632   1.109  0.00  0.00     0.003 A 
ATOM      3  C2  UNL d   1       1.429   0.510   1.222  0.00  0.00     0.048 A 
ATOM      4  C3  UNL d   1       0.165   0.518   0.633  0.00  0.00     0.023 A 
ATOM      5  C4  UNL d   1      -0.281   1.640  -0.067  0.00  0.00     0.048 A 
ATOM      6  C5  UNL d   1       0.546   2.760  -0.176  0.00  0.00     0.003 A 
ATOM      7  I   UNL d   1      -1.062  -1.151   0.800  0.00  0.00    -0.146 I 
ENDROOT
TORSDOF 0
ENDMDL
