MODEL 1
REMARK minimizedAffinity -1.74749744
REMARK minimizedRMSD -1
REMARK  0 active torsions:
REMARK  status: ('A' for Active; 'I' for Inactive)
ROOT
ATOM      1  C   UNL d   1      -0.815  -2.800   0.822  0.00  0.00     0.023 A 
ATOM      2  C1  UNL d   1      -1.626  -1.713   1.151  0.00  0.00     0.003 A 
ATOM      3  C2  UNL d   1      -1.184  -0.411   0.907  0.00  0.00     0.048 A 
ATOM      4  C3  UNL d   1       0.070  -0.203   0.333  0.00  0.00     0.023 A 
ATOM      5  C4  UNL d   1       0.884  -1.287   0.001  0.00  0.00     0.048 A 
ATOM      6  C5  UNL d   1       0.439  -2.587   0.248  0.00  0.00     0.003 A 
ATOM      7  I   UNL d   1       0.729   1.734  -0.032  0.00  0.00    -0.146 I 
ENDROOT
TORSDOF 0
ENDMDL
