MODEL 1
REMARK minimizedAffinity -3.3727479
REMARK minimizedRMSD -1
REMARK  0 active torsions:
REMARK  status: ('A' for Active; 'I' for Inactive)
ROOT
ATOM      1  C   UNL d   1       0.218   1.410  -0.399  0.00  0.00     0.023 A 
ATOM      2  C1  UNL d   1       0.531   0.474  -1.385  0.00  0.00     0.003 A 
ATOM      3  C2  UNL d   1       0.382  -0.890  -1.127  0.00  0.00     0.048 A 
ATOM      4  C3  UNL d   1      -0.082  -1.311   0.119  0.00  0.00     0.023 A 
ATOM      5  C4  UNL d   1      -0.397  -0.378   1.108  0.00  0.00     0.048 A 
ATOM      6  C5  UNL d   1      -0.245   0.985   0.846  0.00  0.00     0.003 A 
ATOM      7  I   UNL d   1      -0.306  -3.341   0.505  0.00  0.00    -0.146 I 
ENDROOT
TORSDOF 0
ENDMDL
