MODEL 1
REMARK minimizedAffinity -4.353652
REMARK minimizedRMSD -1
REMARK  0 active torsions:
REMARK  status: ('A' for Active; 'I' for Inactive)
ROOT
ATOM      1  C   UNL d   1      -0.847  -2.175   0.641  0.00  0.00     0.023 A 
ATOM      2  C1  UNL d   1      -0.112  -1.755  -0.468  0.00  0.00     0.003 A 
ATOM      3  C2  UNL d   1       0.410  -0.461  -0.512  0.00  0.00     0.048 A 
ATOM      4  C3  UNL d   1       0.194   0.408   0.557  0.00  0.00     0.023 A 
ATOM      5  C4  UNL d   1      -0.539  -0.008   1.669  0.00  0.00     0.048 A 
ATOM      6  C5  UNL d   1      -1.060  -1.302   1.709  0.00  0.00     0.003 A 
ATOM      7  I   UNL d   1       0.971   2.335   0.494  0.00  0.00    -0.146 I 
ENDROOT
TORSDOF 0
ENDMDL
