MODEL 1
REMARK minimizedAffinity -1.30717051
REMARK minimizedRMSD -1
REMARK  0 active torsions:
REMARK  status: ('A' for Active; 'I' for Inactive)
ROOT
ATOM      1  C   UNL d   1      -0.835  -2.677   0.388  0.00  0.00     0.023 A 
ATOM      2  C1  UNL d   1      -0.879  -1.867   1.523  0.00  0.00     0.003 A 
ATOM      3  C2  UNL d   1      -0.361  -0.571   1.477  0.00  0.00     0.048 A 
ATOM      4  C3  UNL d   1       0.198  -0.090   0.293  0.00  0.00     0.023 A 
ATOM      5  C4  UNL d   1       0.243  -0.897  -0.845  0.00  0.00     0.048 A 
ATOM      6  C5  UNL d   1      -0.275  -2.193  -0.794  0.00  0.00     0.003 A 
ATOM      7  I   UNL d   1       0.968   1.839   0.223  0.00  0.00    -0.146 I 
ENDROOT
TORSDOF 0
ENDMDL
