MODEL 1
REMARK minimizedAffinity -4.86739063
REMARK minimizedRMSD -1
REMARK  2 active torsions:
REMARK  status: ('A' for Active; 'I' for Inactive)
REMARK    1  A    between atoms: C1_2  and  C2_3 
REMARK    2  A    between atoms: C2_3  and  C3_4 
ROOT
ATOM      1  C3  UNL d   1      -0.125  -0.352  -0.044  0.00  0.00    -0.075 A 
ATOM      2  C4  UNL d   1       1.270  -0.261   0.062  0.00  0.00     0.002 A 
ATOM      3  C5  UNL d   1       1.856   0.673   0.917  0.00  0.00     0.002 A 
ATOM      4  C6  UNL d   1       1.057   1.532   1.668  0.00  0.00    -0.004 A 
ATOM      5  C7  UNL d   1      -0.331   1.461   1.558  0.00  0.00     0.002 A 
ATOM      6  C8  UNL d   1      -0.919   0.525   0.707  0.00  0.00     0.002 A 
ENDROOT
BRANCH   1   7
ATOM      7  C2  UNL d   1      -0.766  -1.380  -0.945  0.00  0.00     0.056 C 
BRANCH   7   8
ATOM      8  C1  UNL d   1      -1.547  -0.781  -2.119  0.00  0.00     0.007 C 
ATOM      9  C   UNL d   1      -2.454  -1.788  -2.814  0.00  0.00     0.009 C 
ENDBRANCH   7   8
ENDBRANCH   1   7
TORSDOF 2
ENDMDL
