MODEL 1
REMARK minimizedAffinity -4.08626127
REMARK minimizedRMSD -1
REMARK  2 active torsions:
REMARK  status: ('A' for Active; 'I' for Inactive)
REMARK    1  A    between atoms: C1_2  and  C2_3 
REMARK    2  A    between atoms: C2_3  and  C3_4 
ROOT
ATOM      1  C3  UNL d   1      -0.798  -0.634  -0.376  0.00  0.00    -0.075 A 
ATOM      2  C4  UNL d   1      -0.792   0.577  -1.083  0.00  0.00     0.002 A 
ATOM      3  C5  UNL d   1      -0.533   1.780  -0.425  0.00  0.00     0.002 A 
ATOM      4  C6  UNL d   1      -0.287   1.788   0.946  0.00  0.00    -0.004 A 
ATOM      5  C7  UNL d   1      -0.306   0.593   1.661  0.00  0.00     0.002 A 
ATOM      6  C8  UNL d   1      -0.561  -0.613   1.005  0.00  0.00     0.002 A 
ENDROOT
BRANCH   1   7
ATOM      7  C2  UNL d   1      -1.048  -1.943  -1.088  0.00  0.00     0.056 C 
BRANCH   7   8
ATOM      8  C1  UNL d   1      -2.368  -1.987  -1.866  0.00  0.00     0.007 C 
ATOM      9  C   UNL d   1      -2.191  -1.757  -3.361  0.00  0.00     0.009 C 
ENDBRANCH   7   8
ENDBRANCH   1   7
TORSDOF 2
ENDMDL
