MODEL 1
REMARK minimizedAffinity -1.17198408
REMARK minimizedRMSD -1
REMARK  2 active torsions:
REMARK  status: ('A' for Active; 'I' for Inactive)
REMARK    1  A    between atoms: C1_2  and  C2_3 
REMARK    2  A    between atoms: C2_3  and  C3_4 
ROOT
ATOM      1  C3  UNL d   1      -0.902  -0.771  -0.472  0.00  0.00    -0.075 A 
ATOM      2  C4  UNL d   1      -0.070  -0.871   0.652  0.00  0.00     0.002 A 
ATOM      3  C5  UNL d   1      -0.094   0.112   1.642  0.00  0.00     0.002 A 
ATOM      4  C6  UNL d   1      -0.941   1.211   1.515  0.00  0.00    -0.004 A 
ATOM      5  C7  UNL d   1      -1.760   1.329   0.394  0.00  0.00     0.002 A 
ATOM      6  C8  UNL d   1      -1.741   0.345  -0.595  0.00  0.00     0.002 A 
ENDROOT
BRANCH   1   7
ATOM      7  C2  UNL d   1      -0.901  -1.846  -1.532  0.00  0.00     0.056 C 
BRANCH   7   8
ATOM      8  C1  UNL d   1      -2.244  -2.014  -2.251  0.00  0.00     0.007 C 
ATOM      9  C   UNL d   1      -2.219  -1.522  -3.692  0.00  0.00     0.009 C 
ENDBRANCH   7   8
ENDBRANCH   1   7
TORSDOF 2
ENDMDL
