MODEL 1
REMARK minimizedAffinity -2.93176174
REMARK minimizedRMSD -1
REMARK  2 active torsions:
REMARK  status: ('A' for Active; 'I' for Inactive)
REMARK    1  A    between atoms: C1_2  and  C2_3 
REMARK    2  A    between atoms: C2_3  and  C3_4 
ROOT
ATOM      1  C3  UNL d   1      -0.896  -0.898  -0.330  0.00  0.00    -0.075 A 
ATOM      2  C4  UNL d   1      -1.564  -0.798   0.899  0.00  0.00     0.002 A 
ATOM      3  C5  UNL d   1      -1.189   0.168   1.833  0.00  0.00     0.002 A 
ATOM      4  C6  UNL d   1      -0.137   1.038   1.555  0.00  0.00    -0.004 A 
ATOM      5  C7  UNL d   1       0.544   0.938   0.344  0.00  0.00     0.002 A 
ATOM      6  C8  UNL d   1       0.168  -0.025  -0.594  0.00  0.00     0.002 A 
ENDROOT
BRANCH   1   7
ATOM      7  C2  UNL d   1      -1.316  -1.922  -1.357  0.00  0.00     0.056 C 
BRANCH   7   8
ATOM      8  C1  UNL d   1      -1.560  -1.341  -2.754  0.00  0.00     0.007 C 
ATOM      9  C   UNL d   1      -3.019  -0.985  -3.010  0.00  0.00     0.009 C 
ENDBRANCH   7   8
ENDBRANCH   1   7
TORSDOF 2
ENDMDL
