MODEL 1
REMARK minimizedAffinity -5.17023373
REMARK minimizedRMSD -1
REMARK  2 active torsions:
REMARK  status: ('A' for Active; 'I' for Inactive)
REMARK    1  A    between atoms: C1_2  and  C2_3 
REMARK    2  A    between atoms: C2_3  and  C3_4 
ROOT
ATOM      1  C3  UNL d   1      -1.101  -1.098  -0.795  0.00  0.00    -0.075 A 
ATOM      2  C4  UNL d   1      -0.656  -1.274  -2.114  0.00  0.00     0.002 A 
ATOM      3  C5  UNL d   1      -1.522  -1.759  -3.095  0.00  0.00     0.002 A 
ATOM      4  C6  UNL d   1      -2.837  -2.083  -2.769  0.00  0.00    -0.004 A 
ATOM      5  C7  UNL d   1      -3.285  -1.927  -1.459  0.00  0.00     0.002 A 
ATOM      6  C8  UNL d   1      -2.422  -1.438  -0.476  0.00  0.00     0.002 A 
ENDROOT
BRANCH   1   7
ATOM      7  C2  UNL d   1      -0.178  -0.546   0.264  0.00  0.00     0.056 C 
BRANCH   7   8
ATOM      8  C1  UNL d   1      -0.898   0.203   1.391  0.00  0.00     0.007 C 
ATOM      9  C   UNL d   1      -0.203   1.497   1.793  0.00  0.00     0.009 C 
ENDBRANCH   7   8
ENDBRANCH   1   7
TORSDOF 2
ENDMDL
