MODEL 1
REMARK minimizedAffinity -5.06248426
REMARK minimizedRMSD -1
REMARK  2 active torsions:
REMARK  status: ('A' for Active; 'I' for Inactive)
REMARK    1  A    between atoms: C1_2  and  C2_3 
REMARK    2  A    between atoms: C2_3  and  C3_4 
ROOT
ATOM      1  C3  UNL d   1      -1.112  -0.148  -0.475  0.00  0.00    -0.075 A 
ATOM      2  C4  UNL d   1      -1.642   0.515  -1.591  0.00  0.00     0.002 A 
ATOM      3  C5  UNL d   1      -2.117  -0.209  -2.685  0.00  0.00     0.002 A 
ATOM      4  C6  UNL d   1      -2.060  -1.601  -2.681  0.00  0.00    -0.004 A 
ATOM      5  C7  UNL d   1      -1.521  -2.269  -1.584  0.00  0.00     0.002 A 
ATOM      6  C8  UNL d   1      -1.048  -1.548  -0.487  0.00  0.00     0.002 A 
ENDROOT
BRANCH   1   7
ATOM      7  C2  UNL d   1      -0.624   0.628   0.725  0.00  0.00     0.056 C 
BRANCH   7   8
ATOM      8  C1  UNL d   1       0.902   0.729   0.823  0.00  0.00     0.007 C 
ATOM      9  C   UNL d   1       1.376   1.489   2.055  0.00  0.00     0.009 C 
ENDBRANCH   7   8
ENDBRANCH   1   7
TORSDOF 2
ENDMDL
