MODEL 1
REMARK minimizedAffinity 2.25543046
REMARK minimizedRMSD -1
REMARK  2 active torsions:
REMARK  status: ('A' for Active; 'I' for Inactive)
REMARK    1  A    between atoms: C1_2  and  C2_3 
REMARK    2  A    between atoms: C2_3  and  C3_4 
ROOT
ATOM      1  C3  UNL d   1      -1.215  -1.759  -1.805  0.00  0.00    -0.075 A 
ATOM      2  C4  UNL d   1      -0.164  -2.025  -0.914  0.00  0.00     0.002 A 
ATOM      3  C5  UNL d   1       1.010  -1.272  -0.958  0.00  0.00     0.002 A 
ATOM      4  C6  UNL d   1       1.153  -0.253  -1.897  0.00  0.00    -0.004 A 
ATOM      5  C7  UNL d   1       0.122   0.009  -2.798  0.00  0.00     0.002 A 
ATOM      6  C8  UNL d   1      -1.055  -0.740  -2.753  0.00  0.00     0.002 A 
ENDROOT
BRANCH   1   7
ATOM      7  C2  UNL d   1      -2.499  -2.550  -1.743  0.00  0.00     0.056 C 
BRANCH   7   8
ATOM      8  C1  UNL d   1      -3.474  -2.074  -0.661  0.00  0.00     0.007 C 
ATOM      9  C   UNL d   1      -4.764  -2.881  -0.618  0.00  0.00     0.009 C 
ENDBRANCH   7   8
ENDBRANCH   1   7
TORSDOF 2
ENDMDL
