MODEL 1
REMARK minimizedAffinity 1.42998588
REMARK minimizedRMSD -1
REMARK  0 active torsions:
REMARK  status: ('A' for Active; 'I' for Inactive)
ROOT
ATOM      1  C   UNL d   1       5.682  -0.380  -4.871  0.00  0.00     0.023 A 
ATOM      2  C1  UNL d   1       5.999  -1.156  -3.755  0.00  0.00     0.003 A 
ATOM      3  C2  UNL d   1       5.009  -1.914  -3.127  0.00  0.00     0.048 A 
ATOM      4  C3  UNL d   1       3.705  -1.894  -3.620  0.00  0.00     0.023 A 
ATOM      5  C4  UNL d   1       3.384  -1.120  -4.736  0.00  0.00     0.048 A 
ATOM      6  C5  UNL d   1       4.376  -0.363  -5.361  0.00  0.00     0.003 A 
ATOM      7  I   UNL d   1       2.231  -3.022  -2.686  0.00  0.00    -0.146 I 
ENDROOT
TORSDOF 0
ENDMDL
