MODEL 1
REMARK minimizedAffinity 2.49078512
REMARK minimizedRMSD -1
REMARK  0 active torsions:
REMARK  status: ('A' for Active; 'I' for Inactive)
ROOT
ATOM      1  C   UNL d   1       0.161   4.724  -1.477  0.00  0.00     0.023 A 
ATOM      2  C1  UNL d   1      -0.612   3.571  -1.342  0.00  0.00     0.003 A 
ATOM      3  C2  UNL d   1      -0.164   2.519  -0.541  0.00  0.00     0.048 A 
ATOM      4  C3  UNL d   1       1.057   2.627   0.123  0.00  0.00     0.023 A 
ATOM      5  C4  UNL d   1       1.833   3.779  -0.008  0.00  0.00     0.048 A 
ATOM      6  C5  UNL d   1       1.382   4.828  -0.811  0.00  0.00     0.003 A 
ATOM      7  I   UNL d   1       1.725   1.062   1.317  0.00  0.00    -0.146 I 
ENDROOT
TORSDOF 0
ENDMDL
