MODEL 1
REMARK minimizedAffinity -2.33292365
REMARK minimizedRMSD -1
REMARK  0 active torsions:
REMARK  status: ('A' for Active; 'I' for Inactive)
ROOT
ATOM      1  C   UNL d   1      -5.342  -4.758  -1.508  0.00  0.00     0.023 A 
ATOM      2  C1  UNL d   1      -6.000  -4.223  -2.615  0.00  0.00     0.003 A 
ATOM      3  C2  UNL d   1      -5.597  -4.574  -3.905  0.00  0.00     0.048 A 
ATOM      4  C3  UNL d   1      -4.536  -5.461  -4.081  0.00  0.00     0.023 A 
ATOM      5  C4  UNL d   1      -3.875  -6.000  -2.975  0.00  0.00     0.048 A 
ATOM      6  C5  UNL d   1      -4.281  -5.645  -1.688  0.00  0.00     0.003 A 
ATOM      7  I   UNL d   1      -3.934  -5.985  -6.000  0.00  0.00    -0.146 I 
ENDROOT
TORSDOF 0
ENDMDL
