MODEL 1
REMARK minimizedAffinity 3.43585467
REMARK minimizedRMSD -1
REMARK  0 active torsions:
REMARK  status: ('A' for Active; 'I' for Inactive)
ROOT
ATOM      1  C   UNL d   1      -5.550  -4.041  -5.997  0.00  0.00     0.023 A 
ATOM      2  C1  UNL d   1      -5.696  -5.418  -5.829  0.00  0.00     0.003 A 
ATOM      3  C2  UNL d   1      -5.593  -5.982  -4.556  0.00  0.00     0.048 A 
ATOM      4  C3  UNL d   1      -5.345  -5.163  -3.455  0.00  0.00     0.023 A 
ATOM      5  C4  UNL d   1      -5.199  -3.784  -3.618  0.00  0.00     0.048 A 
ATOM      6  C5  UNL d   1      -5.302  -3.225  -4.893  0.00  0.00     0.003 A 
ATOM      7  I   UNL d   1      -5.192  -6.000  -1.558  0.00  0.00    -0.146 I 
ENDROOT
TORSDOF 0
ENDMDL
