MODEL 1
REMARK minimizedAffinity 4.76130295
REMARK minimizedRMSD -1
REMARK  0 active torsions:
REMARK  status: ('A' for Active; 'I' for Inactive)
ROOT
ATOM      1  C   UNL d   1       3.769  -1.583  -2.611  0.00  0.00     0.023 A 
ATOM      2  C1  UNL d   1       3.110  -0.494  -3.183  0.00  0.00     0.003 A 
ATOM      3  C2  UNL d   1       3.749   0.278  -4.155  0.00  0.00     0.048 A 
ATOM      4  C3  UNL d   1       5.046  -0.044  -4.552  0.00  0.00     0.023 A 
ATOM      5  C4  UNL d   1       5.709  -1.133  -3.983  0.00  0.00     0.048 A 
ATOM      6  C5  UNL d   1       5.067  -1.901  -3.011  0.00  0.00     0.003 A 
ATOM      7  I   UNL d   1       5.999   1.104  -5.999  0.00  0.00    -0.146 I 
ENDROOT
TORSDOF 0
ENDMDL
