MODEL 1
REMARK minimizedAffinity -1.30950499
REMARK minimizedRMSD -1
REMARK  0 active torsions:
REMARK  status: ('A' for Active; 'I' for Inactive)
ROOT
ATOM      1  C   UNL d   1      -0.912   0.087  -4.949  0.00  0.00     0.077 C 
ATOM      2  C1  UNL d   1       0.139  -0.107  -3.896  0.00  0.00    -0.074 A 
ATOM      3  C2  UNL d   1       1.498  -0.087  -4.224  0.00  0.00    -0.005 A 
ATOM      4  C3  UNL d   1       2.464  -0.260  -3.232  0.00  0.00     0.006 A 
ATOM      5  C4  UNL d   1       2.080  -0.453  -1.905  0.00  0.00    -0.005 A 
ATOM      6  C5  UNL d   1       0.726  -0.475  -1.557  0.00  0.00    -0.074 A 
ATOM      7  C6  UNL d   1       0.297  -0.673  -0.134  0.00  0.00     0.077 C 
ATOM      8  C7  UNL d   1      -0.238  -0.294  -2.558  0.00  0.00    -0.001 A 
ENDROOT
TORSDOF 0
ENDMDL
