MODEL 1
REMARK minimizedAffinity -5.01118755
REMARK minimizedRMSD -1
REMARK  0 active torsions:
REMARK  status: ('A' for Active; 'I' for Inactive)
ROOT
ATOM      1  C   UNL d   1       0.371  -0.632  -2.066  0.00  0.00     0.077 C 
ATOM      2  C1  UNL d   1       0.549  -0.414  -0.593  0.00  0.00    -0.074 A 
ATOM      3  C2  UNL d   1       1.752  -0.741   0.042  0.00  0.00    -0.005 A 
ATOM      4  C3  UNL d   1       1.906  -0.523   1.411  0.00  0.00     0.006 A 
ATOM      5  C4  UNL d   1       0.861   0.022   2.158  0.00  0.00    -0.005 A 
ATOM      6  C5  UNL d   1      -0.348   0.355   1.540  0.00  0.00    -0.074 A 
ATOM      7  C6  UNL d   1      -1.478   0.951   2.326  0.00  0.00     0.077 C 
ATOM      8  C7  UNL d   1      -0.493   0.141   0.163  0.00  0.00    -0.001 A 
ENDROOT
TORSDOF 0
ENDMDL
