MODEL 1
REMARK minimizedAffinity -3.02661467
REMARK minimizedRMSD -1
REMARK  0 active torsions:
REMARK  status: ('A' for Active; 'I' for Inactive)
ROOT
ATOM      1  C   UNL d   1       0.151  -0.411  -2.007  0.00  0.00     0.077 C 
ATOM      2  C1  UNL d   1       0.455  -0.310  -0.542  0.00  0.00    -0.074 A 
ATOM      3  C2  UNL d   1       1.686  -0.735  -0.032  0.00  0.00    -0.005 A 
ATOM      4  C3  UNL d   1       1.959  -0.626   1.331  0.00  0.00     0.006 A 
ATOM      5  C4  UNL d   1       1.004  -0.091   2.198  0.00  0.00    -0.005 A 
ATOM      6  C5  UNL d   1      -0.232   0.340   1.707  0.00  0.00    -0.074 A 
ATOM      7  C6  UNL d   1      -1.265   0.926   2.623  0.00  0.00     0.077 C 
ATOM      8  C7  UNL d   1      -0.495   0.234   0.334  0.00  0.00    -0.001 A 
ENDROOT
TORSDOF 0
ENDMDL
