MODEL 1
REMARK minimizedAffinity -3.65171623
REMARK minimizedRMSD -1
REMARK  0 active torsions:
REMARK  status: ('A' for Active; 'I' for Inactive)
ROOT
ATOM      1  C   UNL d   1      -1.175  -0.351  -5.011  0.00  0.00     0.077 C 
ATOM      2  C1  UNL d   1      -0.213  -0.126  -3.883  0.00  0.00    -0.074 A 
ATOM      3  C2  UNL d   1       1.054   0.420  -4.116  0.00  0.00    -0.005 A 
ATOM      4  C3  UNL d   1       1.934   0.632  -3.056  0.00  0.00     0.006 A 
ATOM      5  C4  UNL d   1       1.558   0.302  -1.753  0.00  0.00    -0.005 A 
ATOM      6  C5  UNL d   1       0.295  -0.243  -1.501  0.00  0.00    -0.074 A 
ATOM      7  C6  UNL d   1      -0.129  -0.595  -0.105  0.00  0.00     0.077 C 
ATOM      8  C7  UNL d   1      -0.587  -0.447  -2.571  0.00  0.00    -0.001 A 
ENDROOT
TORSDOF 0
ENDMDL
