MODEL 1
REMARK minimizedAffinity -5.32970333
REMARK minimizedRMSD -1
REMARK  0 active torsions:
REMARK  status: ('A' for Active; 'I' for Inactive)
ROOT
ATOM      1  C   UNL d   1      -1.494   0.877   2.602  0.00  0.00     0.077 C 
ATOM      2  C1  UNL d   1      -0.329   0.400   1.786  0.00  0.00    -0.074 A 
ATOM      3  C2  UNL d   1       0.881   0.052   2.395  0.00  0.00    -0.005 A 
ATOM      4  C3  UNL d   1       1.952  -0.399   1.623  0.00  0.00     0.006 A 
ATOM      5  C4  UNL d   1       1.824  -0.506   0.238  0.00  0.00    -0.005 A 
ATOM      6  C5  UNL d   1       0.622  -0.163  -0.388  0.00  0.00    -0.074 A 
ATOM      7  C6  UNL d   1       0.465  -0.281  -1.875  0.00  0.00     0.077 C 
ATOM      8  C7  UNL d   1      -0.452   0.283   0.394  0.00  0.00    -0.001 A 
ENDROOT
TORSDOF 0
ENDMDL
