MODEL 1
REMARK minimizedAffinity -3.42820954
REMARK minimizedRMSD -1
REMARK  0 active torsions:
REMARK  status: ('A' for Active; 'I' for Inactive)
ROOT
ATOM      1  C   UNL d   1      -1.093  -0.002   0.142  0.00  0.00     0.077 C 
ATOM      2  C1  UNL d   1      -0.180  -0.238  -1.025  0.00  0.00    -0.074 A 
ATOM      3  C2  UNL d   1       0.557  -1.421  -1.134  0.00  0.00    -0.005 A 
ATOM      4  C3  UNL d   1       1.394  -1.630  -2.230  0.00  0.00     0.006 A 
ATOM      5  C4  UNL d   1       1.502  -0.660  -3.226  0.00  0.00    -0.005 A 
ATOM      6  C5  UNL d   1       0.772   0.529  -3.135  0.00  0.00    -0.074 A 
ATOM      7  C6  UNL d   1       0.869   1.579  -4.202  0.00  0.00     0.077 C 
ATOM      8  C7  UNL d   1      -0.072   0.729  -2.034  0.00  0.00    -0.001 A 
ENDROOT
TORSDOF 0
ENDMDL
