MODEL 1
REMARK minimizedAffinity -1.69143605
REMARK minimizedRMSD -1
REMARK  0 active torsions:
REMARK  status: ('A' for Active; 'I' for Inactive)
ROOT
ATOM      1  C   UNL d   1       1.544  -0.408   1.637  0.00  0.00     0.077 C 
ATOM      2  C1  UNL d   1       0.696  -0.330   0.402  0.00  0.00    -0.074 A 
ATOM      3  C2  UNL d   1      -0.700  -0.311   0.488  0.00  0.00    -0.005 A 
ATOM      4  C3  UNL d   1      -1.475  -0.229  -0.668  0.00  0.00     0.006 A 
ATOM      5  C4  UNL d   1      -0.863  -0.166  -1.921  0.00  0.00    -0.005 A 
ATOM      6  C5  UNL d   1       0.531  -0.183  -2.027  0.00  0.00    -0.074 A 
ATOM      7  C6  UNL d   1       1.204  -0.106  -3.365  0.00  0.00     0.077 C 
ATOM      8  C7  UNL d   1       1.303  -0.259  -0.860  0.00  0.00    -0.001 A 
ENDROOT
TORSDOF 0
ENDMDL
