MODEL 1
REMARK minimizedAffinity -2.82708573
REMARK minimizedRMSD -1
REMARK  0 active torsions:
REMARK  status: ('A' for Active; 'I' for Inactive)
ROOT
ATOM      1  C   UNL d   1      -1.722   0.194   2.950  0.00  0.00     0.077 C 
ATOM      2  C1  UNL d   1      -0.441  -0.002   2.195  0.00  0.00    -0.074 A 
ATOM      3  C2  UNL d   1       0.731  -0.384   2.856  0.00  0.00    -0.005 A 
ATOM      4  C3  UNL d   1       1.913  -0.571   2.139  0.00  0.00     0.006 A 
ATOM      5  C4  UNL d   1       1.935  -0.379   0.758  0.00  0.00    -0.005 A 
ATOM      6  C5  UNL d   1       0.773   0.003   0.080  0.00  0.00    -0.074 A 
ATOM      7  C6  UNL d   1       0.777   0.205  -1.406  0.00  0.00     0.077 C 
ATOM      8  C7  UNL d   1      -0.413   0.183   0.806  0.00  0.00    -0.001 A 
ENDROOT
TORSDOF 0
ENDMDL
