MODEL 1
REMARK minimizedAffinity -1.35938001
REMARK minimizedRMSD -1
REMARK  0 active torsions:
REMARK  status: ('A' for Active; 'I' for Inactive)
ROOT
ATOM      1  C   UNL d   1       2.125  -0.284   2.601  0.00  0.00     0.077 C 
ATOM      2  C1  UNL d   1       0.875  -0.074   1.799  0.00  0.00    -0.074 A 
ATOM      3  C2  UNL d   1      -0.282   0.440   2.393  0.00  0.00    -0.005 A 
ATOM      4  C3  UNL d   1      -1.434   0.639   1.632  0.00  0.00     0.006 A 
ATOM      5  C4  UNL d   1      -1.441   0.326   0.272  0.00  0.00    -0.005 A 
ATOM      6  C5  UNL d   1      -0.293  -0.188  -0.339  0.00  0.00    -0.074 A 
ATOM      7  C6  UNL d   1      -0.280  -0.521  -1.801  0.00  0.00     0.077 C 
ATOM      8  C7  UNL d   1       0.863  -0.379   0.431  0.00  0.00    -0.001 A 
ENDROOT
TORSDOF 0
ENDMDL
