MODEL 1
REMARK minimizedAffinity 2.29605126
REMARK minimizedRMSD -1
REMARK  0 active torsions:
REMARK  status: ('A' for Active; 'I' for Inactive)
ROOT
ATOM      1  C   UNL d   1       4.439  -1.265   2.310  0.00  0.00     0.077 C 
ATOM      2  C1  UNL d   1       4.495   0.103   2.920  0.00  0.00    -0.074 A 
ATOM      3  C2  UNL d   1       3.848   1.187   2.316  0.00  0.00    -0.005 A 
ATOM      4  C3  UNL d   1       3.900   2.452   2.901  0.00  0.00     0.006 A 
ATOM      5  C4  UNL d   1       4.598   2.646   4.094  0.00  0.00    -0.005 A 
ATOM      6  C5  UNL d   1       5.250   1.575   4.713  0.00  0.00    -0.074 A 
ATOM      7  C6  UNL d   1       5.997   1.765   6.000  0.00  0.00     0.077 C 
ATOM      8  C7  UNL d   1       5.187   0.305   4.122  0.00  0.00    -0.001 A 
ENDROOT
TORSDOF 0
ENDMDL
