MODEL 1
REMARK minimizedAffinity 19.3228664
REMARK minimizedRMSD -1
REMARK  0 active torsions:
REMARK  status: ('A' for Active; 'I' for Inactive)
ROOT
ATOM      1  C   UNL d   1       2.187   1.144  -1.015  0.00  0.00     0.124 A 
ATOM      2  C1  UNL d   1       1.726   0.653   0.199  0.00  0.00     0.062 A 
ATOM      3  C2  UNL d   1       0.399   0.255   0.334  0.00  0.00     0.162 A 
ATOM      4  C3  UNL d   1      -0.477   0.345  -0.748  0.00  0.00    -0.034 A 
ATOM      5  C4  UNL d   1      -0.006   0.841  -1.965  0.00  0.00     0.162 A 
ATOM      6  C5  UNL d   1       1.321   1.237  -2.095  0.00  0.00     0.062 A 
ATOM      7  F   UNL d   1       1.765   1.711  -3.269  0.00  0.00    -0.097 F 
ATOM      8  F1  UNL d   1      -0.821   0.941  -3.026  0.00  0.00    -0.096 F 
ATOM      9  I   UNL d   1      -2.461  -0.249  -0.549  0.00  0.00    -0.060 I 
ATOM     10  F2  UNL d   1      -0.019  -0.216   1.519  0.00  0.00    -0.096 F 
ATOM     11  F3  UNL d   1       2.560   0.563   1.244  0.00  0.00    -0.097 F 
ATOM     12  F4  UNL d   1       3.464   1.527  -1.142  0.00  0.00    -0.092 F 
ENDROOT
TORSDOF 0
ENDMDL
