MODEL 1
REMARK minimizedAffinity 0.524610162
REMARK minimizedRMSD -1
REMARK  0 active torsions:
REMARK  status: ('A' for Active; 'I' for Inactive)
ROOT
ATOM      1  C   UNL d   1      -0.422  -1.500   4.077  0.00  0.00     0.124 A 
ATOM      2  C1  UNL d   1       0.582  -1.126   3.193  0.00  0.00     0.062 A 
ATOM      3  C2  UNL d   1       0.286  -0.316   2.101  0.00  0.00     0.162 A 
ATOM      4  C3  UNL d   1      -1.019   0.127   1.885  0.00  0.00    -0.034 A 
ATOM      5  C4  UNL d   1      -2.023  -0.254   2.777  0.00  0.00     0.162 A 
ATOM      6  C5  UNL d   1      -1.723  -1.064   3.868  0.00  0.00     0.062 A 
ATOM      7  F   UNL d   1      -2.693  -1.424   4.720  0.00  0.00    -0.097 F 
ATOM      8  F1  UNL d   1      -3.288   0.154   2.600  0.00  0.00    -0.096 F 
ATOM      9  I   UNL d   1      -1.464   1.338   0.252  0.00  0.00    -0.060 I 
ATOM     10  F2  UNL d   1       1.276   0.030   1.264  0.00  0.00    -0.096 F 
ATOM     11  F3  UNL d   1       1.839  -1.547   3.393  0.00  0.00    -0.097 F 
ATOM     12  F4  UNL d   1      -0.135  -2.280   5.127  0.00  0.00    -0.092 F 
ENDROOT
TORSDOF 0
ENDMDL
