MODEL 1
REMARK minimizedAffinity 10.592515
REMARK minimizedRMSD -1
REMARK  0 active torsions:
REMARK  status: ('A' for Active; 'I' for Inactive)
ROOT
ATOM      1  C   UNL d   1      -1.817  -0.686   3.325  0.00  0.00     0.124 A 
ATOM      2  C1  UNL d   1      -1.957   0.118   2.202  0.00  0.00     0.062 A 
ATOM      3  C2  UNL d   1      -0.837   0.496   1.468  0.00  0.00     0.162 A 
ATOM      4  C3  UNL d   1       0.434   0.071   1.854  0.00  0.00    -0.034 A 
ATOM      5  C4  UNL d   1       0.568  -0.736   2.985  0.00  0.00     0.162 A 
ATOM      6  C5  UNL d   1      -0.555  -1.112   3.716  0.00  0.00     0.062 A 
ATOM      7  F   UNL d   1      -0.417  -1.888   4.800  0.00  0.00    -0.097 F 
ATOM      8  F1  UNL d   1       1.775  -1.163   3.384  0.00  0.00    -0.096 F 
ATOM      9  I   UNL d   1       2.112   0.636   0.759  0.00  0.00    -0.060 I 
ATOM     10  F2  UNL d   1      -1.002   1.273   0.387  0.00  0.00    -0.096 F 
ATOM     11  F3  UNL d   1      -3.175   0.531   1.823  0.00  0.00    -0.097 F 
ATOM     12  F4  UNL d   1      -2.896  -1.048   4.030  0.00  0.00    -0.092 F 
ENDROOT
TORSDOF 0
ENDMDL
