MODEL 1
REMARK minimizedAffinity 18.8151627
REMARK minimizedRMSD -1
REMARK  0 active torsions:
REMARK  status: ('A' for Active; 'I' for Inactive)
ROOT
ATOM      1  C   UNL d   1      -3.215  -0.530   3.146  0.00  0.00     0.124 A 
ATOM      2  C1  UNL d   1      -3.126   0.248   2.000  0.00  0.00     0.062 A 
ATOM      3  C2  UNL d   1      -1.883   0.543   1.449  0.00  0.00     0.162 A 
ATOM      4  C3  UNL d   1      -0.717   0.058   2.043  0.00  0.00    -0.034 A 
ATOM      5  C4  UNL d   1      -0.815  -0.723   3.196  0.00  0.00     0.162 A 
ATOM      6  C5  UNL d   1      -2.060  -1.015   3.743  0.00  0.00     0.062 A 
ATOM      7  F   UNL d   1      -2.144  -1.767   4.850  0.00  0.00    -0.097 F 
ATOM      8  F1  UNL d   1       0.286  -1.205   3.792  0.00  0.00    -0.096 F 
ATOM      9  I   UNL d   1       1.144   0.497   1.222  0.00  0.00    -0.060 I 
ATOM     10  F2  UNL d   1      -1.827   1.297   0.342  0.00  0.00    -0.096 F 
ATOM     11  F3  UNL d   1      -4.241   0.718   1.423  0.00  0.00    -0.097 F 
ATOM     12  F4  UNL d   1      -4.413  -0.812   3.675  0.00  0.00    -0.092 F 
ENDROOT
TORSDOF 0
ENDMDL
