MODEL 1
REMARK minimizedAffinity 19.3581543
REMARK minimizedRMSD -1
REMARK  0 active torsions:
REMARK  status: ('A' for Active; 'I' for Inactive)
ROOT
ATOM      1  C   UNL d   1       2.936   1.356   0.712  0.00  0.00     0.124 A 
ATOM      2  C1  UNL d   1       1.949   2.248   1.106  0.00  0.00     0.062 A 
ATOM      3  C2  UNL d   1       0.606   1.937   0.913  0.00  0.00     0.162 A 
ATOM      4  C3  UNL d   1       0.242   0.726   0.324  0.00  0.00    -0.034 A 
ATOM      5  C4  UNL d   1       1.241  -0.166  -0.071  0.00  0.00     0.162 A 
ATOM      6  C5  UNL d   1       2.582   0.150   0.124  0.00  0.00     0.062 A 
ATOM      7  F   UNL d   1       3.534  -0.714  -0.257  0.00  0.00    -0.097 F 
ATOM      8  F1  UNL d   1       0.926  -1.339  -0.640  0.00  0.00    -0.096 F 
ATOM      9  I   UNL d   1      -1.764   0.257   0.034  0.00  0.00    -0.060 I 
ATOM     10  F2  UNL d   1      -0.326   2.818   1.304  0.00  0.00    -0.096 F 
ATOM     11  F3  UNL d   1       2.289   3.414   1.674  0.00  0.00    -0.097 F 
ATOM     12  F4  UNL d   1       4.228   1.658   0.898  0.00  0.00    -0.092 F 
ENDROOT
TORSDOF 0
ENDMDL
