MODEL 1
REMARK minimizedAffinity 2.70963526
REMARK minimizedRMSD -1
REMARK  0 active torsions:
REMARK  status: ('A' for Active; 'I' for Inactive)
ROOT
ATOM      1  C   UNL d   1      -0.533  -1.668   4.618  0.00  0.00     0.124 A 
ATOM      2  C1  UNL d   1       0.580  -1.377   3.842  0.00  0.00     0.062 A 
ATOM      3  C2  UNL d   1       0.435  -0.699   2.635  0.00  0.00     0.162 A 
ATOM      4  C3  UNL d   1      -0.830  -0.306   2.197  0.00  0.00    -0.034 A 
ATOM      5  C4  UNL d   1      -1.945  -0.603   2.982  0.00  0.00     0.162 A 
ATOM      6  C5  UNL d   1      -1.794  -1.281   4.187  0.00  0.00     0.062 A 
ATOM      7  F   UNL d   1      -2.871  -1.562   4.935  0.00  0.00    -0.097 F 
ATOM      8  F1  UNL d   1      -3.175  -0.240   2.590  0.00  0.00    -0.096 F 
ATOM      9  I   UNL d   1      -1.051   0.709   0.393  0.00  0.00    -0.060 I 
ATOM     10  F2  UNL d   1       1.528  -0.430   1.906  0.00  0.00    -0.096 F 
ATOM     11  F3  UNL d   1       1.800  -1.750   4.255  0.00  0.00    -0.097 F 
ATOM     12  F4  UNL d   1      -0.391  -2.322   5.778  0.00  0.00    -0.092 F 
ENDROOT
TORSDOF 0
ENDMDL
