MODEL 1
REMARK minimizedAffinity 3.34985662
REMARK minimizedRMSD -1
REMARK  0 active torsions:
REMARK  status: ('A' for Active; 'I' for Inactive)
ROOT
ATOM      1  C   UNL d   1      -2.241  -0.947   3.514  0.00  0.00     0.124 A 
ATOM      2  C1  UNL d   1      -2.282  -0.190   2.351  0.00  0.00     0.062 A 
ATOM      3  C2  UNL d   1      -1.100   0.182   1.717  0.00  0.00     0.162 A 
ATOM      4  C3  UNL d   1       0.133  -0.203   2.243  0.00  0.00    -0.034 A 
ATOM      5  C4  UNL d   1       0.166  -0.963   3.414  0.00  0.00     0.162 A 
ATOM      6  C5  UNL d   1      -1.018  -1.332   4.044  0.00  0.00     0.062 A 
ATOM      7  F   UNL d   1      -0.977  -2.063   5.168  0.00  0.00    -0.097 F 
ATOM      8  F1  UNL d   1       1.334  -1.350   3.948  0.00  0.00    -0.096 F 
ATOM      9  I   UNL d   1       1.902   0.351   1.298  0.00  0.00    -0.060 I 
ATOM     10  F2  UNL d   1      -1.169   0.913   0.594  0.00  0.00    -0.096 F 
ATOM     11  F3  UNL d   1      -3.462   0.184   1.837  0.00  0.00    -0.097 F 
ATOM     12  F4  UNL d   1      -3.380  -1.302   4.123  0.00  0.00    -0.092 F 
ENDROOT
TORSDOF 0
ENDMDL
