MODEL 1
REMARK minimizedAffinity 15.4411697
REMARK minimizedRMSD -1
REMARK  0 active torsions:
REMARK  status: ('A' for Active; 'I' for Inactive)
ROOT
ATOM      1  C   UNL d   1      -2.470   0.161   1.556  0.00  0.00     0.124 A 
ATOM      2  C1  UNL d   1      -2.176   0.161   0.200  0.00  0.00     0.062 A 
ATOM      3  C2  UNL d   1      -0.873  -0.066  -0.234  0.00  0.00     0.162 A 
ATOM      4  C3  UNL d   1       0.146  -0.295   0.691  0.00  0.00    -0.034 A 
ATOM      5  C4  UNL d   1      -0.157  -0.292   2.053  0.00  0.00     0.162 A 
ATOM      6  C5  UNL d   1      -1.461  -0.066   2.482  0.00  0.00     0.062 A 
ATOM      7  F   UNL d   1      -1.743  -0.066   3.792  0.00  0.00    -0.097 F 
ATOM      8  F1  UNL d   1       0.799  -0.509   2.969  0.00  0.00    -0.096 F 
ATOM      9  I   UNL d   1       2.096  -0.634   0.047  0.00  0.00    -0.060 I 
ATOM     10  F2  UNL d   1      -0.617  -0.060  -1.550  0.00  0.00    -0.096 F 
ATOM     11  F3  UNL d   1      -3.149   0.380  -0.696  0.00  0.00    -0.097 F 
ATOM     12  F4  UNL d   1      -3.725   0.380   1.971  0.00  0.00    -0.092 F 
ENDROOT
TORSDOF 0
ENDMDL
