MODEL 1
REMARK minimizedAffinity 7.21075296
REMARK minimizedRMSD -1
REMARK  0 active torsions:
REMARK  status: ('A' for Active; 'I' for Inactive)
ROOT
ATOM      1  C   UNL d   1      -1.375  -0.674   1.982  0.00  0.00     0.124 A 
ATOM      2  C1  UNL d   1      -0.095  -0.838   2.494  0.00  0.00     0.062 A 
ATOM      3  C2  UNL d   1       1.010  -0.402   1.769  0.00  0.00     0.162 A 
ATOM      4  C3  UNL d   1       0.841   0.203   0.524  0.00  0.00    -0.034 A 
ATOM      5  C4  UNL d   1      -0.449   0.364   0.015  0.00  0.00     0.162 A 
ATOM      6  C5  UNL d   1      -1.551  -0.073   0.743  0.00  0.00     0.062 A 
ATOM      7  F   UNL d   1      -2.786   0.086   0.247  0.00  0.00    -0.097 F 
ATOM      8  F1  UNL d   1      -0.648   0.942  -1.179  0.00  0.00    -0.096 F 
ATOM      9  I   UNL d   1       2.491   0.856  -0.563  0.00  0.00    -0.060 I 
ATOM     10  F2  UNL d   1       2.235  -0.573   2.289  0.00  0.00    -0.096 F 
ATOM     11  F3  UNL d   1       0.077  -1.419   3.690  0.00  0.00    -0.097 F 
ATOM     12  F4  UNL d   1      -2.437  -1.095   2.681  0.00  0.00    -0.092 F 
ENDROOT
TORSDOF 0
ENDMDL
