MODEL 1
REMARK minimizedAffinity 5.17657852
REMARK minimizedRMSD -1
REMARK  0 active torsions:
REMARK  status: ('A' for Active; 'I' for Inactive)
ROOT
ATOM      1  C   UNL d   1      -2.518  -0.954   3.970  0.00  0.00     0.124 A 
ATOM      2  C1  UNL d   1      -2.581  -0.384   2.705  0.00  0.00     0.062 A 
ATOM      3  C2  UNL d   1      -1.412  -0.093   2.009  0.00  0.00     0.162 A 
ATOM      4  C3  UNL d   1      -0.168  -0.373   2.575  0.00  0.00    -0.034 A 
ATOM      5  C4  UNL d   1      -0.112  -0.945   3.847  0.00  0.00     0.162 A 
ATOM      6  C5  UNL d   1      -1.284  -1.234   4.539  0.00  0.00     0.062 A 
ATOM      7  F   UNL d   1      -1.220  -1.784   5.760  0.00  0.00    -0.097 F 
ATOM      8  F1  UNL d   1       1.068  -1.226   4.420  0.00  0.00    -0.096 F 
ATOM      9  I   UNL d   1       1.583   0.061   1.537  0.00  0.00    -0.060 I 
ATOM     10  F2  UNL d   1      -1.504   0.457   0.789  0.00  0.00    -0.096 F 
ATOM     11  F3  UNL d   1      -3.773  -0.112   2.154  0.00  0.00    -0.097 F 
ATOM     12  F4  UNL d   1      -3.645  -1.232   4.638  0.00  0.00    -0.092 F 
ENDROOT
TORSDOF 0
ENDMDL
