MODEL 1
REMARK minimizedAffinity -6.57818842
REMARK minimizedRMSD -1
REMARK  0 active torsions:
REMARK  status: ('A' for Active; 'I' for Inactive)
ROOT
ATOM      1  C1  DEN d   1       0.699  -0.611   0.012  0.00  0.00     0.130 A 
ATOM      2  C2  DEN d   1      -0.758  -0.651   0.090  0.00  0.00    -0.031 A 
ATOM      3  C3  DEN d   1      -1.249   0.739   0.176  0.00  0.00     0.027 A 
ATOM      4  C4  DEN d   1       0.099   2.937   0.193  0.00  0.00     0.027 A 
ATOM      5  C5  DEN d   1       1.365   3.478   0.159  0.00  0.00    -0.003 A 
ATOM      6  C6  DEN d   1       2.491   2.699   0.108  0.00  0.00     0.001 A 
ATOM      7  C7  DEN d   1       2.370   1.336   0.045  0.00  0.00     0.017 A 
ATOM      8  C8  DEN d   1       1.097   0.783   0.086  0.00  0.00    -0.094 A 
ATOM      9  C9  DEN d   1      -0.029   1.588   0.125  0.00  0.00    -0.072 A 
ENDROOT
TORSDOF 0
ENDMDL
