MODEL 1
REMARK minimizedAffinity 5.81919241
REMARK minimizedRMSD -1
REMARK  0 active torsions:
REMARK  status: ('A' for Active; 'I' for Inactive)
ROOT
ATOM      1  C1  DEN d   1      -0.443   1.297   2.166  0.00  0.00     0.130 A 
ATOM      2  C2  DEN d   1      -0.877   2.660   1.875  0.00  0.00    -0.031 A 
ATOM      3  C3  DEN d   1      -1.590   2.645   0.582  0.00  0.00     0.027 A 
ATOM      4  C4  DEN d   1      -2.065   0.654  -0.987  0.00  0.00     0.027 A 
ATOM      5  C5  DEN d   1      -1.883  -0.699  -1.170  0.00  0.00    -0.003 A 
ATOM      6  C6  DEN d   1      -1.184  -1.469  -0.278  0.00  0.00     0.001 A 
ATOM      7  C7  DEN d   1      -0.680  -0.899   0.862  0.00  0.00     0.017 A 
ATOM      8  C8  DEN d   1      -0.854   0.465   1.050  0.00  0.00    -0.094 A 
ATOM      9  C9  DEN d   1      -1.574   1.224   0.142  0.00  0.00    -0.072 A 
ENDROOT
TORSDOF 0
ENDMDL
