MODEL 1
REMARK minimizedAffinity -3.06521463
REMARK minimizedRMSD -1
REMARK  0 active torsions:
REMARK  status: ('A' for Active; 'I' for Inactive)
ROOT
ATOM      1  C1  DEN d   1      -0.009   2.491   0.996  0.00  0.00     0.130 A 
ATOM      2  C2  DEN d   1      -1.448   2.361   0.783  0.00  0.00    -0.031 A 
ATOM      3  C3  DEN d   1      -1.725   0.967   0.381  0.00  0.00     0.027 A 
ATOM      4  C4  DEN d   1      -0.076  -0.992   0.075  0.00  0.00     0.027 A 
ATOM      5  C5  DEN d   1       1.249  -1.363   0.131  0.00  0.00    -0.003 A 
ATOM      6  C6  DEN d   1       2.244  -0.474   0.444  0.00  0.00     0.001 A 
ATOM      7  C7  DEN d   1       1.923   0.820   0.756  0.00  0.00     0.017 A 
ATOM      8  C8  DEN d   1       0.590   1.203   0.695  0.00  0.00    -0.094 A 
ATOM      9  C9  DEN d   1      -0.402   0.287   0.389  0.00  0.00    -0.072 A 
ENDROOT
TORSDOF 0
ENDMDL
