MODEL 1
REMARK minimizedAffinity 0.633802176
REMARK minimizedRMSD -1
REMARK  0 active torsions:
REMARK  status: ('A' for Active; 'I' for Inactive)
ROOT
ATOM      1  C1  DEN d   1       1.530   2.750   1.590  0.00  0.00     0.130 A 
ATOM      2  C2  DEN d   1       2.565   1.750   1.341  0.00  0.00    -0.031 A 
ATOM      3  C3  DEN d   1       1.932   0.592   0.679  0.00  0.00     0.027 A 
ATOM      4  C4  DEN d   1      -0.537   0.254   0.013  0.00  0.00     0.027 A 
ATOM      5  C5  DEN d   1      -1.792   0.821   0.030  0.00  0.00    -0.003 A 
ATOM      6  C6  DEN d   1      -2.032   2.046   0.593  0.00  0.00     0.001 A 
ATOM      7  C7  DEN d   1      -0.993   2.764   1.124  0.00  0.00     0.017 A 
ATOM      8  C8  DEN d   1       0.274   2.196   1.117  0.00  0.00    -0.094 A 
ATOM      9  C9  DEN d   1       0.498   0.962   0.532  0.00  0.00    -0.072 A 
ENDROOT
TORSDOF 0
ENDMDL
