MODEL 1
REMARK minimizedAffinity -4.98124027
REMARK minimizedRMSD -1
REMARK  0 active torsions:
REMARK  status: ('A' for Active; 'I' for Inactive)
ROOT
ATOM      1  C1  DEN d   1       1.125  -0.543  -1.056  0.00  0.00     0.130 A 
ATOM      2  C2  DEN d   1       1.280  -0.404   0.389  0.00  0.00    -0.031 A 
ATOM      3  C3  DEN d   1       0.544  -1.509   1.036  0.00  0.00     0.027 A 
ATOM      4  C4  DEN d   1      -0.810  -3.413  -0.055  0.00  0.00     0.027 A 
ATOM      5  C5  DEN d   1      -1.239  -3.943  -1.253  0.00  0.00    -0.003 A 
ATOM      6  C6  DEN d   1      -0.941  -3.362  -2.456  0.00  0.00     0.001 A 
ATOM      7  C7  DEN d   1      -0.154  -2.241  -2.493  0.00  0.00     0.017 A 
ATOM      8  C8  DEN d   1       0.275  -1.697  -1.289  0.00  0.00    -0.094 A 
ATOM      9  C9  DEN d   1      -0.026  -2.306  -0.083  0.00  0.00    -0.072 A 
ENDROOT
TORSDOF 0
ENDMDL
