MODEL 1
REMARK minimizedAffinity -3.8032577
REMARK minimizedRMSD -1
REMARK  0 active torsions:
REMARK  status: ('A' for Active; 'I' for Inactive)
ROOT
ATOM      1  C1  DEN d   1      -0.386  -1.639  -0.082  0.00  0.00     0.130 A 
ATOM      2  C2  DEN d   1       0.926  -2.153   0.301  0.00  0.00    -0.031 A 
ATOM      3  C3  DEN d   1       1.740  -1.016   0.777  0.00  0.00     0.027 A 
ATOM      4  C4  DEN d   1       1.098   1.475   0.961  0.00  0.00     0.027 A 
ATOM      5  C5  DEN d   1       0.096   2.395   0.743  0.00  0.00    -0.003 A 
ATOM      6  C6  DEN d   1      -1.114   2.043   0.208  0.00  0.00     0.001 A 
ATOM      7  C7  DEN d   1      -1.371   0.730  -0.086  0.00  0.00     0.017 A 
ATOM      8  C8  DEN d   1      -0.363  -0.202   0.124  0.00  0.00    -0.094 A 
ATOM      9  C9  DEN d   1       0.850   0.171   0.677  0.00  0.00    -0.072 A 
ENDROOT
TORSDOF 0
ENDMDL
