MODEL 1
REMARK minimizedAffinity 2.27171421
REMARK minimizedRMSD -1
REMARK  0 active torsions:
REMARK  status: ('A' for Active; 'I' for Inactive)
ROOT
ATOM      1  C1  DEN d   1      -1.647  -2.539  -0.344  0.00  0.00     0.130 A 
ATOM      2  C2  DEN d   1      -1.737  -3.398  -1.522  0.00  0.00    -0.031 A 
ATOM      3  C3  DEN d   1      -0.521  -3.190  -2.332  0.00  0.00     0.027 A 
ATOM      4  C4  DEN d   1       1.485  -1.633  -1.878  0.00  0.00     0.027 A 
ATOM      5  C5  DEN d   1       2.008  -0.700  -1.010  0.00  0.00    -0.003 A 
ATOM      6  C6  DEN d   1       1.339  -0.293   0.113  0.00  0.00     0.001 A 
ATOM      7  C7  DEN d   1       0.128  -0.854   0.423  0.00  0.00     0.017 A 
ATOM      8  C8  DEN d   1      -0.409  -1.790  -0.451  0.00  0.00    -0.094 A 
ATOM      9  C9  DEN d   1       0.289  -2.197  -1.575  0.00  0.00    -0.072 A 
ENDROOT
TORSDOF 0
ENDMDL
