MODEL 1
REMARK minimizedAffinity -5.6561017
REMARK minimizedRMSD -1
REMARK  0 active torsions:
REMARK  status: ('A' for Active; 'I' for Inactive)
ROOT
ATOM      1  C1  DEN d   1      -0.102   3.049   0.391  0.00  0.00     0.130 A 
ATOM      2  C2  DEN d   1       1.290   3.451   0.211  0.00  0.00    -0.031 A 
ATOM      3  C3  DEN d   1       2.113   2.228   0.128  0.00  0.00     0.027 A 
ATOM      4  C4  DEN d   1       1.369  -0.239   0.255  0.00  0.00     0.027 A 
ATOM      5  C5  DEN d   1       0.289  -1.079   0.415  0.00  0.00    -0.003 A 
ATOM      6  C6  DEN d   1      -0.982  -0.606   0.610  0.00  0.00     0.001 A 
ATOM      7  C7  DEN d   1      -1.211   0.745   0.605  0.00  0.00     0.017 A 
ATOM      8  C8  DEN d   1      -0.126   1.598   0.453  0.00  0.00    -0.094 A 
ATOM      9  C9  DEN d   1       1.149   1.100   0.245  0.00  0.00    -0.072 A 
ENDROOT
TORSDOF 0
ENDMDL
