MODEL 1
REMARK minimizedAffinity -5.79686642
REMARK minimizedRMSD -1
REMARK  0 active torsions:
REMARK  status: ('A' for Active; 'I' for Inactive)
ROOT
ATOM      1  C1  DEN d   1       1.809   3.034   0.259  0.00  0.00     0.130 A 
ATOM      2  C2  DEN d   1       0.718   4.005   0.292  0.00  0.00    -0.031 A 
ATOM      3  C3  DEN d   1      -0.556   3.259   0.308  0.00  0.00     0.027 A 
ATOM      4  C4  DEN d   1      -0.945   0.709   0.290  0.00  0.00     0.027 A 
ATOM      5  C5  DEN d   1      -0.325  -0.521   0.252  0.00  0.00    -0.003 A 
ATOM      6  C6  DEN d   1       1.037  -0.650   0.180  0.00  0.00     0.001 A 
ATOM      7  C7  DEN d   1       1.827   0.469   0.189  0.00  0.00     0.017 A 
ATOM      8  C8  DEN d   1       1.209   1.713   0.220  0.00  0.00    -0.094 A 
ATOM      9  C9  DEN d   1      -0.169   1.822   0.305  0.00  0.00    -0.072 A 
ENDROOT
TORSDOF 0
ENDMDL
