MODEL 1
REMARK minimizedAffinity -3.37632203
REMARK minimizedRMSD -1
REMARK  0 active torsions:
REMARK  status: ('A' for Active; 'I' for Inactive)
ROOT
ATOM      1  C1  BNZ d   1       0.760   1.350  -0.156  0.00  0.00     0.000 A 
ATOM      2  C2  BNZ d   1       0.974  -0.002  -0.102  0.00  0.00     0.000 A 
ATOM      3  C3  BNZ d   1       0.023  -0.841   0.409  0.00  0.00     0.000 A 
ATOM      4  C4  BNZ d   1      -1.122  -0.324   0.901  0.00  0.00     0.000 A 
ATOM      5  C5  BNZ d   1      -1.348   1.037   0.862  0.00  0.00     0.000 A 
ATOM      6  C6  BNZ d   1      -0.405   1.875   0.312  0.00  0.00     0.000 A 
ENDROOT
TORSDOF 0
ENDMDL
