MODEL 1
REMARK minimizedAffinity -3.00720382
REMARK minimizedRMSD -1
REMARK  0 active torsions:
REMARK  status: ('A' for Active; 'I' for Inactive)
ROOT
ATOM      1  C1  BNZ d   1      -0.124   3.626  -3.725  0.00  0.00     0.000 A 
ATOM      2  C2  BNZ d   1       0.933   3.333  -4.544  0.00  0.00     0.000 A 
ATOM      3  C3  BNZ d   1       1.904   2.457  -4.147  0.00  0.00     0.000 A 
ATOM      4  C4  BNZ d   1       1.838   1.907  -2.918  0.00  0.00     0.000 A 
ATOM      5  C5  BNZ d   1       0.784   2.199  -2.076  0.00  0.00     0.000 A 
ATOM      6  C6  BNZ d   1      -0.212   3.052  -2.494  0.00  0.00     0.000 A 
ENDROOT
TORSDOF 0
ENDMDL
