MODEL 1
REMARK minimizedAffinity 0.456826508
REMARK minimizedRMSD -1
REMARK  0 active torsions:
REMARK  status: ('A' for Active; 'I' for Inactive)
ROOT
ATOM      1  C1  BNZ d   1      -1.124  -1.153  -0.325  0.00  0.00     0.000 A 
ATOM      2  C2  BNZ d   1      -0.527   0.069  -0.169  0.00  0.00     0.000 A 
ATOM      3  C3  BNZ d   1      -1.105   1.036   0.606  0.00  0.00     0.000 A 
ATOM      4  C4  BNZ d   1      -2.297   0.793   1.190  0.00  0.00     0.000 A 
ATOM      5  C5  BNZ d   1      -2.915  -0.431   1.033  0.00  0.00     0.000 A 
ATOM      6  C6  BNZ d   1      -2.312  -1.415   0.285  0.00  0.00     0.000 A 
ENDROOT
TORSDOF 0
ENDMDL
