MODEL 1
REMARK minimizedAffinity -4.38653088
REMARK minimizedRMSD -1
REMARK  0 active torsions:
REMARK  status: ('A' for Active; 'I' for Inactive)
ROOT
ATOM      1  C1  BNZ d   1      -0.634   1.506   0.644  0.00  0.00     0.000 A 
ATOM      2  C2  BNZ d   1      -1.784   0.836   0.966  0.00  0.00     0.000 A 
ATOM      3  C3  BNZ d   1      -1.948  -0.478   0.624  0.00  0.00     0.000 A 
ATOM      4  C4  BNZ d   1      -0.980  -1.107  -0.074  0.00  0.00     0.000 A 
ATOM      5  C5  BNZ d   1       0.181  -0.442  -0.414  0.00  0.00     0.000 A 
ATOM      6  C6  BNZ d   1       0.359   0.868  -0.033  0.00  0.00     0.000 A 
ENDROOT
TORSDOF 0
ENDMDL
