MODEL 1
REMARK minimizedAffinity -4.77154255
REMARK minimizedRMSD -1
REMARK  0 active torsions:
REMARK  status: ('A' for Active; 'I' for Inactive)
ROOT
ATOM      1  C1  BNZ d   1       0.999  -1.530   1.003  0.00  0.00     0.000 A 
ATOM      2  C2  BNZ d   1       0.197  -2.588   1.336  0.00  0.00     0.000 A 
ATOM      3  C3  BNZ d   1      -1.140  -2.570   1.050  0.00  0.00     0.000 A 
ATOM      4  C4  BNZ d   1      -1.679  -1.479   0.468  0.00  0.00     0.000 A 
ATOM      5  C5  BNZ d   1      -0.884  -0.400   0.134  0.00  0.00     0.000 A 
ATOM      6  C6  BNZ d   1       0.468  -0.438   0.388  0.00  0.00     0.000 A 
ENDROOT
TORSDOF 0
ENDMDL
