MODEL 1
REMARK minimizedAffinity -4.15823555
REMARK minimizedRMSD -1
REMARK  0 active torsions:
REMARK  status: ('A' for Active; 'I' for Inactive)
ROOT
ATOM      1  C1  BNZ d   1       0.857  -1.562   0.557  0.00  0.00     0.000 A 
ATOM      2  C2  BNZ d   1       0.183  -0.394   0.320  0.00  0.00     0.000 A 
ATOM      3  C3  BNZ d   1      -1.183  -0.367   0.295  0.00  0.00     0.000 A 
ATOM      4  C4  BNZ d   1      -1.872  -1.514   0.465  0.00  0.00     0.000 A 
ATOM      5  C5  BNZ d   1      -1.207  -2.702   0.695  0.00  0.00     0.000 A 
ATOM      6  C6  BNZ d   1       0.168  -2.718   0.759  0.00  0.00     0.000 A 
ENDROOT
TORSDOF 0
ENDMDL
