MODEL 1
REMARK minimizedAffinity -1.33990407
REMARK minimizedRMSD -1
REMARK  0 active torsions:
REMARK  status: ('A' for Active; 'I' for Inactive)
ROOT
ATOM      1  C1  BNZ d   1       1.238   0.993   0.197  0.00  0.00     0.000 A 
ATOM      2  C2  BNZ d   1      -0.095   0.937  -0.111  0.00  0.00     0.000 A 
ATOM      3  C3  BNZ d   1      -0.787  -0.238  -0.010  0.00  0.00     0.000 A 
ATOM      4  C4  BNZ d   1      -0.138  -1.361   0.358  0.00  0.00     0.000 A 
ATOM      5  C5  BNZ d   1       1.208  -1.322   0.663  0.00  0.00     0.000 A 
ATOM      6  C6  BNZ d   1       1.893  -0.130   0.598  0.00  0.00     0.000 A 
ENDROOT
TORSDOF 0
ENDMDL
