MODEL 1
REMARK minimizedAffinity -4.0312109
REMARK minimizedRMSD -1
REMARK  0 active torsions:
REMARK  status: ('A' for Active; 'I' for Inactive)
ROOT
ATOM      1  C1  BNZ d   1      -0.715   1.069   0.516  0.00  0.00     0.000 A 
ATOM      2  C2  BNZ d   1      -1.874   0.468   0.929  0.00  0.00     0.000 A 
ATOM      3  C3  BNZ d   1      -2.339  -0.657   0.308  0.00  0.00     0.000 A 
ATOM      4  C4  BNZ d   1      -1.667  -1.156  -0.750  0.00  0.00     0.000 A 
ATOM      5  C5  BNZ d   1      -0.501  -0.556  -1.184  0.00  0.00     0.000 A 
ATOM      6  C6  BNZ d   1      -0.016   0.554  -0.531  0.00  0.00     0.000 A 
ENDROOT
TORSDOF 0
ENDMDL
