MODEL 1
REMARK minimizedAffinity -4.58670759
REMARK minimizedRMSD -1
REMARK  0 active torsions:
REMARK  status: ('A' for Active; 'I' for Inactive)
ROOT
ATOM      1  C1  BNZ d   1      -1.738  -1.180   0.303  0.00  0.00     0.000 A 
ATOM      2  C2  BNZ d   1      -0.896  -0.242  -0.231  0.00  0.00     0.000 A 
ATOM      3  C3  BNZ d   1       0.441  -0.256   0.057  0.00  0.00     0.000 A 
ATOM      4  C4  BNZ d   1       0.925  -1.182   0.908  0.00  0.00     0.000 A 
ATOM      5  C5  BNZ d   1       0.087  -2.129   1.462  0.00  0.00     0.000 A 
ATOM      6  C6  BNZ d   1      -1.251  -2.136   1.140  0.00  0.00     0.000 A 
ENDROOT
TORSDOF 0
ENDMDL
