MODEL 1
REMARK minimizedAffinity -1.35547292
REMARK minimizedRMSD -1
REMARK  0 active torsions:
REMARK  status: ('A' for Active; 'I' for Inactive)
ROOT
ATOM      1  C1  BNZ d   1       0.600  -1.235  -0.885  0.00  0.00     0.000 A 
ATOM      2  C2  BNZ d   1       1.428  -0.655  -1.809  0.00  0.00     0.000 A 
ATOM      3  C3  BNZ d   1       1.364   0.686  -2.063  0.00  0.00     0.000 A 
ATOM      4  C4  BNZ d   1       0.447   1.439  -1.422  0.00  0.00     0.000 A 
ATOM      5  C5  BNZ d   1      -0.401   0.868  -0.494  0.00  0.00     0.000 A 
ATOM      6  C6  BNZ d   1      -0.308  -0.476  -0.213  0.00  0.00     0.000 A 
ENDROOT
TORSDOF 0
ENDMDL
