MODEL 1
REMARK minimizedAffinity -4.07422829
REMARK minimizedRMSD -1
REMARK  1 active torsions:
REMARK  status: ('A' for Active; 'I' for Inactive)
REMARK    1  A    between atoms: N_2  and  C1_3 
ROOT
ATOM      1  C1  UNL d   1       0.275   1.066   0.416  0.00  0.00     0.143 A 
ATOM      2  C2  UNL d   1      -0.942   1.510   0.945  0.00  0.00    -0.057 A 
ATOM      3  C3  UNL d   1      -1.299   2.863   0.908  0.00  0.00     0.033 A 
ATOM      4  C4  UNL d   1      -0.430   3.803   0.364  0.00  0.00    -0.042 A 
ATOM      5  C5  UNL d   1       0.795   3.388  -0.145  0.00  0.00     0.033 A 
ATOM      6  C6  UNL d   1       1.144   2.035  -0.110  0.00  0.00    -0.057 A 
ENDROOT
BRANCH   1   7
ATOM      7  N   UNL d   1       0.730  -0.251   0.512  0.00  0.00    -0.732 N 
ATOM      8  C   UNL d   1       2.117  -0.531   0.817  0.00  0.00     0.284 C 
ATOM      9  H3  UNL d   1       0.069  -0.857   0.992  0.00  0.00     0.395 HD
ENDBRANCH   1   7
TORSDOF 1
ENDMDL
