MODEL 1
REMARK minimizedAffinity -4.30841064
REMARK minimizedRMSD -1
REMARK  1 active torsions:
REMARK  status: ('A' for Active; 'I' for Inactive)
REMARK    1  A    between atoms: N_2  and  C1_3 
ROOT
ATOM      1  C1  UNL d   1       0.102   0.640   0.678  0.00  0.00     0.143 A 
ATOM      2  C2  UNL d   1      -1.135   0.891   1.282  0.00  0.00    -0.057 A 
ATOM      3  C3  UNL d   1      -1.760   2.138   1.164  0.00  0.00     0.033 A 
ATOM      4  C4  UNL d   1      -1.144   3.169   0.463  0.00  0.00    -0.042 A 
ATOM      5  C5  UNL d   1       0.097   2.950  -0.124  0.00  0.00     0.033 A 
ATOM      6  C6  UNL d   1       0.714   1.700  -0.009  0.00  0.00    -0.057 A 
ENDROOT
BRANCH   1   7
ATOM      7  N   UNL d   1       0.821  -0.547   0.841  0.00  0.00    -0.732 N 
ATOM      8  C   UNL d   1       2.263  -0.526   0.956  0.00  0.00     0.284 C 
ATOM      9  H3  UNL d   1       0.362  -1.194   1.478  0.00  0.00     0.395 HD
ENDBRANCH   1   7
TORSDOF 1
ENDMDL
