MODEL 1
REMARK minimizedAffinity -4.10632467
REMARK minimizedRMSD -1
REMARK  1 active torsions:
REMARK  status: ('A' for Active; 'I' for Inactive)
REMARK    1  A    between atoms: N_2  and  C1_3 
ROOT
ATOM      1  C1  UNL d   1      -0.464   0.664   0.318  0.00  0.00     0.143 A 
ATOM      2  C2  UNL d   1      -1.328   1.694   0.705  0.00  0.00    -0.057 A 
ATOM      3  C3  UNL d   1      -0.881   3.017   0.806  0.00  0.00     0.033 A 
ATOM      4  C4  UNL d   1       0.450   3.329   0.549  0.00  0.00    -0.042 A 
ATOM      5  C5  UNL d   1       1.333   2.318   0.188  0.00  0.00     0.033 A 
ATOM      6  C6  UNL d   1       0.879   1.000   0.082  0.00  0.00    -0.057 A 
ENDROOT
BRANCH   1   7
ATOM      7  N   UNL d   1      -0.824  -0.686   0.295  0.00  0.00    -0.732 N 
ATOM      8  C   UNL d   1      -0.016  -1.652  -0.417  0.00  0.00     0.284 C 
ATOM      9  H3  UNL d   1      -1.165  -1.012   1.196  0.00  0.00     0.395 HD
ENDBRANCH   1   7
TORSDOF 1
ENDMDL
