MODEL 1
REMARK minimizedAffinity -3.38820291
REMARK minimizedRMSD -1
REMARK  1 active torsions:
REMARK  status: ('A' for Active; 'I' for Inactive)
REMARK    1  A    between atoms: N_2  and  C1_3 
ROOT
ATOM      1  C1  UNL d   1      -0.233  -0.326   0.334  0.00  0.00     0.143 A 
ATOM      2  C2  UNL d   1      -1.450  -0.040   0.962  0.00  0.00    -0.057 A 
ATOM      3  C3  UNL d   1      -1.767   1.261   1.374  0.00  0.00     0.033 A 
ATOM      4  C4  UNL d   1      -0.857   2.296   1.189  0.00  0.00    -0.042 A 
ATOM      5  C5  UNL d   1       0.369   2.031   0.588  0.00  0.00     0.033 A 
ATOM      6  C6  UNL d   1       0.677   0.731   0.174  0.00  0.00    -0.057 A 
ENDROOT
BRANCH   1   7
ATOM      7  N   UNL d   1       0.181  -1.615  -0.009  0.00  0.00    -0.732 N 
ATOM      8  C   UNL d   1      -0.631  -2.444  -0.874  0.00  0.00     0.284 C 
ATOM      9  H3  UNL d   1       1.178  -1.664  -0.203  0.00  0.00     0.395 HD
ENDBRANCH   1   7
TORSDOF 1
ENDMDL
