MODEL 1
REMARK minimizedAffinity -3.68365788
REMARK minimizedRMSD -1
REMARK  1 active torsions:
REMARK  status: ('A' for Active; 'I' for Inactive)
REMARK    1  A    between atoms: N_2  and  C1_3 
ROOT
ATOM      1  C1  UNL d   1      -0.288  -0.575   0.194  0.00  0.00     0.143 A 
ATOM      2  C2  UNL d   1       0.518   0.389  -0.422  0.00  0.00    -0.057 A 
ATOM      3  C3  UNL d   1       0.158   1.742  -0.426  0.00  0.00     0.033 A 
ATOM      4  C4  UNL d   1      -1.033   2.153   0.163  0.00  0.00    -0.042 A 
ATOM      5  C5  UNL d   1      -1.863   1.209   0.759  0.00  0.00     0.033 A 
ATOM      6  C6  UNL d   1      -1.494  -0.140   0.765  0.00  0.00    -0.057 A 
ENDROOT
BRANCH   1   7
ATOM      7  N   UNL d   1      -0.034  -1.947   0.145  0.00  0.00    -0.732 N 
ATOM      8  C   UNL d   1      -0.124  -2.670  -1.105  0.00  0.00     0.284 C 
ATOM      9  H3  UNL d   1       0.758  -2.216   0.725  0.00  0.00     0.395 HD
ENDBRANCH   1   7
TORSDOF 1
ENDMDL
