MODEL 1
REMARK minimizedAffinity -3.91348505
REMARK minimizedRMSD -1
REMARK  1 active torsions:
REMARK  status: ('A' for Active; 'I' for Inactive)
REMARK    1  A    between atoms: N_2  and  C1_3 
ROOT
ATOM      1  C1  UNL d   1       0.034  -0.569   0.098  0.00  0.00     0.143 A 
ATOM      2  C2  UNL d   1      -1.106   0.077   0.587  0.00  0.00    -0.057 A 
ATOM      3  C3  UNL d   1      -1.233   1.470   0.528  0.00  0.00     0.033 A 
ATOM      4  C4  UNL d   1      -0.205   2.246   0.003  0.00  0.00    -0.042 A 
ATOM      5  C5  UNL d   1       0.948   1.627  -0.466  0.00  0.00     0.033 A 
ATOM      6  C6  UNL d   1       1.066   0.235  -0.410  0.00  0.00    -0.057 A 
ENDROOT
BRANCH   1   7
ATOM      7  N   UNL d   1       0.261  -1.943   0.218  0.00  0.00    -0.732 N 
ATOM      8  C   UNL d   1      -0.114  -2.848  -0.846  0.00  0.00     0.284 C 
ATOM      9  H3  UNL d   1       1.162  -2.151   0.643  0.00  0.00     0.395 HD
ENDBRANCH   1   7
TORSDOF 1
ENDMDL
