MODEL 1
REMARK minimizedAffinity -3.97692084
REMARK minimizedRMSD -1
REMARK  1 active torsions:
REMARK  status: ('A' for Active; 'I' for Inactive)
REMARK    1  A    between atoms: N_2  and  C1_3 
ROOT
ATOM      1  C1  UNL d   1       1.669   0.995   0.814  0.00  0.00     0.143 A 
ATOM      2  C2  UNL d   1       0.666   0.042   0.603  0.00  0.00    -0.057 A 
ATOM      3  C3  UNL d   1      -0.685   0.406   0.567  0.00  0.00     0.033 A 
ATOM      4  C4  UNL d   1      -1.061   1.730   0.771  0.00  0.00    -0.042 A 
ATOM      5  C5  UNL d   1      -0.084   2.690   1.007  0.00  0.00     0.033 A 
ATOM      6  C6  UNL d   1       1.265   2.321   1.035  0.00  0.00    -0.057 A 
ENDROOT
BRANCH   1   7
ATOM      7  N   UNL d   1       3.022   0.681   0.959  0.00  0.00    -0.732 N 
ATOM      8  C   UNL d   1       4.035   1.451   0.270  0.00  0.00     0.284 C 
ATOM      9  H3  UNL d   1       3.264   0.439   1.917  0.00  0.00     0.395 HD
ENDBRANCH   1   7
TORSDOF 1
ENDMDL
