MODEL 1
REMARK minimizedAffinity -3.97541428
REMARK minimizedRMSD -1
REMARK  1 active torsions:
REMARK  status: ('A' for Active; 'I' for Inactive)
REMARK    1  A    between atoms: N_2  and  C1_3 
ROOT
ATOM      1  C1  UNL d   1      -0.311   0.289   0.018  0.00  0.00     0.143 A 
ATOM      2  C2  UNL d   1       0.221   1.550  -0.274  0.00  0.00    -0.057 A 
ATOM      3  C3  UNL d   1      -0.327   2.715   0.277  0.00  0.00     0.033 A 
ATOM      4  C4  UNL d   1      -1.439   2.641   1.110  0.00  0.00    -0.042 A 
ATOM      5  C5  UNL d   1      -2.000   1.401   1.393  0.00  0.00     0.033 A 
ATOM      6  C6  UNL d   1      -1.444   0.241   0.845  0.00  0.00    -0.057 A 
ENDROOT
BRANCH   1   7
ATOM      7  N   UNL d   1       0.128  -0.896  -0.576  0.00  0.00    -0.732 N 
ATOM      8  C   UNL d   1      -0.348  -2.178  -0.102  0.00  0.00     0.284 C 
ATOM      9  H3  UNL d   1       0.188  -0.824  -1.589  0.00  0.00     0.395 HD
ENDBRANCH   1   7
TORSDOF 1
ENDMDL
