MODEL 1
REMARK minimizedAffinity -4.39256001
REMARK minimizedRMSD -1
REMARK  1 active torsions:
REMARK  status: ('A' for Active; 'I' for Inactive)
REMARK    1  A    between atoms: N_2  and  C1_3 
ROOT
ATOM      1  C1  UNL d   1      -0.625  -0.352  -0.092  0.00  0.00     0.143 A 
ATOM      2  C2  UNL d   1      -1.638   0.081   0.770  0.00  0.00    -0.057 A 
ATOM      3  C3  UNL d   1      -1.824   1.440   1.048  0.00  0.00     0.033 A 
ATOM      4  C4  UNL d   1      -0.978   2.392   0.488  0.00  0.00    -0.042 A 
ATOM      5  C5  UNL d   1       0.051   1.983  -0.352  0.00  0.00     0.033 A 
ATOM      6  C6  UNL d   1       0.227   0.624  -0.631  0.00  0.00    -0.057 A 
ENDROOT
BRANCH   1   7
ATOM      7  N   UNL d   1      -0.328  -1.696  -0.330  0.00  0.00    -0.732 N 
ATOM      8  C   UNL d   1      -0.130  -2.179  -1.680  0.00  0.00     0.284 C 
ATOM      9  H3  UNL d   1       0.330  -2.075   0.347  0.00  0.00     0.395 HD
ENDBRANCH   1   7
TORSDOF 1
ENDMDL
