MODEL 1
REMARK minimizedAffinity -4.34093904
REMARK minimizedRMSD -1
REMARK  1 active torsions:
REMARK  status: ('A' for Active; 'I' for Inactive)
REMARK    1  A    between atoms: N_2  and  C1_3 
ROOT
ATOM      1  C1  UNL d   1      -0.134   0.115   0.277  0.00  0.00     0.143 A 
ATOM      2  C2  UNL d   1      -0.549   1.000   1.278  0.00  0.00    -0.057 A 
ATOM      3  C3  UNL d   1      -0.367   2.382   1.147  0.00  0.00     0.033 A 
ATOM      4  C4  UNL d   1       0.264   2.903   0.021  0.00  0.00    -0.042 A 
ATOM      5  C5  UNL d   1       0.707   2.040  -0.975  0.00  0.00     0.033 A 
ATOM      6  C6  UNL d   1       0.516   0.662  -0.841  0.00  0.00    -0.057 A 
ENDROOT
BRANCH   1   7
ATOM      7  N   UNL d   1      -0.199  -1.275   0.392  0.00  0.00    -0.732 N 
ATOM      8  C   UNL d   1      -0.122  -2.117  -0.782  0.00  0.00     0.284 C 
ATOM      9  H3  UNL d   1       0.330  -1.624   1.189  0.00  0.00     0.395 HD
ENDBRANCH   1   7
TORSDOF 1
ENDMDL
