MODEL 1
REMARK minimizedAffinity -4.63937664
REMARK minimizedRMSD -1
REMARK  1 active torsions:
REMARK  status: ('A' for Active; 'I' for Inactive)
REMARK    1  A    between atoms: N_2  and  C1_3 
ROOT
ATOM      1  C1  UNL d   1      -0.139  -0.253   0.204  0.00  0.00     0.143 A 
ATOM      2  C2  UNL d   1       0.961   0.506  -0.212  0.00  0.00    -0.057 A 
ATOM      3  C3  UNL d   1       0.981   1.898  -0.062  0.00  0.00     0.033 A 
ATOM      4  C4  UNL d   1      -0.114   2.561   0.482  0.00  0.00    -0.042 A 
ATOM      5  C5  UNL d   1      -1.228   1.830   0.879  0.00  0.00     0.033 A 
ATOM      6  C6  UNL d   1      -1.240   0.439   0.733  0.00  0.00    -0.057 A 
ENDROOT
BRANCH   1   7
ATOM      7  N   UNL d   1      -0.260  -1.628  -0.008  0.00  0.00    -0.732 N 
ATOM      8  C   UNL d   1      -0.469  -2.153  -1.340  0.00  0.00     0.284 C 
ATOM      9  H3  UNL d   1       0.396  -2.167   0.553  0.00  0.00     0.395 HD
ENDBRANCH   1   7
TORSDOF 1
ENDMDL
