MODEL 1
REMARK minimizedAffinity -3.82162046
REMARK minimizedRMSD -1
REMARK  1 active torsions:
REMARK  status: ('A' for Active; 'I' for Inactive)
REMARK    1  A    between atoms: N_2  and  C1_3 
ROOT
ATOM      1  C1  UNL d   1       0.378  -0.205   0.004  0.00  0.00     0.143 A 
ATOM      2  C2  UNL d   1       1.143   0.913  -0.343  0.00  0.00    -0.057 A 
ATOM      3  C3  UNL d   1       0.679   2.213  -0.107  0.00  0.00     0.033 A 
ATOM      4  C4  UNL d   1      -0.577   2.417   0.456  0.00  0.00    -0.042 A 
ATOM      5  C5  UNL d   1      -1.365   1.321   0.786  0.00  0.00     0.033 A 
ATOM      6  C6  UNL d   1      -0.892   0.026   0.554  0.00  0.00    -0.057 A 
ENDROOT
BRANCH   1   7
ATOM      7  N   UNL d   1       0.742  -1.520  -0.295  0.00  0.00    -0.732 N 
ATOM      8  C   UNL d   1      -0.041  -2.310  -1.220  0.00  0.00     0.284 C 
ATOM      9  H3  UNL d   1       1.748  -1.630  -0.403  0.00  0.00     0.395 HD
ENDBRANCH   1   7
TORSDOF 1
ENDMDL
