MODEL 1
REMARK minimizedAffinity -3.46891856
REMARK minimizedRMSD -1
REMARK  1 active torsions:
REMARK  status: ('A' for Active; 'I' for Inactive)
REMARK    1  A    between atoms: N_2  and  C1_3 
ROOT
ATOM      1  C1  UNL d   1       0.019  -0.809   0.141  0.00  0.00     0.143 A 
ATOM      2  C2  UNL d   1       1.129  -0.063  -0.272  0.00  0.00    -0.057 A 
ATOM      3  C3  UNL d   1       1.085   1.335  -0.323  0.00  0.00     0.033 A 
ATOM      4  C4  UNL d   1      -0.083   2.013   0.011  0.00  0.00    -0.042 A 
ATOM      5  C5  UNL d   1      -1.205   1.291   0.401  0.00  0.00     0.033 A 
ATOM      6  C6  UNL d   1      -1.153  -0.105   0.456  0.00  0.00    -0.057 A 
ENDROOT
BRANCH   1   7
ATOM      7  N   UNL d   1      -0.031  -2.205   0.119  0.00  0.00    -0.732 N 
ATOM      8  C   UNL d   1      -0.427  -2.910  -1.081  0.00  0.00     0.284 C 
ATOM      9  H3  UNL d   1       0.751  -2.630   0.611  0.00  0.00     0.395 HD
ENDBRANCH   1   7
TORSDOF 1
ENDMDL
