MODEL 1
REMARK minimizedAffinity -6.31984758
REMARK minimizedRMSD -1
REMARK  0 active torsions:
REMARK  status: ('A' for Active; 'I' for Inactive)
ROOT
ATOM      1  C   UNL d   1      -2.644  -2.509   1.033  0.00  0.00     0.077 C 
ATOM      2  C1  UNL d   1      -1.836  -1.533   0.231  0.00  0.00    -0.074 A 
ATOM      3  C2  UNL d   1      -2.402  -0.846  -0.847  0.00  0.00    -0.005 A 
ATOM      4  C3  UNL d   1      -1.641   0.066  -1.578  0.00  0.00     0.006 A 
ATOM      5  C4  UNL d   1      -0.307   0.300  -1.239  0.00  0.00    -0.005 A 
ATOM      6  C5  UNL d   1       0.276  -0.378  -0.163  0.00  0.00    -0.074 A 
ATOM      7  C6  UNL d   1       1.705  -0.132   0.221  0.00  0.00     0.077 C 
ATOM      8  C7  UNL d   1      -0.498  -1.288   0.570  0.00  0.00    -0.001 A 
ENDROOT
TORSDOF 0
ENDMDL
