MODEL 1
REMARK minimizedAffinity -5.24648523
REMARK minimizedRMSD -1
REMARK  0 active torsions:
REMARK  status: ('A' for Active; 'I' for Inactive)
ROOT
ATOM      1  C   UNL d   1      -2.250  -3.363   2.176  0.00  0.00     0.077 C 
ATOM      2  C1  UNL d   1      -1.831  -2.263   1.246  0.00  0.00    -0.074 A 
ATOM      3  C2  UNL d   1      -2.720  -1.745   0.299  0.00  0.00    -0.005 A 
ATOM      4  C3  UNL d   1      -2.319  -0.715  -0.552  0.00  0.00     0.006 A 
ATOM      5  C4  UNL d   1      -1.027  -0.195  -0.466  0.00  0.00    -0.005 A 
ATOM      6  C5  UNL d   1      -0.125  -0.700   0.475  0.00  0.00    -0.074 A 
ATOM      7  C6  UNL d   1       1.264  -0.145   0.588  0.00  0.00     0.077 C 
ATOM      8  C7  UNL d   1      -0.538  -1.730   1.332  0.00  0.00    -0.001 A 
ENDROOT
TORSDOF 0
ENDMDL
