MODEL 1
REMARK minimizedAffinity -3.53547192
REMARK minimizedRMSD -1
REMARK  0 active torsions:
REMARK  status: ('A' for Active; 'I' for Inactive)
ROOT
ATOM      1  C   UNL d   1       0.977   1.461   1.362  0.00  0.00     0.077 C 
ATOM      2  C1  UNL d   1       0.155   0.719   0.350  0.00  0.00    -0.074 A 
ATOM      3  C2  UNL d   1       0.580   0.606  -0.977  0.00  0.00    -0.005 A 
ATOM      4  C3  UNL d   1      -0.191  -0.095  -1.905  0.00  0.00     0.006 A 
ATOM      5  C4  UNL d   1      -1.392  -0.690  -1.515  0.00  0.00    -0.005 A 
ATOM      6  C5  UNL d   1      -1.832  -0.588  -0.191  0.00  0.00    -0.074 A 
ATOM      7  C6  UNL d   1      -3.115  -1.229   0.247  0.00  0.00     0.077 C 
ATOM      8  C7  UNL d   1      -1.049   0.112   0.736  0.00  0.00    -0.001 A 
ENDROOT
TORSDOF 0
ENDMDL
