MODEL 1
REMARK minimizedAffinity -5.17024088
REMARK minimizedRMSD -1
REMARK  0 active torsions:
REMARK  status: ('A' for Active; 'I' for Inactive)
ROOT
ATOM      1  C   UNL d   1      -1.210   0.505  -2.364  0.00  0.00     0.077 C 
ATOM      2  C1  UNL d   1      -1.220  -0.062  -0.975  0.00  0.00    -0.074 A 
ATOM      3  C2  UNL d   1      -2.395  -0.089  -0.218  0.00  0.00    -0.005 A 
ATOM      4  C3  UNL d   1      -2.391  -0.629   1.068  0.00  0.00     0.006 A 
ATOM      5  C4  UNL d   1      -1.214  -1.146   1.609  0.00  0.00    -0.005 A 
ATOM      6  C5  UNL d   1      -0.029  -1.129   0.866  0.00  0.00    -0.074 A 
ATOM      7  C6  UNL d   1       1.243  -1.690   1.429  0.00  0.00     0.077 C 
ATOM      8  C7  UNL d   1      -0.043  -0.591  -0.428  0.00  0.00    -0.001 A 
ENDROOT
TORSDOF 0
ENDMDL
