MODEL 1
REMARK minimizedAffinity -2.94815707
REMARK minimizedRMSD -1
REMARK  0 active torsions:
REMARK  status: ('A' for Active; 'I' for Inactive)
ROOT
ATOM      1  C   UNL d   1      -3.138  -0.180   0.197  0.00  0.00     0.077 C 
ATOM      2  C1  UNL d   1      -1.663  -0.018  -0.024  0.00  0.00    -0.074 A 
ATOM      3  C2  UNL d   1      -1.050  -0.518  -1.177  0.00  0.00    -0.005 A 
ATOM      4  C3  UNL d   1       0.321  -0.351  -1.373  0.00  0.00     0.006 A 
ATOM      5  C4  UNL d   1       1.091   0.316  -0.420  0.00  0.00    -0.005 A 
ATOM      6  C5  UNL d   1       0.495   0.824   0.739  0.00  0.00    -0.074 A 
ATOM      7  C6  UNL d   1       1.307   1.552   1.769  0.00  0.00     0.077 C 
ATOM      8  C7  UNL d   1      -0.884   0.658   0.925  0.00  0.00    -0.001 A 
ENDROOT
TORSDOF 0
ENDMDL
