MODEL 1
REMARK minimizedAffinity -5.35459757
REMARK minimizedRMSD -1
REMARK  0 active torsions:
REMARK  status: ('A' for Active; 'I' for Inactive)
ROOT
ATOM      1  C   UNL d   1       0.526  -2.296   2.243  0.00  0.00     0.077 C 
ATOM      2  C1  UNL d   1       0.058  -1.371   1.160  0.00  0.00    -0.074 A 
ATOM      3  C2  UNL d   1       0.973  -0.653   0.383  0.00  0.00    -0.005 A 
ATOM      4  C3  UNL d   1       0.523   0.197  -0.628  0.00  0.00     0.006 A 
ATOM      5  C4  UNL d   1      -0.844   0.338  -0.871  0.00  0.00    -0.005 A 
ATOM      6  C5  UNL d   1      -1.774  -0.373  -0.104  0.00  0.00    -0.074 A 
ATOM      7  C6  UNL d   1      -3.246  -0.240  -0.359  0.00  0.00     0.077 C 
ATOM      8  C7  UNL d   1      -1.314  -1.230   0.904  0.00  0.00    -0.001 A 
ENDROOT
TORSDOF 0
ENDMDL
