MODEL 1
REMARK minimizedAffinity -3.55720639
REMARK minimizedRMSD -1
REMARK  0 active torsions:
REMARK  status: ('A' for Active; 'I' for Inactive)
ROOT
ATOM      1  C   UNL d   1       2.974   1.829   2.292  0.00  0.00     0.077 C 
ATOM      2  C1  UNL d   1       2.104   1.052   1.349  0.00  0.00    -0.074 A 
ATOM      3  C2  UNL d   1       2.620   0.534   0.156  0.00  0.00    -0.005 A 
ATOM      4  C3  UNL d   1       1.801  -0.194  -0.706  0.00  0.00     0.006 A 
ATOM      5  C4  UNL d   1       0.461  -0.412  -0.386  0.00  0.00    -0.005 A 
ATOM      6  C5  UNL d   1      -0.072   0.097   0.803  0.00  0.00    -0.074 A 
ATOM      7  C6  UNL d   1      -1.508  -0.137   1.167  0.00  0.00     0.077 C 
ATOM      8  C7  UNL d   1       0.759   0.822   1.668  0.00  0.00    -0.001 A 
ENDROOT
TORSDOF 0
ENDMDL
