MODEL 1
REMARK minimizedAffinity -5.76960611
REMARK minimizedRMSD -1
REMARK  0 active torsions:
REMARK  status: ('A' for Active; 'I' for Inactive)
ROOT
ATOM      1  C   UNL d   1      -3.507  -0.930   0.211  0.00  0.00     0.077 C 
ATOM      2  C1  UNL d   1      -2.185  -0.471  -0.328  0.00  0.00    -0.074 A 
ATOM      3  C2  UNL d   1      -2.116   0.372  -1.441  0.00  0.00    -0.005 A 
ATOM      4  C3  UNL d   1      -0.879   0.799  -1.925  0.00  0.00     0.006 A 
ATOM      5  C4  UNL d   1       0.299   0.388  -1.301  0.00  0.00    -0.005 A 
ATOM      6  C5  UNL d   1       0.250  -0.454  -0.186  0.00  0.00    -0.074 A 
ATOM      7  C6  UNL d   1       1.507  -0.898   0.502  0.00  0.00     0.077 C 
ATOM      8  C7  UNL d   1      -0.996  -0.873   0.298  0.00  0.00    -0.001 A 
ENDROOT
TORSDOF 0
ENDMDL
