MODEL 1
REMARK minimizedAffinity -4.3948369
REMARK minimizedRMSD -1
REMARK  0 active torsions:
REMARK  status: ('A' for Active; 'I' for Inactive)
ROOT
ATOM      1  C   UNL d   1      -1.824  -2.676   2.242  0.00  0.00     0.077 C 
ATOM      2  C1  UNL d   1      -1.628  -1.768   1.065  0.00  0.00    -0.074 A 
ATOM      3  C2  UNL d   1      -2.573  -1.711   0.036  0.00  0.00    -0.005 A 
ATOM      4  C3  UNL d   1      -2.382  -0.855  -1.049  0.00  0.00     0.006 A 
ATOM      5  C4  UNL d   1      -1.246  -0.048  -1.115  0.00  0.00    -0.005 A 
ATOM      6  C5  UNL d   1      -0.290  -0.091  -0.095  0.00  0.00    -0.074 A 
ATOM      7  C6  UNL d   1       0.933   0.777  -0.146  0.00  0.00     0.077 C 
ATOM      8  C7  UNL d   1      -0.492  -0.949   0.994  0.00  0.00    -0.001 A 
ENDROOT
TORSDOF 0
ENDMDL
