MODEL 1
REMARK minimizedAffinity -5.66640759
REMARK minimizedRMSD -1
REMARK  0 active torsions:
REMARK  status: ('A' for Active; 'I' for Inactive)
ROOT
ATOM      1  C   UNL d   1       0.510  -2.612   2.128  0.00  0.00     0.077 C 
ATOM      2  C1  UNL d   1      -0.039  -1.751   1.030  0.00  0.00    -0.074 A 
ATOM      3  C2  UNL d   1       0.770  -0.815   0.377  0.00  0.00    -0.005 A 
ATOM      4  C3  UNL d   1       0.247  -0.028  -0.649  0.00  0.00     0.006 A 
ATOM      5  C4  UNL d   1      -1.087  -0.168  -1.032  0.00  0.00    -0.005 A 
ATOM      6  C5  UNL d   1      -1.911  -1.100  -0.392  0.00  0.00    -0.074 A 
ATOM      7  C6  UNL d   1      -3.345  -1.271  -0.798  0.00  0.00     0.077 C 
ATOM      8  C7  UNL d   1      -1.377  -1.892   0.634  0.00  0.00    -0.001 A 
ENDROOT
TORSDOF 0
ENDMDL
