MODEL 1
REMARK minimizedAffinity -4.16455984
REMARK minimizedRMSD -1
REMARK  0 active torsions:
REMARK  status: ('A' for Active; 'I' for Inactive)
ROOT
ATOM      1  C   UNL d   1       5.172   3.450  -3.785  0.00  0.00     0.077 C 
ATOM      2  C1  UNL d   1       4.365   3.516  -2.523  0.00  0.00    -0.074 A 
ATOM      3  C2  UNL d   1       4.291   4.698  -1.778  0.00  0.00    -0.005 A 
ATOM      4  C3  UNL d   1       3.528   4.747  -0.611  0.00  0.00     0.006 A 
ATOM      5  C4  UNL d   1       2.833   3.617  -0.178  0.00  0.00    -0.005 A 
ATOM      6  C5  UNL d   1       2.895   2.427  -0.910  0.00  0.00    -0.074 A 
ATOM      7  C6  UNL d   1       2.146   1.207  -0.463  0.00  0.00     0.077 C 
ATOM      8  C7  UNL d   1       3.657   2.388  -2.085  0.00  0.00    -0.001 A 
ENDROOT
TORSDOF 0
ENDMDL
