MODEL 1
REMARK minimizedAffinity -4.96203804
REMARK minimizedRMSD -1
REMARK  0 active torsions:
REMARK  status: ('A' for Active; 'I' for Inactive)
ROOT
ATOM      1  C   UNL d   1      -1.605  -3.256   2.451  0.00  0.00     0.077 C 
ATOM      2  C1  UNL d   1      -1.605  -2.078   1.523  0.00  0.00    -0.074 A 
ATOM      3  C2  UNL d   1      -2.750  -1.736   0.796  0.00  0.00    -0.005 A 
ATOM      4  C3  UNL d   1      -2.738  -0.633  -0.057  0.00  0.00     0.006 A 
ATOM      5  C4  UNL d   1      -1.583   0.139  -0.191  0.00  0.00    -0.005 A 
ATOM      6  C5  UNL d   1      -0.429  -0.187   0.528  0.00  0.00    -0.074 A 
ATOM      7  C6  UNL d   1       0.817   0.637   0.403  0.00  0.00     0.077 C 
ATOM      8  C7  UNL d   1      -0.451  -1.294   1.388  0.00  0.00    -0.001 A 
ENDROOT
TORSDOF 0
ENDMDL
