MODEL 1
REMARK minimizedAffinity -3.04701662
REMARK minimizedRMSD -1
REMARK  0 active torsions:
REMARK  status: ('A' for Active; 'I' for Inactive)
ROOT
ATOM      1  C   UNL d   1       1.876   0.093  -0.384  0.00  0.00     0.077 C 
ATOM      2  C1  UNL d   1       2.230   1.490   0.031  0.00  0.00    -0.074 A 
ATOM      3  C2  UNL d   1       2.241   1.858   1.381  0.00  0.00    -0.005 A 
ATOM      4  C3  UNL d   1       2.582   3.158   1.753  0.00  0.00     0.006 A 
ATOM      5  C4  UNL d   1       2.915   4.103   0.781  0.00  0.00    -0.005 A 
ATOM      6  C5  UNL d   1       2.911   3.753  -0.573  0.00  0.00    -0.074 A 
ATOM      7  C6  UNL d   1       3.276   4.753  -1.630  0.00  0.00     0.077 C 
ATOM      8  C7  UNL d   1       2.574   2.442  -0.939  0.00  0.00    -0.001 A 
ENDROOT
TORSDOF 0
ENDMDL
