MODEL 1
REMARK minimizedAffinity -2.59921432
REMARK minimizedRMSD -1
REMARK  0 active torsions:
REMARK  status: ('A' for Active; 'I' for Inactive)
ROOT
ATOM      1  C   UNL d   1       1.608   3.698   2.100  0.00  0.00     0.077 C 
ATOM      2  C1  UNL d   1       2.441   3.236   0.941  0.00  0.00    -0.074 A 
ATOM      3  C2  UNL d   1       2.499   1.883   0.592  0.00  0.00    -0.005 A 
ATOM      4  C3  UNL d   1       3.271   1.469  -0.493  0.00  0.00     0.006 A 
ATOM      5  C4  UNL d   1       3.992   2.402  -1.239  0.00  0.00    -0.005 A 
ATOM      6  C5  UNL d   1       3.946   3.759  -0.906  0.00  0.00    -0.074 A 
ATOM      7  C6  UNL d   1       4.706   4.777  -1.703  0.00  0.00     0.077 C 
ATOM      8  C7  UNL d   1       3.162   4.168   0.182  0.00  0.00    -0.001 A 
ENDROOT
TORSDOF 0
ENDMDL
