MODEL 1
REMARK minimizedAffinity -1.01288331
REMARK minimizedRMSD -1
REMARK  0 active torsions:
REMARK  status: ('A' for Active; 'I' for Inactive)
ROOT
ATOM      1  C   UNL d   1       1.846   1.986   0.302  0.00  0.00     0.124 A 
ATOM      2  C1  UNL d   1       1.731   1.963   1.685  0.00  0.00     0.062 A 
ATOM      3  C2  UNL d   1       0.781   1.148   2.295  0.00  0.00     0.162 A 
ATOM      4  C3  UNL d   1      -0.060   0.347   1.521  0.00  0.00    -0.034 A 
ATOM      5  C4  UNL d   1       0.062   0.376   0.131  0.00  0.00     0.162 A 
ATOM      6  C5  UNL d   1       1.012   1.192  -0.473  0.00  0.00     0.062 A 
ATOM      7  F   UNL d   1       1.123   1.213  -1.810  0.00  0.00    -0.097 F 
ATOM      8  F1  UNL d   1      -0.730  -0.381  -0.642  0.00  0.00    -0.096 F 
ATOM      9  I   UNL d   1      -1.480  -0.873   2.429  0.00  0.00    -0.060 I 
ATOM     10  F2  UNL d   1       0.692   1.146   3.633  0.00  0.00    -0.096 F 
ATOM     11  F3  UNL d   1       2.534   2.729   2.436  0.00  0.00    -0.097 F 
ATOM     12  F4  UNL d   1       2.760   2.772  -0.282  0.00  0.00    -0.092 F 
ENDROOT
TORSDOF 0
ENDMDL
