MODEL 1
REMARK minimizedAffinity 0.428129852
REMARK minimizedRMSD -1
REMARK  0 active torsions:
REMARK  status: ('A' for Active; 'I' for Inactive)
ROOT
ATOM      1  C   UNL d   1      -1.220   0.437   1.275  0.00  0.00     0.124 A 
ATOM      2  C1  UNL d   1      -0.939  -0.424   0.223  0.00  0.00     0.062 A 
ATOM      3  C2  UNL d   1       0.298  -0.372  -0.413  0.00  0.00     0.162 A 
ATOM      4  C3  UNL d   1       1.265   0.544   0.002  0.00  0.00    -0.034 A 
ATOM      5  C4  UNL d   1       0.974   1.408   1.060  0.00  0.00     0.162 A 
ATOM      6  C5  UNL d   1      -0.263   1.351   1.692  0.00  0.00     0.062 A 
ATOM      7  F   UNL d   1      -0.533   2.184   2.709  0.00  0.00    -0.097 F 
ATOM      8  F1  UNL d   1       1.881   2.301   1.484  0.00  0.00    -0.096 F 
ATOM      9  I   UNL d   1       3.115   0.626  -0.947  0.00  0.00    -0.060 I 
ATOM     10  F2  UNL d   1       0.542  -1.216  -1.427  0.00  0.00    -0.096 F 
ATOM     11  F3  UNL d   1      -1.862  -1.308  -0.182  0.00  0.00    -0.097 F 
ATOM     12  F4  UNL d   1      -2.411   0.385   1.885  0.00  0.00    -0.092 F 
ENDROOT
TORSDOF 0
ENDMDL
