MODEL 1
REMARK minimizedAffinity 2.44803953
REMARK minimizedRMSD -1
REMARK  0 active torsions:
REMARK  status: ('A' for Active; 'I' for Inactive)
ROOT
ATOM      1  C   UNL d   1       0.166   0.864   1.534  0.00  0.00     0.124 A 
ATOM      2  C1  UNL d   1      -0.528  -0.330   1.397  0.00  0.00     0.062 A 
ATOM      3  C2  UNL d   1      -0.851  -0.811   0.132  0.00  0.00     0.162 A 
ATOM      4  C3  UNL d   1      -0.479  -0.098  -1.008  0.00  0.00    -0.034 A 
ATOM      5  C4  UNL d   1       0.218   1.103  -0.863  0.00  0.00     0.162 A 
ATOM      6  C5  UNL d   1       0.538   1.580   0.404  0.00  0.00     0.062 A 
ATOM      7  F   UNL d   1       1.209   2.734   0.534  0.00  0.00    -0.097 F 
ATOM      8  F1  UNL d   1       0.590   1.814  -1.938  0.00  0.00    -0.096 F 
ATOM      9  I   UNL d   1      -0.960  -0.814  -2.902  0.00  0.00    -0.060 I 
ATOM     10  F2  UNL d   1      -1.522  -1.968   0.030  0.00  0.00    -0.096 F 
ATOM     11  F3  UNL d   1      -0.889  -1.022   2.487  0.00  0.00    -0.097 F 
ATOM     12  F4  UNL d   1       0.475   1.326   2.753  0.00  0.00    -0.092 F 
ENDROOT
TORSDOF 0
ENDMDL
