MODEL 1
REMARK minimizedAffinity -2.49509573
REMARK minimizedRMSD -1
REMARK  0 active torsions:
REMARK  status: ('A' for Active; 'I' for Inactive)
ROOT
ATOM      1  C   UNL d   1       0.279  -1.649  -0.730  0.00  0.00     0.124 A 
ATOM      2  C1  UNL d   1      -0.737  -1.014  -0.030  0.00  0.00     0.062 A 
ATOM      3  C2  UNL d   1      -0.497   0.202   0.603  0.00  0.00     0.162 A 
ATOM      4  C3  UNL d   1       0.765   0.792   0.538  0.00  0.00    -0.034 A 
ATOM      5  C4  UNL d   1       1.783   0.147  -0.167  0.00  0.00     0.162 A 
ATOM      6  C5  UNL d   1       1.538  -1.068  -0.798  0.00  0.00     0.062 A 
ATOM      7  F   UNL d   1       2.521  -1.680  -1.475  0.00  0.00    -0.097 F 
ATOM      8  F1  UNL d   1       3.008   0.687  -0.250  0.00  0.00    -0.096 F 
ATOM      9  I   UNL d   1       1.129   2.611   1.483  0.00  0.00    -0.060 I 
ATOM     10  F2  UNL d   1      -1.497   0.794   1.273  0.00  0.00    -0.096 F 
ATOM     11  F3  UNL d   1      -1.954  -1.573   0.039  0.00  0.00    -0.097 F 
ATOM     12  F4  UNL d   1       0.045  -2.819  -1.337  0.00  0.00    -0.092 F 
ENDROOT
TORSDOF 0
ENDMDL
