MODEL 1
REMARK minimizedAffinity 7.83467627
REMARK minimizedRMSD -1
REMARK  0 active torsions:
REMARK  status: ('A' for Active; 'I' for Inactive)
ROOT
ATOM      1  C   UNL d   1       1.504   1.686  -2.274  0.00  0.00     0.124 A 
ATOM      2  C1  UNL d   1       2.049   0.991  -3.345  0.00  0.00     0.062 A 
ATOM      3  C2  UNL d   1       2.621   1.681  -4.410  0.00  0.00     0.162 A 
ATOM      4  C3  UNL d   1       2.653   3.076  -4.409  0.00  0.00    -0.034 A 
ATOM      5  C4  UNL d   1       2.102   3.768  -3.329  0.00  0.00     0.162 A 
ATOM      6  C5  UNL d   1       1.531   3.074  -2.267  0.00  0.00     0.062 A 
ATOM      7  F   UNL d   1       1.005   3.747  -1.234  0.00  0.00    -0.097 F 
ATOM      8  F1  UNL d   1       2.115   5.109  -3.296  0.00  0.00    -0.096 F 
ATOM      9  I   UNL d   1       3.507   4.111  -5.999  0.00  0.00    -0.060 I 
ATOM     10  F2  UNL d   1       3.140   0.983  -5.431  0.00  0.00    -0.096 F 
ATOM     11  F3  UNL d   1       2.023  -0.350  -3.355  0.00  0.00    -0.097 F 
ATOM     12  F4  UNL d   1       0.953   1.019  -1.252  0.00  0.00    -0.092 F 
ENDROOT
TORSDOF 0
ENDMDL
