MODEL 1
REMARK minimizedAffinity 0.327442467
REMARK minimizedRMSD -1
REMARK  0 active torsions:
REMARK  status: ('A' for Active; 'I' for Inactive)
ROOT
ATOM      1  C   UNL d   1       0.364   0.989   1.822  0.00  0.00     0.124 A 
ATOM      2  C1  UNL d   1       0.470   1.732   0.655  0.00  0.00     0.062 A 
ATOM      3  C2  UNL d   1      -0.090   1.260  -0.529  0.00  0.00     0.162 A 
ATOM      4  C3  UNL d   1      -0.763   0.039  -0.551  0.00  0.00    -0.034 A 
ATOM      5  C4  UNL d   1      -0.865  -0.704   0.627  0.00  0.00     0.162 A 
ATOM      6  C5  UNL d   1      -0.303  -0.228   1.807  0.00  0.00     0.062 A 
ATOM      7  F   UNL d   1      -0.407  -0.948   2.934  0.00  0.00    -0.097 F 
ATOM      8  F1  UNL d   1      -1.505  -1.882   0.641  0.00  0.00    -0.096 F 
ATOM      9  I   UNL d   1      -1.602  -0.670  -2.319  0.00  0.00    -0.060 I 
ATOM     10  F2  UNL d   1       0.028   2.000  -1.642  0.00  0.00    -0.096 F 
ATOM     11  F3  UNL d   1       1.115   2.907   0.667  0.00  0.00    -0.097 F 
ATOM     12  F4  UNL d   1       0.905   1.444   2.959  0.00  0.00    -0.092 F 
ENDROOT
TORSDOF 0
ENDMDL
