MODEL 1
REMARK minimizedAffinity -3.22787571
REMARK minimizedRMSD -1
REMARK  0 active torsions:
REMARK  status: ('A' for Active; 'I' for Inactive)
ROOT
ATOM      1  C   UNL d   1       1.279   1.855   1.396  0.00  0.00     0.124 A 
ATOM      2  C1  UNL d   1       0.097   1.325   1.895  0.00  0.00     0.062 A 
ATOM      3  C2  UNL d   1      -0.601   0.363   1.170  0.00  0.00     0.162 A 
ATOM      4  C3  UNL d   1      -0.118  -0.077  -0.063  0.00  0.00    -0.034 A 
ATOM      5  C4  UNL d   1       1.071   0.461  -0.559  0.00  0.00     0.162 A 
ATOM      6  C5  UNL d   1       1.765   1.422   0.170  0.00  0.00     0.062 A 
ATOM      7  F   UNL d   1       2.906   1.933  -0.314  0.00  0.00    -0.097 F 
ATOM      8  F1  UNL d   1       1.564   0.061  -1.740  0.00  0.00    -0.096 F 
ATOM      9  I   UNL d   1      -1.158  -1.515  -1.150  0.00  0.00    -0.060 I 
ATOM     10  F2  UNL d   1      -1.740  -0.131   1.677  0.00  0.00    -0.096 F 
ATOM     11  F3  UNL d   1      -0.376   1.742   3.079  0.00  0.00    -0.097 F 
ATOM     12  F4  UNL d   1       1.947   2.781   2.095  0.00  0.00    -0.092 F 
ENDROOT
TORSDOF 0
ENDMDL
