MODEL 1
REMARK minimizedAffinity 1.41851604
REMARK minimizedRMSD -1
REMARK  0 active torsions:
REMARK  status: ('A' for Active; 'I' for Inactive)
ROOT
ATOM      1  C   UNL d   1      -2.249   5.871  -2.400  0.00  0.00     0.124 A 
ATOM      2  C1  UNL d   1      -3.572   5.918  -1.983  0.00  0.00     0.062 A 
ATOM      3  C2  UNL d   1      -4.600   5.955  -2.920  0.00  0.00     0.162 A 
ATOM      4  C3  UNL d   1      -4.309   5.943  -4.285  0.00  0.00    -0.034 A 
ATOM      5  C4  UNL d   1      -2.976   5.897  -4.696  0.00  0.00     0.162 A 
ATOM      6  C5  UNL d   1      -1.952   5.860  -3.755  0.00  0.00     0.062 A 
ATOM      7  F   UNL d   1      -0.674   5.815  -4.160  0.00  0.00    -0.097 F 
ATOM      8  F1  UNL d   1      -2.661   5.885  -6.000  0.00  0.00    -0.096 F 
ATOM      9  I   UNL d   1      -5.844   5.998  -5.690  0.00  0.00    -0.060 I 
ATOM     10  F2  UNL d   1      -5.869   6.000  -2.489  0.00  0.00    -0.096 F 
ATOM     11  F3  UNL d   1      -3.861   5.929  -0.674  0.00  0.00    -0.097 F 
ATOM     12  F4  UNL d   1      -1.261   5.836  -1.495  0.00  0.00    -0.092 F 
ENDROOT
TORSDOF 0
ENDMDL
