MODEL 1
REMARK minimizedAffinity -1.76652539
REMARK minimizedRMSD -1
REMARK  0 active torsions:
REMARK  status: ('A' for Active; 'I' for Inactive)
ROOT
ATOM      1  C   UNL d   1       1.128   1.407   1.524  0.00  0.00     0.124 A 
ATOM      2  C1  UNL d   1       1.426   0.867   0.280  0.00  0.00     0.062 A 
ATOM      3  C2  UNL d   1       0.508   0.043  -0.364  0.00  0.00     0.162 A 
ATOM      4  C3  UNL d   1      -0.718  -0.246   0.234  0.00  0.00    -0.034 A 
ATOM      5  C4  UNL d   1      -1.011   0.300   1.485  0.00  0.00     0.162 A 
ATOM      6  C5  UNL d   1      -0.090   1.123   2.125  0.00  0.00     0.062 A 
ATOM      7  F   UNL d   1      -0.381   1.644   3.326  0.00  0.00    -0.097 F 
ATOM      8  F1  UNL d   1      -2.181   0.042   2.088  0.00  0.00    -0.096 F 
ATOM      9  I   UNL d   1      -2.094  -1.479  -0.726  0.00  0.00    -0.060 I 
ATOM     10  F2  UNL d   1       0.824  -0.465  -1.565  0.00  0.00    -0.096 F 
ATOM     11  F3  UNL d   1       2.603   1.140  -0.302  0.00  0.00    -0.097 F 
ATOM     12  F4  UNL d   1       2.013   2.199   2.141  0.00  0.00    -0.092 F 
ENDROOT
TORSDOF 0
ENDMDL
