MODEL 1
REMARK minimizedAffinity -2.54638243
REMARK minimizedRMSD -1
REMARK  0 active torsions:
REMARK  status: ('A' for Active; 'I' for Inactive)
ROOT
ATOM      1  C   UNL d   1       2.101   1.455   0.609  0.00  0.00     0.124 A 
ATOM      2  C1  UNL d   1       2.440   0.299  -0.081  0.00  0.00     0.062 A 
ATOM      3  C2  UNL d   1       1.446  -0.577  -0.508  0.00  0.00     0.162 A 
ATOM      4  C3  UNL d   1       0.104  -0.301  -0.248  0.00  0.00    -0.034 A 
ATOM      5  C4  UNL d   1      -0.228   0.863   0.448  0.00  0.00     0.162 A 
ATOM      6  C5  UNL d   1       0.768   1.736   0.873  0.00  0.00     0.062 A 
ATOM      7  F   UNL d   1       0.439   2.852   1.540  0.00  0.00    -0.097 F 
ATOM      8  F1  UNL d   1      -1.509   1.160   0.715  0.00  0.00    -0.096 F 
ATOM      9  I   UNL d   1      -1.384  -1.608  -0.885  0.00  0.00    -0.060 I 
ATOM     10  F2  UNL d   1       1.802  -1.686  -1.173  0.00  0.00    -0.096 F 
ATOM     11  F3  UNL d   1       3.727   0.025  -0.336  0.00  0.00    -0.097 F 
ATOM     12  F4  UNL d   1       3.059   2.296   1.020  0.00  0.00    -0.092 F 
ENDROOT
TORSDOF 0
ENDMDL
