MODEL 1
REMARK minimizedAffinity -1.13696241
REMARK minimizedRMSD -1
REMARK  0 active torsions:
REMARK  status: ('A' for Active; 'I' for Inactive)
ROOT
ATOM      1  C   UNL d   1       2.338   1.303   1.271  0.00  0.00     0.124 A 
ATOM      2  C1  UNL d   1       2.831   0.402   0.338  0.00  0.00     0.062 A 
ATOM      3  C2  UNL d   1       1.970  -0.484  -0.303  0.00  0.00     0.162 A 
ATOM      4  C3  UNL d   1       0.605  -0.473  -0.013  0.00  0.00    -0.034 A 
ATOM      5  C4  UNL d   1       0.117   0.435   0.928  0.00  0.00     0.162 A 
ATOM      6  C5  UNL d   1       0.981   1.319   1.565  0.00  0.00     0.062 A 
ATOM      7  F   UNL d   1       0.503   2.189   2.466  0.00  0.00    -0.097 F 
ATOM      8  F1  UNL d   1      -1.189   0.473   1.230  0.00  0.00    -0.096 F 
ATOM      9  I   UNL d   1      -0.686  -1.797  -0.968  0.00  0.00    -0.060 I 
ATOM     10  F2  UNL d   1       2.474  -1.344  -1.200  0.00  0.00    -0.096 F 
ATOM     11  F3  UNL d   1       4.141   0.384   0.052  0.00  0.00    -0.097 F 
ATOM     12  F4  UNL d   1       3.169   2.154   1.886  0.00  0.00    -0.092 F 
ENDROOT
TORSDOF 0
ENDMDL
