MODEL 1
REMARK minimizedAffinity -2.95375037
REMARK minimizedRMSD -1
REMARK  0 active torsions:
REMARK  status: ('A' for Active; 'I' for Inactive)
ROOT
ATOM      1  C   UNL d   1       2.442   1.552   0.836  0.00  0.00     0.124 A 
ATOM      2  C1  UNL d   1       1.089   1.862   0.864  0.00  0.00     0.062 A 
ATOM      3  C2  UNL d   1       0.150   0.935   0.422  0.00  0.00     0.162 A 
ATOM      4  C3  UNL d   1       0.559  -0.313  -0.049  0.00  0.00    -0.034 A 
ATOM      5  C4  UNL d   1       1.922  -0.617  -0.075  0.00  0.00     0.162 A 
ATOM      6  C5  UNL d   1       2.857   0.314   0.367  0.00  0.00     0.062 A 
ATOM      7  F   UNL d   1       4.163   0.013   0.339  0.00  0.00    -0.097 F 
ATOM      8  F1  UNL d   1       2.350  -1.806  -0.523  0.00  0.00    -0.096 F 
ATOM      9  I   UNL d   1      -0.843  -1.702  -0.710  0.00  0.00    -0.060 I 
ATOM     10  F2  UNL d   1      -1.151   1.261   0.461  0.00  0.00    -0.096 F 
ATOM     11  F3  UNL d   1       0.686   3.058   1.316  0.00  0.00    -0.097 F 
ATOM     12  F4  UNL d   1       3.344   2.446   1.260  0.00  0.00    -0.092 F 
ENDROOT
TORSDOF 0
ENDMDL
