MODEL 1
REMARK minimizedAffinity -2.51423883
REMARK minimizedRMSD -1
REMARK  0 active torsions:
REMARK  status: ('A' for Active; 'I' for Inactive)
ROOT
ATOM      1  C   UNL d   1       1.505   1.911   0.862  0.00  0.00     0.124 A 
ATOM      2  C1  UNL d   1       0.314   1.716   1.548  0.00  0.00     0.062 A 
ATOM      3  C2  UNL d   1      -0.540   0.677   1.188  0.00  0.00     0.162 A 
ATOM      4  C3  UNL d   1      -0.205  -0.176   0.136  0.00  0.00    -0.034 A 
ATOM      5  C4  UNL d   1       0.994   0.027  -0.549  0.00  0.00     0.162 A 
ATOM      6  C5  UNL d   1       1.844   1.066  -0.185  0.00  0.00     0.062 A 
ATOM      7  F   UNL d   1       2.994   1.253  -0.849  0.00  0.00    -0.097 F 
ATOM      8  F1  UNL d   1       1.347  -0.775  -1.565  0.00  0.00    -0.096 F 
ATOM      9  I   UNL d   1      -1.478  -1.731  -0.405  0.00  0.00    -0.060 I 
ATOM     10  F2  UNL d   1      -1.684   0.513   1.868  0.00  0.00    -0.096 F 
ATOM     11  F3  UNL d   1      -0.017   2.532   2.560  0.00  0.00    -0.097 F 
ATOM     12  F4  UNL d   1       2.323   2.912   1.211  0.00  0.00    -0.092 F 
ENDROOT
TORSDOF 0
ENDMDL
