MODEL 1
REMARK minimizedAffinity 0.430461198
REMARK minimizedRMSD -1
REMARK  0 active torsions:
REMARK  status: ('A' for Active; 'I' for Inactive)
ROOT
ATOM      1  C   UNL d   1      -0.767   1.082   1.873  0.00  0.00     0.124 A 
ATOM      2  C1  UNL d   1       0.108   1.927   1.205  0.00  0.00     0.062 A 
ATOM      3  C2  UNL d   1       1.121   1.399   0.409  0.00  0.00     0.162 A 
ATOM      4  C3  UNL d   1       1.262   0.018   0.275  0.00  0.00    -0.034 A 
ATOM      5  C4  UNL d   1       0.378  -0.826   0.949  0.00  0.00     0.162 A 
ATOM      6  C5  UNL d   1      -0.632  -0.293   1.744  0.00  0.00     0.062 A 
ATOM      7  F   UNL d   1      -1.477  -1.111   2.388  0.00  0.00    -0.097 F 
ATOM      8  F1  UNL d   1       0.486  -2.158   0.842  0.00  0.00    -0.096 F 
ATOM      9  I   UNL d   1       2.774  -0.775  -0.915  0.00  0.00    -0.060 I 
ATOM     10  F2  UNL d   1       1.953   2.240  -0.224  0.00  0.00    -0.096 F 
ATOM     11  F3  UNL d   1      -0.020   3.256   1.329  0.00  0.00    -0.097 F 
ATOM     12  F4  UNL d   1      -1.740   1.593   2.639  0.00  0.00    -0.092 F 
ENDROOT
TORSDOF 0
ENDMDL
