MODEL 1
REMARK minimizedAffinity 1.04204571
REMARK minimizedRMSD -1
REMARK  0 active torsions:
REMARK  status: ('A' for Active; 'I' for Inactive)
ROOT
ATOM      1  C   UNL d   1      -2.826  -1.606  -2.923  0.00  0.00     0.124 A 
ATOM      2  C1  UNL d   1      -1.785  -0.720  -3.162  0.00  0.00     0.062 A 
ATOM      3  C2  UNL d   1      -1.016  -0.242  -2.105  0.00  0.00     0.162 A 
ATOM      4  C3  UNL d   1      -1.286  -0.648  -0.798  0.00  0.00    -0.034 A 
ATOM      5  C4  UNL d   1      -2.336  -1.538  -0.565  0.00  0.00     0.162 A 
ATOM      6  C5  UNL d   1      -3.101  -2.014  -1.625  0.00  0.00     0.062 A 
ATOM      7  F   UNL d   1      -4.108  -2.869  -1.392  0.00  0.00    -0.097 F 
ATOM      8  F1  UNL d   1      -2.623  -1.950   0.679  0.00  0.00    -0.096 F 
ATOM      9  I   UNL d   1      -0.140   0.065   0.786  0.00  0.00    -0.060 I 
ATOM     10  F2  UNL d   1      -0.016   0.613  -2.365  0.00  0.00    -0.096 F 
ATOM     11  F3  UNL d   1      -1.518  -0.324  -4.415  0.00  0.00    -0.097 F 
ATOM     12  F4  UNL d   1      -3.565  -2.064  -3.942  0.00  0.00    -0.092 F 
ENDROOT
TORSDOF 0
ENDMDL
