MODEL 1
REMARK minimizedAffinity -0.983340859
REMARK minimizedRMSD -1
REMARK  0 active torsions:
REMARK  status: ('A' for Active; 'I' for Inactive)
ROOT
ATOM      1  C   UNL d   1       1.549   1.687   1.084  0.00  0.00     0.124 A 
ATOM      2  C1  UNL d   1       0.364   1.311   1.701  0.00  0.00     0.062 A 
ATOM      3  C2  UNL d   1      -0.404   0.278   1.171  0.00  0.00     0.162 A 
ATOM      4  C3  UNL d   1       0.010  -0.387   0.017  0.00  0.00    -0.034 A 
ATOM      5  C4  UNL d   1       1.203  -0.002  -0.599  0.00  0.00     0.162 A 
ATOM      6  C5  UNL d   1       1.967   1.031  -0.065  0.00  0.00     0.062 A 
ATOM      7  F   UNL d   1       3.111   1.393  -0.663  0.00  0.00    -0.097 F 
ATOM      8  F1  UNL d   1       1.631  -0.620  -1.709  0.00  0.00    -0.096 F 
ATOM      9  I   UNL d   1      -1.135  -1.931  -0.779  0.00  0.00    -0.060 I 
ATOM     10  F2  UNL d   1      -1.545  -0.064   1.788  0.00  0.00    -0.096 F 
ATOM     11  F3  UNL d   1      -0.043   1.944   2.810  0.00  0.00    -0.097 F 
ATOM     12  F4  UNL d   1       2.285   2.682   1.595  0.00  0.00    -0.092 F 
ENDROOT
TORSDOF 0
ENDMDL
