MODEL 1
REMARK minimizedAffinity -0.316485226
REMARK minimizedRMSD -1
REMARK  0 active torsions:
REMARK  status: ('A' for Active; 'I' for Inactive)
ROOT
ATOM      1  C1  DEN d   1      -2.903   5.823  -3.307  0.00  0.00     0.130 A 
ATOM      2  C2  DEN d   1      -2.758   5.864  -4.759  0.00  0.00    -0.031 A 
ATOM      3  C3  DEN d   1      -2.763   4.474  -5.257  0.00  0.00     0.027 A 
ATOM      4  C4  DEN d   1      -2.983   2.274  -3.928  0.00  0.00     0.027 A 
ATOM      5  C5  DEN d   1      -3.118   1.733  -2.669  0.00  0.00    -0.003 A 
ATOM      6  C6  DEN d   1      -3.155   2.508  -1.540  0.00  0.00     0.001 A 
ATOM      7  C7  DEN d   1      -3.103   3.873  -1.652  0.00  0.00     0.017 A 
ATOM      8  C8  DEN d   1      -2.960   4.426  -2.918  0.00  0.00    -0.094 A 
ATOM      9  C9  DEN d   1      -2.936   3.625  -4.048  0.00  0.00    -0.072 A 
ENDROOT
TORSDOF 0
ENDMDL
