MODEL 1
REMARK minimizedAffinity -4.42207146
REMARK minimizedRMSD -1
REMARK  0 active torsions:
REMARK  status: ('A' for Active; 'I' for Inactive)
ROOT
ATOM      1  C1  DEN d   1       0.956  -1.494   2.641  0.00  0.00     0.130 A 
ATOM      2  C2  DEN d   1       1.368  -2.193   1.427  0.00  0.00    -0.031 A 
ATOM      3  C3  DEN d   1       0.221  -2.209   0.498  0.00  0.00     0.027 A 
ATOM      4  C4  DEN d   1      -2.140  -1.220   0.817  0.00  0.00     0.027 A 
ATOM      5  C5  DEN d   1      -2.965  -0.543   1.687  0.00  0.00    -0.003 A 
ATOM      6  C6  DEN d   1      -2.555  -0.169   2.940  0.00  0.00     0.001 A 
ATOM      7  C7  DEN d   1      -1.271  -0.429   3.340  0.00  0.00     0.017 A 
ATOM      8  C8  DEN d   1      -0.436  -1.118   2.470  0.00  0.00    -0.094 A 
ATOM      9  C9  DEN d   1      -0.865  -1.477   1.204  0.00  0.00    -0.072 A 
ENDROOT
TORSDOF 0
ENDMDL
