MODEL 1
REMARK minimizedAffinity -0.0592327677
REMARK minimizedRMSD -1
REMARK  0 active torsions:
REMARK  status: ('A' for Active; 'I' for Inactive)
ROOT
ATOM      1  C1  DEN d   1       0.981  -1.236   2.396  0.00  0.00     0.130 A 
ATOM      2  C2  DEN d   1       1.280  -1.965   1.167  0.00  0.00    -0.031 A 
ATOM      3  C3  DEN d   1       0.049  -2.013   0.353  0.00  0.00     0.027 A 
ATOM      4  C4  DEN d   1      -2.278  -1.030   0.871  0.00  0.00     0.027 A 
ATOM      5  C5  DEN d   1      -3.022  -0.334   1.799  0.00  0.00    -0.003 A 
ATOM      6  C6  DEN d   1      -2.497   0.077   2.996  0.00  0.00     0.001 A 
ATOM      7  C7  DEN d   1      -1.178  -0.166   3.277  0.00  0.00     0.017 A 
ATOM      8  C8  DEN d   1      -0.424  -0.873   2.350  0.00  0.00    -0.094 A 
ATOM      9  C9  DEN d   1      -0.970  -1.269   1.141  0.00  0.00    -0.072 A 
ENDROOT
TORSDOF 0
ENDMDL
