MODEL 1
REMARK minimizedAffinity 3.98018312
REMARK minimizedRMSD -1
REMARK  0 active torsions:
REMARK  status: ('A' for Active; 'I' for Inactive)
ROOT
ATOM      1  C1  DEN d   1      -4.394   5.055  -3.758  0.00  0.00     0.130 A 
ATOM      2  C2  DEN d   1      -3.200   5.230  -4.579  0.00  0.00    -0.031 A 
ATOM      3  C3  DEN d   1      -2.177   4.275  -4.107  0.00  0.00     0.027 A 
ATOM      4  C4  DEN d   1      -2.329   2.548  -2.197  0.00  0.00     0.027 A 
ATOM      5  C5  DEN d   1      -3.139   2.038  -1.206  0.00  0.00    -0.003 A 
ATOM      6  C6  DEN d   1      -4.402   2.518  -0.976  0.00  0.00     0.001 A 
ATOM      7  C7  DEN d   1      -4.908   3.507  -1.777  0.00  0.00     0.017 A 
ATOM      8  C8  DEN d   1      -4.095   4.031  -2.773  0.00  0.00    -0.094 A 
ATOM      9  C9  DEN d   1      -2.826   3.525  -2.997  0.00  0.00    -0.072 A 
ENDROOT
TORSDOF 0
ENDMDL
