MODEL 1
REMARK minimizedAffinity 7.02196312
REMARK minimizedRMSD -1
REMARK  0 active torsions:
REMARK  status: ('A' for Active; 'I' for Inactive)
ROOT
ATOM      1  C1  DEN d   1       1.528  -2.119   2.428  0.00  0.00     0.130 A 
ATOM      2  C2  DEN d   1       1.952  -2.625   1.125  0.00  0.00    -0.031 A 
ATOM      3  C3  DEN d   1       0.909  -2.278   0.139  0.00  0.00     0.027 A 
ATOM      4  C4  DEN d   1      -1.307  -1.009   0.500  0.00  0.00     0.027 A 
ATOM      5  C5  DEN d   1      -2.108  -0.393   1.436  0.00  0.00    -0.003 A 
ATOM      6  C6  DEN d   1      -1.772  -0.339   2.763  0.00  0.00     0.001 A 
ATOM      7  C7  DEN d   1      -0.583  -0.872   3.184  0.00  0.00     0.017 A 
ATOM      8  C8  DEN d   1       0.227  -1.502   2.248  0.00  0.00    -0.094 A 
ATOM      9  C9  DEN d   1      -0.125  -1.535   0.909  0.00  0.00    -0.072 A 
ENDROOT
TORSDOF 0
ENDMDL
