MODEL 1
REMARK minimizedAffinity -1.86150765
REMARK minimizedRMSD -1
REMARK  0 active torsions:
REMARK  status: ('A' for Active; 'I' for Inactive)
ROOT
ATOM      1  C1  DEN d   1      -3.877   3.392  -3.641  0.00  0.00     0.130 A 
ATOM      2  C2  DEN d   1      -3.355   4.753  -3.721  0.00  0.00    -0.031 A 
ATOM      3  C3  DEN d   1      -1.944   4.727  -3.285  0.00  0.00     0.027 A 
ATOM      4  C4  DEN d   1      -0.524   2.721  -2.502  0.00  0.00     0.027 A 
ATOM      5  C5  DEN d   1      -0.536   1.366  -2.255  0.00  0.00    -0.003 A 
ATOM      6  C6  DEN d   1      -1.662   0.604  -2.419  0.00  0.00     0.001 A 
ATOM      7  C7  DEN d   1      -2.813   1.183  -2.885  0.00  0.00     0.017 A 
ATOM      8  C8  DEN d   1      -2.811   2.550  -3.129  0.00  0.00    -0.094 A 
ATOM      9  C9  DEN d   1      -1.659   3.302  -2.969  0.00  0.00    -0.072 A 
ENDROOT
TORSDOF 0
ENDMDL
