MODEL 1
REMARK minimizedAffinity -1.83419597
REMARK minimizedRMSD -1
REMARK  0 active torsions:
REMARK  status: ('A' for Active; 'I' for Inactive)
ROOT
ATOM      1  C1  DEN d   1       0.000   3.808  -5.281  0.00  0.00     0.130 A 
ATOM      2  C2  DEN d   1       0.076   5.077  -6.000  0.00  0.00    -0.031 A 
ATOM      3  C3  DEN d   1      -0.998   5.954  -5.492  0.00  0.00     0.027 A 
ATOM      4  C4  DEN d   1      -2.759   5.474  -3.669  0.00  0.00     0.027 A 
ATOM      5  C5  DEN d   1      -3.228   4.530  -2.782  0.00  0.00    -0.003 A 
ATOM      6  C6  DEN d   1      -2.680   3.278  -2.691  0.00  0.00     0.001 A 
ATOM      7  C7  DEN d   1      -1.601   2.951  -3.469  0.00  0.00     0.017 A 
ATOM      8  C8  DEN d   1      -1.127   3.895  -4.370  0.00  0.00    -0.094 A 
ATOM      9  C9  DEN d   1      -1.687   5.159  -4.439  0.00  0.00    -0.072 A 
ENDROOT
TORSDOF 0
ENDMDL
