MODEL 1
REMARK minimizedAffinity -4.24570036
REMARK minimizedRMSD -1
REMARK  0 active torsions:
REMARK  status: ('A' for Active; 'I' for Inactive)
ROOT
ATOM      1  N1  IND d   1      -1.493   1.063  -0.616  0.00  0.00    -0.196 N 
ATOM      2  C2  IND d   1      -0.509   0.853  -1.542  0.00  0.00     0.054 A 
ATOM      3  C3  IND d   1       0.619   0.416  -0.939  0.00  0.00    -0.031 A 
ATOM      4  C4  IND d   1       1.042  -0.125   1.543  0.00  0.00     0.051 A 
ATOM      5  C5  IND d   1       0.455  -0.058   2.775  0.00  0.00    -0.031 A 
ATOM      6  C6  IND d   1      -0.838   0.393   2.943  0.00  0.00     0.015 A 
ATOM      7  C7  IND d   1      -1.600   0.785   1.879  0.00  0.00    -0.016 A 
ATOM      8  C8  IND d   1      -1.005   0.724   0.627  0.00  0.00    -0.047 A 
ATOM      9  C9  IND d   1       0.321   0.308   0.455  0.00  0.00    -0.096 A 
ATOM     10  HN1 IND d   1      -2.284   1.357  -0.783  0.00  0.00     0.298 HD
ENDROOT
TORSDOF 0
ENDMDL
