MODEL 1
REMARK minimizedAffinity -4.11714792
REMARK minimizedRMSD -1
REMARK  0 active torsions:
REMARK  status: ('A' for Active; 'I' for Inactive)
ROOT
ATOM      1  N1  IND d   1      -2.273   0.148   0.603  0.00  0.00    -0.196 N 
ATOM      2  C2  IND d   1      -2.817  -0.105   1.832  0.00  0.00     0.054 A 
ATOM      3  C3  IND d   1      -1.843  -0.217   2.763  0.00  0.00    -0.031 A 
ATOM      4  C4  IND d   1       0.702   0.077   2.512  0.00  0.00     0.051 A 
ATOM      5  C5  IND d   1       1.676   0.279   1.574  0.00  0.00    -0.031 A 
ATOM      6  C6  IND d   1       1.377   0.454   0.238  0.00  0.00     0.015 A 
ATOM      7  C7  IND d   1       0.086   0.445  -0.210  0.00  0.00    -0.016 A 
ATOM      8  C8  IND d   1      -0.905   0.233   0.738  0.00  0.00    -0.047 A 
ATOM      9  C9  IND d   1      -0.604   0.012   2.089  0.00  0.00    -0.096 A 
ATOM     10  HN1 IND d   1      -2.712   0.239  -0.131  0.00  0.00     0.298 HD
ENDROOT
TORSDOF 0
ENDMDL
