MODEL 1
REMARK minimizedAffinity -4.60073757
REMARK minimizedRMSD -1
REMARK  0 active torsions:
REMARK  status: ('A' for Active; 'I' for Inactive)
ROOT
ATOM      1  N1  IND d   1      -1.315   0.377  -0.494  0.00  0.00    -0.196 N 
ATOM      2  C2  IND d   1      -0.022   0.311  -0.934  0.00  0.00     0.054 A 
ATOM      3  C3  IND d   1       0.796  -0.085   0.066  0.00  0.00    -0.031 A 
ATOM      4  C4  IND d   1       0.215  -0.776   2.477  0.00  0.00     0.051 A 
ATOM      5  C5  IND d   1      -0.830  -0.844   3.356  0.00  0.00    -0.031 A 
ATOM      6  C6  IND d   1      -2.116  -0.505   2.988  0.00  0.00     0.015 A 
ATOM      7  C7  IND d   1      -2.408  -0.093   1.719  0.00  0.00    -0.016 A 
ATOM      8  C8  IND d   1      -1.349  -0.016   0.826  0.00  0.00    -0.047 A 
ATOM      9  C9  IND d   1      -0.035  -0.318   1.205  0.00  0.00    -0.096 A 
ATOM     10  HN1 IND d   1      -1.993   0.623  -0.963  0.00  0.00     0.298 HD
ENDROOT
TORSDOF 0
ENDMDL
