MODEL 1
REMARK minimizedAffinity -4.21990538
REMARK minimizedRMSD -1
REMARK  0 active torsions:
REMARK  status: ('A' for Active; 'I' for Inactive)
ROOT
ATOM      1  N1  IND d   1       3.877  -1.344  -3.444  0.00  0.00    -0.196 N 
ATOM      2  C2  IND d   1       4.484  -0.219  -2.959  0.00  0.00     0.054 A 
ATOM      3  C3  IND d   1       3.567   0.608  -2.408  0.00  0.00    -0.031 A 
ATOM      4  C4  IND d   1       1.033   0.272  -2.104  0.00  0.00     0.051 A 
ATOM      5  C5  IND d   1       0.015  -0.582  -2.419  0.00  0.00    -0.031 A 
ATOM      6  C6  IND d   1       0.236  -1.760  -3.103  0.00  0.00     0.015 A 
ATOM      7  C7  IND d   1       1.492  -2.134  -3.490  0.00  0.00    -0.016 A 
ATOM      8  C8  IND d   1       2.528  -1.265  -3.178  0.00  0.00    -0.047 A 
ATOM      9  C9  IND d   1       2.304  -0.048  -2.521  0.00  0.00    -0.096 A 
ATOM     10  HN1 IND d   1       4.272  -1.992  -3.848  0.00  0.00     0.298 HD
ENDROOT
TORSDOF 0
ENDMDL
