MODEL 1
REMARK minimizedAffinity -5.16148663
REMARK minimizedRMSD -1
REMARK  0 active torsions:
REMARK  status: ('A' for Active; 'I' for Inactive)
ROOT
ATOM      1  N1  IND d   1      -0.790   0.136  -1.002  0.00  0.00    -0.196 N 
ATOM      2  C2  IND d   1       0.345   0.549  -1.642  0.00  0.00     0.054 A 
ATOM      3  C3  IND d   1       1.346   0.736  -0.753  0.00  0.00    -0.031 A 
ATOM      4  C4  IND d   1       1.373   0.327   1.789  0.00  0.00     0.051 A 
ATOM      5  C5  IND d   1       0.561  -0.017   2.833  0.00  0.00    -0.031 A 
ATOM      6  C6  IND d   1      -0.769  -0.336   2.649  0.00  0.00     0.015 A 
ATOM      7  C7  IND d   1      -1.336  -0.335   1.406  0.00  0.00    -0.016 A 
ATOM      8  C8  IND d   1      -0.516   0.021   0.344  0.00  0.00    -0.047 A 
ATOM      9  C9  IND d   1       0.823   0.387   0.530  0.00  0.00    -0.096 A 
ATOM     10  HN1 IND d   1      -1.547  -0.024  -1.376  0.00  0.00     0.298 HD
ENDROOT
TORSDOF 0
ENDMDL
