MODEL 1
REMARK minimizedAffinity -2.9083457
REMARK minimizedRMSD -1
REMARK  0 active torsions:
REMARK  status: ('A' for Active; 'I' for Inactive)
ROOT
ATOM      1  N1  IND d   1       1.706   0.641   2.107  0.00  0.00    -0.196 N 
ATOM      2  C2  IND d   1       2.860   0.872   1.412  0.00  0.00     0.054 A 
ATOM      3  C3  IND d   1       2.673   0.626   0.096  0.00  0.00    -0.031 A 
ATOM      4  C4  IND d   1       0.529  -0.063  -1.151  0.00  0.00     0.051 A 
ATOM      5  C5  IND d   1      -0.771  -0.429  -0.938  0.00  0.00    -0.031 A 
ATOM      6  C6  IND d   1      -1.323  -0.454   0.326  0.00  0.00     0.015 A 
ATOM      7  C7  IND d   1      -0.596  -0.102   1.428  0.00  0.00    -0.016 A 
ATOM      8  C8  IND d   1       0.726   0.263   1.217  0.00  0.00    -0.047 A 
ATOM      9  C9  IND d   1       1.304   0.249  -0.059  0.00  0.00    -0.096 A 
ATOM     10  HN1 IND d   1       1.609   0.720   2.958  0.00  0.00     0.298 HD
ENDROOT
TORSDOF 0
ENDMDL
