MODEL 1
REMARK minimizedAffinity -5.95303726
REMARK minimizedRMSD -1
REMARK  0 active torsions:
REMARK  status: ('A' for Active; 'I' for Inactive)
ROOT
ATOM      1  N1  IND d   1      -1.793   0.728  -0.613  0.00  0.00    -0.196 N 
ATOM      2  C2  IND d   1      -0.718   0.968  -1.422  0.00  0.00     0.054 A 
ATOM      3  C3  IND d   1       0.433   0.687  -0.770  0.00  0.00    -0.031 A 
ATOM      4  C4  IND d   1       0.781  -0.275   1.592  0.00  0.00     0.051 A 
ATOM      5  C5  IND d   1       0.100  -0.623   2.725  0.00  0.00    -0.031 A 
ATOM      6  C6  IND d   1      -1.275  -0.540   2.803  0.00  0.00     0.015 A 
ATOM      7  C7  IND d   1      -2.024  -0.114   1.743  0.00  0.00    -0.016 A 
ATOM      8  C8  IND d   1      -1.336   0.247   0.594  0.00  0.00    -0.047 A 
ATOM      9  C9  IND d   1       0.063   0.205   0.523  0.00  0.00    -0.096 A 
ATOM     10  HN1 IND d   1      -2.617   0.856  -0.823  0.00  0.00     0.298 HD
ENDROOT
TORSDOF 0
ENDMDL
