MODEL 1
REMARK minimizedAffinity -3.78751445
REMARK minimizedRMSD -1
REMARK  0 active torsions:
REMARK  status: ('A' for Active; 'I' for Inactive)
ROOT
ATOM      1  N1  IND d   1      -0.638  -1.391  -0.628  0.00  0.00    -0.196 N 
ATOM      2  C2  IND d   1       0.043  -0.479  -1.386  0.00  0.00     0.054 A 
ATOM      3  C3  IND d   1       0.522   0.516  -0.606  0.00  0.00    -0.031 A 
ATOM      4  C4  IND d   1       0.397   0.796   1.950  0.00  0.00     0.051 A 
ATOM      5  C5  IND d   1      -0.153   0.237   3.069  0.00  0.00    -0.031 A 
ATOM      6  C6  IND d   1      -0.906  -0.918   3.012  0.00  0.00     0.015 A 
ATOM      7  C7  IND d   1      -1.128  -1.566   1.830  0.00  0.00    -0.016 A 
ATOM      8  C8  IND d   1      -0.577  -0.998   0.691  0.00  0.00    -0.047 A 
ATOM      9  C9  IND d   1       0.152   0.197   0.737  0.00  0.00    -0.096 A 
ATOM     10  HN1 IND d   1      -1.037  -2.092  -0.925  0.00  0.00     0.298 HD
ENDROOT
TORSDOF 0
ENDMDL
