MODEL 1
REMARK minimizedAffinity -3.46484041
REMARK minimizedRMSD -1
REMARK  0 active torsions:
REMARK  status: ('A' for Active; 'I' for Inactive)
ROOT
ATOM      1  N1  IND d   1      -1.365  -0.063   0.341  0.00  0.00    -0.196 N 
ATOM      2  C2  IND d   1      -0.784   0.194  -0.869  0.00  0.00     0.054 A 
ATOM      3  C3  IND d   1       0.424   0.777  -0.697  0.00  0.00    -0.031 A 
ATOM      4  C4  IND d   1       1.685   1.310   1.483  0.00  0.00     0.051 A 
ATOM      5  C5  IND d   1       1.543   1.291   2.842  0.00  0.00    -0.031 A 
ATOM      6  C6  IND d   1       0.402   0.808   3.449  0.00  0.00     0.015 A 
ATOM      7  C7  IND d   1      -0.639   0.312   2.717  0.00  0.00    -0.016 A 
ATOM      8  C8  IND d   1      -0.501   0.336   1.336  0.00  0.00    -0.047 A 
ATOM      9  C9  IND d   1       0.637   0.865   0.713  0.00  0.00    -0.096 A 
ATOM     10  HN1 IND d   1      -2.141  -0.415   0.460  0.00  0.00     0.298 HD
ENDROOT
TORSDOF 0
ENDMDL
