MODEL 1
REMARK minimizedAffinity -5.43617439
REMARK minimizedRMSD -1
REMARK  0 active torsions:
REMARK  status: ('A' for Active; 'I' for Inactive)
ROOT
ATOM      1  N1  IND d   1      -0.358   0.174  -0.289  0.00  0.00    -0.196 N 
ATOM      2  C2  IND d   1       1.001   0.086  -0.176  0.00  0.00     0.054 A 
ATOM      3  C3  IND d   1       1.352  -0.157   1.106  0.00  0.00    -0.031 A 
ATOM      4  C4  IND d   1      -0.143  -0.549   3.165  0.00  0.00     0.051 A 
ATOM      5  C5  IND d   1      -1.450  -0.532   3.566  0.00  0.00    -0.031 A 
ATOM      6  C6  IND d   1      -2.480  -0.276   2.684  0.00  0.00     0.015 A 
ATOM      7  C7  IND d   1      -2.242  -0.038   1.360  0.00  0.00    -0.016 A 
ATOM      8  C8  IND d   1      -0.916  -0.048   0.951  0.00  0.00    -0.047 A 
ATOM      9  C9  IND d   1       0.137  -0.265   1.849  0.00  0.00    -0.096 A 
ATOM     10  HN1 IND d   1      -0.792   0.340  -1.013  0.00  0.00     0.298 HD
ENDROOT
TORSDOF 0
ENDMDL
