MODEL 1
REMARK minimizedAffinity -3.89786792
REMARK minimizedRMSD -1
REMARK  0 active torsions:
REMARK  status: ('A' for Active; 'I' for Inactive)
ROOT
ATOM      1  N1  IND d   1      -0.842  -0.113  -0.751  0.00  0.00    -0.196 N 
ATOM      2  C2  IND d   1       0.353   0.300  -1.272  0.00  0.00     0.054 A 
ATOM      3  C3  IND d   1       1.268   0.449  -0.288  0.00  0.00    -0.031 A 
ATOM      4  C4  IND d   1       1.051  -0.025   2.233  0.00  0.00     0.051 A 
ATOM      5  C5  IND d   1       0.141  -0.383   3.188  0.00  0.00    -0.031 A 
ATOM      6  C6  IND d   1      -1.169  -0.678   2.871  0.00  0.00     0.015 A 
ATOM      7  C7  IND d   1      -1.617  -0.636   1.581  0.00  0.00    -0.016 A 
ATOM      8  C8  IND d   1      -0.697  -0.266   0.610  0.00  0.00    -0.047 A 
ATOM      9  C9  IND d   1       0.623   0.075   0.931  0.00  0.00    -0.096 A 
ATOM     10  HN1 IND d   1      -1.563  -0.252  -1.199  0.00  0.00     0.298 HD
ENDROOT
TORSDOF 0
ENDMDL
