MODEL 1
REMARK minimizedAffinity -4.81546783
REMARK minimizedRMSD -1
REMARK  0 active torsions:
REMARK  status: ('A' for Active; 'I' for Inactive)
ROOT
ATOM      1  N1  IND d   1      -0.705   0.136  -0.416  0.00  0.00    -0.196 N 
ATOM      2  C2  IND d   1       0.650   0.309  -0.363  0.00  0.00     0.054 A 
ATOM      3  C3  IND d   1       1.079   0.274   0.918  0.00  0.00    -0.031 A 
ATOM      4  C4  IND d   1      -0.254  -0.158   3.078  0.00  0.00     0.051 A 
ATOM      5  C5  IND d   1      -1.528  -0.334   3.540  0.00  0.00    -0.031 A 
ATOM      6  C6  IND d   1      -2.614  -0.367   2.690  0.00  0.00     0.015 A 
ATOM      7  C7  IND d   1      -2.465  -0.234   1.339  0.00  0.00    -0.016 A 
ATOM      8  C8  IND d   1      -1.174  -0.047   0.866  0.00  0.00    -0.047 A 
ATOM      9  C9  IND d   1      -0.072   0.029   1.728  0.00  0.00    -0.096 A 
ATOM     10  HN1 IND d   1      -1.184   0.142  -1.130  0.00  0.00     0.298 HD
ENDROOT
TORSDOF 0
ENDMDL
