MODEL 1
REMARK minimizedAffinity -2.85069561
REMARK minimizedRMSD -1
REMARK  0 active torsions:
REMARK  status: ('A' for Active; 'I' for Inactive)
ROOT
ATOM      1  N1  IND d   1       0.003  -0.835  -0.755  0.00  0.00    -0.196 N 
ATOM      2  C2  IND d   1       0.093  -0.165  -1.944  0.00  0.00     0.054 A 
ATOM      3  C3  IND d   1       0.872   0.931  -1.808  0.00  0.00    -0.031 A 
ATOM      4  C4  IND d   1       2.181   1.763   0.247  0.00  0.00     0.051 A 
ATOM      5  C5  IND d   1       2.381   1.504   1.574  0.00  0.00    -0.031 A 
ATOM      6  C6  IND d   1       1.789   0.429   2.204  0.00  0.00     0.015 A 
ATOM      7  C7  IND d   1       0.980  -0.438   1.526  0.00  0.00    -0.016 A 
ATOM      8  C8  IND d   1       0.769  -0.174   0.180  0.00  0.00    -0.047 A 
ATOM      9  C9  IND d   1       1.333   0.940  -0.456  0.00  0.00    -0.096 A 
ATOM     10  HN1 IND d   1      -0.455  -1.549  -0.615  0.00  0.00     0.298 HD
ENDROOT
TORSDOF 0
ENDMDL
