MODEL 1
REMARK minimizedAffinity -4.29598379
REMARK minimizedRMSD -1
REMARK  0 active torsions:
REMARK  status: ('A' for Active; 'I' for Inactive)
ROOT
ATOM      1  N1  IND d   1       0.975   0.574  -0.282  0.00  0.00    -0.196 N 
ATOM      2  C2  IND d   1      -0.035   0.421  -1.191  0.00  0.00     0.054 A 
ATOM      3  C3  IND d   1      -1.073  -0.242  -0.634  0.00  0.00    -0.031 A 
ATOM      4  C4  IND d   1      -1.370  -1.081   1.782  0.00  0.00     0.051 A 
ATOM      5  C5  IND d   1      -0.704  -1.205   2.969  0.00  0.00    -0.031 A 
ATOM      6  C6  IND d   1       0.581  -0.731   3.137  0.00  0.00     0.015 A 
ATOM      7  C7  IND d   1       1.246  -0.102   2.123  0.00  0.00    -0.016 A 
ATOM      8  C8  IND d   1       0.575   0.020   0.914  0.00  0.00    -0.047 A 
ATOM      9  C9  IND d   1      -0.713  -0.497   0.725  0.00  0.00    -0.096 A 
ATOM     10  HN1 IND d   1       1.732   0.952  -0.433  0.00  0.00     0.298 HD
ENDROOT
TORSDOF 0
ENDMDL
