MODEL 1
REMARK minimizedAffinity -0.125039741
REMARK minimizedRMSD -1
REMARK  0 active torsions:
REMARK  status: ('A' for Active; 'I' for Inactive)
ROOT
ATOM      1  N1  IND d   1      -1.646   0.086   1.769  0.00  0.00    -0.196 N 
ATOM      2  C2  IND d   1      -2.183   0.323   3.003  0.00  0.00     0.054 A 
ATOM      3  C3  IND d   1      -1.266   0.899   3.812  0.00  0.00    -0.031 A 
ATOM      4  C4  IND d   1       1.145   1.635   3.289  0.00  0.00     0.051 A 
ATOM      5  C5  IND d   1       2.094   1.594   2.306  0.00  0.00    -0.031 A 
ATOM      6  C6  IND d   1       1.839   1.040   1.069  0.00  0.00     0.015 A 
ATOM      7  C7  IND d   1       0.616   0.513   0.762  0.00  0.00    -0.016 A 
ATOM      8  C8  IND d   1      -0.348   0.547   1.760  0.00  0.00    -0.047 A 
ATOM      9  C9  IND d   1      -0.082   1.069   3.032  0.00  0.00    -0.096 A 
ATOM     10  HN1 IND d   1      -2.051  -0.289   1.109  0.00  0.00     0.298 HD
ENDROOT
TORSDOF 0
ENDMDL
