MODEL 1
REMARK minimizedAffinity -4.65259027
REMARK minimizedRMSD -1
REMARK  0 active torsions:
REMARK  status: ('A' for Active; 'I' for Inactive)
ROOT
ATOM      1  N1  IND d   1      -2.653   0.278   0.712  0.00  0.00    -0.196 N 
ATOM      2  C2  IND d   1      -3.433   0.304   1.834  0.00  0.00     0.054 A 
ATOM      3  C3  IND d   1      -2.671   0.143   2.940  0.00  0.00    -0.031 A 
ATOM      4  C4  IND d   1      -0.115  -0.078   3.147  0.00  0.00     0.051 A 
ATOM      5  C5  IND d   1       1.021  -0.192   2.395  0.00  0.00    -0.031 A 
ATOM      6  C6  IND d   1       0.989  -0.152   1.016  0.00  0.00     0.015 A 
ATOM      7  C7  IND d   1      -0.183   0.016   0.335  0.00  0.00    -0.016 A 
ATOM      8  C8  IND d   1      -1.339   0.125   1.094  0.00  0.00    -0.047 A 
ATOM      9  C9  IND d   1      -1.318   0.043   2.493  0.00  0.00    -0.096 A 
ATOM     10  HN1 IND d   1      -2.936   0.346  -0.097  0.00  0.00     0.298 HD
ENDROOT
TORSDOF 0
ENDMDL
