MODEL 1
REMARK minimizedAffinity -4.21101475
REMARK minimizedRMSD -1
REMARK  0 active torsions:
REMARK  status: ('A' for Active; 'I' for Inactive)
ROOT
ATOM      1  C1  BNZ d   1       0.291   0.926  -0.726  0.00  0.00     0.000 A 
ATOM      2  C2  BNZ d   1      -0.555   2.002  -0.667  0.00  0.00     0.000 A 
ATOM      3  C3  BNZ d   1      -1.111   2.391   0.519  0.00  0.00     0.000 A 
ATOM      4  C4  BNZ d   1      -0.853   1.681   1.637  0.00  0.00     0.000 A 
ATOM      5  C5  BNZ d   1      -0.010   0.589   1.592  0.00  0.00     0.000 A 
ATOM      6  C6  BNZ d   1       0.579   0.223   0.404  0.00  0.00     0.000 A 
ENDROOT
TORSDOF 0
ENDMDL
