MODEL 1
REMARK minimizedAffinity -3.02202344
REMARK minimizedRMSD -1
REMARK  0 active torsions:
REMARK  status: ('A' for Active; 'I' for Inactive)
ROOT
ATOM      1  C1  BNZ d   1       0.253   0.272   0.044  0.00  0.00     0.000 A 
ATOM      2  C2  BNZ d   1       0.008   1.365  -0.743  0.00  0.00     0.000 A 
ATOM      3  C3  BNZ d   1      -0.401   2.547  -0.192  0.00  0.00     0.000 A 
ATOM      4  C4  BNZ d   1      -0.604   2.623   1.139  0.00  0.00     0.000 A 
ATOM      5  C5  BNZ d   1      -0.371   1.527   1.945  0.00  0.00     0.000 A 
ATOM      6  C6  BNZ d   1       0.079   0.350   1.392  0.00  0.00     0.000 A 
ENDROOT
TORSDOF 0
ENDMDL
