MODEL 1
REMARK minimizedAffinity -4.22274876
REMARK minimizedRMSD -1
REMARK  0 active torsions:
REMARK  status: ('A' for Active; 'I' for Inactive)
ROOT
ATOM      1  C1  BNZ d   1      -0.750   0.533  -0.006  0.00  0.00     0.000 A 
ATOM      2  C2  BNZ d   1      -1.339   1.566  -0.686  0.00  0.00     0.000 A 
ATOM      3  C3  BNZ d   1      -1.471   2.798  -0.109  0.00  0.00     0.000 A 
ATOM      4  C4  BNZ d   1      -1.051   2.985   1.159  0.00  0.00     0.000 A 
ATOM      5  C5  BNZ d   1      -0.464   1.951   1.861  0.00  0.00     0.000 A 
ATOM      6  C6  BNZ d   1      -0.297   0.722   1.263  0.00  0.00     0.000 A 
ENDROOT
TORSDOF 0
ENDMDL
