MODEL 1
REMARK minimizedAffinity -5.06893158
REMARK minimizedRMSD -1
REMARK  0 active torsions:
REMARK  status: ('A' for Active; 'I' for Inactive)
ROOT
ATOM      1  C1  BNZ d   1      -0.783   1.689  -0.928  0.00  0.00     0.000 A 
ATOM      2  C2  BNZ d   1      -0.816   0.998   0.254  0.00  0.00     0.000 A 
ATOM      3  C3  BNZ d   1      -0.868   1.659   1.450  0.00  0.00     0.000 A 
ATOM      4  C4  BNZ d   1      -0.846   3.008   1.463  0.00  0.00     0.000 A 
ATOM      5  C5  BNZ d   1      -0.803   3.718   0.280  0.00  0.00     0.000 A 
ATOM      6  C6  BNZ d   1      -0.791   3.050  -0.923  0.00  0.00     0.000 A 
ENDROOT
TORSDOF 0
ENDMDL
