MODEL 1
REMARK minimizedAffinity -4.85685825
REMARK minimizedRMSD -1
REMARK  0 active torsions:
REMARK  status: ('A' for Active; 'I' for Inactive)
ROOT
ATOM      1  C1  BNZ d   1      -0.311   0.376  -0.512  0.00  0.00     0.000 A 
ATOM      2  C2  BNZ d   1      -0.933   1.555  -0.198  0.00  0.00     0.000 A 
ATOM      3  C3  BNZ d   1      -0.849   2.076   1.063  0.00  0.00     0.000 A 
ATOM      4  C4  BNZ d   1      -0.179   1.398   2.018  0.00  0.00     0.000 A 
ATOM      5  C5  BNZ d   1       0.445   0.204   1.719  0.00  0.00     0.000 A 
ATOM      6  C6  BNZ d   1       0.392  -0.298   0.438  0.00  0.00     0.000 A 
ENDROOT
TORSDOF 0
ENDMDL
