MODEL 1
REMARK minimizedAffinity -5.35571241
REMARK minimizedRMSD -1
REMARK  0 active torsions:
REMARK  status: ('A' for Active; 'I' for Inactive)
ROOT
ATOM      1  C1  BNZ d   1      -0.649   1.028  -0.022  0.00  0.00     0.000 A 
ATOM      2  C2  BNZ d   1      -0.976   2.059  -0.862  0.00  0.00     0.000 A 
ATOM      3  C3  BNZ d   1      -1.124   3.331  -0.384  0.00  0.00     0.000 A 
ATOM      4  C4  BNZ d   1      -0.985   3.563   0.937  0.00  0.00     0.000 A 
ATOM      5  C5  BNZ d   1      -0.665   2.532   1.799  0.00  0.00     0.000 A 
ATOM      6  C6  BNZ d   1      -0.479   1.260   1.308  0.00  0.00     0.000 A 
ENDROOT
TORSDOF 0
ENDMDL
