MODEL 1
REMARK minimizedAffinity -3.99440742
REMARK minimizedRMSD -1
REMARK  0 active torsions:
REMARK  status: ('A' for Active; 'I' for Inactive)
ROOT
ATOM      1  C1  BNZ d   1       0.594   0.047   0.918  0.00  0.00     0.000 A 
ATOM      2  C2  BNZ d   1       0.283   1.255   1.484  0.00  0.00     0.000 A 
ATOM      3  C3  BNZ d   1      -0.032   2.333   0.704  0.00  0.00     0.000 A 
ATOM      4  C4  BNZ d   1       0.003   2.213  -0.638  0.00  0.00     0.000 A 
ATOM      5  C5  BNZ d   1       0.324   1.004  -1.224  0.00  0.00     0.000 A 
ATOM      6  C6  BNZ d   1       0.602  -0.089  -0.436  0.00  0.00     0.000 A 
ENDROOT
TORSDOF 0
ENDMDL
