MODEL 1
REMARK minimizedAffinity 1.7702539
REMARK minimizedRMSD -1
REMARK  0 active torsions:
REMARK  status: ('A' for Active; 'I' for Inactive)
ROOT
ATOM      1  C1  BNZ d   1      -3.061  -2.276  -3.112  0.00  0.00     0.000 A 
ATOM      2  C2  BNZ d   1      -2.693  -3.276  -2.252  0.00  0.00     0.000 A 
ATOM      3  C3  BNZ d   1      -1.582  -4.034  -2.495  0.00  0.00     0.000 A 
ATOM      4  C4  BNZ d   1      -0.864  -3.818  -3.617  0.00  0.00     0.000 A 
ATOM      5  C5  BNZ d   1      -1.228  -2.819  -4.498  0.00  0.00     0.000 A 
ATOM      6  C6  BNZ d   1      -2.325  -2.033  -4.230  0.00  0.00     0.000 A 
ENDROOT
TORSDOF 0
ENDMDL
