MODEL 1
REMARK minimizedAffinity 0.618421674
REMARK minimizedRMSD -1
REMARK  2 active torsions:
REMARK  status: ('A' for Active; 'I' for Inactive)
REMARK    1  A    between atoms: C2'_3  and  C1'_4 
REMARK    2  A    between atoms: C1'_4  and  C1_5 
ROOT
ATOM      1  C1  I4B d   1       2.594   4.474   5.156  0.00  0.00    -0.075 A 
ATOM      2  C2  I4B d   1       2.610   5.200   3.991  0.00  0.00     0.003 A 
ATOM      3  C3  I4B d   1       1.495   5.996   3.633  0.00  0.00     0.002 A 
ATOM      4  C4  I4B d   1       0.374   5.997   4.437  0.00  0.00    -0.004 A 
ATOM      5  C5  I4B d   1       0.369   5.278   5.629  0.00  0.00     0.002 A 
ATOM      6  C6  I4B d   1       1.491   4.521   5.997  0.00  0.00     0.003 A 
ENDROOT
BRANCH   1   7
ATOM      7  C1' I4B d   1       3.776   3.618   5.487  0.00  0.00     0.060 C 
BRANCH   7   8
ATOM      8  C2' I4B d   1       3.560   2.259   4.852  0.00  0.00    -0.013 C 
ATOM      9  C4' I4B d   1       2.253   1.653   5.293  0.00  0.00     0.013 C 
ATOM     10  C3' I4B d   1       3.603   2.431   3.363  0.00  0.00     0.013 C 
ENDBRANCH   7   8
ENDBRANCH   1   7
TORSDOF 2
ENDMDL
