MODEL 1
REMARK minimizedAffinity 3.05079389
REMARK minimizedRMSD -1
REMARK  2 active torsions:
REMARK  status: ('A' for Active; 'I' for Inactive)
REMARK    1  A    between atoms: C2'_3  and  C1'_4 
REMARK    2  A    between atoms: C1'_4  and  C1_5 
ROOT
ATOM      1  C1  I4B d   1       3.809   5.208   4.064  0.00  0.00    -0.075 A 
ATOM      2  C2  I4B d   1       3.769   3.836   4.081  0.00  0.00     0.003 A 
ATOM      3  C3  I4B d   1       4.525   3.112   5.034  0.00  0.00     0.002 A 
ATOM      4  C4  I4B d   1       5.341   3.793   5.914  0.00  0.00    -0.004 A 
ATOM      5  C5  I4B d   1       5.364   5.185   5.910  0.00  0.00     0.002 A 
ATOM      6  C6  I4B d   1       4.584   5.898   4.988  0.00  0.00     0.003 A 
ENDROOT
BRANCH   1   7
ATOM      7  C1' I4B d   1       3.024   5.940   3.023  0.00  0.00     0.060 C 
BRANCH   7   8
ATOM      8  C2' I4B d   1       1.587   5.469   3.105  0.00  0.00    -0.013 C 
ATOM      9  C4' I4B d   1       0.909   6.000   4.341  0.00  0.00     0.013 C 
ATOM     10  C3' I4B d   1       0.879   5.921   1.862  0.00  0.00     0.013 C 
ENDBRANCH   7   8
ENDBRANCH   1   7
TORSDOF 2
ENDMDL
