MODEL 1
REMARK minimizedAffinity 17.638855
REMARK minimizedRMSD -1
REMARK  2 active torsions:
REMARK  status: ('A' for Active; 'I' for Inactive)
REMARK    1  A    between atoms: C2'_3  and  C1'_4 
REMARK    2  A    between atoms: C1'_4  and  C1_5 
ROOT
ATOM      1  C1  I4B d   1       3.469  -0.973  -0.268  0.00  0.00    -0.075 A 
ATOM      2  C2  I4B d   1       4.467  -0.668   0.623  0.00  0.00     0.003 A 
ATOM      3  C3  I4B d   1       4.868  -1.616   1.596  0.00  0.00     0.002 A 
ATOM      4  C4  I4B d   1       4.214  -2.828   1.674  0.00  0.00    -0.004 A 
ATOM      5  C5  I4B d   1       3.217  -3.144   0.755  0.00  0.00     0.002 A 
ATOM      6  C6  I4B d   1       2.850  -2.216  -0.230  0.00  0.00     0.003 A 
ENDROOT
BRANCH   1   7
ATOM      7  C1' I4B d   1       3.048   0.064  -1.261  0.00  0.00     0.060 C 
BRANCH   7   8
ATOM      8  C2' I4B d   1       2.483   1.243  -0.494  0.00  0.00    -0.013 C 
ATOM      9  C4' I4B d   1       3.031   2.545  -1.015  0.00  0.00     0.013 C 
ATOM     10  C3' I4B d   1       0.989   1.199  -0.611  0.00  0.00     0.013 C 
ENDBRANCH   7   8
ENDBRANCH   1   7
TORSDOF 2
ENDMDL
