MODEL 1
REMARK minimizedAffinity 5.68980837
REMARK minimizedRMSD -1
REMARK  2 active torsions:
REMARK  status: ('A' for Active; 'I' for Inactive)
REMARK    1  A    between atoms: C2'_3  and  C1'_4 
REMARK    2  A    between atoms: C1'_4  and  C1_5 
ROOT
ATOM      1  C1  I4B d   1       3.102  -0.094  -0.625  0.00  0.00    -0.075 A 
ATOM      2  C2  I4B d   1       3.717  -0.276  -1.839  0.00  0.00     0.003 A 
ATOM      3  C3  I4B d   1       4.547   0.737  -2.377  0.00  0.00     0.002 A 
ATOM      4  C4  I4B d   1       4.693   1.929  -1.696  0.00  0.00    -0.004 A 
ATOM      5  C5  I4B d   1       4.087   2.103  -0.455  0.00  0.00     0.002 A 
ATOM      6  C6  I4B d   1       3.297   1.080   0.090  0.00  0.00     0.003 A 
ENDROOT
BRANCH   1   7
ATOM      7  C1' I4B d   1       2.207  -1.172  -0.102  0.00  0.00     0.060 C 
BRANCH   7   8
ATOM      8  C2' I4B d   1       2.563  -2.461  -0.813  0.00  0.00    -0.013 C 
ATOM      9  C4' I4B d   1       2.486  -3.639   0.122  0.00  0.00     0.013 C 
ATOM     10  C3' I4B d   1       1.624  -2.626  -1.970  0.00  0.00     0.013 C 
ENDBRANCH   7   8
ENDBRANCH   1   7
TORSDOF 2
ENDMDL
