MODEL 1
REMARK minimizedAffinity 9.0354948
REMARK minimizedRMSD -1
REMARK  2 active torsions:
REMARK  status: ('A' for Active; 'I' for Inactive)
REMARK    1  A    between atoms: C2'_3  and  C1'_4 
REMARK    2  A    between atoms: C1'_4  and  C1_5 
ROOT
ATOM      1  C1  I4B d   1       3.057  -0.729  -0.834  0.00  0.00    -0.075 A 
ATOM      2  C2  I4B d   1       3.342  -1.096   0.458  0.00  0.00     0.003 A 
ATOM      3  C3  I4B d   1       2.969  -2.376   0.934  0.00  0.00     0.002 A 
ATOM      4  C4  I4B d   1       2.272  -3.233   0.106  0.00  0.00    -0.004 A 
ATOM      5  C5  I4B d   1       2.004  -2.868  -1.210  0.00  0.00     0.002 A 
ATOM      6  C6  I4B d   1       2.409  -1.613  -1.687  0.00  0.00     0.003 A 
ENDROOT
BRANCH   1   7
ATOM      7  C1' I4B d   1       3.436   0.643  -1.294  0.00  0.00     0.060 C 
BRANCH   7   8
ATOM      8  C2' I4B d   1       2.520   1.635  -0.607  0.00  0.00    -0.013 C 
ATOM      9  C4' I4B d   1       1.081   1.403  -0.987  0.00  0.00     0.013 C 
ATOM     10  C3' I4B d   1       2.718   1.500   0.873  0.00  0.00     0.013 C 
ENDBRANCH   7   8
ENDBRANCH   1   7
TORSDOF 2
ENDMDL
