MODEL 1
REMARK minimizedAffinity 2.14382648
REMARK minimizedRMSD -1
REMARK  2 active torsions:
REMARK  status: ('A' for Active; 'I' for Inactive)
REMARK    1  A    between atoms: C2'_3  and  C1'_4 
REMARK    2  A    between atoms: C1'_4  and  C1_5 
ROOT
ATOM      1  C1  I4B d   1       1.766  -1.820  -0.924  0.00  0.00    -0.075 A 
ATOM      2  C2  I4B d   1       1.502  -3.043  -0.357  0.00  0.00     0.003 A 
ATOM      3  C3  I4B d   1       0.316  -3.741  -0.690  0.00  0.00     0.002 A 
ATOM      4  C4  I4B d   1      -0.596  -3.161  -1.548  0.00  0.00    -0.004 A 
ATOM      5  C5  I4B d   1      -0.316  -1.933  -2.139  0.00  0.00     0.002 A 
ATOM      6  C6  I4B d   1       0.878  -1.263  -1.835  0.00  0.00     0.003 A 
ENDROOT
BRANCH   1   7
ATOM      7  C1' I4B d   1       3.012  -1.096  -0.525  0.00  0.00     0.060 C 
BRANCH   7   8
ATOM      8  C2' I4B d   1       2.807   0.378  -0.811  0.00  0.00    -0.013 C 
ATOM      9  C4' I4B d   1       2.580   1.154   0.459  0.00  0.00     0.013 C 
ATOM     10  C3' I4B d   1       4.015   0.880  -1.544  0.00  0.00     0.013 C 
ENDBRANCH   7   8
ENDBRANCH   1   7
TORSDOF 2
ENDMDL
