MODEL 1
REMARK minimizedAffinity 3.76062608
REMARK minimizedRMSD -1
REMARK  2 active torsions:
REMARK  status: ('A' for Active; 'I' for Inactive)
REMARK    1  A    between atoms: C2'_3  and  C1'_4 
REMARK    2  A    between atoms: C1'_4  and  C1_5 
ROOT
ATOM      1  C1  I4B d   1       3.010   3.592   4.025  0.00  0.00    -0.075 A 
ATOM      2  C2  I4B d   1       2.999   3.716   5.392  0.00  0.00     0.003 A 
ATOM      3  C3  I4B d   1       3.356   4.944   6.000  0.00  0.00     0.002 A 
ATOM      4  C4  I4B d   1       3.763   6.000   5.210  0.00  0.00    -0.004 A 
ATOM      5  C5  I4B d   1       3.751   5.880   3.823  0.00  0.00     0.002 A 
ATOM      6  C6  I4B d   1       3.360   4.672   3.226  0.00  0.00     0.003 A 
ENDROOT
BRANCH   1   7
ATOM      7  C1' I4B d   1       2.659   2.271   3.419  0.00  0.00     0.060 C 
BRANCH   7   8
ATOM      8  C2' I4B d   1       1.818   1.505   4.420  0.00  0.00    -0.013 C 
ATOM      9  C4' I4B d   1       0.963   0.472   3.737  0.00  0.00     0.013 C 
ATOM     10  C3' I4B d   1       2.746   0.870   5.413  0.00  0.00     0.013 C 
ENDBRANCH   7   8
ENDBRANCH   1   7
TORSDOF 2
ENDMDL
