MODEL 1
REMARK minimizedAffinity 5.07257938
REMARK minimizedRMSD -1
REMARK  2 active torsions:
REMARK  status: ('A' for Active; 'I' for Inactive)
REMARK    1  A    between atoms: C2'_3  and  C1'_4 
REMARK    2  A    between atoms: C1'_4  and  C1_5 
ROOT
ATOM      1  C1  I4B d   1      -2.472   1.104  -0.444  0.00  0.00    -0.075 A 
ATOM      2  C2  I4B d   1      -2.446   1.021   0.926  0.00  0.00     0.003 A 
ATOM      3  C3  I4B d   1      -3.602   1.335   1.681  0.00  0.00     0.002 A 
ATOM      4  C4  I4B d   1      -4.738   1.774   1.033  0.00  0.00    -0.004 A 
ATOM      5  C5  I4B d   1      -4.770   1.836  -0.357  0.00  0.00     0.002 A 
ATOM      6  C6  I4B d   1      -3.633   1.487  -1.102  0.00  0.00     0.003 A 
ENDROOT
BRANCH   1   7
ATOM      7  C1' I4B d   1      -1.223   0.797  -1.209  0.00  0.00     0.060 C 
BRANCH   7   8
ATOM      8  C2' I4B d   1      -0.081   1.555  -0.563  0.00  0.00    -0.013 C 
ATOM      9  C4' I4B d   1       1.206   0.778  -0.646  0.00  0.00     0.013 C 
ATOM     10  C3' I4B d   1       0.042   2.882  -1.251  0.00  0.00     0.013 C 
ENDBRANCH   7   8
ENDBRANCH   1   7
TORSDOF 2
ENDMDL
