MODEL 1
REMARK minimizedAffinity 9.00739384
REMARK minimizedRMSD -1
REMARK  2 active torsions:
REMARK  status: ('A' for Active; 'I' for Inactive)
REMARK    1  A    between atoms: C2'_3  and  C1'_4 
REMARK    2  A    between atoms: C1'_4  and  C1_5 
ROOT
ATOM      1  C1  I4B d   1      -4.553   3.201   1.913  0.00  0.00    -0.075 A 
ATOM      2  C2  I4B d   1      -4.485   4.538   2.215  0.00  0.00     0.003 A 
ATOM      3  C3  I4B d   1      -5.137   5.042   3.367  0.00  0.00     0.002 A 
ATOM      4  C4  I4B d   1      -5.881   4.188   4.155  0.00  0.00    -0.004 A 
ATOM      5  C5  I4B d   1      -5.930   2.829   3.860  0.00  0.00     0.002 A 
ATOM      6  C6  I4B d   1      -5.251   2.329   2.739  0.00  0.00     0.003 A 
ENDROOT
BRANCH   1   7
ATOM      7  C1' I4B d   1      -3.881   2.708   0.671  0.00  0.00     0.060 C 
BRANCH   7   8
ATOM      8  C2' I4B d   1      -3.657   1.217   0.822  0.00  0.00    -0.013 C 
ATOM      9  C4' I4B d   1      -4.727   0.430   0.112  0.00  0.00     0.013 C 
ATOM     10  C3' I4B d   1      -2.297   0.895   0.277  0.00  0.00     0.013 C 
ENDBRANCH   7   8
ENDBRANCH   1   7
TORSDOF 2
ENDMDL
