MODEL 1
REMARK minimizedAffinity 1.44827569
REMARK minimizedRMSD -1
REMARK  2 active torsions:
REMARK  status: ('A' for Active; 'I' for Inactive)
REMARK    1  A    between atoms: C2'_3  and  C1'_4 
REMARK    2  A    between atoms: C1'_4  and  C1_5 
ROOT
ATOM      1  C1  I4B d   1      -1.918   3.214   3.981  0.00  0.00    -0.075 A 
ATOM      2  C2  I4B d   1      -0.735   3.101   3.295  0.00  0.00     0.003 A 
ATOM      3  C3  I4B d   1       0.284   4.069   3.467  0.00  0.00     0.002 A 
ATOM      4  C4  I4B d   1       0.059   5.153   4.292  0.00  0.00    -0.004 A 
ATOM      5  C5  I4B d   1      -1.132   5.253   5.004  0.00  0.00     0.002 A 
ATOM      6  C6  I4B d   1      -2.123   4.271   4.858  0.00  0.00     0.003 A 
ENDROOT
BRANCH   1   7
ATOM      7  C1' I4B d   1      -2.986   2.191   3.749  0.00  0.00     0.060 C 
BRANCH   7   8
ATOM      8  C2' I4B d   1      -3.773   2.608   2.524  0.00  0.00    -0.013 C 
ATOM      9  C4' I4B d   1      -3.954   1.454   1.573  0.00  0.00     0.013 C 
ATOM     10  C3' I4B d   1      -5.097   3.143   2.984  0.00  0.00     0.013 C 
ENDBRANCH   7   8
ENDBRANCH   1   7
TORSDOF 2
ENDMDL
