MODEL 1
REMARK minimizedAffinity 3.97657895
REMARK minimizedRMSD -1
REMARK  2 active torsions:
REMARK  status: ('A' for Active; 'I' for Inactive)
REMARK    1  A    between atoms: C2'_3  and  C1'_4 
REMARK    2  A    between atoms: C1'_4  and  C1_5 
ROOT
ATOM      1  C1  I4B d   1      -0.030   3.781   4.368  0.00  0.00    -0.075 A 
ATOM      2  C2  I4B d   1      -1.167   3.732   5.136  0.00  0.00     0.003 A 
ATOM      3  C3  I4B d   1      -1.530   4.837   5.943  0.00  0.00     0.002 A 
ATOM      4  C4  I4B d   1      -0.706   5.943   5.992  0.00  0.00    -0.004 A 
ATOM      5  C5  I4B d   1       0.435   6.000   5.196  0.00  0.00     0.002 A 
ATOM      6  C6  I4B d   1       0.769   4.917   4.370  0.00  0.00     0.003 A 
ENDROOT
BRANCH   1   7
ATOM      7  C1' I4B d   1       0.341   2.583   3.552  0.00  0.00     0.060 C 
BRANCH   7   8
ATOM      8  C2' I4B d   1      -0.527   2.578   2.311  0.00  0.00    -0.013 C 
ATOM      9  C4' I4B d   1      -0.769   3.977   1.808  0.00  0.00     0.013 C 
ATOM     10  C3' I4B d   1       0.157   1.740   1.272  0.00  0.00     0.013 C 
ENDBRANCH   7   8
ENDBRANCH   1   7
TORSDOF 2
ENDMDL
