MODEL 1
REMARK minimizedAffinity 5.43957043
REMARK minimizedRMSD -1
REMARK  1 active torsions:
REMARK  status: ('A' for Active; 'I' for Inactive)
REMARK    1  A    between atoms: C3_4  and  O_7 
ROOT
ATOM      1  C   UNL d   1      -2.569   1.482  -1.309  0.00  0.00    -0.033 A 
ATOM      2  C1  UNL d   1      -1.331   1.180  -1.878  0.00  0.00     0.039 A 
ATOM      3  C2  UNL d   1      -0.361   0.510  -1.130  0.00  0.00    -0.080 A 
ATOM      4  C3  UNL d   1      -0.642   0.148   0.184  0.00  0.00     0.150 A 
ATOM      5  C4  UNL d   1      -1.875   0.442   0.757  0.00  0.00    -0.007 A 
ATOM      6  C5  UNL d   1      -2.842   1.112   0.008  0.00  0.00     0.039 A 
ENDROOT
BRANCH   4   7
ATOM      7  O   UNL d   1       0.274  -0.503   0.955  0.00  0.00    -0.526 OA
ATOM      8  H5  UNL d   1       1.089  -0.614   0.437  0.00  0.00     0.418 HD
ENDBRANCH   4   7
TORSDOF 1
ENDMDL
