MODEL 1
REMARK minimizedAffinity -4.03840113
REMARK minimizedRMSD -1
REMARK  1 active torsions:
REMARK  status: ('A' for Active; 'I' for Inactive)
REMARK    1  A    between atoms: C3_4  and  O_7 
ROOT
ATOM      1  C   UNL d   1      -5.555  -0.812   5.393  0.00  0.00    -0.033 A 
ATOM      2  C1  UNL d   1      -5.842  -0.720   4.030  0.00  0.00     0.039 A 
ATOM      3  C2  UNL d   1      -5.997  -1.879   3.267  0.00  0.00    -0.080 A 
ATOM      4  C3  UNL d   1      -5.863  -3.123   3.879  0.00  0.00     0.150 A 
ATOM      5  C4  UNL d   1      -5.580  -3.222   5.237  0.00  0.00    -0.007 A 
ATOM      6  C5  UNL d   1      -5.425  -2.063   5.997  0.00  0.00     0.039 A 
ENDROOT
BRANCH   4   7
ATOM      7  O   UNL d   1      -6.000  -4.282   3.174  0.00  0.00    -0.526 OA
ATOM      8  H5  UNL d   1      -6.165  -4.058   2.243  0.00  0.00     0.418 HD
ENDBRANCH   4   7
TORSDOF 1
ENDMDL
