MODEL 1
REMARK minimizedAffinity -1.31722188
REMARK minimizedRMSD -1
REMARK  1 active torsions:
REMARK  status: ('A' for Active; 'I' for Inactive)
REMARK    1  A    between atoms: C3_4  and  O_7 
ROOT
ATOM      1  C   UNL d   1       0.656   1.418   2.410  0.00  0.00    -0.033 A 
ATOM      2  C1  UNL d   1       0.594   2.377   1.397  0.00  0.00     0.039 A 
ATOM      3  C2  UNL d   1       0.539   1.979   0.060  0.00  0.00    -0.080 A 
ATOM      4  C3  UNL d   1       0.544   0.622  -0.250  0.00  0.00     0.150 A 
ATOM      5  C4  UNL d   1       0.601  -0.338   0.754  0.00  0.00    -0.007 A 
ATOM      6  C5  UNL d   1       0.657   0.060   2.089  0.00  0.00     0.039 A 
ENDROOT
BRANCH   4   7
ATOM      7  O   UNL d   1       0.495   0.186  -1.541  0.00  0.00    -0.526 OA
ATOM      8  H5  UNL d   1       0.488   0.961  -2.128  0.00  0.00     0.418 HD
ENDBRANCH   4   7
TORSDOF 1
ENDMDL
