MODEL 1
REMARK minimizedAffinity 2.69217324
REMARK minimizedRMSD -1
REMARK  1 active torsions:
REMARK  status: ('A' for Active; 'I' for Inactive)
REMARK    1  A    between atoms: C3_4  and  O_7 
ROOT
ATOM      1  C   UNL d   1       0.568   0.458   3.323  0.00  0.00    -0.033 A 
ATOM      2  C1  UNL d   1       0.797  -0.670   2.533  0.00  0.00     0.039 A 
ATOM      3  C2  UNL d   1       0.570  -0.618   1.157  0.00  0.00    -0.080 A 
ATOM      4  C3  UNL d   1       0.118   0.566   0.582  0.00  0.00     0.150 A 
ATOM      5  C4  UNL d   1      -0.108   1.696   1.363  0.00  0.00    -0.007 A 
ATOM      6  C5  UNL d   1       0.118   1.642   2.737  0.00  0.00     0.039 A 
ENDROOT
BRANCH   4   7
ATOM      7  O   UNL d   1      -0.122   0.664  -0.756  0.00  0.00    -0.526 OA
ATOM      8  H5  UNL d   1       0.050  -0.202  -1.163  0.00  0.00     0.418 HD
ENDBRANCH   4   7
TORSDOF 1
ENDMDL
