MODEL 1
REMARK minimizedAffinity 0.726461947
REMARK minimizedRMSD -1
REMARK  1 active torsions:
REMARK  status: ('A' for Active; 'I' for Inactive)
REMARK    1  A    between atoms: C3_4  and  O_7 
ROOT
ATOM      1  C   UNL d   1       1.279  -0.905   1.011  0.00  0.00    -0.033 A 
ATOM      2  C1  UNL d   1       0.597   0.083   0.298  0.00  0.00     0.039 A 
ATOM      3  C2  UNL d   1       0.390   1.341   0.867  0.00  0.00    -0.080 A 
ATOM      4  C3  UNL d   1       0.870   1.598   2.149  0.00  0.00     0.150 A 
ATOM      5  C4  UNL d   1       1.554   0.620   2.863  0.00  0.00    -0.007 A 
ATOM      6  C5  UNL d   1       1.759  -0.636   2.293  0.00  0.00     0.039 A 
ENDROOT
BRANCH   4   7
ATOM      7  O   UNL d   1       0.688   2.809   2.748  0.00  0.00    -0.526 OA
ATOM      8  H5  UNL d   1       0.175   3.375   2.148  0.00  0.00     0.418 HD
ENDBRANCH   4   7
TORSDOF 1
ENDMDL
