MODEL 1
REMARK minimizedAffinity -0.369914114
REMARK minimizedRMSD -1
REMARK  1 active torsions:
REMARK  status: ('A' for Active; 'I' for Inactive)
REMARK    1  A    between atoms: C3_4  and  O_7 
ROOT
ATOM      1  C   UNL d   1      -2.892   1.861  -0.752  0.00  0.00    -0.033 A 
ATOM      2  C1  UNL d   1      -2.603   2.987  -1.526  0.00  0.00     0.039 A 
ATOM      3  C2  UNL d   1      -3.637   3.705  -2.129  0.00  0.00    -0.080 A 
ATOM      4  C3  UNL d   1      -4.953   3.289  -1.950  0.00  0.00     0.150 A 
ATOM      5  C4  UNL d   1      -5.248   2.171  -1.177  0.00  0.00    -0.007 A 
ATOM      6  C5  UNL d   1      -4.214   1.454  -0.576  0.00  0.00     0.039 A 
ENDROOT
BRANCH   4   7
ATOM      7  O   UNL d   1      -5.996   3.955  -2.523  0.00  0.00    -0.526 OA
ATOM      8  H5  UNL d   1      -5.639   4.689  -3.051  0.00  0.00     0.418 HD
ENDBRANCH   4   7
TORSDOF 1
ENDMDL
