MODEL 1
REMARK minimizedAffinity -1.79320991
REMARK minimizedRMSD -1
REMARK  1 active torsions:
REMARK  status: ('A' for Active; 'I' for Inactive)
REMARK    1  A    between atoms: C3_4  and  O_7 
ROOT
ATOM      1  C   UNL d   1       0.803  -0.454  -0.743  0.00  0.00    -0.033 A 
ATOM      2  C1  UNL d   1       1.477  -0.687   0.458  0.00  0.00     0.039 A 
ATOM      3  C2  UNL d   1       1.199   0.095   1.580  0.00  0.00    -0.080 A 
ATOM      4  C3  UNL d   1       0.246   1.106   1.489  0.00  0.00     0.150 A 
ATOM      5  C4  UNL d   1      -0.433   1.341   0.298  0.00  0.00    -0.007 A 
ATOM      6  C5  UNL d   1      -0.153   0.559  -0.822  0.00  0.00     0.039 A 
ENDROOT
BRANCH   4   7
ATOM      7  O   UNL d   1      -0.056   1.898   2.557  0.00  0.00    -0.526 OA
ATOM      8  H5  UNL d   1       0.511   1.639   3.302  0.00  0.00     0.418 HD
ENDBRANCH   4   7
TORSDOF 1
ENDMDL
