MODEL 1
REMARK minimizedAffinity -3.22793531
REMARK minimizedRMSD -1
REMARK  1 active torsions:
REMARK  status: ('A' for Active; 'I' for Inactive)
REMARK    1  A    between atoms: C3_4  and  O_7 
ROOT
ATOM      1  C   UNL d   1       0.168   0.858   1.648  0.00  0.00    -0.033 A 
ATOM      2  C1  UNL d   1       0.332   0.945   0.264  0.00  0.00     0.039 A 
ATOM      3  C2  UNL d   1       0.435   2.194  -0.351  0.00  0.00    -0.080 A 
ATOM      4  C3  UNL d   1       0.374   3.347   0.428  0.00  0.00     0.150 A 
ATOM      5  C4  UNL d   1       0.214   3.267   1.807  0.00  0.00    -0.007 A 
ATOM      6  C5  UNL d   1       0.110   2.019   2.420  0.00  0.00     0.039 A 
ENDROOT
BRANCH   4   7
ATOM      7  O   UNL d   1       0.465   4.588  -0.128  0.00  0.00    -0.526 OA
ATOM      8  H5  UNL d   1       0.544   4.489  -1.092  0.00  0.00     0.418 HD
ENDBRANCH   4   7
TORSDOF 1
ENDMDL
