MODEL 1
REMARK minimizedAffinity -4.05182409
REMARK minimizedRMSD -1
REMARK  1 active torsions:
REMARK  status: ('A' for Active; 'I' for Inactive)
REMARK    1  A    between atoms: C3_4  and  O_7 
ROOT
ATOM      1  C   UNL d   1       1.862   5.045   0.753  0.00  0.00    -0.033 A 
ATOM      2  C1  UNL d   1       2.564   4.685   1.905  0.00  0.00     0.039 A 
ATOM      3  C2  UNL d   1       2.126   3.613   2.685  0.00  0.00    -0.080 A 
ATOM      4  C3  UNL d   1       0.987   2.910   2.302  0.00  0.00     0.150 A 
ATOM      5  C4  UNL d   1       0.285   3.261   1.154  0.00  0.00    -0.007 A 
ATOM      6  C5  UNL d   1       0.723   4.332   0.376  0.00  0.00     0.039 A 
ENDROOT
BRANCH   4   7
ATOM      7  O   UNL d   1       0.519   1.860   3.034  0.00  0.00    -0.526 OA
ATOM      8  H5  UNL d   1       1.087   1.751   3.815  0.00  0.00     0.418 HD
ENDBRANCH   4   7
TORSDOF 1
ENDMDL
