MODEL 1
REMARK minimizedAffinity 1.43734956
REMARK minimizedRMSD -1
REMARK  1 active torsions:
REMARK  status: ('A' for Active; 'I' for Inactive)
REMARK    1  A    between atoms: C3_4  and  O_7 
ROOT
ATOM      1  C   UNL d   1      -3.621   0.256  -0.547  0.00  0.00    -0.033 A 
ATOM      2  C1  UNL d   1      -2.466   0.112  -1.318  0.00  0.00     0.039 A 
ATOM      3  C2  UNL d   1      -1.209   0.252  -0.728  0.00  0.00    -0.080 A 
ATOM      4  C3  UNL d   1      -1.120   0.534   0.633  0.00  0.00     0.150 A 
ATOM      5  C4  UNL d   1      -2.266   0.675   1.408  0.00  0.00    -0.007 A 
ATOM      6  C5  UNL d   1      -3.521   0.536   0.816  0.00  0.00     0.039 A 
ENDROOT
BRANCH   4   7
ATOM      7  O   UNL d   1       0.085   0.684   1.252  0.00  0.00    -0.526 OA
ATOM      8  H5  UNL d   1       0.787   0.589   0.587  0.00  0.00     0.418 HD
ENDBRANCH   4   7
TORSDOF 1
ENDMDL
