MODEL 1
REMARK minimizedAffinity -4.27588224
REMARK minimizedRMSD -1
REMARK  0 active torsions:
REMARK  status: ('A' for Active; 'I' for Inactive)
ROOT
ATOM      1  C   UNL d   1       3.108   0.772  -2.195  0.00  0.00     0.023 A 
ATOM      2  C1  UNL d   1       2.969  -0.260  -1.266  0.00  0.00     0.003 A 
ATOM      3  C2  UNL d   1       1.777  -0.401  -0.552  0.00  0.00     0.048 A 
ATOM      4  C3  UNL d   1       0.728   0.491  -0.772  0.00  0.00     0.023 A 
ATOM      5  C4  UNL d   1       0.863   1.524  -1.701  0.00  0.00     0.048 A 
ATOM      6  C5  UNL d   1       2.057   1.662  -2.412  0.00  0.00     0.003 A 
ATOM      7  I   UNL d   1      -1.046   0.282   0.289  0.00  0.00    -0.146 I 
ENDROOT
TORSDOF 0
ENDMDL
