MODEL 1
REMARK minimizedAffinity -3.3885417
REMARK minimizedRMSD -1
REMARK  0 active torsions:
REMARK  status: ('A' for Active; 'I' for Inactive)
ROOT
ATOM      1  C   UNL d   1       0.337  -1.158  -0.495  0.00  0.00     0.023 A 
ATOM      2  C1  UNL d   1      -1.016  -0.826  -0.572  0.00  0.00     0.003 A 
ATOM      3  C2  UNL d   1      -1.617  -0.095   0.455  0.00  0.00     0.048 A 
ATOM      4  C3  UNL d   1      -0.858   0.302   1.556  0.00  0.00     0.023 A 
ATOM      5  C4  UNL d   1       0.496  -0.027   1.637  0.00  0.00     0.048 A 
ATOM      6  C5  UNL d   1       1.092  -0.759   0.608  0.00  0.00     0.003 A 
ATOM      7  I   UNL d   1      -1.750   1.390   3.086  0.00  0.00    -0.146 I 
ENDROOT
TORSDOF 0
ENDMDL
