MODEL 1
REMARK minimizedAffinity -5.33707285
REMARK minimizedRMSD -1
REMARK  0 active torsions:
REMARK  status: ('A' for Active; 'I' for Inactive)
ROOT
ATOM      1  C   UNL d   1       2.989   0.894  -2.546  0.00  0.00     0.023 A 
ATOM      2  C1  UNL d   1       1.878   1.730  -2.658  0.00  0.00     0.003 A 
ATOM      3  C2  UNL d   1       0.765   1.528  -1.839  0.00  0.00     0.048 A 
ATOM      4  C3  UNL d   1       0.771   0.489  -0.908  0.00  0.00     0.023 A 
ATOM      5  C4  UNL d   1       1.881  -0.349  -0.792  0.00  0.00     0.048 A 
ATOM      6  C5  UNL d   1       2.991  -0.144  -1.614  0.00  0.00     0.003 A 
ATOM      7  I   UNL d   1      -0.884   0.187   0.312  0.00  0.00    -0.146 I 
ENDROOT
TORSDOF 0
ENDMDL
