MODEL 1
REMARK minimizedAffinity -3.44108438
REMARK minimizedRMSD -1
REMARK  0 active torsions:
REMARK  status: ('A' for Active; 'I' for Inactive)
ROOT
ATOM      1  C   UNL d   1       2.110  -1.104  -0.218  0.00  0.00     0.023 A 
ATOM      2  C1  UNL d   1       1.148  -0.097  -0.292  0.00  0.00     0.003 A 
ATOM      3  C2  UNL d   1       1.077   0.721  -1.421  0.00  0.00     0.048 A 
ATOM      4  C3  UNL d   1       1.972   0.527  -2.473  0.00  0.00     0.023 A 
ATOM      5  C4  UNL d   1       2.936  -0.480  -2.403  0.00  0.00     0.048 A 
ATOM      6  C5  UNL d   1       3.003  -1.296  -1.272  0.00  0.00     0.003 A 
ATOM      7  I   UNL d   1       1.869   1.743  -4.155  0.00  0.00    -0.146 I 
ENDROOT
TORSDOF 0
ENDMDL
