MODEL 1
REMARK minimizedAffinity -2.58337331
REMARK minimizedRMSD -1
REMARK  0 active torsions:
REMARK  status: ('A' for Active; 'I' for Inactive)
ROOT
ATOM      1  C   UNL d   1       0.511  -0.699  -0.057  0.00  0.00     0.023 A 
ATOM      2  C1  UNL d   1       1.065  -0.459   1.201  0.00  0.00     0.003 A 
ATOM      3  C2  UNL d   1       0.286   0.110   2.211  0.00  0.00     0.048 A 
ATOM      4  C3  UNL d   1      -1.046   0.435   1.957  0.00  0.00     0.023 A 
ATOM      5  C4  UNL d   1      -1.604   0.196   0.700  0.00  0.00     0.048 A 
ATOM      6  C5  UNL d   1      -0.822  -0.371  -0.307  0.00  0.00     0.003 A 
ATOM      7  I   UNL d   1      -2.206   1.282   3.459  0.00  0.00    -0.146 I 
ENDROOT
TORSDOF 0
ENDMDL
