MODEL 1
REMARK minimizedAffinity -4.23252344
REMARK minimizedRMSD -1
REMARK  0 active torsions:
REMARK  status: ('A' for Active; 'I' for Inactive)
ROOT
ATOM      1  C   UNL d   1       2.086  -1.459  -1.472  0.00  0.00     0.023 A 
ATOM      2  C1  UNL d   1       1.188  -2.220  -0.723  0.00  0.00     0.003 A 
ATOM      3  C2  UNL d   1       0.193  -1.590   0.028  0.00  0.00     0.048 A 
ATOM      4  C3  UNL d   1       0.100  -0.199   0.024  0.00  0.00     0.023 A 
ATOM      5  C4  UNL d   1       0.995   0.567  -0.725  0.00  0.00     0.048 A 
ATOM      6  C5  UNL d   1       1.989  -0.067  -1.473  0.00  0.00     0.003 A 
ATOM      7  I   UNL d   1      -1.380   0.740   1.140  0.00  0.00    -0.146 I 
ENDROOT
TORSDOF 0
ENDMDL
