MODEL 1
REMARK minimizedAffinity -1.9727242
REMARK minimizedRMSD -1
REMARK  0 active torsions:
REMARK  status: ('A' for Active; 'I' for Inactive)
ROOT
ATOM      1  C   UNL d   1       2.088  -0.120  -2.155  0.00  0.00     0.023 A 
ATOM      2  C1  UNL d   1       1.654  -1.023  -1.184  0.00  0.00     0.003 A 
ATOM      3  C2  UNL d   1       0.628  -0.668  -0.306  0.00  0.00     0.048 A 
ATOM      4  C3  UNL d   1       0.039   0.592  -0.405  0.00  0.00     0.023 A 
ATOM      5  C4  UNL d   1       0.469   1.499  -1.375  0.00  0.00     0.048 A 
ATOM      6  C5  UNL d   1       1.496   1.139  -2.250  0.00  0.00     0.003 A 
ATOM      7  I   UNL d   1      -1.488   1.123   0.900  0.00  0.00    -0.146 I 
ENDROOT
TORSDOF 0
ENDMDL
