MODEL 1
REMARK minimizedAffinity -3.47105479
REMARK minimizedRMSD -1
REMARK  0 active torsions:
REMARK  status: ('A' for Active; 'I' for Inactive)
ROOT
ATOM      1  C   UNL d   1       3.350   0.025  -2.402  0.00  0.00     0.023 A 
ATOM      2  C1  UNL d   1       2.945  -1.085  -1.660  0.00  0.00     0.003 A 
ATOM      3  C2  UNL d   1       1.785  -1.024  -0.886  0.00  0.00     0.048 A 
ATOM      4  C3  UNL d   1       1.034   0.150  -0.857  0.00  0.00     0.023 A 
ATOM      5  C4  UNL d   1       1.434   1.263  -1.598  0.00  0.00     0.048 A 
ATOM      6  C5  UNL d   1       2.595   1.198  -2.371  0.00  0.00     0.003 A 
ATOM      7  I   UNL d   1      -0.693   0.244   0.295  0.00  0.00    -0.146 I 
ENDROOT
TORSDOF 0
ENDMDL
