MODEL 1
REMARK minimizedAffinity -4.97884989
REMARK minimizedRMSD -1
REMARK  0 active torsions:
REMARK  status: ('A' for Active; 'I' for Inactive)
ROOT
ATOM      1  C   UNL d   1       3.493   0.388  -2.372  0.00  0.00     0.023 A 
ATOM      2  C1  UNL d   1       2.589   1.446  -2.471  0.00  0.00     0.003 A 
ATOM      3  C2  UNL d   1       1.435   1.455  -1.686  0.00  0.00     0.048 A 
ATOM      4  C3  UNL d   1       1.191   0.404  -0.803  0.00  0.00     0.023 A 
ATOM      5  C4  UNL d   1       2.093  -0.656  -0.699  0.00  0.00     0.048 A 
ATOM      6  C5  UNL d   1       3.246  -0.661  -1.487  0.00  0.00     0.003 A 
ATOM      7  I   UNL d   1      -0.527   0.416   0.368  0.00  0.00    -0.146 I 
ENDROOT
TORSDOF 0
ENDMDL
