MODEL 1
REMARK minimizedAffinity -5.14417791
REMARK minimizedRMSD -1
REMARK  0 active torsions:
REMARK  status: ('A' for Active; 'I' for Inactive)
ROOT
ATOM      1  C   UNL d   1       2.989   1.138  -2.523  0.00  0.00     0.023 A 
ATOM      2  C1  UNL d   1       1.730   1.733  -2.619  0.00  0.00     0.003 A 
ATOM      3  C2  UNL d   1       0.674   1.265  -1.835  0.00  0.00     0.048 A 
ATOM      4  C3  UNL d   1       0.883   0.204  -0.955  0.00  0.00     0.023 A 
ATOM      5  C4  UNL d   1       2.140  -0.394  -0.855  0.00  0.00     0.048 A 
ATOM      6  C5  UNL d   1       3.193   0.076  -1.642  0.00  0.00     0.003 A 
ATOM      7  I   UNL d   1      -0.688  -0.493   0.214  0.00  0.00    -0.146 I 
ENDROOT
TORSDOF 0
ENDMDL
