MODEL 1
REMARK minimizedAffinity -5.29171896
REMARK minimizedRMSD -1
REMARK  0 active torsions:
REMARK  status: ('A' for Active; 'I' for Inactive)
ROOT
ATOM      1  C   UNL d   1       3.026   0.721  -2.623  0.00  0.00     0.023 A 
ATOM      2  C1  UNL d   1       1.838   1.448  -2.711  0.00  0.00     0.003 A 
ATOM      3  C2  UNL d   1       0.836   1.268  -1.755  0.00  0.00     0.048 A 
ATOM      4  C3  UNL d   1       1.028   0.361  -0.714  0.00  0.00     0.023 A 
ATOM      5  C4  UNL d   1       2.215  -0.368  -0.621  0.00  0.00     0.048 A 
ATOM      6  C5  UNL d   1       3.214  -0.185  -1.580  0.00  0.00     0.003 A 
ATOM      7  I   UNL d   1      -0.463   0.092   0.709  0.00  0.00    -0.146 I 
ENDROOT
TORSDOF 0
ENDMDL
