MODEL 1
REMARK minimizedAffinity 5.54253531
REMARK minimizedRMSD -1
REMARK  0 active torsions:
REMARK  status: ('A' for Active; 'I' for Inactive)
ROOT
ATOM      1  C   UNL d   1      -1.125  -2.596  -5.902  0.00  0.00     0.172 C 
ATOM      2  N   UNL d   1      -0.811  -1.213  -5.628  0.00  0.00    -0.070 N 
ATOM      3  C1  UNL d   1       0.338  -0.567  -5.999  0.00  0.00    -0.004 A 
ATOM      4  C2  UNL d   1       0.253   0.734  -5.553  0.00  0.00    -0.047 A 
ATOM      5  C3  UNL d   1      -0.989   0.874  -4.890  0.00  0.00    -0.047 A 
ATOM      6  C4  UNL d   1      -1.628  -0.346  -4.952  0.00  0.00    -0.004 A 
ENDROOT
TORSDOF 0
ENDMDL
