MODEL 1
REMARK minimizedAffinity 6.74451447
REMARK minimizedRMSD -1
REMARK  0 active torsions:
REMARK  status: ('A' for Active; 'I' for Inactive)
ROOT
ATOM      1  C   UNL d   1      -0.771  -2.415  -4.995  0.00  0.00     0.172 C 
ATOM      2  N   UNL d   1      -0.620  -1.038  -5.403  0.00  0.00    -0.070 N 
ATOM      3  C1  UNL d   1       0.569  -0.398  -5.629  0.00  0.00    -0.004 A 
ATOM      4  C2  UNL d   1       0.287   0.899  -6.000  0.00  0.00    -0.047 A 
ATOM      5  C3  UNL d   1      -1.121   1.044  -5.995  0.00  0.00    -0.047 A 
ATOM      6  C4  UNL d   1      -1.657  -0.171  -5.622  0.00  0.00    -0.004 A 
ENDROOT
TORSDOF 0
ENDMDL
