MODEL 1
REMARK minimizedAffinity -1.78413725
REMARK minimizedRMSD -1
REMARK  0 active torsions:
REMARK  status: ('A' for Active; 'I' for Inactive)
ROOT
ATOM      1  C   UNL d   1      -3.042  -1.839   3.278  0.00  0.00     0.172 C 
ATOM      2  N   UNL d   1      -1.647  -1.549   3.514  0.00  0.00    -0.070 N 
ATOM      3  C1  UNL d   1      -0.805  -2.274   4.314  0.00  0.00    -0.004 A 
ATOM      4  C2  UNL d   1       0.435  -1.675   4.274  0.00  0.00    -0.047 A 
ATOM      5  C3  UNL d   1       0.335  -0.550   3.422  0.00  0.00    -0.047 A 
ATOM      6  C4  UNL d   1      -0.965  -0.496   2.965  0.00  0.00    -0.004 A 
ENDROOT
TORSDOF 0
ENDMDL
