MODEL 1
REMARK minimizedAffinity 4.58043671
REMARK minimizedRMSD -1
REMARK  0 active torsions:
REMARK  status: ('A' for Active; 'I' for Inactive)
ROOT
ATOM      1  C   UNL d   1      -1.262   0.285   2.167  0.00  0.00     0.172 C 
ATOM      2  N   UNL d   1      -0.021  -0.380   2.490  0.00  0.00    -0.070 N 
ATOM      3  C1  UNL d   1       0.258  -1.020   3.668  0.00  0.00    -0.004 A 
ATOM      4  C2  UNL d   1       1.539  -1.521   3.582  0.00  0.00    -0.047 A 
ATOM      5  C3  UNL d   1       2.047  -1.170   2.309  0.00  0.00    -0.047 A 
ATOM      6  C4  UNL d   1       1.060  -0.464   1.654  0.00  0.00    -0.004 A 
ENDROOT
TORSDOF 0
ENDMDL
