MODEL 1
REMARK minimizedAffinity 2.2463491
REMARK minimizedRMSD -1
REMARK  0 active torsions:
REMARK  status: ('A' for Active; 'I' for Inactive)
ROOT
ATOM      1  C   UNL d   1       3.810  -1.186   5.087  0.00  0.00     0.172 C 
ATOM      2  N   UNL d   1       2.703  -1.179   4.160  0.00  0.00    -0.070 N 
ATOM      3  C1  UNL d   1       1.497  -0.561   4.360  0.00  0.00    -0.004 A 
ATOM      4  C2  UNL d   1       0.717  -0.787   3.247  0.00  0.00    -0.047 A 
ATOM      5  C3  UNL d   1       1.479  -1.570   2.348  0.00  0.00    -0.047 A 
ATOM      6  C4  UNL d   1       2.704  -1.798   2.938  0.00  0.00    -0.004 A 
ENDROOT
TORSDOF 0
ENDMDL
