MODEL 1
REMARK minimizedAffinity -2.92879128
REMARK minimizedRMSD -1
REMARK  0 active torsions:
REMARK  status: ('A' for Active; 'I' for Inactive)
ROOT
ATOM      1  C   UNL d   1      -0.011  -4.055  -2.858  0.00  0.00     0.172 C 
ATOM      2  N   UNL d   1      -0.047  -2.698  -3.349  0.00  0.00    -0.070 N 
ATOM      3  C1  UNL d   1       0.786  -1.685  -2.958  0.00  0.00    -0.004 A 
ATOM      4  C2  UNL d   1       0.430  -0.551  -3.656  0.00  0.00    -0.047 A 
ATOM      5  C3  UNL d   1      -0.656  -0.895  -4.496  0.00  0.00    -0.047 A 
ATOM      6  C4  UNL d   1      -0.931  -2.230  -4.286  0.00  0.00    -0.004 A 
ENDROOT
TORSDOF 0
ENDMDL
