MODEL 1
REMARK minimizedAffinity 3.20221996
REMARK minimizedRMSD -1
REMARK  0 active torsions:
REMARK  status: ('A' for Active; 'I' for Inactive)
ROOT
ATOM      1  C   UNL d   1      -0.784   5.772   1.579  0.00  0.00     0.172 C 
ATOM      2  N   UNL d   1      -1.050   5.312   0.236  0.00  0.00    -0.070 N 
ATOM      3  C1  UNL d   1      -1.659   4.131  -0.097  0.00  0.00    -0.004 A 
ATOM      4  C2  UNL d   1      -1.727   4.065  -1.472  0.00  0.00    -0.047 A 
ATOM      5  C3  UNL d   1      -1.138   5.246  -1.982  0.00  0.00    -0.047 A 
ATOM      6  C4  UNL d   1      -0.727   6.000  -0.903  0.00  0.00    -0.004 A 
ENDROOT
TORSDOF 0
ENDMDL
