MODEL 1
REMARK minimizedAffinity -2.706218
REMARK minimizedRMSD -1
REMARK  0 active torsions:
REMARK  status: ('A' for Active; 'I' for Inactive)
ROOT
ATOM      1  C   UNL d   1       5.468  -1.558  -1.750  0.00  0.00     0.172 C 
ATOM      2  N   UNL d   1       5.483  -1.739  -3.183  0.00  0.00    -0.070 N 
ATOM      3  C1  UNL d   1       5.221  -2.910  -3.843  0.00  0.00    -0.004 A 
ATOM      4  C2  UNL d   1       5.336  -2.668  -5.194  0.00  0.00    -0.047 A 
ATOM      5  C3  UNL d   1       5.680  -1.305  -5.353  0.00  0.00    -0.047 A 
ATOM      6  C4  UNL d   1       5.764  -0.753  -4.092  0.00  0.00    -0.004 A 
ENDROOT
TORSDOF 0
ENDMDL
