MODEL 1
REMARK minimizedAffinity -3.04757905
REMARK minimizedRMSD -1
REMARK  0 active torsions:
REMARK  status: ('A' for Active; 'I' for Inactive)
ROOT
ATOM      1  C   UNL d   1       1.972  -2.344  -1.961  0.00  0.00     0.172 C 
ATOM      2  N   UNL d   1       0.865  -1.604  -2.520  0.00  0.00    -0.070 N 
ATOM      3  C1  UNL d   1       0.956  -0.649  -3.497  0.00  0.00    -0.004 A 
ATOM      4  C2  UNL d   1      -0.316  -0.184  -3.752  0.00  0.00    -0.047 A 
ATOM      5  C3  UNL d   1      -1.202  -0.882  -2.897  0.00  0.00    -0.047 A 
ATOM      6  C4  UNL d   1      -0.444  -1.755  -2.145  0.00  0.00    -0.004 A 
ENDROOT
TORSDOF 0
ENDMDL
