MODEL 1
REMARK minimizedAffinity -0.512083948
REMARK minimizedRMSD -1
REMARK  0 active torsions:
REMARK  status: ('A' for Active; 'I' for Inactive)
ROOT
ATOM      1  C   UNL d   1       2.115   0.656   0.601  0.00  0.00     0.172 C 
ATOM      2  N   UNL d   1       1.195  -0.038   1.473  0.00  0.00    -0.070 N 
ATOM      3  C1  UNL d   1      -0.148   0.208   1.573  0.00  0.00    -0.004 A 
ATOM      4  C2  UNL d   1      -0.667  -0.661   2.509  0.00  0.00    -0.047 A 
ATOM      5  C3  UNL d   1       0.402  -1.455   2.988  0.00  0.00    -0.047 A 
ATOM      6  C4  UNL d   1       1.543  -1.048   2.329  0.00  0.00    -0.004 A 
ENDROOT
TORSDOF 0
ENDMDL
