MODEL 1
REMARK minimizedAffinity 2.41402221
REMARK minimizedRMSD -1
REMARK  0 active torsions:
REMARK  status: ('A' for Active; 'I' for Inactive)
ROOT
ATOM      1  C   UNL d   1       1.049  -0.920   2.770  0.00  0.00     0.172 C 
ATOM      2  N   UNL d   1       1.599  -1.401   4.016  0.00  0.00    -0.070 N 
ATOM      3  C1  UNL d   1       2.552  -0.765   4.766  0.00  0.00    -0.004 A 
ATOM      4  C2  UNL d   1       2.806  -1.544   5.874  0.00  0.00    -0.047 A 
ATOM      5  C3  UNL d   1       1.977  -2.688   5.787  0.00  0.00    -0.047 A 
ATOM      6  C4  UNL d   1       1.241  -2.574   4.626  0.00  0.00    -0.004 A 
ENDROOT
TORSDOF 0
ENDMDL
