MODEL 1
REMARK minimizedAffinity -3.87396526
REMARK minimizedRMSD -1
REMARK  0 active torsions:
REMARK  status: ('A' for Active; 'I' for Inactive)
ROOT
ATOM      1  C   UNL d   1       1.843  -5.569  -4.588  0.00  0.00     0.172 C 
ATOM      2  N   UNL d   1       0.989  -4.922  -3.619  0.00  0.00    -0.070 N 
ATOM      3  C1  UNL d   1       0.319  -5.547  -2.601  0.00  0.00    -0.004 A 
ATOM      4  C2  UNL d   1      -0.380  -4.586  -1.904  0.00  0.00    -0.047 A 
ATOM      5  C3  UNL d   1      -0.123  -3.341  -2.524  0.00  0.00    -0.047 A 
ATOM      6  C4  UNL d   1       0.728  -3.577  -3.583  0.00  0.00    -0.004 A 
ENDROOT
TORSDOF 0
ENDMDL
