MODEL 1
REMARK minimizedAffinity 13.9133005
REMARK minimizedRMSD -1
REMARK  1 active torsions:
REMARK  status: ('A' for Active; 'I' for Inactive)
REMARK    1  A    between atoms: N_2  and  C1_3 
ROOT
ATOM      1  C1  UNL d   1      -0.341   3.284   0.787  0.00  0.00     0.143 A 
ATOM      2  C2  UNL d   1      -1.581   3.932   0.832  0.00  0.00    -0.057 A 
ATOM      3  C3  UNL d   1      -2.681   3.444   0.116  0.00  0.00     0.033 A 
ATOM      4  C4  UNL d   1      -2.552   2.313  -0.683  0.00  0.00    -0.042 A 
ATOM      5  C5  UNL d   1      -1.323   1.668  -0.763  0.00  0.00     0.033 A 
ATOM      6  C6  UNL d   1      -0.230   2.156  -0.040  0.00  0.00    -0.057 A 
ENDROOT
BRANCH   1   7
ATOM      7  N   UNL d   1       0.815   3.775   1.398  0.00  0.00    -0.732 N 
ATOM      8  C   UNL d   1       1.387   5.040   0.986  0.00  0.00     0.284 C 
ATOM      9  H3  UNL d   1       0.816   3.627   2.405  0.00  0.00     0.395 HD
ENDBRANCH   1   7
TORSDOF 1
ENDMDL
