MODEL 1
REMARK minimizedAffinity 7.75335407
REMARK minimizedRMSD -1
REMARK  1 active torsions:
REMARK  status: ('A' for Active; 'I' for Inactive)
REMARK    1  A    between atoms: N_2  and  C1_3 
ROOT
ATOM      1  C1  UNL d   1      -3.593   1.368   4.877  0.00  0.00     0.143 A 
ATOM      2  C2  UNL d   1      -4.560   0.712   5.646  0.00  0.00    -0.057 A 
ATOM      3  C3  UNL d   1      -5.759   1.345   5.998  0.00  0.00     0.033 A 
ATOM      4  C4  UNL d   1      -5.998   2.659   5.611  0.00  0.00    -0.042 A 
ATOM      5  C5  UNL d   1      -5.040   3.339   4.867  0.00  0.00     0.033 A 
ATOM      6  C6  UNL d   1      -3.848   2.699   4.513  0.00  0.00    -0.057 A 
ENDROOT
BRANCH   1   7
ATOM      7  N   UNL d   1      -2.340   0.827   4.578  0.00  0.00    -0.732 N 
ATOM      8  C   UNL d   1      -2.035  -0.550   4.902  0.00  0.00     0.284 C 
ATOM      9  H3  UNL d   1      -1.995   1.126   3.668  0.00  0.00     0.395 HD
ENDBRANCH   1   7
TORSDOF 1
ENDMDL
