MODEL 1
REMARK minimizedAffinity 11.7776823
REMARK minimizedRMSD -1
REMARK  1 active torsions:
REMARK  status: ('A' for Active; 'I' for Inactive)
REMARK    1  A    between atoms: N_2  and  C1_3 
ROOT
ATOM      1  C1  UNL d   1      -3.368  -2.344   5.224  0.00  0.00     0.143 A 
ATOM      2  C2  UNL d   1      -2.873  -2.628   3.947  0.00  0.00    -0.057 A 
ATOM      3  C3  UNL d   1      -2.244  -1.643   3.176  0.00  0.00     0.033 A 
ATOM      4  C4  UNL d   1      -2.125  -0.344   3.659  0.00  0.00    -0.042 A 
ATOM      5  C5  UNL d   1      -2.631  -0.033   4.916  0.00  0.00     0.033 A 
ATOM      6  C6  UNL d   1      -3.252  -1.023   5.684  0.00  0.00    -0.057 A 
ENDROOT
BRANCH   1   7
ATOM      7  N   UNL d   1      -4.090  -3.255   5.999  0.00  0.00    -0.732 N 
ATOM      8  C   UNL d   1      -5.537  -3.238   6.000  0.00  0.00     0.284 C 
ATOM      9  H3  UNL d   1      -3.685  -4.188   5.979  0.00  0.00     0.395 HD
ENDBRANCH   1   7
TORSDOF 1
ENDMDL
