MODEL 1
REMARK minimizedAffinity -0.14954178
REMARK minimizedRMSD -1
REMARK  1 active torsions:
REMARK  status: ('A' for Active; 'I' for Inactive)
REMARK    1  A    between atoms: N_2  and  C1_3 
ROOT
ATOM      1  C1  UNL d   1       5.153  -2.519  -4.266  0.00  0.00     0.143 A 
ATOM      2  C2  UNL d   1       5.995  -3.218  -5.138  0.00  0.00    -0.057 A 
ATOM      3  C3  UNL d   1       5.493  -4.201  -6.000  0.00  0.00     0.033 A 
ATOM      4  C4  UNL d   1       4.140  -4.523  -5.984  0.00  0.00    -0.042 A 
ATOM      5  C5  UNL d   1       3.288  -3.858  -5.109  0.00  0.00     0.033 A 
ATOM      6  C6  UNL d   1       3.794  -2.873  -4.255  0.00  0.00    -0.057 A 
ENDROOT
BRANCH   1   7
ATOM      7  N   UNL d   1       5.606  -1.601  -3.316  0.00  0.00    -0.732 N 
ATOM      8  C   UNL d   1       6.000  -2.041  -1.995  0.00  0.00     0.284 C 
ATOM      9  H3  UNL d   1       6.219  -0.895  -3.719  0.00  0.00     0.395 HD
ENDBRANCH   1   7
TORSDOF 1
ENDMDL
