MODEL 1
REMARK minimizedAffinity 8.55042839
REMARK minimizedRMSD -1
REMARK  1 active torsions:
REMARK  status: ('A' for Active; 'I' for Inactive)
REMARK    1  A    between atoms: N_2  and  C1_3 
ROOT
ATOM      1  C1  UNL d   1       4.688  -2.216   5.220  0.00  0.00     0.143 A 
ATOM      2  C2  UNL d   1       5.489  -3.294   5.610  0.00  0.00    -0.057 A 
ATOM      3  C3  UNL d   1       4.925  -4.522   5.978  0.00  0.00     0.033 A 
ATOM      4  C4  UNL d   1       3.544  -4.683   5.990  0.00  0.00    -0.042 A 
ATOM      5  C5  UNL d   1       2.727  -3.617   5.630  0.00  0.00     0.033 A 
ATOM      6  C6  UNL d   1       3.297  -2.396   5.257  0.00  0.00    -0.057 A 
ENDROOT
BRANCH   1   7
ATOM      7  N   UNL d   1       5.184  -0.940   4.938  0.00  0.00    -0.732 N 
ATOM      8  C   UNL d   1       4.705  -0.200   3.791  0.00  0.00     0.284 C 
ATOM      9  H3  UNL d   1       5.304  -0.376   5.776  0.00  0.00     0.395 HD
ENDBRANCH   1   7
TORSDOF 1
ENDMDL
