MODEL 1
REMARK minimizedAffinity 11.4337339
REMARK minimizedRMSD -1
REMARK  1 active torsions:
REMARK  status: ('A' for Active; 'I' for Inactive)
REMARK    1  A    between atoms: N_2  and  C1_3 
ROOT
ATOM      1  C1  UNL d   1      -0.938   2.923   1.039  0.00  0.00     0.143 A 
ATOM      2  C2  UNL d   1      -1.761   3.862   0.409  0.00  0.00    -0.057 A 
ATOM      3  C3  UNL d   1      -2.981   3.488  -0.168  0.00  0.00     0.033 A 
ATOM      4  C4  UNL d   1      -3.387   2.158  -0.150  0.00  0.00    -0.042 A 
ATOM      5  C5  UNL d   1      -2.573   1.202   0.448  0.00  0.00     0.033 A 
ATOM      6  C6  UNL d   1      -1.359   1.583   1.028  0.00  0.00    -0.057 A 
ENDROOT
BRANCH   1   7
ATOM      7  N   UNL d   1       0.331   3.215   1.544  0.00  0.00    -0.732 N 
ATOM      8  C   UNL d   1       0.971   4.478   1.243  0.00  0.00     0.284 C 
ATOM      9  H3  UNL d   1       0.446   2.910   2.507  0.00  0.00     0.395 HD
ENDBRANCH   1   7
TORSDOF 1
ENDMDL
