MODEL 1
REMARK minimizedAffinity 19.8198986
REMARK minimizedRMSD -1
REMARK  1 active torsions:
REMARK  status: ('A' for Active; 'I' for Inactive)
REMARK    1  A    between atoms: N_2  and  C1_3 
ROOT
ATOM      1  C1  UNL d   1      -2.842  -2.326   5.232  0.00  0.00     0.143 A 
ATOM      2  C2  UNL d   1      -1.606  -2.090   5.844  0.00  0.00    -0.057 A 
ATOM      3  C3  UNL d   1      -1.090  -0.793   5.960  0.00  0.00     0.033 A 
ATOM      4  C4  UNL d   1      -1.790   0.290   5.439  0.00  0.00    -0.042 A 
ATOM      5  C5  UNL d   1      -3.008   0.076   4.805  0.00  0.00     0.033 A 
ATOM      6  C6  UNL d   1      -3.522  -1.220   4.698  0.00  0.00    -0.057 A 
ENDROOT
BRANCH   1   7
ATOM      7  N   UNL d   1      -3.363  -3.601   4.998  0.00  0.00    -0.732 N 
ATOM      8  C   UNL d   1      -4.173  -4.262   5.999  0.00  0.00     0.284 C 
ATOM      9  H3  UNL d   1      -3.706  -3.712   4.047  0.00  0.00     0.395 HD
ENDBRANCH   1   7
TORSDOF 1
ENDMDL
