MODEL 1
REMARK minimizedAffinity -0.117816098
REMARK minimizedRMSD -1
REMARK  1 active torsions:
REMARK  status: ('A' for Active; 'I' for Inactive)
REMARK    1  A    between atoms: N_2  and  C1_3 
ROOT
ATOM      1  C1  UNL d   1       5.306   3.959  -3.993  0.00  0.00     0.143 A 
ATOM      2  C2  UNL d   1       5.999   4.871  -3.189  0.00  0.00    -0.057 A 
ATOM      3  C3  UNL d   1       5.325   5.873  -2.481  0.00  0.00     0.033 A 
ATOM      4  C4  UNL d   1       3.944   6.000  -2.588  0.00  0.00    -0.042 A 
ATOM      5  C5  UNL d   1       3.238   5.121  -3.400  0.00  0.00     0.033 A 
ATOM      6  C6  UNL d   1       3.916   4.118  -4.100  0.00  0.00    -0.057 A 
ENDROOT
BRANCH   1   7
ATOM      7  N   UNL d   1       5.929   3.003  -4.799  0.00  0.00    -0.732 N 
ATOM      8  C   UNL d   1       5.241   2.441  -5.941  0.00  0.00     0.284 C 
ATOM      9  H3  UNL d   1       6.909   3.216  -4.968  0.00  0.00     0.395 HD
ENDBRANCH   1   7
TORSDOF 1
ENDMDL
