MODEL 1
REMARK minimizedAffinity 1.61994743
REMARK minimizedRMSD -1
REMARK  1 active torsions:
REMARK  status: ('A' for Active; 'I' for Inactive)
REMARK    1  A    between atoms: N_2  and  C1_3 
ROOT
ATOM      1  C1  UNL d   1      -0.574  -2.590  -1.780  0.00  0.00     0.143 A 
ATOM      2  C2  UNL d   1      -1.943  -2.677  -2.056  0.00  0.00    -0.057 A 
ATOM      3  C3  UNL d   1      -2.888  -2.754  -1.026  0.00  0.00     0.033 A 
ATOM      4  C4  UNL d   1      -2.477  -2.774   0.303  0.00  0.00    -0.042 A 
ATOM      5  C5  UNL d   1      -1.120  -2.714   0.601  0.00  0.00     0.033 A 
ATOM      6  C6  UNL d   1      -0.182  -2.630  -0.432  0.00  0.00    -0.057 A 
ENDROOT
BRANCH   1   7
ATOM      7  N   UNL d   1       0.421  -2.610  -2.761  0.00  0.00    -0.732 N 
ATOM      8  C   UNL d   1       0.516  -3.715  -3.690  0.00  0.00     0.284 C 
ATOM      9  H3  UNL d   1       0.567  -1.697  -3.184  0.00  0.00     0.395 HD
ENDBRANCH   1   7
TORSDOF 1
ENDMDL
