MODEL 1
REMARK minimizedAffinity 4.3945055
REMARK minimizedRMSD -1
REMARK  1 active torsions:
REMARK  status: ('A' for Active; 'I' for Inactive)
REMARK    1  A    between atoms: N_2  and  C1_3 
ROOT
ATOM      1  C1  UNL d   1      -3.930   5.694   3.246  0.00  0.00     0.143 A 
ATOM      2  C2  UNL d   1      -2.851   5.133   3.937  0.00  0.00    -0.057 A 
ATOM      3  C3  UNL d   1      -1.615   4.928   3.311  0.00  0.00     0.033 A 
ATOM      4  C4  UNL d   1      -1.446   5.255   1.970  0.00  0.00    -0.042 A 
ATOM      5  C5  UNL d   1      -2.512   5.790   1.256  0.00  0.00     0.033 A 
ATOM      6  C6  UNL d   1      -3.741   5.999   1.889  0.00  0.00    -0.057 A 
ENDROOT
BRANCH   1   7
ATOM      7  N   UNL d   1      -5.212   5.832   3.785  0.00  0.00    -0.732 N 
ATOM      8  C   UNL d   1      -5.961   4.669   4.211  0.00  0.00     0.284 C 
ATOM      9  H3  UNL d   1      -5.284   6.627   4.416  0.00  0.00     0.395 HD
ENDBRANCH   1   7
TORSDOF 1
ENDMDL
