MODEL 1
REMARK minimizedAffinity 0.377026379
REMARK minimizedRMSD -1
REMARK  0 active torsions:
REMARK  status: ('A' for Active; 'I' for Inactive)
ROOT
ATOM      1  O1  BZF d   1       1.321   3.969   0.616  0.00  0.00    -0.204 OA
ATOM      2  C2  BZF d   1       1.630   4.907  -0.350  0.00  0.00     0.174 A 
ATOM      3  C3  BZF d   1       1.756   4.324  -1.560  0.00  0.00    -0.012 A 
ATOM      4  C3A BZF d   1       1.420   2.949  -1.352  0.00  0.00    -0.107 A 
ATOM      5  C4  BZF d   1       1.345   1.866  -2.179  0.00  0.00     0.055 A 
ATOM      6  C5  BZF d   1       1.058   0.648  -1.649  0.00  0.00    -0.016 A 
ATOM      7  C6  BZF d   1       0.846   0.477  -0.297  0.00  0.00     0.022 A 
ATOM      8  C7  BZF d   1       0.905   1.523   0.563  0.00  0.00     0.029 A 
ATOM      9  C7A BZF d   1       1.162   2.760   0.026  0.00  0.00     0.058 A 
ENDROOT
TORSDOF 0
ENDMDL
