MODEL 1
REMARK minimizedAffinity -4.99147987
REMARK minimizedRMSD -1
REMARK  0 active torsions:
REMARK  status: ('A' for Active; 'I' for Inactive)
ROOT
ATOM      1  O1  BZF d   1       1.550   0.313  -1.909  0.00  0.00    -0.204 OA
ATOM      2  C2  BZF d   1       1.265  -0.568  -0.884  0.00  0.00     0.174 A 
ATOM      3  C3  BZF d   1       1.018   0.096   0.263  0.00  0.00    -0.012 A 
ATOM      4  C3A BZF d   1       1.066   1.483  -0.087  0.00  0.00    -0.107 A 
ATOM      5  C4  BZF d   1       0.886   2.636   0.621  0.00  0.00     0.055 A 
ATOM      6  C5  BZF d   1       1.076   3.829  -0.002  0.00  0.00    -0.016 A 
ATOM      7  C6  BZF d   1       1.450   3.905  -1.327  0.00  0.00     0.022 A 
ATOM      8  C7  BZF d   1       1.636   2.788  -2.072  0.00  0.00     0.029 A 
ATOM      9  C7A BZF d   1       1.413   1.581  -1.454  0.00  0.00     0.058 A 
ENDROOT
TORSDOF 0
ENDMDL
