MODEL 1
REMARK minimizedAffinity -5.38049173
REMARK minimizedRMSD -1
REMARK  0 active torsions:
REMARK  status: ('A' for Active; 'I' for Inactive)
ROOT
ATOM      1  O1  BZF d   1       1.885   3.689   0.740  0.00  0.00    -0.204 OA
ATOM      2  C2  BZF d   1       2.138   4.587  -0.280  0.00  0.00     0.174 A 
ATOM      3  C3  BZF d   1       1.960   4.005  -1.483  0.00  0.00    -0.012 A 
ATOM      4  C3A BZF d   1       1.482   2.687  -1.198  0.00  0.00    -0.107 A 
ATOM      5  C4  BZF d   1       1.109   1.633  -1.982  0.00  0.00     0.055 A 
ATOM      6  C5  BZF d   1       0.760   0.461  -1.391  0.00  0.00    -0.016 A 
ATOM      7  C6  BZF d   1       0.777   0.306  -0.020  0.00  0.00     0.022 A 
ATOM      8  C7  BZF d   1       1.135   1.324   0.799  0.00  0.00     0.029 A 
ATOM      9  C7A BZF d   1       1.457   2.520   0.206  0.00  0.00     0.058 A 
ENDROOT
TORSDOF 0
ENDMDL
