MODEL 1
REMARK minimizedAffinity -4.98054743
REMARK minimizedRMSD -1
REMARK  0 active torsions:
REMARK  status: ('A' for Active; 'I' for Inactive)
ROOT
ATOM      1  O1  BZF d   1       1.694  -0.826  -2.332  0.00  0.00    -0.204 OA
ATOM      2  C2  BZF d   1       1.555  -1.836  -1.400  0.00  0.00     0.174 A 
ATOM      3  C3  BZF d   1       1.276  -1.328  -0.182  0.00  0.00    -0.012 A 
ATOM      4  C3A BZF d   1       1.147   0.082  -0.384  0.00  0.00    -0.107 A 
ATOM      5  C4  BZF d   1       0.860   1.127   0.448  0.00  0.00     0.055 A 
ATOM      6  C5  BZF d   1       0.882   2.392  -0.049  0.00  0.00    -0.016 A 
ATOM      7  C6  BZF d   1       1.193   2.648  -1.368  0.00  0.00     0.022 A 
ATOM      8  C7  BZF d   1       1.480   1.644  -2.232  0.00  0.00     0.029 A 
ATOM      9  C7A BZF d   1       1.425   0.363  -1.741  0.00  0.00     0.058 A 
ENDROOT
TORSDOF 0
ENDMDL
