MODEL 1
REMARK minimizedAffinity 2.62913394
REMARK minimizedRMSD -1
REMARK  0 active torsions:
REMARK  status: ('A' for Active; 'I' for Inactive)
ROOT
ATOM      1  O1  BZF d   1       0.649  -0.363   0.626  0.00  0.00    -0.204 OA
ATOM      2  C2  BZF d   1       1.183  -1.369  -0.156  0.00  0.00     0.174 A 
ATOM      3  C3  BZF d   1       1.798  -0.856  -1.241  0.00  0.00    -0.012 A 
ATOM      4  C3A BZF d   1       1.718   0.564  -1.083  0.00  0.00    -0.107 A 
ATOM      5  C4  BZF d   1       2.161   1.618  -1.829  0.00  0.00     0.055 A 
ATOM      6  C5  BZF d   1       1.855   2.882  -1.433  0.00  0.00    -0.016 A 
ATOM      7  C6  BZF d   1       1.104   3.127  -0.303  0.00  0.00     0.022 A 
ATOM      8  C7  BZF d   1       0.646   2.114   0.472  0.00  0.00     0.029 A 
ATOM      9  C7A BZF d   1       0.982   0.837   0.093  0.00  0.00     0.058 A 
ENDROOT
TORSDOF 0
ENDMDL
