MODEL 1
REMARK minimizedAffinity 1.01211655
REMARK minimizedRMSD -1
REMARK  0 active torsions:
REMARK  status: ('A' for Active; 'I' for Inactive)
ROOT
ATOM      1  O1  BZF d   1       0.670   3.202  -3.042  0.00  0.00    -0.204 OA
ATOM      2  C2  BZF d   1       0.440   1.852  -2.855  0.00  0.00     0.174 A 
ATOM      3  C3  BZF d   1       0.741   1.487  -1.592  0.00  0.00    -0.012 A 
ATOM      4  C3A BZF d   1       1.099   2.700  -0.924  0.00  0.00    -0.107 A 
ATOM      5  C4  BZF d   1       1.482   2.991   0.354  0.00  0.00     0.055 A 
ATOM      6  C5  BZF d   1       1.832   4.267   0.665  0.00  0.00    -0.016 A 
ATOM      7  C6  BZF d   1       1.816   5.274  -0.277  0.00  0.00     0.022 A 
ATOM      8  C7  BZF d   1       1.439   5.035  -1.557  0.00  0.00     0.029 A 
ATOM      9  C7A BZF d   1       1.053   3.754  -1.866  0.00  0.00     0.058 A 
ENDROOT
TORSDOF 0
ENDMDL
