MODEL 1
REMARK minimizedAffinity 2.43204021
REMARK minimizedRMSD -1
REMARK  0 active torsions:
REMARK  status: ('A' for Active; 'I' for Inactive)
ROOT
ATOM      1  O1  BZF d   1       1.350   3.830   0.917  0.00  0.00    -0.204 OA
ATOM      2  C2  BZF d   1       1.582   4.787  -0.052  0.00  0.00     0.174 A 
ATOM      3  C3  BZF d   1       1.665   4.221  -1.273  0.00  0.00    -0.012 A 
ATOM      4  C3A BZF d   1       1.381   2.834  -1.066  0.00  0.00    -0.107 A 
ATOM      5  C4  BZF d   1       1.297   1.758  -1.901  0.00  0.00     0.055 A 
ATOM      6  C5  BZF d   1       1.073   0.526  -1.372  0.00  0.00    -0.016 A 
ATOM      7  C6  BZF d   1       0.934   0.334  -0.013  0.00  0.00     0.022 A 
ATOM      8  C7  BZF d   1       1.005   1.372   0.855  0.00  0.00     0.029 A 
ATOM      9  C7A BZF d   1       1.198   2.623   0.321  0.00  0.00     0.058 A 
ENDROOT
TORSDOF 0
ENDMDL
