MODEL 1
REMARK minimizedAffinity -4.50673962
REMARK minimizedRMSD -1
REMARK  0 active torsions:
REMARK  status: ('A' for Active; 'I' for Inactive)
ROOT
ATOM      1  O1  BZF d   1       1.302   4.179   0.624  0.00  0.00    -0.204 OA
ATOM      2  C2  BZF d   1       1.589   4.836  -0.557  0.00  0.00     0.174 A 
ATOM      3  C3  BZF d   1       1.749   3.957  -1.567  0.00  0.00    -0.012 A 
ATOM      4  C3A BZF d   1       1.459   2.676  -1.000  0.00  0.00    -0.107 A 
ATOM      5  C4  BZF d   1       1.431   1.408  -1.508  0.00  0.00     0.055 A 
ATOM      6  C5  BZF d   1       1.181   0.367  -0.672  0.00  0.00    -0.016 A 
ATOM      7  C6  BZF d   1       0.960   0.555   0.677  0.00  0.00     0.022 A 
ATOM      8  C7  BZF d   1       0.973   1.794   1.226  0.00  0.00     0.029 A 
ATOM      9  C7A BZF d   1       1.192   2.852   0.378  0.00  0.00     0.058 A 
ENDROOT
TORSDOF 0
ENDMDL
