MODEL 1
REMARK minimizedAffinity 10.9000072
REMARK minimizedRMSD -1
REMARK  0 active torsions:
REMARK  status: ('A' for Active; 'I' for Inactive)
ROOT
ATOM      1  O1  BZF d   1       0.804   2.155  -2.456  0.00  0.00    -0.204 OA
ATOM      2  C2  BZF d   1       1.361   3.302  -1.925  0.00  0.00     0.174 A 
ATOM      3  C3  BZF d   1       1.948   3.045  -0.739  0.00  0.00    -0.012 A 
ATOM      4  C3A BZF d   1       1.825   1.631  -0.557  0.00  0.00    -0.107 A 
ATOM      5  C4  BZF d   1       2.228   0.772   0.425  0.00  0.00     0.055 A 
ATOM      6  C5  BZF d   1       1.888  -0.540   0.336  0.00  0.00    -0.016 A 
ATOM      7  C6  BZF d   1       1.142  -1.027  -0.718  0.00  0.00     0.022 A 
ATOM      8  C7  BZF d   1       0.723  -0.214  -1.719  0.00  0.00     0.029 A 
ATOM      9  C7A BZF d   1       1.094   1.107  -1.648  0.00  0.00     0.058 A 
ENDROOT
TORSDOF 0
ENDMDL
