MODEL 1
REMARK minimizedAffinity -4.85327339
REMARK minimizedRMSD -1
REMARK  0 active torsions:
REMARK  status: ('A' for Active; 'I' for Inactive)
ROOT
ATOM      1  O1  BZF d   1       1.320   4.291   0.236  0.00  0.00    -0.204 OA
ATOM      2  C2  BZF d   1       1.667   5.037  -0.874  0.00  0.00     0.174 A 
ATOM      3  C3  BZF d   1       1.890   4.238  -1.937  0.00  0.00    -0.012 A 
ATOM      4  C3A BZF d   1       1.579   2.917  -1.486  0.00  0.00    -0.107 A 
ATOM      5  C4  BZF d   1       1.590   1.692  -2.090  0.00  0.00     0.055 A 
ATOM      6  C5  BZF d   1       1.303   0.588  -1.351  0.00  0.00    -0.016 A 
ATOM      7  C6  BZF d   1       1.006   0.672  -0.007  0.00  0.00     0.022 A 
ATOM      8  C7  BZF d   1       0.978   1.865   0.635  0.00  0.00     0.029 A 
ATOM      9  C7A BZF d   1       1.235   2.986  -0.116  0.00  0.00     0.058 A 
ENDROOT
TORSDOF 0
ENDMDL
