MODEL 1
REMARK minimizedAffinity -0.945100248
REMARK minimizedRMSD -1
REMARK  0 active torsions:
REMARK  status: ('A' for Active; 'I' for Inactive)
ROOT
ATOM      1  O1  BZF d   1       0.663   2.983  -1.225  0.00  0.00    -0.204 OA
ATOM      2  C2  BZF d   1       1.279   2.579  -2.394  0.00  0.00     0.174 A 
ATOM      3  C3  BZF d   1       1.879   1.383  -2.231  0.00  0.00    -0.012 A 
ATOM      4  C3A BZF d   1       1.544   0.972  -0.901  0.00  0.00    -0.107 A 
ATOM      5  C4  BZF d   1       1.833  -0.138  -0.161  0.00  0.00     0.055 A 
ATOM      6  C5  BZF d   1       1.415  -0.197   1.131  0.00  0.00    -0.016 A 
ATOM      7  C6  BZF d   1       0.712   0.836   1.715  0.00  0.00     0.022 A 
ATOM      8  C7  BZF d   1       0.397   1.956   1.019  0.00  0.00     0.029 A 
ATOM      9  C7A BZF d   1       0.790   2.004  -0.297  0.00  0.00     0.058 A 
ENDROOT
TORSDOF 0
ENDMDL
