MODEL 1
REMARK minimizedAffinity 5.99804068
REMARK minimizedRMSD -1
REMARK  0 active torsions:
REMARK  status: ('A' for Active; 'I' for Inactive)
ROOT
ATOM      1  O1  BZF d   1       1.511   3.355   1.021  0.00  0.00    -0.204 OA
ATOM      2  C2  BZF d   1       1.164   4.374   0.155  0.00  0.00     0.174 A 
ATOM      3  C3  BZF d   1       1.171   3.940  -1.122  0.00  0.00    -0.012 A 
ATOM      4  C3A BZF d   1       1.456   2.540  -1.042  0.00  0.00    -0.107 A 
ATOM      5  C4  BZF d   1       1.581   1.552  -1.976  0.00  0.00     0.055 A 
ATOM      6  C5  BZF d   1       1.937   0.304  -1.574  0.00  0.00    -0.016 A 
ATOM      7  C6  BZF d   1       2.181   0.010  -0.249  0.00  0.00     0.022 A 
ATOM      8  C7  BZF d   1       2.065   0.955   0.715  0.00  0.00     0.029 A 
ATOM      9  C7A BZF d   1       1.674   2.210   0.316  0.00  0.00     0.058 A 
ENDROOT
TORSDOF 0
ENDMDL
