MODEL 1
REMARK minimizedAffinity -1.24424791
REMARK minimizedRMSD -1
REMARK  0 active torsions:
REMARK  status: ('A' for Active; 'I' for Inactive)
ROOT
ATOM      1  O1  BZF d   1       1.648  -0.034  -1.845  0.00  0.00    -0.204 OA
ATOM      2  C2  BZF d   1       1.468  -0.853  -0.747  0.00  0.00     0.174 A 
ATOM      3  C3  BZF d   1       1.211  -0.123   0.357  0.00  0.00    -0.012 A 
ATOM      4  C3A BZF d   1       1.142   1.233  -0.096  0.00  0.00    -0.107 A 
ATOM      5  C4  BZF d   1       0.900   2.421   0.532  0.00  0.00     0.055 A 
ATOM      6  C5  BZF d   1       0.976   3.574  -0.184  0.00  0.00    -0.016 A 
ATOM      7  C6  BZF d   1       1.295   3.575  -1.525  0.00  0.00     0.022 A 
ATOM      8  C7  BZF d   1       1.539   2.421  -2.193  0.00  0.00     0.029 A 
ATOM      9  C7A BZF d   1       1.431   1.252  -1.480  0.00  0.00     0.058 A 
ENDROOT
TORSDOF 0
ENDMDL
