MODEL 1
REMARK minimizedAffinity 5.73816156
REMARK minimizedRMSD -1
REMARK  0 active torsions:
REMARK  status: ('A' for Active; 'I' for Inactive)
ROOT
ATOM      1  O1  BZF d   1       1.270   3.440   1.091  0.00  0.00    -0.204 OA
ATOM      2  C2  BZF d   1       0.794   4.329   0.146  0.00  0.00     0.174 A 
ATOM      3  C3  BZF d   1       0.832   3.783  -1.087  0.00  0.00    -0.012 A 
ATOM      4  C3A BZF d   1       1.277   2.438  -0.889  0.00  0.00    -0.107 A 
ATOM      5  C4  BZF d   1       1.500   1.388  -1.734  0.00  0.00     0.055 A 
ATOM      6  C5  BZF d   1       2.004   0.231  -1.231  0.00  0.00    -0.016 A 
ATOM      7  C6  BZF d   1       2.301   0.089   0.108  0.00  0.00     0.022 A 
ATOM      8  C7  BZF d   1       2.092   1.101   0.986  0.00  0.00     0.029 A 
ATOM      9  C7A BZF d   1       1.552   2.261   0.487  0.00  0.00     0.058 A 
ENDROOT
TORSDOF 0
ENDMDL
