MODEL 1
REMARK minimizedAffinity 0.244296491
REMARK minimizedRMSD -1
REMARK  0 active torsions:
REMARK  status: ('A' for Active; 'I' for Inactive)
ROOT
ATOM      1  O1  BZF d   1       1.319   4.205   0.598  0.00  0.00    -0.204 OA
ATOM      2  C2  BZF d   1       1.471   5.159  -0.389  0.00  0.00     0.174 A 
ATOM      3  C3  BZF d   1       1.494   4.586  -1.610  0.00  0.00    -0.012 A 
ATOM      4  C3A BZF d   1       1.254   3.195  -1.377  0.00  0.00    -0.107 A 
ATOM      5  C4  BZF d   1       1.144   2.110  -2.199  0.00  0.00     0.055 A 
ATOM      6  C5  BZF d   1       0.981   0.878  -1.650  0.00  0.00    -0.016 A 
ATOM      7  C6  BZF d   1       0.928   0.694  -0.283  0.00  0.00     0.022 A 
ATOM      8  C7  BZF d   1       1.027   1.740   0.573  0.00  0.00     0.029 A 
ATOM      9  C7A BZF d   1       1.159   2.990   0.019  0.00  0.00     0.058 A 
ENDROOT
TORSDOF 0
ENDMDL
