MODEL 1
REMARK minimizedAffinity -4.39795876
REMARK minimizedRMSD -1
REMARK  0 active torsions:
REMARK  status: ('A' for Active; 'I' for Inactive)
ROOT
ATOM      1  O1  BZF d   1       1.233   0.882  -2.232  0.00  0.00    -0.204 OA
ATOM      2  C2  BZF d   1       1.153  -0.370  -1.654  0.00  0.00     0.174 A 
ATOM      3  C3  BZF d   1       1.124  -0.276  -0.309  0.00  0.00    -0.012 A 
ATOM      4  C3A BZF d   1       1.097   1.127  -0.031  0.00  0.00    -0.107 A 
ATOM      5  C4  BZF d   1       1.048   1.855   1.124  0.00  0.00     0.055 A 
ATOM      6  C5  BZF d   1       1.108   3.211   1.053  0.00  0.00    -0.016 A 
ATOM      7  C6  BZF d   1       1.223   3.871  -0.153  0.00  0.00     0.022 A 
ATOM      8  C7  BZF d   1       1.270   3.192  -1.325  0.00  0.00     0.029 A 
ATOM      9  C7A BZF d   1       1.176   1.823  -1.259  0.00  0.00     0.058 A 
ENDROOT
TORSDOF 0
ENDMDL
