MODEL 1
REMARK minimizedAffinity 2.15947843
REMARK minimizedRMSD -1
REMARK  0 active torsions:
REMARK  status: ('A' for Active; 'I' for Inactive)
ROOT
ATOM      1  O1  BZF d   1       1.346   3.495  -0.759  0.00  0.00    -0.204 OA
ATOM      2  C2  BZF d   1       1.559   3.569  -2.122  0.00  0.00     0.174 A 
ATOM      3  C3  BZF d   1       1.629   2.336  -2.663  0.00  0.00    -0.012 A 
ATOM      4  C3A BZF d   1       1.358   1.436  -1.584  0.00  0.00    -0.107 A 
ATOM      5  C4  BZF d   1       1.270   0.076  -1.495  0.00  0.00     0.055 A 
ATOM      6  C5  BZF d   1       1.063  -0.494  -0.279  0.00  0.00    -0.016 A 
ATOM      7  C6  BZF d   1       0.945   0.263   0.868  0.00  0.00     0.022 A 
ATOM      8  C7  BZF d   1       1.019   1.616   0.829  0.00  0.00     0.029 A 
ATOM      9  C7A BZF d   1       1.195   2.197  -0.403  0.00  0.00     0.058 A 
ENDROOT
TORSDOF 0
ENDMDL
