MODEL 1
REMARK minimizedAffinity -0.744055748
REMARK minimizedRMSD -1
REMARK  0 active torsions:
REMARK  status: ('A' for Active; 'I' for Inactive)
ROOT
ATOM      1  O1  BZF d   1       1.321  -0.607  -2.141  0.00  0.00    -0.204 OA
ATOM      2  C2  BZF d   1       1.308  -1.620  -1.202  0.00  0.00     0.174 A 
ATOM      3  C3  BZF d   1       1.305  -1.113   0.048  0.00  0.00    -0.012 A 
ATOM      4  C3A BZF d   1       1.222   0.305  -0.121  0.00  0.00    -0.107 A 
ATOM      5  C4  BZF d   1       1.165   1.353   0.753  0.00  0.00     0.055 A 
ATOM      6  C5  BZF d   1       1.164   2.621   0.265  0.00  0.00    -0.016 A 
ATOM      7  C6  BZF d   1       1.224   2.877  -1.090  0.00  0.00     0.022 A 
ATOM      8  C7  BZF d   1       1.276   1.870  -1.995  0.00  0.00     0.029 A 
ATOM      9  C7A BZF d   1       1.244   0.587  -1.506  0.00  0.00     0.058 A 
ENDROOT
TORSDOF 0
ENDMDL
