MODEL 1
REMARK minimizedAffinity -4.62538004
REMARK minimizedRMSD -1
REMARK  0 active torsions:
REMARK  status: ('A' for Active; 'I' for Inactive)
ROOT
ATOM      1  N1  IND d   1      -2.276   3.436   2.965  0.00  0.00    -0.196 N 
ATOM      2  C2  IND d   1      -2.674   4.599   2.367  0.00  0.00     0.054 A 
ATOM      3  C3  IND d   1      -2.104   4.721   1.148  0.00  0.00    -0.031 A 
ATOM      4  C4  IND d   1      -0.565   3.084  -0.109  0.00  0.00     0.051 A 
ATOM      5  C5  IND d   1       0.107   1.904   0.045  0.00  0.00    -0.031 A 
ATOM      6  C6  IND d   1       0.015   1.157   1.202  0.00  0.00     0.015 A 
ATOM      7  C7  IND d   1      -0.765   1.560   2.249  0.00  0.00    -0.016 A 
ATOM      8  C8  IND d   1      -1.443   2.761   2.099  0.00  0.00    -0.047 A 
ATOM      9  C9  IND d   1      -1.320   3.544   0.944  0.00  0.00    -0.096 A 
ATOM     10  HN1 IND d   1      -2.507   3.170   3.749  0.00  0.00     0.298 HD
ENDROOT
TORSDOF 0
ENDMDL
