MODEL 1
REMARK minimizedAffinity 7.64634609
REMARK minimizedRMSD -1
REMARK  0 active torsions:
REMARK  status: ('A' for Active; 'I' for Inactive)
ROOT
ATOM      1  N1  IND d   1       0.194   1.529  -2.645  0.00  0.00    -0.196 N 
ATOM      2  C2  IND d   1       0.416   0.362  -1.969  0.00  0.00     0.054 A 
ATOM      3  C3  IND d   1       0.030   0.485  -0.679  0.00  0.00    -0.031 A 
ATOM      4  C4  IND d   1      -1.082   2.477   0.513  0.00  0.00     0.051 A 
ATOM      5  C5  IND d   1      -1.454   3.778   0.319  0.00  0.00    -0.031 A 
ATOM      6  C6  IND d   1      -1.294   4.408  -0.899  0.00  0.00     0.015 A 
ATOM      7  C7  IND d   1      -0.765   3.754  -1.975  0.00  0.00    -0.016 A 
ATOM      8  C8  IND d   1      -0.380   2.435  -1.780  0.00  0.00    -0.047 A 
ATOM      9  C9  IND d   1      -0.501   1.803  -0.535  0.00  0.00    -0.096 A 
ATOM     10  HN1 IND d   1       0.383   1.674  -3.471  0.00  0.00     0.298 HD
ENDROOT
TORSDOF 0
ENDMDL
