MODEL 1
REMARK minimizedAffinity 6.52778435
REMARK minimizedRMSD -1
REMARK  0 active torsions:
REMARK  status: ('A' for Active; 'I' for Inactive)
ROOT
ATOM      1  N1  IND d   1       0.038   1.213  -1.245  0.00  0.00    -0.196 N 
ATOM      2  C2  IND d   1      -0.327   1.893  -2.373  0.00  0.00     0.054 A 
ATOM      3  C3  IND d   1      -0.938   3.054  -2.045  0.00  0.00    -0.031 A 
ATOM      4  C4  IND d   1      -1.352   4.085   0.277  0.00  0.00     0.051 A 
ATOM      5  C5  IND d   1      -1.229   3.818   1.612  0.00  0.00    -0.031 A 
ATOM      6  C6  IND d   1      -0.663   2.647   2.072  0.00  0.00     0.015 A 
ATOM      7  C7  IND d   1      -0.187   1.700   1.210  0.00  0.00    -0.016 A 
ATOM      8  C8  IND d   1      -0.317   1.964  -0.146  0.00  0.00    -0.047 A 
ATOM      9  C9  IND d   1      -0.929   3.132  -0.619  0.00  0.00    -0.096 A 
ATOM     10  HN1 IND d   1       0.425   0.445  -1.225  0.00  0.00     0.298 HD
ENDROOT
TORSDOF 0
ENDMDL
