MODEL 1
REMARK minimizedAffinity -0.789411247
REMARK minimizedRMSD -1
REMARK  0 active torsions:
REMARK  status: ('A' for Active; 'I' for Inactive)
ROOT
ATOM      1  N1  IND d   1      -0.601   0.801  -1.438  0.00  0.00    -0.196 N 
ATOM      2  C2  IND d   1      -0.922   1.564  -2.526  0.00  0.00     0.054 A 
ATOM      3  C3  IND d   1      -1.279   2.809  -2.138  0.00  0.00    -0.031 A 
ATOM      4  C4  IND d   1      -1.310   3.842   0.220  0.00  0.00     0.051 A 
ATOM      5  C5  IND d   1      -1.134   3.524   1.538  0.00  0.00    -0.031 A 
ATOM      6  C6  IND d   1      -0.760   2.258   1.939  0.00  0.00     0.015 A 
ATOM      7  C7  IND d   1      -0.538   1.260   1.032  0.00  0.00    -0.016 A 
ATOM      8  C8  IND d   1      -0.723   1.577  -0.306  0.00  0.00    -0.047 A 
ATOM      9  C9  IND d   1      -1.143   2.849  -0.716  0.00  0.00    -0.096 A 
ATOM     10  HN1 IND d   1      -0.364  -0.025  -1.457  0.00  0.00     0.298 HD
ENDROOT
TORSDOF 0
ENDMDL
