MODEL 1
REMARK minimizedAffinity 4.24713612
REMARK minimizedRMSD -1
REMARK  0 active torsions:
REMARK  status: ('A' for Active; 'I' for Inactive)
ROOT
ATOM      1  N1  IND d   1       4.526  -3.634  -2.151  0.00  0.00    -0.196 N 
ATOM      2  C2  IND d   1       4.052  -4.916  -2.151  0.00  0.00     0.054 A 
ATOM      3  C3  IND d   1       2.767  -4.942  -1.731  0.00  0.00    -0.031 A 
ATOM      4  C4  IND d   1       1.215  -2.990  -1.092  0.00  0.00     0.051 A 
ATOM      5  C5  IND d   1       1.209  -1.636  -0.903  0.00  0.00    -0.031 A 
ATOM      6  C6  IND d   1       2.330  -0.863  -1.126  0.00  0.00     0.015 A 
ATOM      7  C7  IND d   1       3.501  -1.416  -1.561  0.00  0.00    -0.016 A 
ATOM      8  C8  IND d   1       3.513  -2.791  -1.748  0.00  0.00    -0.047 A 
ATOM      9  C9  IND d   1       2.391  -3.586  -1.482  0.00  0.00    -0.096 A 
ATOM     10  HN1 IND d   1       5.323  -3.394  -2.366  0.00  0.00     0.298 HD
ENDROOT
TORSDOF 0
ENDMDL
