MODEL 1
REMARK minimizedAffinity 4.59776878
REMARK minimizedRMSD -1
REMARK  0 active torsions:
REMARK  status: ('A' for Active; 'I' for Inactive)
ROOT
ATOM      1  N1  IND d   1       1.171   0.378  -1.374  0.00  0.00    -0.196 N 
ATOM      2  C2  IND d   1       1.560  -0.931  -1.302  0.00  0.00     0.054 A 
ATOM      3  C3  IND d   1       1.414  -1.397  -0.042  0.00  0.00    -0.031 A 
ATOM      4  C4  IND d   1       0.457  -0.217   2.037  0.00  0.00     0.051 A 
ATOM      5  C5  IND d   1       0.004   0.996   2.474  0.00  0.00    -0.031 A 
ATOM      6  C6  IND d   1      -0.088   2.086   1.633  0.00  0.00     0.015 A 
ATOM      7  C7  IND d   1       0.261   2.001   0.315  0.00  0.00    -0.016 A 
ATOM      8  C8  IND d   1       0.729   0.772  -0.130  0.00  0.00    -0.047 A 
ATOM      9  C9  IND d   1       0.864  -0.326   0.728  0.00  0.00    -0.096 A 
ATOM     10  HN1 IND d   1       1.199   0.872  -2.077  0.00  0.00     0.298 HD
ENDROOT
TORSDOF 0
ENDMDL
