MODEL 1
REMARK minimizedAffinity -3.59184909
REMARK minimizedRMSD -1
REMARK  1 active torsions:
REMARK  status: ('A' for Active; 'I' for Inactive)
REMARK    1  A    between atoms: C1_2  and  C2_3 
ROOT
ATOM      1  C2  UNL d   1      -0.481  -0.330   0.375  0.00  0.00    -0.076 A 
ATOM      2  C3  UNL d   1      -0.628  -1.726   0.302  0.00  0.00     0.004 A 
ATOM      3  C4  UNL d   1      -1.823  -2.341   0.672  0.00  0.00    -0.003 A 
ATOM      4  C5  UNL d   1      -2.890  -1.571   1.119  0.00  0.00     0.000 A 
ATOM      5  C6  UNL d   1      -2.768  -0.183   1.181  0.00  0.00     0.000 A 
ATOM      6  C7  UNL d   1      -1.576   0.455   0.797  0.00  0.00    -0.073 A 
ATOM      7  C8  UNL d   1      -1.497   1.954   0.889  0.00  0.00     0.078 C 
ENDROOT
BRANCH   1   8
ATOM      8  C1  UNL d   1       0.847   0.279  -0.013  0.00  0.00     0.053 C 
ATOM      9  C   UNL d   1       2.030  -0.536   0.486  0.00  0.00     0.018 C 
ENDBRANCH   1   8
TORSDOF 1
ENDMDL
