MODEL 1
REMARK minimizedAffinity -4.01757336
REMARK minimizedRMSD -1
REMARK  1 active torsions:
REMARK  status: ('A' for Active; 'I' for Inactive)
REMARK    1  A    between atoms: C1_2  and  C2_3 
ROOT
ATOM      1  C2  UNL d   1       1.274   1.907  -1.453  0.00  0.00    -0.076 A 
ATOM      2  C3  UNL d   1       2.659   1.916  -1.213  0.00  0.00     0.004 A 
ATOM      3  C4  UNL d   1       3.563   1.565  -2.215  0.00  0.00    -0.003 A 
ATOM      4  C5  UNL d   1       3.096   1.200  -3.473  0.00  0.00     0.000 A 
ATOM      5  C6  UNL d   1       1.726   1.203  -3.733  0.00  0.00     0.000 A 
ATOM      6  C7  UNL d   1       0.803   1.570  -2.739  0.00  0.00    -0.073 A 
ATOM      7  C8  UNL d   1      -0.664   1.549  -3.074  0.00  0.00     0.078 C 
ENDROOT
BRANCH   1   8
ATOM      8  C1  UNL d   1       0.341   2.270  -0.320  0.00  0.00     0.053 C 
ATOM      9  C   UNL d   1      -0.379   1.060   0.253  0.00  0.00     0.018 C 
ENDBRANCH   1   8
TORSDOF 1
ENDMDL
