MODEL 1
REMARK minimizedAffinity -2.59133434
REMARK minimizedRMSD -1
REMARK  1 active torsions:
REMARK  status: ('A' for Active; 'I' for Inactive)
REMARK    1  A    between atoms: C1_2  and  C2_3 
ROOT
ATOM      1  C2  UNL d   1      -0.136   0.022   0.112  0.00  0.00    -0.076 A 
ATOM      2  C3  UNL d   1      -1.531   0.054   0.288  0.00  0.00     0.004 A 
ATOM      3  C4  UNL d   1      -2.224  -1.072   0.728  0.00  0.00    -0.003 A 
ATOM      4  C5  UNL d   1      -1.534  -2.249   1.000  0.00  0.00     0.000 A 
ATOM      5  C6  UNL d   1      -0.148  -2.292   0.848  0.00  0.00     0.000 A 
ATOM      6  C7  UNL d   1       0.568  -1.161   0.421  0.00  0.00    -0.073 A 
ATOM      7  C8  UNL d   1       2.061  -1.267   0.268  0.00  0.00     0.078 C 
ENDROOT
BRANCH   1   8
ATOM      8  C1  UNL d   1       0.558   1.267  -0.394  0.00  0.00     0.053 C 
ATOM      9  C   UNL d   1       0.513   1.383  -1.910  0.00  0.00     0.018 C 
ENDBRANCH   1   8
TORSDOF 1
ENDMDL
