MODEL 1
REMARK minimizedAffinity -3.91732669
REMARK minimizedRMSD -1
REMARK  1 active torsions:
REMARK  status: ('A' for Active; 'I' for Inactive)
REMARK    1  A    between atoms: C1_2  and  C2_3 
ROOT
ATOM      1  C2  UNL d   1      -0.358  -0.704   0.328  0.00  0.00    -0.076 A 
ATOM      2  C3  UNL d   1      -1.735  -0.904   0.528  0.00  0.00     0.004 A 
ATOM      3  C4  UNL d   1      -2.199  -1.931   1.348  0.00  0.00    -0.003 A 
ATOM      4  C5  UNL d   1      -1.293  -2.773   1.984  0.00  0.00     0.000 A 
ATOM      5  C6  UNL d   1       0.077  -2.578   1.811  0.00  0.00     0.000 A 
ATOM      6  C7  UNL d   1       0.562  -1.537   1.000  0.00  0.00    -0.073 A 
ATOM      7  C8  UNL d   1       2.049  -1.376   0.845  0.00  0.00     0.078 C 
ENDROOT
BRANCH   1   8
ATOM      8  C1  UNL d   1       0.086   0.409  -0.595  0.00  0.00     0.053 C 
ATOM      9  C   UNL d   1      -0.007   1.779   0.058  0.00  0.00     0.018 C 
ENDBRANCH   1   8
TORSDOF 1
ENDMDL
