MODEL 1
REMARK minimizedAffinity -5.85055733
REMARK minimizedRMSD -1
REMARK  1 active torsions:
REMARK  status: ('A' for Active; 'I' for Inactive)
REMARK    1  A    between atoms: C1_2  and  C2_3 
ROOT
ATOM      1  C2  UNL d   1      -1.195  -1.157   0.835  0.00  0.00    -0.076 A 
ATOM      2  C3  UNL d   1      -1.734  -0.166   1.674  0.00  0.00     0.004 A 
ATOM      3  C4  UNL d   1      -1.593   1.186   1.369  0.00  0.00    -0.003 A 
ATOM      4  C5  UNL d   1      -0.912   1.570   0.218  0.00  0.00     0.000 A 
ATOM      5  C6  UNL d   1      -0.387   0.600  -0.635  0.00  0.00     0.000 A 
ATOM      6  C7  UNL d   1      -0.534  -0.769  -0.349  0.00  0.00    -0.073 A 
ATOM      7  C8  UNL d   1       0.058  -1.772  -1.301  0.00  0.00     0.078 C 
ENDROOT
BRANCH   1   8
ATOM      8  C1  UNL d   1      -1.355  -2.608   1.232  0.00  0.00     0.053 C 
ATOM      9  C   UNL d   1      -0.586  -2.954   2.498  0.00  0.00     0.018 C 
ENDBRANCH   1   8
TORSDOF 1
ENDMDL
