MODEL 1
REMARK minimizedAffinity -1.90774715
REMARK minimizedRMSD -1
REMARK  1 active torsions:
REMARK  status: ('A' for Active; 'I' for Inactive)
REMARK    1  A    between atoms: C1_2  and  C2_3 
ROOT
ATOM      1  C2  UNL d   1      -0.399  -0.050   0.068  0.00  0.00    -0.076 A 
ATOM      2  C3  UNL d   1      -1.745  -0.424  -0.084  0.00  0.00     0.004 A 
ATOM      3  C4  UNL d   1      -2.193  -1.676   0.332  0.00  0.00    -0.003 A 
ATOM      4  C5  UNL d   1      -1.302  -2.575   0.908  0.00  0.00     0.000 A 
ATOM      5  C6  UNL d   1       0.034  -2.215   1.082  0.00  0.00     0.000 A 
ATOM      6  C7  UNL d   1       0.498  -0.950   0.683  0.00  0.00    -0.073 A 
ATOM      7  C8  UNL d   1       1.950  -0.616   0.889  0.00  0.00     0.078 C 
ENDROOT
BRANCH   1   8
ATOM      8  C1  UNL d   1       0.035   1.311  -0.427  0.00  0.00     0.053 C 
ATOM      9  C   UNL d   1       0.461   1.292  -1.887  0.00  0.00     0.018 C 
ENDBRANCH   1   8
TORSDOF 1
ENDMDL
