MODEL 1
REMARK minimizedAffinity 3.3817122
REMARK minimizedRMSD -1
REMARK  1 active torsions:
REMARK  status: ('A' for Active; 'I' for Inactive)
REMARK    1  A    between atoms: C1_2  and  C2_3 
ROOT
ATOM      1  C2  UNL d   1      -0.798  -1.678   1.810  0.00  0.00    -0.076 A 
ATOM      2  C3  UNL d   1      -1.899  -0.807   1.892  0.00  0.00     0.004 A 
ATOM      3  C4  UNL d   1      -1.948   0.361   1.133  0.00  0.00    -0.003 A 
ATOM      4  C5  UNL d   1      -0.897   0.677   0.279  0.00  0.00     0.000 A 
ATOM      5  C6  UNL d   1       0.195  -0.184   0.172  0.00  0.00     0.000 A 
ATOM      6  C7  UNL d   1       0.253  -1.373   0.918  0.00  0.00    -0.073 A 
ATOM      7  C8  UNL d   1       1.457  -2.262   0.769  0.00  0.00     0.078 C 
ENDROOT
BRANCH   1   8
ATOM      8  C1  UNL d   1      -0.788  -2.916   2.678  0.00  0.00     0.053 C 
ATOM      9  C   UNL d   1      -0.237  -2.648   4.070  0.00  0.00     0.018 C 
ENDBRANCH   1   8
TORSDOF 1
ENDMDL
