MODEL 1
REMARK minimizedAffinity -3.47541499
REMARK minimizedRMSD -1
REMARK  1 active torsions:
REMARK  status: ('A' for Active; 'I' for Inactive)
REMARK    1  A    between atoms: C1_2  and  C2_3 
ROOT
ATOM      1  C2  UNL d   1      -1.111  -0.622   0.469  0.00  0.00    -0.076 A 
ATOM      2  C3  UNL d   1      -0.525   0.118  -0.572  0.00  0.00     0.004 A 
ATOM      3  C4  UNL d   1       0.786  -0.129  -0.978  0.00  0.00    -0.003 A 
ATOM      4  C5  UNL d   1       1.531  -1.121  -0.350  0.00  0.00     0.000 A 
ATOM      5  C6  UNL d   1       0.959  -1.877   0.673  0.00  0.00     0.000 A 
ATOM      6  C7  UNL d   1      -0.367  -1.652   1.083  0.00  0.00    -0.073 A 
ATOM      7  C8  UNL d   1      -0.931  -2.493   2.195  0.00  0.00     0.078 C 
ENDROOT
BRANCH   1   8
ATOM      8  C1  UNL d   1      -2.527  -0.292   0.884  0.00  0.00     0.053 C 
ATOM      9  C   UNL d   1      -2.678   1.150   1.344  0.00  0.00     0.018 C 
ENDBRANCH   1   8
TORSDOF 1
ENDMDL
