MODEL 1
REMARK minimizedAffinity -3.98369384
REMARK minimizedRMSD -1
REMARK  1 active torsions:
REMARK  status: ('A' for Active; 'I' for Inactive)
REMARK    1  A    between atoms: C1_2  and  C2_3 
ROOT
ATOM      1  C2  UNL d   1       0.355   0.310   0.039  0.00  0.00    -0.076 A 
ATOM      2  C3  UNL d   1      -1.046   0.386   0.127  0.00  0.00     0.004 A 
ATOM      3  C4  UNL d   1      -1.799  -0.706   0.556  0.00  0.00    -0.003 A 
ATOM      4  C5  UNL d   1      -1.162  -1.892   0.904  0.00  0.00     0.000 A 
ATOM      5  C6  UNL d   1       0.228  -1.980   0.840  0.00  0.00     0.000 A 
ATOM      6  C7  UNL d   1       1.003  -0.883   0.425  0.00  0.00    -0.073 A 
ATOM      7  C8  UNL d   1       2.498  -1.035   0.369  0.00  0.00     0.078 C 
ENDROOT
BRANCH   1   8
ATOM      8  C1  UNL d   1       1.116   1.518  -0.459  0.00  0.00     0.053 C 
ATOM      9  C   UNL d   1       0.692   1.937  -1.858  0.00  0.00     0.018 C 
ENDBRANCH   1   8
TORSDOF 1
ENDMDL
