MODEL 1
REMARK minimizedAffinity -2.0918448
REMARK minimizedRMSD -1
REMARK  1 active torsions:
REMARK  status: ('A' for Active; 'I' for Inactive)
REMARK    1  A    between atoms: C1_2  and  C2_3 
ROOT
ATOM      1  C2  UNL d   1       0.514  -0.769   0.765  0.00  0.00    -0.076 A 
ATOM      2  C3  UNL d   1       0.506  -1.735   1.787  0.00  0.00     0.004 A 
ATOM      3  C4  UNL d   1      -0.619  -2.525   2.019  0.00  0.00    -0.003 A 
ATOM      4  C5  UNL d   1      -1.753  -2.363   1.232  0.00  0.00     0.000 A 
ATOM      5  C6  UNL d   1      -1.757  -1.423   0.202  0.00  0.00     0.000 A 
ATOM      6  C7  UNL d   1      -0.626  -0.629  -0.055  0.00  0.00    -0.073 A 
ATOM      7  C8  UNL d   1      -0.687   0.374  -1.174  0.00  0.00     0.078 C 
ENDROOT
BRANCH   1   8
ATOM      8  C1  UNL d   1       1.753   0.077   0.579  0.00  0.00     0.053 C 
ATOM      9  C   UNL d   1       3.032  -0.685   0.888  0.00  0.00     0.018 C 
ENDBRANCH   1   8
TORSDOF 1
ENDMDL
