MODEL 1
REMARK minimizedAffinity -4.61949635
REMARK minimizedRMSD -1
REMARK  1 active torsions:
REMARK  status: ('A' for Active; 'I' for Inactive)
REMARK    1  A    between atoms: C1_2  and  C2_3 
ROOT
ATOM      1  C2  UNL d   1      -0.904  -1.021   0.382  0.00  0.00    -0.076 A 
ATOM      2  C3  UNL d   1       0.269  -1.319  -0.333  0.00  0.00     0.004 A 
ATOM      3  C4  UNL d   1       1.150  -0.310  -0.719  0.00  0.00    -0.003 A 
ATOM      4  C5  UNL d   1       0.872   1.014  -0.396  0.00  0.00     0.000 A 
ATOM      5  C6  UNL d   1      -0.278   1.326   0.329  0.00  0.00     0.000 A 
ATOM      6  C7  UNL d   1      -1.168   0.319   0.740  0.00  0.00    -0.073 A 
ATOM      7  C8  UNL d   1      -2.396   0.713   1.514  0.00  0.00     0.078 C 
ENDROOT
BRANCH   1   8
ATOM      8  C1  UNL d   1      -1.835  -2.153   0.751  0.00  0.00     0.053 C 
ATOM      9  C   UNL d   1      -1.267  -3.042   1.846  0.00  0.00     0.018 C 
ENDBRANCH   1   8
TORSDOF 1
ENDMDL
