MODEL 1
REMARK minimizedAffinity -1.95609689
REMARK minimizedRMSD -1
REMARK  1 active torsions:
REMARK  status: ('A' for Active; 'I' for Inactive)
REMARK    1  A    between atoms: N_2  and  C1_3 
ROOT
ATOM      1  C1  UNL d   1       0.428   1.673   0.033  0.00  0.00     0.143 A 
ATOM      2  C2  UNL d   1       1.771   1.308  -0.115  0.00  0.00    -0.057 A 
ATOM      3  C3  UNL d   1       2.177  -0.027   0.000  0.00  0.00     0.033 A 
ATOM      4  C4  UNL d   1       1.248  -1.020   0.296  0.00  0.00    -0.042 A 
ATOM      5  C5  UNL d   1      -0.087  -0.676   0.472  0.00  0.00     0.033 A 
ATOM      6  C6  UNL d   1      -0.488   0.658   0.349  0.00  0.00    -0.057 A 
ENDROOT
BRANCH   1   7
ATOM      7  N   UNL d   1      -0.023   2.995   0.028  0.00  0.00    -0.732 N 
ATOM      8  C   UNL d   1       0.838   4.070   0.472  0.00  0.00     0.284 C 
ATOM      9  H3  UNL d   1      -0.569   3.216  -0.802  0.00  0.00     0.395 HD
ENDBRANCH   1   7
TORSDOF 1
ENDMDL
