MODEL 1
REMARK minimizedAffinity 1.27982581
REMARK minimizedRMSD -1
REMARK  1 active torsions:
REMARK  status: ('A' for Active; 'I' for Inactive)
REMARK    1  A    between atoms: N_2  and  C1_3 
ROOT
ATOM      1  C1  UNL d   1      -0.615   0.354   0.337  0.00  0.00     0.143 A 
ATOM      2  C2  UNL d   1      -0.226  -0.990   0.349  0.00  0.00    -0.057 A 
ATOM      3  C3  UNL d   1      -0.795  -1.903   1.245  0.00  0.00     0.033 A 
ATOM      4  C4  UNL d   1      -1.746  -1.480   2.168  0.00  0.00    -0.042 A 
ATOM      5  C5  UNL d   1      -2.130  -0.144   2.191  0.00  0.00     0.033 A 
ATOM      6  C6  UNL d   1      -1.563   0.761   1.289  0.00  0.00    -0.057 A 
ENDROOT
BRANCH   1   7
ATOM      7  N   UNL d   1      -0.016   1.330  -0.463  0.00  0.00    -0.732 N 
ATOM      8  C   UNL d   1       1.176   2.019  -0.016  0.00  0.00     0.284 C 
ATOM      9  H3  UNL d   1      -0.002   1.072  -1.447  0.00  0.00     0.395 HD
ENDBRANCH   1   7
TORSDOF 1
ENDMDL
