MODEL 1
REMARK minimizedAffinity -4.22386217
REMARK minimizedRMSD -1
REMARK  1 active torsions:
REMARK  status: ('A' for Active; 'I' for Inactive)
REMARK    1  A    between atoms: N_2  and  C1_3 
ROOT
ATOM      1  C1  UNL d   1      -0.615   2.069  -1.262  0.00  0.00     0.143 A 
ATOM      2  C2  UNL d   1      -1.788   1.313  -1.357  0.00  0.00    -0.057 A 
ATOM      3  C3  UNL d   1      -2.647   1.440  -2.455  0.00  0.00     0.033 A 
ATOM      4  C4  UNL d   1      -2.361   2.350  -3.467  0.00  0.00    -0.042 A 
ATOM      5  C5  UNL d   1      -1.214   3.130  -3.382  0.00  0.00     0.033 A 
ATOM      6  C6  UNL d   1      -0.356   2.994  -2.286  0.00  0.00    -0.057 A 
ENDROOT
BRANCH   1   7
ATOM      7  N   UNL d   1       0.229   2.059  -0.149  0.00  0.00    -0.732 N 
ATOM      8  C   UNL d   1       0.825   3.286   0.336  0.00  0.00     0.284 C 
ATOM      9  H3  UNL d   1      -0.105   1.441   0.587  0.00  0.00     0.395 HD
ENDBRANCH   1   7
TORSDOF 1
ENDMDL
