MODEL 1
REMARK minimizedAffinity -2.20051813
REMARK minimizedRMSD -1
REMARK  1 active torsions:
REMARK  status: ('A' for Active; 'I' for Inactive)
REMARK    1  A    between atoms: N_2  and  C1_3 
ROOT
ATOM      1  C1  UNL d   1      -0.392   2.861  -2.456  0.00  0.00     0.143 A 
ATOM      2  C2  UNL d   1      -0.513   1.750  -1.614  0.00  0.00    -0.057 A 
ATOM      3  C3  UNL d   1      -0.138   1.817  -0.267  0.00  0.00     0.033 A 
ATOM      4  C4  UNL d   1       0.394   2.991   0.256  0.00  0.00    -0.042 A 
ATOM      5  C5  UNL d   1       0.546   4.100  -0.569  0.00  0.00     0.033 A 
ATOM      6  C6  UNL d   1       0.164   4.029  -1.912  0.00  0.00    -0.057 A 
ENDROOT
BRANCH   1   7
ATOM      7  N   UNL d   1      -0.655   2.828  -3.828  0.00  0.00    -0.732 N 
ATOM      8  C   UNL d   1      -0.101   3.834  -4.709  0.00  0.00     0.284 C 
ATOM      9  H3  UNL d   1      -0.629   1.884  -4.207  0.00  0.00     0.395 HD
ENDBRANCH   1   7
TORSDOF 1
ENDMDL
