MODEL 1
REMARK minimizedAffinity -3.30444837
REMARK minimizedRMSD -1
REMARK  1 active torsions:
REMARK  status: ('A' for Active; 'I' for Inactive)
REMARK    1  A    between atoms: N_2  and  C1_3 
ROOT
ATOM      1  C1  UNL d   1       1.507   1.125  -0.059  0.00  0.00     0.143 A 
ATOM      2  C2  UNL d   1       2.770   0.530  -0.145  0.00  0.00    -0.057 A 
ATOM      3  C3  UNL d   1       2.937  -0.850   0.026  0.00  0.00     0.033 A 
ATOM      4  C4  UNL d   1       1.842  -1.658   0.314  0.00  0.00    -0.042 A 
ATOM      5  C5  UNL d   1       0.580  -1.085   0.428  0.00  0.00     0.033 A 
ATOM      6  C6  UNL d   1       0.420   0.292   0.250  0.00  0.00    -0.057 A 
ENDROOT
BRANCH   1   7
ATOM      7  N   UNL d   1       1.290   2.503  -0.121  0.00  0.00    -0.732 N 
ATOM      8  C   UNL d   1       2.308   3.430   0.324  0.00  0.00     0.284 C 
ATOM      9  H3  UNL d   1       0.818   2.784  -0.978  0.00  0.00     0.395 HD
ENDBRANCH   1   7
TORSDOF 1
ENDMDL
