MODEL 1
REMARK minimizedAffinity -1.69280481
REMARK minimizedRMSD -1
REMARK  1 active torsions:
REMARK  status: ('A' for Active; 'I' for Inactive)
REMARK    1  A    between atoms: N_2  and  C1_3 
ROOT
ATOM      1  C1  UNL d   1       0.778   2.291  -0.308  0.00  0.00     0.143 A 
ATOM      2  C2  UNL d   1       0.157   3.386   0.300  0.00  0.00    -0.057 A 
ATOM      3  C3  UNL d   1       0.906   4.450   0.818  0.00  0.00     0.033 A 
ATOM      4  C4  UNL d   1       2.295   4.423   0.761  0.00  0.00    -0.042 A 
ATOM      5  C5  UNL d   1       2.935   3.332   0.183  0.00  0.00     0.033 A 
ATOM      6  C6  UNL d   1       2.181   2.276  -0.338  0.00  0.00    -0.057 A 
ENDROOT
BRANCH   1   7
ATOM      7  N   UNL d   1       0.093   1.157  -0.753  0.00  0.00    -0.732 N 
ATOM      8  C   UNL d   1      -0.646   0.330   0.176  0.00  0.00     0.284 C 
ATOM      9  H3  UNL d   1      -0.381   1.313  -1.640  0.00  0.00     0.395 HD
ENDBRANCH   1   7
TORSDOF 1
ENDMDL
