MODEL 1
REMARK minimizedAffinity -5.05787468
REMARK minimizedRMSD -1
REMARK  1 active torsions:
REMARK  status: ('A' for Active; 'I' for Inactive)
REMARK    1  A    between atoms: N_2  and  C1_3 
ROOT
ATOM      1  C1  UNL d   1       0.475   0.092   0.329  0.00  0.00     0.143 A 
ATOM      2  C2  UNL d   1       1.864   0.052   0.489  0.00  0.00    -0.057 A 
ATOM      3  C3  UNL d   1       2.558  -1.164   0.504  0.00  0.00     0.033 A 
ATOM      4  C4  UNL d   1       1.869  -2.367   0.387  0.00  0.00    -0.042 A 
ATOM      5  C5  UNL d   1       0.485  -2.352   0.251  0.00  0.00     0.033 A 
ATOM      6  C6  UNL d   1      -0.201  -1.134   0.231  0.00  0.00    -0.057 A 
ENDROOT
BRANCH   1   7
ATOM      7  N   UNL d   1      -0.283   1.263   0.405  0.00  0.00    -0.732 N 
ATOM      8  C   UNL d   1       0.362   2.559   0.427  0.00  0.00     0.284 C 
ATOM      9  H3  UNL d   1      -1.118   1.224  -0.175  0.00  0.00     0.395 HD
ENDBRANCH   1   7
TORSDOF 1
ENDMDL
