MODEL 1
REMARK minimizedAffinity -4.33600521
REMARK minimizedRMSD -1
REMARK  1 active torsions:
REMARK  status: ('A' for Active; 'I' for Inactive)
REMARK    1  A    between atoms: N_2  and  C1_3 
ROOT
ATOM      1  C1  UNL d   1      -0.059  -0.192   0.056  0.00  0.00     0.143 A 
ATOM      2  C2  UNL d   1      -0.487  -1.157   0.974  0.00  0.00    -0.057 A 
ATOM      3  C3  UNL d   1       0.370  -2.177   1.407  0.00  0.00     0.033 A 
ATOM      4  C4  UNL d   1       1.665  -2.265   0.906  0.00  0.00    -0.042 A 
ATOM      5  C5  UNL d   1       2.103  -1.331  -0.026  0.00  0.00     0.033 A 
ATOM      6  C6  UNL d   1       1.245  -0.311  -0.449  0.00  0.00    -0.057 A 
ENDROOT
BRANCH   1   7
ATOM      7  N   UNL d   1      -0.894   0.788  -0.488  0.00  0.00    -0.732 N 
ATOM      8  C   UNL d   1      -1.689   0.509  -1.664  0.00  0.00     0.284 C 
ATOM      9  H3  UNL d   1      -1.383   1.322   0.227  0.00  0.00     0.395 HD
ENDBRANCH   1   7
TORSDOF 1
ENDMDL
