MODEL 1
REMARK minimizedAffinity -2.30790043
REMARK minimizedRMSD -1
REMARK  1 active torsions:
REMARK  status: ('A' for Active; 'I' for Inactive)
REMARK    1  A    between atoms: N_2  and  C1_3 
ROOT
ATOM      1  C1  UNL d   1      -1.268   0.429  -1.251  0.00  0.00     0.143 A 
ATOM      2  C2  UNL d   1      -2.508   0.963  -0.882  0.00  0.00    -0.057 A 
ATOM      3  C3  UNL d   1      -3.340   1.583  -1.823  0.00  0.00     0.033 A 
ATOM      4  C4  UNL d   1      -2.932   1.706  -3.147  0.00  0.00    -0.042 A 
ATOM      5  C5  UNL d   1      -1.693   1.206  -3.530  0.00  0.00     0.033 A 
ATOM      6  C6  UNL d   1      -0.869   0.582  -2.588  0.00  0.00    -0.057 A 
ENDROOT
BRANCH   1   7
ATOM      7  N   UNL d   1      -0.353  -0.111  -0.343  0.00  0.00    -0.732 N 
ATOM      8  C   UNL d   1      -0.799  -0.981   0.723  0.00  0.00     0.284 C 
ATOM      9  H3  UNL d   1       0.508  -0.413  -0.794  0.00  0.00     0.395 HD
ENDBRANCH   1   7
TORSDOF 1
ENDMDL
