MODEL 1
REMARK minimizedAffinity -1.67184567
REMARK minimizedRMSD -1
REMARK  1 active torsions:
REMARK  status: ('A' for Active; 'I' for Inactive)
REMARK    1  A    between atoms: N_2  and  C1_3 
ROOT
ATOM      1  C1  UNL d   1       1.076  -1.434   1.181  0.00  0.00     0.143 A 
ATOM      2  C2  UNL d   1      -0.104  -1.346   1.928  0.00  0.00    -0.057 A 
ATOM      3  C3  UNL d   1      -1.170  -0.541   1.508  0.00  0.00     0.033 A 
ATOM      4  C4  UNL d   1      -1.063   0.215   0.345  0.00  0.00    -0.042 A 
ATOM      5  C5  UNL d   1       0.110   0.162  -0.399  0.00  0.00     0.033 A 
ATOM      6  C6  UNL d   1       1.169  -0.649   0.022  0.00  0.00    -0.057 A 
ENDROOT
BRANCH   1   7
ATOM      7  N   UNL d   1       2.208  -2.140   1.597  0.00  0.00    -0.732 N 
ATOM      8  C   UNL d   1       3.307  -1.455   2.244  0.00  0.00     0.284 C 
ATOM      9  H3  UNL d   1       1.974  -3.038   2.013  0.00  0.00     0.395 HD
ENDBRANCH   1   7
TORSDOF 1
ENDMDL
