MODEL 1
REMARK minimizedAffinity -4.45183039
REMARK minimizedRMSD -1
REMARK  1 active torsions:
REMARK  status: ('A' for Active; 'I' for Inactive)
REMARK    1  A    between atoms: N_2  and  C1_3 
ROOT
ATOM      1  C1  UNL d   1      -1.082   2.919  -0.943  0.00  0.00     0.143 A 
ATOM      2  C2  UNL d   1      -1.994   1.868  -0.796  0.00  0.00    -0.057 A 
ATOM      3  C3  UNL d   1      -2.629   1.298  -1.906  0.00  0.00     0.033 A 
ATOM      4  C4  UNL d   1      -2.385   1.790  -3.184  0.00  0.00    -0.042 A 
ATOM      5  C5  UNL d   1      -1.501   2.851  -3.351  0.00  0.00     0.033 A 
ATOM      6  C6  UNL d   1      -0.865   3.411  -2.240  0.00  0.00    -0.057 A 
ENDROOT
BRANCH   1   7
ATOM      7  N   UNL d   1      -0.493   3.593   0.129  0.00  0.00    -0.732 N 
ATOM      8  C   UNL d   1       0.946   3.710   0.226  0.00  0.00     0.284 C 
ATOM      9  H3  UNL d   1      -0.996   4.442   0.379  0.00  0.00     0.395 HD
ENDBRANCH   1   7
TORSDOF 1
ENDMDL
