MODEL 1
REMARK minimizedAffinity 5.26779699
REMARK minimizedRMSD -1
REMARK  0 active torsions:
REMARK  status: ('A' for Active; 'I' for Inactive)
ROOT
ATOM      1  O1  BZF d   1      -2.721   0.433  -0.031  0.00  0.00    -0.204 OA
ATOM      2  C2  BZF d   1      -1.519   0.735   0.580  0.00  0.00     0.174 A 
ATOM      3  C3  BZF d   1      -0.835  -0.390   0.872  0.00  0.00    -0.012 A 
ATOM      4  C3A BZF d   1      -1.618  -1.458   0.332  0.00  0.00    -0.107 A 
ATOM      5  C4  BZF d   1      -1.456  -2.813   0.289  0.00  0.00     0.055 A 
ATOM      6  C5  BZF d   1      -2.441  -3.580  -0.248  0.00  0.00    -0.016 A 
ATOM      7  C6  BZF d   1      -3.602  -3.026  -0.746  0.00  0.00     0.022 A 
ATOM      8  C7  BZF d   1      -3.806  -1.687  -0.730  0.00  0.00     0.029 A 
ATOM      9  C7A BZF d   1      -2.799  -0.907  -0.218  0.00  0.00     0.058 A 
ENDROOT
TORSDOF 0
ENDMDL
