MODEL 1
REMARK minimizedAffinity 3.27806878
REMARK minimizedRMSD -1
REMARK  0 active torsions:
REMARK  status: ('A' for Active; 'I' for Inactive)
ROOT
ATOM      1  O1  BZF d   1      -4.995   0.934  -3.824  0.00  0.00    -0.204 OA
ATOM      2  C2  BZF d   1      -4.755   0.535  -5.125  0.00  0.00     0.174 A 
ATOM      3  C3  BZF d   1      -4.989   1.546  -5.986  0.00  0.00    -0.012 A 
ATOM      4  C3A BZF d   1      -5.313   2.673  -5.165  0.00  0.00    -0.107 A 
ATOM      5  C4  BZF d   1      -5.628   3.973  -5.437  0.00  0.00     0.055 A 
ATOM      6  C5  BZF d   1      -5.963   4.800  -4.412  0.00  0.00    -0.016 A 
ATOM      7  C6  BZF d   1      -5.997   4.359  -3.105  0.00  0.00     0.022 A 
ATOM      8  C7  BZF d   1      -5.687   3.079  -2.785  0.00  0.00     0.029 A 
ATOM      9  C7A BZF d   1      -5.317   2.250  -3.815  0.00  0.00     0.058 A 
ENDROOT
TORSDOF 0
ENDMDL
