MODEL 1
REMARK minimizedAffinity 4.70600176
REMARK minimizedRMSD -1
REMARK  0 active torsions:
REMARK  status: ('A' for Active; 'I' for Inactive)
ROOT
ATOM      1  O1  BZF d   1       1.036  -0.667   4.892  0.00  0.00    -0.204 OA
ATOM      2  C2  BZF d   1       1.330  -1.439   5.999  0.00  0.00     0.174 A 
ATOM      3  C3  BZF d   1       1.923  -2.594   5.633  0.00  0.00    -0.012 A 
ATOM      4  C3A BZF d   1       2.089  -2.500   4.215  0.00  0.00    -0.107 A 
ATOM      5  C4  BZF d   1       2.632  -3.329   3.276  0.00  0.00     0.055 A 
ATOM      6  C5  BZF d   1       2.571  -2.973   1.966  0.00  0.00    -0.016 A 
ATOM      7  C6  BZF d   1       1.972  -1.799   1.560  0.00  0.00     0.022 A 
ATOM      8  C7  BZF d   1       1.424  -0.941   2.455  0.00  0.00     0.029 A 
ATOM      9  C7A BZF d   1       1.513  -1.283   3.783  0.00  0.00     0.058 A 
ENDROOT
TORSDOF 0
ENDMDL
