MODEL 1
REMARK minimizedAffinity 4.35852623
REMARK minimizedRMSD -1
REMARK  0 active torsions:
REMARK  status: ('A' for Active; 'I' for Inactive)
ROOT
ATOM      1  O1  BZF d   1       1.948  -3.811   4.106  0.00  0.00    -0.204 OA
ATOM      2  C2  BZF d   1       2.396  -4.578   3.048  0.00  0.00     0.174 A 
ATOM      3  C3  BZF d   1       2.268  -3.908   1.884  0.00  0.00    -0.012 A 
ATOM      4  C3A BZF d   1       1.791  -2.609   2.248  0.00  0.00    -0.107 A 
ATOM      5  C4  BZF d   1       1.484  -1.487   1.532  0.00  0.00     0.055 A 
ATOM      6  C5  BZF d   1       0.973  -0.409   2.182  0.00  0.00    -0.016 A 
ATOM      7  C6  BZF d   1       0.752  -0.419   3.543  0.00  0.00     0.022 A 
ATOM      8  C7  BZF d   1       1.045  -1.507   4.296  0.00  0.00     0.029 A 
ATOM      9  C7A BZF d   1       1.592  -2.587   3.648  0.00  0.00     0.058 A 
ENDROOT
TORSDOF 0
ENDMDL
