MODEL 1
REMARK minimizedAffinity 12.2052889
REMARK minimizedRMSD -1
REMARK  0 active torsions:
REMARK  status: ('A' for Active; 'I' for Inactive)
ROOT
ATOM      1  O1  BZF d   1      -2.326  -1.992   0.563  0.00  0.00    -0.204 OA
ATOM      2  C2  BZF d   1      -3.219  -1.545  -0.392  0.00  0.00     0.174 A 
ATOM      3  C3  BZF d   1      -2.994  -0.248  -0.688  0.00  0.00    -0.012 A 
ATOM      4  C3A BZF d   1      -1.833   0.114   0.066  0.00  0.00    -0.107 A 
ATOM      5  C4  BZF d   1      -1.111   1.267   0.182  0.00  0.00     0.055 A 
ATOM      6  C5  BZF d   1      -0.075   1.312   1.060  0.00  0.00    -0.016 A 
ATOM      7  C6  BZF d   1       0.263   0.226   1.840  0.00  0.00     0.022 A 
ATOM      8  C7  BZF d   1      -0.421  -0.941   1.757  0.00  0.00     0.029 A 
ATOM      9  C7A BZF d   1      -1.448  -1.000   0.847  0.00  0.00     0.058 A 
ENDROOT
TORSDOF 0
ENDMDL
