MODEL 1
REMARK minimizedAffinity 4.22392225
REMARK minimizedRMSD -1
REMARK  0 active torsions:
REMARK  status: ('A' for Active; 'I' for Inactive)
ROOT
ATOM      1  O1  BZF d   1       2.584  -3.372   4.718  0.00  0.00    -0.204 OA
ATOM      2  C2  BZF d   1       2.230  -2.997   6.000  0.00  0.00     0.174 A 
ATOM      3  C3  BZF d   1       1.662  -1.774   6.000  0.00  0.00    -0.012 A 
ATOM      4  C3A BZF d   1       1.576  -1.398   4.622  0.00  0.00    -0.107 A 
ATOM      5  C4  BZF d   1       1.089  -0.297   3.977  0.00  0.00     0.055 A 
ATOM      6  C5  BZF d   1       1.223  -0.209   2.628  0.00  0.00    -0.016 A 
ATOM      7  C6  BZF d   1       1.842  -1.199   1.893  0.00  0.00     0.022 A 
ATOM      8  C7  BZF d   1       2.336  -2.312   2.488  0.00  0.00     0.029 A 
ATOM      9  C7A BZF d   1       2.173  -2.420   3.847  0.00  0.00     0.058 A 
ENDROOT
TORSDOF 0
ENDMDL
