MODEL 1
REMARK minimizedAffinity 18.4747505
REMARK minimizedRMSD -1
REMARK  0 active torsions:
REMARK  status: ('A' for Active; 'I' for Inactive)
ROOT
ATOM      1  O1  BZF d   1       0.705  -0.725   5.348  0.00  0.00    -0.204 OA
ATOM      2  C2  BZF d   1       1.105  -1.876   6.000  0.00  0.00     0.174 A 
ATOM      3  C3  BZF d   1       1.633  -2.759   5.129  0.00  0.00    -0.012 A 
ATOM      4  C3A BZF d   1       1.644  -2.084   3.867  0.00  0.00    -0.107 A 
ATOM      5  C4  BZF d   1       2.065  -2.437   2.617  0.00  0.00     0.055 A 
ATOM      6  C5  BZF d   1       1.866  -1.575   1.586  0.00  0.00    -0.016 A 
ATOM      7  C6  BZF d   1       1.247  -0.356   1.767  0.00  0.00     0.022 A 
ATOM      8  C7  BZF d   1       0.816   0.040   2.989  0.00  0.00     0.029 A 
ATOM      9  C7A BZF d   1       1.045  -0.815   4.040  0.00  0.00     0.058 A 
ENDROOT
TORSDOF 0
ENDMDL
