MODEL 1
REMARK minimizedAffinity 10.9593964
REMARK minimizedRMSD -1
REMARK  0 active torsions:
REMARK  status: ('A' for Active; 'I' for Inactive)
ROOT
ATOM      1  O1  BZF d   1       2.710  -3.355   4.828  0.00  0.00    -0.204 OA
ATOM      2  C2  BZF d   1       3.061  -4.058   3.691  0.00  0.00     0.174 A 
ATOM      3  C3  BZF d   1       2.770  -3.348   2.581  0.00  0.00    -0.012 A 
ATOM      4  C3A BZF d   1       2.287  -2.088   3.056  0.00  0.00    -0.107 A 
ATOM      5  C4  BZF d   1       1.853  -0.953   2.433  0.00  0.00     0.055 A 
ATOM      6  C5  BZF d   1       1.380   0.074   3.186  0.00  0.00    -0.016 A 
ATOM      7  C6  BZF d   1       1.320  -0.001   4.562  0.00  0.00     0.022 A 
ATOM      8  C7  BZF d   1       1.744  -1.104   5.226  0.00  0.00     0.029 A 
ATOM      9  C7A BZF d   1       2.254  -2.131   4.469  0.00  0.00     0.058 A 
ENDROOT
TORSDOF 0
ENDMDL
