MODEL 1
REMARK minimizedAffinity 18.9876328
REMARK minimizedRMSD -1
REMARK  0 active torsions:
REMARK  status: ('A' for Active; 'I' for Inactive)
ROOT
ATOM      1  O1  BZF d   1       1.208   1.219   1.546  0.00  0.00    -0.204 OA
ATOM      2  C2  BZF d   1       1.378   0.003   2.179  0.00  0.00     0.174 A 
ATOM      3  C3  BZF d   1       0.283  -0.770   2.034  0.00  0.00    -0.012 A 
ATOM      4  C3A BZF d   1      -0.594  -0.025   1.183  0.00  0.00    -0.107 A 
ATOM      5  C4  BZF d   1      -1.832  -0.272   0.663  0.00  0.00     0.055 A 
ATOM      6  C5  BZF d   1      -2.444   0.694  -0.071  0.00  0.00    -0.016 A 
ATOM      7  C6  BZF d   1      -1.851   1.918  -0.301  0.00  0.00     0.022 A 
ATOM      8  C7  BZF d   1      -0.621   2.207   0.190  0.00  0.00     0.029 A 
ATOM      9  C7A BZF d   1       0.014   1.221   0.905  0.00  0.00     0.058 A 
ENDROOT
TORSDOF 0
ENDMDL
