MODEL 1
REMARK minimizedAffinity 16.2726383
REMARK minimizedRMSD -1
REMARK  0 active torsions:
REMARK  status: ('A' for Active; 'I' for Inactive)
ROOT
ATOM      1  O1  BZF d   1      -0.336  -0.816   2.053  0.00  0.00    -0.204 OA
ATOM      2  C2  BZF d   1       0.913  -0.563   2.587  0.00  0.00     0.174 A 
ATOM      3  C3  BZF d   1       1.346   0.663   2.230  0.00  0.00    -0.012 A 
ATOM      4  C3A BZF d   1       0.264   1.246   1.498  0.00  0.00    -0.107 A 
ATOM      5  C4  BZF d   1       0.083   2.459   0.897  0.00  0.00     0.055 A 
ATOM      6  C5  BZF d   1      -1.062   2.687   0.202  0.00  0.00    -0.016 A 
ATOM      7  C6  BZF d   1      -2.044   1.725   0.084  0.00  0.00     0.022 A 
ATOM      8  C7  BZF d   1      -1.912   0.509   0.667  0.00  0.00     0.029 A 
ATOM      9  C7A BZF d   1      -0.770   0.287   1.398  0.00  0.00     0.058 A 
ENDROOT
TORSDOF 0
ENDMDL
