MODEL 1
REMARK minimizedAffinity -4.05740976
REMARK minimizedRMSD -1
REMARK  1 active torsions:
REMARK  status: ('A' for Active; 'I' for Inactive)
REMARK    1  A    between atoms: C1_2  and  C2_3 
ROOT
ATOM      1  C2  UNL d   1       1.554  -1.138   0.303  0.00  0.00    -0.076 A 
ATOM      2  C3  UNL d   1       1.949  -1.891  -0.816  0.00  0.00     0.004 A 
ATOM      3  C4  UNL d   1       2.625  -1.294  -1.880  0.00  0.00    -0.003 A 
ATOM      4  C5  UNL d   1       2.917   0.065  -1.840  0.00  0.00     0.000 A 
ATOM      5  C6  UNL d   1       2.547   0.823  -0.730  0.00  0.00     0.000 A 
ATOM      6  C7  UNL d   1       1.880   0.234   0.358  0.00  0.00    -0.073 A 
ATOM      7  C8  UNL d   1       1.500   1.100   1.527  0.00  0.00     0.078 C 
ENDROOT
BRANCH   1   8
ATOM      8  C1  UNL d   1       0.800  -1.834   1.414  0.00  0.00     0.053 C 
ATOM      9  C   UNL d   1      -0.561  -1.208   1.675  0.00  0.00     0.018 C 
ENDBRANCH   1   8
TORSDOF 1
ENDMDL
