MODEL 1
REMARK minimizedAffinity -1.62496769
REMARK minimizedRMSD -1
REMARK  1 active torsions:
REMARK  status: ('A' for Active; 'I' for Inactive)
REMARK    1  A    between atoms: C1_2  and  C2_3 
ROOT
ATOM      1  C2  UNL d   1       2.549  -0.908  -0.774  0.00  0.00    -0.076 A 
ATOM      2  C3  UNL d   1       1.606  -1.630  -0.022  0.00  0.00     0.004 A 
ATOM      3  C4  UNL d   1       0.667  -0.974   0.771  0.00  0.00    -0.003 A 
ATOM      4  C5  UNL d   1       0.654   0.415   0.825  0.00  0.00     0.000 A 
ATOM      5  C6  UNL d   1       1.571   1.148   0.073  0.00  0.00     0.000 A 
ATOM      6  C7  UNL d   1       2.514   0.503  -0.745  0.00  0.00    -0.073 A 
ATOM      7  C8  UNL d   1       3.483   1.343  -1.531  0.00  0.00     0.078 C 
ENDROOT
BRANCH   1   8
ATOM      8  C1  UNL d   1       3.562  -1.674  -1.594  0.00  0.00     0.053 C 
ATOM      9  C   UNL d   1       4.801  -0.850  -1.909  0.00  0.00     0.018 C 
ENDBRANCH   1   8
TORSDOF 1
ENDMDL
