MODEL 1
REMARK minimizedAffinity -0.221615046
REMARK minimizedRMSD -1
REMARK  1 active torsions:
REMARK  status: ('A' for Active; 'I' for Inactive)
REMARK    1  A    between atoms: C1_2  and  C2_3 
ROOT
ATOM      1  C2  UNL d   1       3.082  -0.632  -1.090  0.00  0.00    -0.076 A 
ATOM      2  C3  UNL d   1       2.979   0.729  -0.751  0.00  0.00     0.004 A 
ATOM      3  C4  UNL d   1       1.914   1.199   0.016  0.00  0.00    -0.003 A 
ATOM      4  C5  UNL d   1       0.935   0.315   0.457  0.00  0.00     0.000 A 
ATOM      5  C6  UNL d   1       1.031  -1.040   0.146  0.00  0.00     0.000 A 
ATOM      6  C7  UNL d   1       2.106  -1.533  -0.613  0.00  0.00    -0.073 A 
ATOM      7  C8  UNL d   1       2.156  -3.004  -0.924  0.00  0.00     0.078 C 
ENDROOT
BRANCH   1   8
ATOM      8  C1  UNL d   1       4.244  -1.079  -1.947  0.00  0.00     0.053 C 
ATOM      9  C   UNL d   1       5.160   0.072  -2.333  0.00  0.00     0.018 C 
ENDBRANCH   1   8
TORSDOF 1
ENDMDL
