MODEL 1
REMARK minimizedAffinity 1.70777464
REMARK minimizedRMSD -1
REMARK  1 active torsions:
REMARK  status: ('A' for Active; 'I' for Inactive)
REMARK    1  A    between atoms: C1_2  and  C2_3 
ROOT
ATOM      1  C2  UNL d   1       2.537  -0.661  -1.059  0.00  0.00    -0.076 A 
ATOM      2  C3  UNL d   1       1.760  -1.391  -0.143  0.00  0.00     0.004 A 
ATOM      3  C4  UNL d   1       0.944  -0.743   0.783  0.00  0.00    -0.003 A 
ATOM      4  C5  UNL d   1       0.891   0.646   0.807  0.00  0.00     0.000 A 
ATOM      5  C6  UNL d   1       1.642   1.386  -0.106  0.00  0.00     0.000 A 
ATOM      6  C7  UNL d   1       2.457   0.748  -1.057  0.00  0.00    -0.073 A 
ATOM      7  C8  UNL d   1       3.250   1.596  -2.014  0.00  0.00     0.078 C 
ENDROOT
BRANCH   1   8
ATOM      8  C1  UNL d   1       3.424  -1.418  -2.022  0.00  0.00     0.053 C 
ATOM      9  C   UNL d   1       4.722  -0.683  -2.318  0.00  0.00     0.018 C 
ENDBRANCH   1   8
TORSDOF 1
ENDMDL
