MODEL 1
REMARK minimizedAffinity -0.670037687
REMARK minimizedRMSD -1
REMARK  1 active torsions:
REMARK  status: ('A' for Active; 'I' for Inactive)
REMARK    1  A    between atoms: C1_2  and  C2_3 
ROOT
ATOM      1  C2  UNL d   1       1.387  -0.457   0.397  0.00  0.00    -0.076 A 
ATOM      2  C3  UNL d   1       1.322   0.947   0.396  0.00  0.00     0.004 A 
ATOM      3  C4  UNL d   1       2.205   1.706  -0.370  0.00  0.00    -0.003 A 
ATOM      4  C5  UNL d   1       3.166   1.073  -1.150  0.00  0.00     0.000 A 
ATOM      5  C6  UNL d   1       3.234  -0.320  -1.175  0.00  0.00     0.000 A 
ATOM      6  C7  UNL d   1       2.341  -1.100  -0.420  0.00  0.00    -0.073 A 
ATOM      7  C8  UNL d   1       2.463  -2.598  -0.480  0.00  0.00     0.078 C 
ENDROOT
BRANCH   1   8
ATOM      8  C1  UNL d   1       0.421  -1.227   1.270  0.00  0.00     0.053 C 
ATOM      9  C   UNL d   1       0.023  -0.455   2.518  0.00  0.00     0.018 C 
ENDBRANCH   1   8
TORSDOF 1
ENDMDL
