MODEL 1
REMARK minimizedAffinity -0.0248100515
REMARK minimizedRMSD -1
REMARK  1 active torsions:
REMARK  status: ('A' for Active; 'I' for Inactive)
REMARK    1  A    between atoms: C1_2  and  C2_3 
ROOT
ATOM      1  C2  UNL d   1       2.633  -0.941  -0.717  0.00  0.00    -0.076 A 
ATOM      2  C3  UNL d   1       1.813  -1.681   0.152  0.00  0.00     0.004 A 
ATOM      3  C4  UNL d   1       1.003  -1.043   1.090  0.00  0.00    -0.003 A 
ATOM      4  C5  UNL d   1       0.999   0.345   1.174  0.00  0.00     0.000 A 
ATOM      5  C6  UNL d   1       1.793   1.095   0.307  0.00  0.00     0.000 A 
ATOM      6  C7  UNL d   1       2.604   0.469  -0.655  0.00  0.00    -0.073 A 
ATOM      7  C8  UNL d   1       3.445   1.327  -1.560  0.00  0.00     0.078 C 
ENDROOT
BRANCH   1   8
ATOM      8  C1  UNL d   1       3.511  -1.688  -1.696  0.00  0.00     0.053 C 
ATOM      9  C   UNL d   1       4.863  -1.019  -1.894  0.00  0.00     0.018 C 
ENDBRANCH   1   8
TORSDOF 1
ENDMDL
