MODEL 1
REMARK minimizedAffinity 5.17720127
REMARK minimizedRMSD -1
REMARK  1 active torsions:
REMARK  status: ('A' for Active; 'I' for Inactive)
REMARK    1  A    between atoms: C1_2  and  C2_3 
ROOT
ATOM      1  C2  UNL d   1       1.823   0.307   0.267  0.00  0.00    -0.076 A 
ATOM      2  C3  UNL d   1       0.742   0.506   1.143  0.00  0.00     0.004 A 
ATOM      3  C4  UNL d   1      -0.122  -0.539   1.465  0.00  0.00    -0.003 A 
ATOM      4  C5  UNL d   1       0.080  -1.800   0.916  0.00  0.00     0.000 A 
ATOM      5  C6  UNL d   1       1.158  -2.020   0.058  0.00  0.00     0.000 A 
ATOM      6  C7  UNL d   1       2.048  -0.981  -0.264  0.00  0.00    -0.073 A 
ATOM      7  C8  UNL d   1       3.190  -1.272  -1.199  0.00  0.00     0.078 C 
ENDROOT
BRANCH   1   8
ATOM      8  C1  UNL d   1       2.711   1.485  -0.067  0.00  0.00     0.053 C 
ATOM      9  C   UNL d   1       3.081   2.302   1.162  0.00  0.00     0.018 C 
ENDBRANCH   1   8
TORSDOF 1
ENDMDL
