MODEL 1
REMARK minimizedAffinity 0.797611117
REMARK minimizedRMSD -1
REMARK  1 active torsions:
REMARK  status: ('A' for Active; 'I' for Inactive)
REMARK    1  A    between atoms: C1_2  and  C2_3 
ROOT
ATOM      1  C2  UNL d   1       3.590  -0.517  -1.860  0.00  0.00    -0.076 A 
ATOM      2  C3  UNL d   1       3.432  -1.881  -1.559  0.00  0.00     0.004 A 
ATOM      3  C4  UNL d   1       2.531  -2.300  -0.582  0.00  0.00    -0.003 A 
ATOM      4  C5  UNL d   1       1.772  -1.363   0.110  0.00  0.00     0.000 A 
ATOM      5  C6  UNL d   1       1.903  -0.007  -0.188  0.00  0.00     0.000 A 
ATOM      6  C7  UNL d   1       2.795   0.432  -1.181  0.00  0.00    -0.073 A 
ATOM      7  C8  UNL d   1       2.901   1.907  -1.457  0.00  0.00     0.078 C 
ENDROOT
BRANCH   1   8
ATOM      8  C1  UNL d   1       4.602  -0.119  -2.910  0.00  0.00     0.053 C 
ATOM      9  C   UNL d   1       5.999  -0.635  -2.599  0.00  0.00     0.018 C 
ENDBRANCH   1   8
TORSDOF 1
ENDMDL
