MODEL 1
REMARK minimizedAffinity -0.940117419
REMARK minimizedRMSD -1
REMARK  1 active torsions:
REMARK  status: ('A' for Active; 'I' for Inactive)
REMARK    1  A    between atoms: C1_2  and  C2_3 
ROOT
ATOM      1  C2  UNL d   1       3.029  -0.943  -1.154  0.00  0.00    -0.076 A 
ATOM      2  C3  UNL d   1       2.386  -1.891  -0.341  0.00  0.00     0.004 A 
ATOM      3  C4  UNL d   1       1.437  -1.501   0.603  0.00  0.00    -0.003 A 
ATOM      4  C5  UNL d   1       1.115  -0.156   0.747  0.00  0.00     0.000 A 
ATOM      5  C6  UNL d   1       1.731   0.796  -0.064  0.00  0.00     0.000 A 
ATOM      6  C7  UNL d   1       2.678   0.418  -1.031  0.00  0.00    -0.073 A 
ATOM      7  C8  UNL d   1       3.315   1.488  -1.875  0.00  0.00     0.078 C 
ENDROOT
BRANCH   1   8
ATOM      8  C1  UNL d   1       4.070  -1.422  -2.141  0.00  0.00     0.053 C 
ATOM      9  C   UNL d   1       5.262  -0.482  -2.234  0.00  0.00     0.018 C 
ENDBRANCH   1   8
TORSDOF 1
ENDMDL
