MODEL 1
REMARK minimizedAffinity 0.357339501
REMARK minimizedRMSD -1
REMARK  1 active torsions:
REMARK  status: ('A' for Active; 'I' for Inactive)
REMARK    1  A    between atoms: C1_2  and  C2_3 
ROOT
ATOM      1  C2  UNL d   1       2.752   0.217  -0.778  0.00  0.00    -0.076 A 
ATOM      2  C3  UNL d   1       2.790  -1.109  -1.243  0.00  0.00     0.004 A 
ATOM      3  C4  UNL d   1       3.816  -1.547  -2.078  0.00  0.00    -0.003 A 
ATOM      4  C5  UNL d   1       4.822  -0.666  -2.460  0.00  0.00     0.000 A 
ATOM      5  C6  UNL d   1       4.810   0.648  -1.994  0.00  0.00     0.000 A 
ATOM      6  C7  UNL d   1       3.791   1.101  -1.139  0.00  0.00    -0.073 A 
ATOM      7  C8  UNL d   1       3.824   2.531  -0.671  0.00  0.00     0.078 C 
ENDROOT
BRANCH   1   8
ATOM      8  C1  UNL d   1       1.599   0.643   0.103  0.00  0.00     0.053 C 
ATOM      9  C   UNL d   1       0.913  -0.536   0.776  0.00  0.00     0.018 C 
ENDBRANCH   1   8
TORSDOF 1
ENDMDL
