MODEL 1
REMARK minimizedAffinity -3.77306628
REMARK minimizedRMSD -1
REMARK  1 active torsions:
REMARK  status: ('A' for Active; 'I' for Inactive)
REMARK    1  A    between atoms: C1_2  and  C2_3 
ROOT
ATOM      1  C2  UNL d   1       2.296   0.152  -0.874  0.00  0.00    -0.076 A 
ATOM      2  C3  UNL d   1       1.659   0.911   0.122  0.00  0.00     0.004 A 
ATOM      3  C4  UNL d   1       1.008   0.294   1.189  0.00  0.00    -0.003 A 
ATOM      4  C5  UNL d   1       0.985  -1.094   1.277  0.00  0.00     0.000 A 
ATOM      5  C6  UNL d   1       1.628  -1.863   0.307  0.00  0.00     0.000 A 
ATOM      6  C7  UNL d   1       2.302  -1.255  -0.766  0.00  0.00    -0.073 A 
ATOM      7  C8  UNL d   1       2.972  -2.133  -1.787  0.00  0.00     0.078 C 
ENDROOT
BRANCH   1   8
ATOM      8  C1  UNL d   1       2.963   0.876  -2.022  0.00  0.00     0.053 C 
ATOM      9  C   UNL d   1       4.283   0.239  -2.425  0.00  0.00     0.018 C 
ENDBRANCH   1   8
TORSDOF 1
ENDMDL
