MODEL 1
REMARK minimizedAffinity -0.452932268
REMARK minimizedRMSD -1
REMARK  1 active torsions:
REMARK  status: ('A' for Active; 'I' for Inactive)
REMARK    1  A    between atoms: C1_2  and  C2_3 
ROOT
ATOM      1  C2  UNL d   1       3.091  -0.355  -0.768  0.00  0.00    -0.076 A 
ATOM      2  C3  UNL d   1       3.118  -1.753  -0.904  0.00  0.00     0.004 A 
ATOM      3  C4  UNL d   1       2.091  -2.544  -0.390  0.00  0.00    -0.003 A 
ATOM      4  C5  UNL d   1       1.021  -1.948   0.268  0.00  0.00     0.000 A 
ATOM      5  C6  UNL d   1       0.969  -0.560   0.396  0.00  0.00     0.000 A 
ATOM      6  C7  UNL d   1       1.988   0.252  -0.131  0.00  0.00    -0.073 A 
ATOM      7  C8  UNL d   1       1.884   1.743   0.041  0.00  0.00     0.078 C 
ENDROOT
BRANCH   1   8
ATOM      8  C1  UNL d   1       4.246   0.449  -1.322  0.00  0.00     0.053 C 
ATOM      9  C   UNL d   1       5.234  -0.409  -2.098  0.00  0.00     0.018 C 
ENDBRANCH   1   8
TORSDOF 1
ENDMDL
