MODEL 1
REMARK minimizedAffinity 0.79339081
REMARK minimizedRMSD -1
REMARK  1 active torsions:
REMARK  status: ('A' for Active; 'I' for Inactive)
REMARK    1  A    between atoms: C1_2  and  C2_3 
ROOT
ATOM      1  C2  UNL d   1       1.845  -0.034  -0.778  0.00  0.00    -0.076 A 
ATOM      2  C3  UNL d   1       1.251   1.058  -0.122  0.00  0.00     0.004 A 
ATOM      3  C4  UNL d   1       0.784   0.941   1.186  0.00  0.00    -0.003 A 
ATOM      4  C5  UNL d   1       0.905  -0.269   1.860  0.00  0.00     0.000 A 
ATOM      5  C6  UNL d   1       1.508  -1.358   1.230  0.00  0.00     0.000 A 
ATOM      6  C7  UNL d   1       1.998  -1.253  -0.083  0.00  0.00    -0.073 A 
ATOM      7  C8  UNL d   1       2.634  -2.460  -0.715  0.00  0.00     0.078 C 
ENDROOT
BRANCH   1   8
ATOM      8  C1  UNL d   1       2.308   0.144  -2.207  0.00  0.00     0.053 C 
ATOM      9  C   UNL d   1       3.679   0.796  -2.298  0.00  0.00     0.018 C 
ENDBRANCH   1   8
TORSDOF 1
ENDMDL
