MODEL 1
REMARK minimizedAffinity -2.24462247
REMARK minimizedRMSD -1
REMARK  1 active torsions:
REMARK  status: ('A' for Active; 'I' for Inactive)
REMARK    1  A    between atoms: C1_2  and  C2_3 
ROOT
ATOM      1  C2  UNL d   1       2.356  -0.171  -0.954  0.00  0.00    -0.076 A 
ATOM      2  C3  UNL d   1       2.776  -1.471  -0.622  0.00  0.00     0.004 A 
ATOM      3  C4  UNL d   1       2.031  -2.265   0.248  0.00  0.00    -0.003 A 
ATOM      4  C5  UNL d   1       0.854  -1.772   0.800  0.00  0.00     0.000 A 
ATOM      5  C6  UNL d   1       0.413  -0.491   0.469  0.00  0.00     0.000 A 
ATOM      6  C7  UNL d   1       1.144   0.316  -0.420  0.00  0.00    -0.073 A 
ATOM      7  C8  UNL d   1       0.625   1.692  -0.738  0.00  0.00     0.078 C 
ENDROOT
BRANCH   1   8
ATOM      8  C1  UNL d   1       3.219   0.654  -1.882  0.00  0.00     0.053 C 
ATOM      9  C   UNL d   1       4.516  -0.050  -2.251  0.00  0.00     0.018 C 
ENDBRANCH   1   8
TORSDOF 1
ENDMDL
