MODEL 1
REMARK minimizedAffinity 19.9278107
REMARK minimizedRMSD -1
REMARK  0 active torsions:
REMARK  status: ('A' for Active; 'I' for Inactive)
ROOT
ATOM      1  C   UNL d   1       0.463  -2.553  -1.437  0.00  0.00     0.124 A 
ATOM      2  C1  UNL d   1      -0.564  -2.297  -2.334  0.00  0.00     0.062 A 
ATOM      3  C2  UNL d   1      -1.859  -2.077  -1.873  0.00  0.00     0.162 A 
ATOM      4  C3  UNL d   1      -2.134  -2.110  -0.506  0.00  0.00    -0.034 A 
ATOM      5  C4  UNL d   1      -1.096  -2.369   0.391  0.00  0.00     0.162 A 
ATOM      6  C5  UNL d   1       0.196  -2.588  -0.075  0.00  0.00     0.062 A 
ATOM      7  F   UNL d   1       1.188  -2.835   0.794  0.00  0.00    -0.097 F 
ATOM      8  F1  UNL d   1      -1.325  -2.409   1.712  0.00  0.00    -0.096 F 
ATOM      9  I   UNL d   1      -4.068  -1.782   0.189  0.00  0.00    -0.060 I 
ATOM     10  F2  UNL d   1      -2.832  -1.832  -2.763  0.00  0.00    -0.096 F 
ATOM     11  F3  UNL d   1      -0.310  -2.263  -3.650  0.00  0.00    -0.097 F 
ATOM     12  F4  UNL d   1       1.707  -2.765  -1.883  0.00  0.00    -0.092 F 
ENDROOT
TORSDOF 0
ENDMDL
