MODEL 1
REMARK minimizedAffinity 16.4124985
REMARK minimizedRMSD -1
REMARK  0 active torsions:
REMARK  status: ('A' for Active; 'I' for Inactive)
ROOT
ATOM      1  C   UNL d   1      -1.816  -1.683  -1.218  0.00  0.00     0.124 A 
ATOM      2  C1  UNL d   1      -0.599  -1.948  -1.830  0.00  0.00     0.062 A 
ATOM      3  C2  UNL d   1      -0.545  -2.215  -3.194  0.00  0.00     0.162 A 
ATOM      4  C3  UNL d   1      -1.713  -2.217  -3.958  0.00  0.00    -0.034 A 
ATOM      5  C4  UNL d   1      -2.933  -1.950  -3.335  0.00  0.00     0.162 A 
ATOM      6  C5  UNL d   1      -2.982  -1.684  -1.970  0.00  0.00     0.062 A 
ATOM      7  F   UNL d   1      -4.159  -1.428  -1.381  0.00  0.00    -0.097 F 
ATOM      8  F1  UNL d   1      -4.075  -1.944  -4.039  0.00  0.00    -0.096 F 
ATOM      9  I   UNL d   1      -1.636  -2.616  -5.999  0.00  0.00    -0.060 I 
ATOM     10  F2  UNL d   1       0.645  -2.468  -3.759  0.00  0.00    -0.096 F 
ATOM     11  F3  UNL d   1       0.529  -1.948  -1.104  0.00  0.00    -0.097 F 
ATOM     12  F4  UNL d   1      -1.865  -1.427   0.096  0.00  0.00    -0.092 F 
ENDROOT
TORSDOF 0
ENDMDL
