MODEL 1
REMARK minimizedAffinity 21.9972496
REMARK minimizedRMSD -1
REMARK  0 active torsions:
REMARK  status: ('A' for Active; 'I' for Inactive)
ROOT
ATOM      1  C   UNL d   1      -1.306  -2.608  -3.184  0.00  0.00     0.124 A 
ATOM      2  C1  UNL d   1       0.059  -2.818  -3.043  0.00  0.00     0.062 A 
ATOM      3  C2  UNL d   1       0.626  -2.907  -1.775  0.00  0.00     0.162 A 
ATOM      4  C3  UNL d   1      -0.172  -2.789  -0.637  0.00  0.00    -0.034 A 
ATOM      5  C4  UNL d   1      -1.543  -2.577  -0.787  0.00  0.00     0.162 A 
ATOM      6  C5  UNL d   1      -2.106  -2.488  -2.056  0.00  0.00     0.062 A 
ATOM      7  F   UNL d   1      -3.424  -2.285  -2.190  0.00  0.00    -0.097 F 
ATOM      8  F1  UNL d   1      -2.340  -2.458   0.286  0.00  0.00    -0.096 F 
ATOM      9  I   UNL d   1       0.673  -2.922   1.260  0.00  0.00    -0.060 I 
ATOM     10  F2  UNL d   1       1.948  -3.110  -1.669  0.00  0.00    -0.096 F 
ATOM     11  F3  UNL d   1       0.834  -2.933  -4.131  0.00  0.00    -0.097 F 
ATOM     12  F4  UNL d   1      -1.849  -2.521  -4.405  0.00  0.00    -0.092 F 
ENDROOT
TORSDOF 0
ENDMDL
