MODEL 1
REMARK minimizedAffinity 30.5055065
REMARK minimizedRMSD -1
REMARK  0 active torsions:
REMARK  status: ('A' for Active; 'I' for Inactive)
ROOT
ATOM      1  C   UNL d   1      -1.098  -1.570  -1.481  0.00  0.00     0.124 A 
ATOM      2  C1  UNL d   1      -1.528  -2.272  -2.598  0.00  0.00     0.062 A 
ATOM      3  C2  UNL d   1      -0.633  -3.057  -3.319  0.00  0.00     0.162 A 
ATOM      4  C3  UNL d   1       0.702  -3.145  -2.924  0.00  0.00    -0.034 A 
ATOM      5  C4  UNL d   1       1.128  -2.435  -1.800  0.00  0.00     0.162 A 
ATOM      6  C5  UNL d   1       0.229  -1.652  -1.083  0.00  0.00     0.062 A 
ATOM      7  F   UNL d   1       0.647  -0.974  -0.004  0.00  0.00    -0.097 F 
ATOM      8  F1  UNL d   1       2.404  -2.497  -1.393  0.00  0.00    -0.096 F 
ATOM      9  I   UNL d   1       2.044  -4.318  -4.000  0.00  0.00    -0.060 I 
ATOM     10  F2  UNL d   1      -1.076  -3.725  -4.394  0.00  0.00    -0.096 F 
ATOM     11  F3  UNL d   1      -2.809  -2.194  -2.985  0.00  0.00    -0.097 F 
ATOM     12  F4  UNL d   1      -1.961  -0.815  -0.790  0.00  0.00    -0.092 F 
ENDROOT
TORSDOF 0
ENDMDL
