MODEL 1
REMARK minimizedAffinity 33.0499954
REMARK minimizedRMSD -1
REMARK  0 active torsions:
REMARK  status: ('A' for Active; 'I' for Inactive)
ROOT
ATOM      1  C   UNL d   1       2.727  -2.401  -3.186  0.00  0.00     0.124 A 
ATOM      2  C1  UNL d   1       3.173  -3.713  -3.109  0.00  0.00     0.062 A 
ATOM      3  C2  UNL d   1       2.278  -4.741  -2.827  0.00  0.00     0.162 A 
ATOM      4  C3  UNL d   1       0.927  -4.461  -2.620  0.00  0.00    -0.034 A 
ATOM      5  C4  UNL d   1       0.486  -3.138  -2.698  0.00  0.00     0.162 A 
ATOM      6  C5  UNL d   1       1.385  -2.115  -2.981  0.00  0.00     0.062 A 
ATOM      7  F   UNL d   1       0.952  -0.848  -3.055  0.00  0.00    -0.097 F 
ATOM      8  F1  UNL d   1      -0.806  -2.834  -2.505  0.00  0.00    -0.096 F 
ATOM      9  I   UNL d   1      -0.415  -5.995  -2.198  0.00  0.00    -0.060 I 
ATOM     10  F2  UNL d   1       2.736  -5.999  -2.758  0.00  0.00    -0.096 F 
ATOM     11  F3  UNL d   1       4.469  -3.992  -3.306  0.00  0.00    -0.097 F 
ATOM     12  F4  UNL d   1       3.591  -1.414  -3.457  0.00  0.00    -0.092 F 
ENDROOT
TORSDOF 0
ENDMDL
