MODEL 1
REMARK minimizedAffinity 24.0112457
REMARK minimizedRMSD -1
REMARK  0 active torsions:
REMARK  status: ('A' for Active; 'I' for Inactive)
ROOT
ATOM      1  C   UNL d   1      -0.391  -2.576  -2.838  0.00  0.00     0.124 A 
ATOM      2  C1  UNL d   1      -0.143  -2.552  -1.472  0.00  0.00     0.062 A 
ATOM      3  C2  UNL d   1      -1.191  -2.376  -0.573  0.00  0.00     0.162 A 
ATOM      4  C3  UNL d   1      -2.498  -2.224  -1.037  0.00  0.00    -0.034 A 
ATOM      5  C4  UNL d   1      -2.740  -2.249  -2.411  0.00  0.00     0.162 A 
ATOM      6  C5  UNL d   1      -1.689  -2.424  -3.306  0.00  0.00     0.062 A 
ATOM      7  F   UNL d   1      -1.930  -2.447  -4.625  0.00  0.00    -0.097 F 
ATOM      8  F1  UNL d   1      -3.984  -2.106  -2.891  0.00  0.00    -0.096 F 
ATOM      9  I   UNL d   1      -4.068  -1.962   0.304  0.00  0.00    -0.060 I 
ATOM     10  F2  UNL d   1      -0.922  -2.357   0.741  0.00  0.00    -0.096 F 
ATOM     11  F3  UNL d   1       1.110  -2.697  -1.017  0.00  0.00    -0.097 F 
ATOM     12  F4  UNL d   1       0.619  -2.744  -3.700  0.00  0.00    -0.092 F 
ENDROOT
TORSDOF 0
ENDMDL
