MODEL 1
REMARK minimizedAffinity 24.936348
REMARK minimizedRMSD -1
REMARK  0 active torsions:
REMARK  status: ('A' for Active; 'I' for Inactive)
ROOT
ATOM      1  C   UNL d   1      -1.631  -2.488  -2.601  0.00  0.00     0.124 A 
ATOM      2  C1  UNL d   1      -2.942  -2.557  -2.151  0.00  0.00     0.062 A 
ATOM      3  C2  UNL d   1      -3.235  -2.329  -0.810  0.00  0.00     0.162 A 
ATOM      4  C3  UNL d   1      -2.214  -2.028   0.092  0.00  0.00    -0.034 A 
ATOM      5  C4  UNL d   1      -0.897  -1.962  -0.368  0.00  0.00     0.162 A 
ATOM      6  C5  UNL d   1      -0.610  -2.191  -1.710  0.00  0.00     0.062 A 
ATOM      7  F   UNL d   1       0.657  -2.124  -2.142  0.00  0.00    -0.097 F 
ATOM      8  F1  UNL d   1       0.108  -1.676   0.472  0.00  0.00    -0.096 F 
ATOM      9  I   UNL d   1      -2.647  -1.687   2.099  0.00  0.00    -0.060 I 
ATOM     10  F2  UNL d   1      -4.511  -2.402  -0.403  0.00  0.00    -0.096 F 
ATOM     11  F3  UNL d   1      -3.930  -2.844  -3.011  0.00  0.00    -0.097 F 
ATOM     12  F4  UNL d   1      -1.352  -2.709  -3.893  0.00  0.00    -0.092 F 
ENDROOT
TORSDOF 0
ENDMDL
