MODEL 1
REMARK minimizedAffinity 17.3236065
REMARK minimizedRMSD -1
REMARK  0 active torsions:
REMARK  status: ('A' for Active; 'I' for Inactive)
ROOT
ATOM      1  C   UNL d   1      -1.534  -2.168  -0.967  0.00  0.00     0.124 A 
ATOM      2  C1  UNL d   1      -2.702  -2.330  -1.700  0.00  0.00     0.062 A 
ATOM      3  C2  UNL d   1      -2.640  -2.631  -3.058  0.00  0.00     0.162 A 
ATOM      4  C3  UNL d   1      -1.405  -2.771  -3.692  0.00  0.00    -0.034 A 
ATOM      5  C4  UNL d   1      -0.236  -2.605  -2.949  0.00  0.00     0.162 A 
ATOM      6  C5  UNL d   1      -0.303  -2.305  -1.592  0.00  0.00     0.062 A 
ATOM      7  F   UNL d   1       0.827  -2.148  -0.886  0.00  0.00    -0.097 F 
ATOM      8  F1  UNL d   1       0.968  -2.734  -3.527  0.00  0.00    -0.096 F 
ATOM      9  I   UNL d   1      -1.309  -3.221  -5.722  0.00  0.00    -0.060 I 
ATOM     10  F2  UNL d   1      -3.784  -2.783  -3.741  0.00  0.00    -0.096 F 
ATOM     11  F3  UNL d   1      -3.893  -2.197  -1.099  0.00  0.00    -0.097 F 
ATOM     12  F4  UNL d   1      -1.596  -1.878   0.339  0.00  0.00    -0.092 F 
ENDROOT
TORSDOF 0
ENDMDL
