MODEL 1
REMARK minimizedAffinity 30.5386829
REMARK minimizedRMSD -1
REMARK  0 active torsions:
REMARK  status: ('A' for Active; 'I' for Inactive)
ROOT
ATOM      1  C   UNL d   1      -0.207  -1.751  -1.118  0.00  0.00     0.124 A 
ATOM      2  C1  UNL d   1      -0.652  -2.314  -2.307  0.00  0.00     0.062 A 
ATOM      3  C2  UNL d   1       0.260  -2.850  -3.211  0.00  0.00     0.162 A 
ATOM      4  C3  UNL d   1       1.626  -2.827  -2.931  0.00  0.00    -0.034 A 
ATOM      5  C4  UNL d   1       2.066  -2.258  -1.734  0.00  0.00     0.162 A 
ATOM      6  C5  UNL d   1       1.151  -1.724  -0.833  0.00  0.00     0.062 A 
ATOM      7  F   UNL d   1       1.582  -1.180   0.314  0.00  0.00    -0.097 F 
ATOM      8  F1  UNL d   1       3.372  -2.220  -1.433  0.00  0.00    -0.096 F 
ATOM      9  I   UNL d   1       2.993  -3.629  -4.281  0.00  0.00    -0.060 I 
ATOM     10  F2  UNL d   1      -0.198  -3.388  -4.352  0.00  0.00    -0.096 F 
ATOM     11  F3  UNL d   1      -1.963  -2.341  -2.585  0.00  0.00    -0.097 F 
ATOM     12  F4  UNL d   1      -1.086  -1.235  -0.250  0.00  0.00    -0.092 F 
ENDROOT
TORSDOF 0
ENDMDL
