MODEL 1
REMARK minimizedAffinity 24.7364941
REMARK minimizedRMSD -1
REMARK  0 active torsions:
REMARK  status: ('A' for Active; 'I' for Inactive)
ROOT
ATOM      1  C   UNL d   1      -1.784  -1.899  -0.575  0.00  0.00     0.124 A 
ATOM      2  C1  UNL d   1      -2.851  -1.601   0.261  0.00  0.00     0.062 A 
ATOM      3  C2  UNL d   1      -3.230  -0.278   0.467  0.00  0.00     0.162 A 
ATOM      4  C3  UNL d   1      -2.543   0.758  -0.166  0.00  0.00    -0.034 A 
ATOM      5  C4  UNL d   1      -1.470   0.450  -1.005  0.00  0.00     0.162 A 
ATOM      6  C5  UNL d   1      -1.095  -0.874  -1.207  0.00  0.00     0.062 A 
ATOM      7  F   UNL d   1      -0.064  -1.160  -2.016  0.00  0.00    -0.097 F 
ATOM      8  F1  UNL d   1      -0.788   1.422  -1.629  0.00  0.00    -0.096 F 
ATOM      9  I   UNL d   1      -3.107   2.738   0.140  0.00  0.00    -0.060 I 
ATOM     10  F2  UNL d   1      -4.265  -0.019   1.281  0.00  0.00    -0.096 F 
ATOM     11  F3  UNL d   1      -3.517  -2.590   0.874  0.00  0.00    -0.097 F 
ATOM     12  F4  UNL d   1      -1.420  -3.173  -0.771  0.00  0.00    -0.092 F 
ENDROOT
TORSDOF 0
ENDMDL
