MODEL 1
REMARK minimizedAffinity 20.9434509
REMARK minimizedRMSD -1
REMARK  0 active torsions:
REMARK  status: ('A' for Active; 'I' for Inactive)
ROOT
ATOM      1  C   UNL d   1       1.652   3.911  -2.638  0.00  0.00     0.124 A 
ATOM      2  C1  UNL d   1       2.232   4.672  -3.643  0.00  0.00     0.062 A 
ATOM      3  C2  UNL d   1       3.473   5.269  -3.441  0.00  0.00     0.162 A 
ATOM      4  C3  UNL d   1       4.142   5.108  -2.228  0.00  0.00    -0.034 A 
ATOM      5  C4  UNL d   1       3.552   4.342  -1.221  0.00  0.00     0.162 A 
ATOM      6  C5  UNL d   1       2.312   3.747  -1.428  0.00  0.00     0.062 A 
ATOM      7  F   UNL d   1       1.753   3.012  -0.456  0.00  0.00    -0.097 F 
ATOM      8  F1  UNL d   1       4.168   4.166  -0.043  0.00  0.00    -0.096 F 
ATOM      9  I   UNL d   1       5.998   6.000  -1.922  0.00  0.00    -0.060 I 
ATOM     10  F2  UNL d   1       4.010   5.999  -4.430  0.00  0.00    -0.096 F 
ATOM     11  F3  UNL d   1       1.596   4.833  -4.813  0.00  0.00    -0.097 F 
ATOM     12  F4  UNL d   1       0.457   3.338  -2.835  0.00  0.00    -0.092 F 
ENDROOT
TORSDOF 0
ENDMDL
