MODEL 1
REMARK minimizedAffinity 28.6871319
REMARK minimizedRMSD -1
REMARK  0 active torsions:
REMARK  status: ('A' for Active; 'I' for Inactive)
ROOT
ATOM      1  C   UNL d   1       4.922   4.034  -2.936  0.00  0.00     0.124 A 
ATOM      2  C1  UNL d   1       3.804   3.241  -3.155  0.00  0.00     0.062 A 
ATOM      3  C2  UNL d   1       2.682   3.372  -2.341  0.00  0.00     0.162 A 
ATOM      4  C3  UNL d   1       2.672   4.302  -1.301  0.00  0.00    -0.034 A 
ATOM      5  C4  UNL d   1       3.801   5.096  -1.087  0.00  0.00     0.162 A 
ATOM      6  C5  UNL d   1       4.919   4.960  -1.903  0.00  0.00     0.062 A 
ATOM      7  F   UNL d   1       5.999   5.727  -1.690  0.00  0.00    -0.097 F 
ATOM      8  F1  UNL d   1       3.825   5.999  -0.097  0.00  0.00    -0.096 F 
ATOM      9  I   UNL d   1       0.997   4.502  -0.083  0.00  0.00    -0.060 I 
ATOM     10  F2  UNL d   1       1.616   2.593  -2.575  0.00  0.00    -0.096 F 
ATOM     11  F3  UNL d   1       3.804   2.344  -4.152  0.00  0.00    -0.097 F 
ATOM     12  F4  UNL d   1       6.000   3.904  -3.720  0.00  0.00    -0.092 F 
ENDROOT
TORSDOF 0
ENDMDL
