MODEL 1
REMARK minimizedAffinity 27.678215
REMARK minimizedRMSD -1
REMARK  0 active torsions:
REMARK  status: ('A' for Active; 'I' for Inactive)
ROOT
ATOM      1  C   UNL d   1      -2.454   0.773   4.112  0.00  0.00     0.124 A 
ATOM      2  C1  UNL d   1      -2.861   1.469   2.983  0.00  0.00     0.062 A 
ATOM      3  C2  UNL d   1      -3.155   0.785   1.807  0.00  0.00     0.162 A 
ATOM      4  C3  UNL d   1      -3.044  -0.604   1.755  0.00  0.00    -0.034 A 
ATOM      5  C4  UNL d   1      -2.633  -1.298   2.894  0.00  0.00     0.162 A 
ATOM      6  C5  UNL d   1      -2.340  -0.609   4.067  0.00  0.00     0.062 A 
ATOM      7  F   UNL d   1      -1.946  -1.284   5.157  0.00  0.00    -0.097 F 
ATOM      8  F1  UNL d   1      -2.515  -2.634   2.879  0.00  0.00    -0.096 F 
ATOM      9  I   UNL d   1      -3.483  -1.631  -0.002  0.00  0.00    -0.060 I 
ATOM     10  F2  UNL d   1      -3.547   1.483   0.731  0.00  0.00    -0.096 F 
ATOM     11  F3  UNL d   1      -2.971   2.805   3.024  0.00  0.00    -0.097 F 
ATOM     12  F4  UNL d   1      -2.171   1.434   5.242  0.00  0.00    -0.092 F 
ENDROOT
TORSDOF 0
ENDMDL
