MODEL 1
REMARK minimizedAffinity 18.7489033
REMARK minimizedRMSD -1
REMARK  0 active torsions:
REMARK  status: ('A' for Active; 'I' for Inactive)
ROOT
ATOM      1  C   UNL d   1       1.484   4.429  -0.827  0.00  0.00     0.124 A 
ATOM      2  C1  UNL d   1       1.698   5.048  -2.051  0.00  0.00     0.062 A 
ATOM      3  C2  UNL d   1       2.986   5.403  -2.441  0.00  0.00     0.162 A 
ATOM      4  C3  UNL d   1       4.072   5.138  -1.606  0.00  0.00    -0.034 A 
ATOM      5  C4  UNL d   1       3.849   4.516  -0.376  0.00  0.00     0.162 A 
ATOM      6  C5  UNL d   1       2.559   4.164   0.009  0.00  0.00     0.062 A 
ATOM      7  F   UNL d   1       2.355   3.565   1.191  0.00  0.00    -0.097 F 
ATOM      8  F1  UNL d   1       4.870   4.247   0.451  0.00  0.00    -0.096 F 
ATOM      9  I   UNL d   1       6.000   5.667  -2.184  0.00  0.00    -0.060 I 
ATOM     10  F2  UNL d   1       3.163   6.000  -3.629  0.00  0.00    -0.096 F 
ATOM     11  F3  UNL d   1       0.661   5.306  -2.861  0.00  0.00    -0.097 F 
ATOM     12  F4  UNL d   1       0.243   4.090  -0.455  0.00  0.00    -0.092 F 
ENDROOT
TORSDOF 0
ENDMDL
