MODEL 1
REMARK minimizedAffinity 26.7726364
REMARK minimizedRMSD -1
REMARK  0 active torsions:
REMARK  status: ('A' for Active; 'I' for Inactive)
ROOT
ATOM      1  C   UNL d   1       3.651   4.450  -2.375  0.00  0.00     0.124 A 
ATOM      2  C1  UNL d   1       4.841   3.882  -2.809  0.00  0.00     0.062 A 
ATOM      3  C2  UNL d   1       4.835   2.948  -3.841  0.00  0.00     0.162 A 
ATOM      4  C3  UNL d   1       3.635   2.576  -4.447  0.00  0.00    -0.034 A 
ATOM      5  C4  UNL d   1       2.443   3.151  -4.004  0.00  0.00     0.162 A 
ATOM      6  C5  UNL d   1       2.454   4.084  -2.973  0.00  0.00     0.062 A 
ATOM      7  F   UNL d   1       1.303   4.631  -2.554  0.00  0.00    -0.097 F 
ATOM      8  F1  UNL d   1       1.271   2.816  -4.565  0.00  0.00    -0.096 F 
ATOM      9  I   UNL d   1       3.622   1.180  -5.990  0.00  0.00    -0.060 I 
ATOM     10  F2  UNL d   1       6.000   2.415  -4.240  0.00  0.00    -0.096 F 
ATOM     11  F3  UNL d   1       6.000   4.233  -2.233  0.00  0.00    -0.097 F 
ATOM     12  F4  UNL d   1       3.660   5.347  -1.381  0.00  0.00    -0.092 F 
ENDROOT
TORSDOF 0
ENDMDL
