MODEL 1
REMARK minimizedAffinity 19.8194923
REMARK minimizedRMSD -1
REMARK  0 active torsions:
REMARK  status: ('A' for Active; 'I' for Inactive)
ROOT
ATOM      1  C   UNL d   1      -1.102  -2.688   0.528  0.00  0.00     0.124 A 
ATOM      2  C1  UNL d   1      -2.250  -1.907   0.504  0.00  0.00     0.062 A 
ATOM      3  C2  UNL d   1      -2.637  -1.196   1.637  0.00  0.00     0.162 A 
ATOM      4  C3  UNL d   1      -1.874  -1.261   2.803  0.00  0.00    -0.034 A 
ATOM      5  C4  UNL d   1      -0.722  -2.049   2.820  0.00  0.00     0.162 A 
ATOM      6  C5  UNL d   1      -0.339  -2.758   1.685  0.00  0.00     0.062 A 
ATOM      7  F   UNL d   1       0.770  -3.511   1.710  0.00  0.00    -0.097 F 
ATOM      8  F1  UNL d   1       0.035  -2.134   3.924  0.00  0.00    -0.096 F 
ATOM      9  I   UNL d   1      -2.449  -0.200   4.498  0.00  0.00    -0.060 I 
ATOM     10  F2  UNL d   1      -3.750  -0.451   1.585  0.00  0.00    -0.096 F 
ATOM     11  F3  UNL d   1      -2.989  -1.839  -0.612  0.00  0.00    -0.097 F 
ATOM     12  F4  UNL d   1      -0.733  -3.371  -0.562  0.00  0.00    -0.092 F 
ENDROOT
TORSDOF 0
ENDMDL
