MODEL 1
REMARK minimizedAffinity 4.7590189
REMARK minimizedRMSD -1
REMARK  0 active torsions:
REMARK  status: ('A' for Active; 'I' for Inactive)
ROOT
ATOM      1  C   UNL d   1       0.828  -2.482   5.610  0.00  0.00     0.172 C 
ATOM      2  N   UNL d   1       1.141  -2.271   4.216  0.00  0.00    -0.070 N 
ATOM      3  C1  UNL d   1       0.351  -1.614   3.311  0.00  0.00    -0.004 A 
ATOM      4  C2  UNL d   1       1.000  -1.626   2.096  0.00  0.00    -0.047 A 
ATOM      5  C3  UNL d   1       2.223  -2.315   2.277  0.00  0.00    -0.047 A 
ATOM      6  C4  UNL d   1       2.285  -2.703   3.598  0.00  0.00    -0.004 A 
ENDROOT
TORSDOF 0
ENDMDL
