MODEL 1
REMARK minimizedAffinity 4.00666523
REMARK minimizedRMSD -1
REMARK  0 active torsions:
REMARK  status: ('A' for Active; 'I' for Inactive)
ROOT
ATOM      1  C   UNL d   1       1.839   1.838   2.692  0.00  0.00     0.172 C 
ATOM      2  N   UNL d   1       1.604   0.429   2.482  0.00  0.00    -0.070 N 
ATOM      3  C1  UNL d   1       2.191  -0.343   1.516  0.00  0.00    -0.004 A 
ATOM      4  C2  UNL d   1       1.706  -1.627   1.648  0.00  0.00    -0.047 A 
ATOM      5  C3  UNL d   1       0.796  -1.626   2.731  0.00  0.00    -0.047 A 
ATOM      6  C4  UNL d   1       0.751  -0.341   3.229  0.00  0.00    -0.004 A 
ENDROOT
TORSDOF 0
ENDMDL
