MODEL 1
REMARK minimizedAffinity 1.53474259
REMARK minimizedRMSD -1
REMARK  0 active torsions:
REMARK  status: ('A' for Active; 'I' for Inactive)
ROOT
ATOM      1  C   UNL d   1       5.996   5.981  -5.853  0.00  0.00     0.172 C 
ATOM      2  N   UNL d   1       5.390   5.770  -4.559  0.00  0.00    -0.070 N 
ATOM      3  C1  UNL d   1       5.999   5.971  -3.349  0.00  0.00    -0.004 A 
ATOM      4  C2  UNL d   1       5.090   5.658  -2.362  0.00  0.00    -0.047 A 
ATOM      5  C3  UNL d   1       3.894   5.254  -3.000  0.00  0.00    -0.047 A 
ATOM      6  C4  UNL d   1       4.107   5.333  -4.360  0.00  0.00    -0.004 A 
ENDROOT
TORSDOF 0
ENDMDL
