MODEL 1
REMARK minimizedAffinity 0.830371201
REMARK minimizedRMSD -1
REMARK  0 active torsions:
REMARK  status: ('A' for Active; 'I' for Inactive)
ROOT
ATOM      1  C   UNL d   1      -5.999  -2.517  -5.357  0.00  0.00     0.172 C 
ATOM      2  N   UNL d   1      -5.422  -3.839  -5.418  0.00  0.00    -0.070 N 
ATOM      3  C1  UNL d   1      -5.999  -4.936  -6.000  0.00  0.00    -0.004 A 
ATOM      4  C2  UNL d   1      -5.134  -5.998  -5.849  0.00  0.00    -0.047 A 
ATOM      5  C3  UNL d   1      -3.998  -5.524  -5.152  0.00  0.00    -0.047 A 
ATOM      6  C4  UNL d   1      -4.202  -4.184  -4.898  0.00  0.00    -0.004 A 
ENDROOT
TORSDOF 0
ENDMDL
