MODEL 1
REMARK minimizedAffinity -2.65019703
REMARK minimizedRMSD -1
REMARK  0 active torsions:
REMARK  status: ('A' for Active; 'I' for Inactive)
ROOT
ATOM      1  C   UNL d   1      -5.978  -2.500  -5.986  0.00  0.00     0.172 C 
ATOM      2  N   UNL d   1      -5.429  -3.795  -5.659  0.00  0.00    -0.070 N 
ATOM      3  C1  UNL d   1      -4.269  -4.019  -4.967  0.00  0.00    -0.004 A 
ATOM      4  C2  UNL d   1      -4.096  -5.382  -4.862  0.00  0.00    -0.047 A 
ATOM      5  C3  UNL d   1      -5.190  -5.999  -5.515  0.00  0.00    -0.047 A 
ATOM      6  C4  UNL d   1      -5.999  -4.993  -5.999  0.00  0.00    -0.004 A 
ENDROOT
TORSDOF 0
ENDMDL
