MODEL 1
REMARK minimizedAffinity 3.0042944
REMARK minimizedRMSD -1
REMARK  0 active torsions:
REMARK  status: ('A' for Active; 'I' for Inactive)
ROOT
ATOM      1  C   UNL d   1      -4.520  -2.630  -4.676  0.00  0.00     0.172 C 
ATOM      2  N   UNL d   1      -4.760  -3.953  -5.203  0.00  0.00    -0.070 N 
ATOM      3  C1  UNL d   1      -3.797  -4.867  -5.536  0.00  0.00    -0.004 A 
ATOM      4  C2  UNL d   1      -4.431  -6.000  -5.998  0.00  0.00    -0.047 A 
ATOM      5  C3  UNL d   1      -5.824  -5.757  -5.942  0.00  0.00    -0.047 A 
ATOM      6  C4  UNL d   1      -6.000  -4.483  -5.446  0.00  0.00    -0.004 A 
ENDROOT
TORSDOF 0
ENDMDL
