MODEL 1
REMARK minimizedAffinity 0.740827739
REMARK minimizedRMSD -1
REMARK  0 active torsions:
REMARK  status: ('A' for Active; 'I' for Inactive)
ROOT
ATOM      1  C   UNL d   1      -4.125  -2.624  -3.600  0.00  0.00     0.172 C 
ATOM      2  N   UNL d   1      -4.504  -3.698  -4.488  0.00  0.00    -0.070 N 
ATOM      3  C1  UNL d   1      -3.833  -4.881  -4.643  0.00  0.00    -0.004 A 
ATOM      4  C2  UNL d   1      -4.512  -5.633  -5.577  0.00  0.00    -0.047 A 
ATOM      5  C3  UNL d   1      -5.629  -4.874  -6.000  0.00  0.00    -0.047 A 
ATOM      6  C4  UNL d   1      -5.601  -3.681  -5.310  0.00  0.00    -0.004 A 
ENDROOT
TORSDOF 0
ENDMDL
