MODEL 1
REMARK minimizedAffinity 9.01317978
REMARK minimizedRMSD -1
REMARK  0 active torsions:
REMARK  status: ('A' for Active; 'I' for Inactive)
ROOT
ATOM      1  C   UNL d   1       0.993  -0.274   1.644  0.00  0.00     0.172 C 
ATOM      2  N   UNL d   1       1.662   0.978   1.912  0.00  0.00    -0.070 N 
ATOM      3  C1  UNL d   1       1.543   1.717   3.058  0.00  0.00    -0.004 A 
ATOM      4  C2  UNL d   1       2.337   2.836   2.923  0.00  0.00    -0.047 A 
ATOM      5  C3  UNL d   1       2.952   2.767   1.651  0.00  0.00    -0.047 A 
ATOM      6  C4  UNL d   1       2.517   1.607   1.046  0.00  0.00    -0.004 A 
ENDROOT
TORSDOF 0
ENDMDL
