MODEL 1
REMARK minimizedAffinity 5.44338179
REMARK minimizedRMSD -1
REMARK  0 active torsions:
REMARK  status: ('A' for Active; 'I' for Inactive)
ROOT
ATOM      1  C   UNL d   1       5.904   5.921  -5.564  0.00  0.00     0.172 C 
ATOM      2  N   UNL d   1       5.308   5.861  -4.250  0.00  0.00    -0.070 N 
ATOM      3  C1  UNL d   1       3.980   5.658  -3.984  0.00  0.00    -0.004 A 
ATOM      4  C2  UNL d   1       3.818   5.666  -2.616  0.00  0.00    -0.047 A 
ATOM      5  C3  UNL d   1       5.092   5.883  -2.039  0.00  0.00    -0.047 A 
ATOM      6  C4  UNL d   1       5.996   6.000  -3.074  0.00  0.00    -0.004 A 
ENDROOT
TORSDOF 0
ENDMDL
