MODEL 1
REMARK minimizedAffinity 2.97056198
REMARK minimizedRMSD -1
REMARK  0 active torsions:
REMARK  status: ('A' for Active; 'I' for Inactive)
ROOT
ATOM      1  C   UNL d   1      -5.271  -2.432  -5.024  0.00  0.00     0.172 C 
ATOM      2  N   UNL d   1      -4.976  -3.821  -5.284  0.00  0.00    -0.070 N 
ATOM      3  C1  UNL d   1      -5.781  -4.694  -5.966  0.00  0.00    -0.004 A 
ATOM      4  C2  UNL d   1      -5.146  -5.917  -5.999  0.00  0.00    -0.047 A 
ATOM      5  C3  UNL d   1      -3.917  -5.774  -5.312  0.00  0.00    -0.047 A 
ATOM      6  C4  UNL d   1      -3.837  -4.467  -4.880  0.00  0.00    -0.004 A 
ENDROOT
TORSDOF 0
ENDMDL
