MODEL 1
REMARK minimizedAffinity 8.91708469
REMARK minimizedRMSD -1
REMARK  0 active torsions:
REMARK  status: ('A' for Active; 'I' for Inactive)
ROOT
ATOM      1  C   UNL d   1      -4.777   2.597  -4.106  0.00  0.00     0.172 C 
ATOM      2  N   UNL d   1      -3.962   1.819  -3.202  0.00  0.00    -0.070 N 
ATOM      3  C1  UNL d   1      -3.610   0.507  -3.375  0.00  0.00    -0.004 A 
ATOM      4  C2  UNL d   1      -2.832   0.134  -2.300  0.00  0.00    -0.047 A 
ATOM      5  C3  UNL d   1      -2.714   1.260  -1.451  0.00  0.00    -0.047 A 
ATOM      6  C4  UNL d   1      -3.423   2.289  -2.034  0.00  0.00    -0.004 A 
ENDROOT
TORSDOF 0
ENDMDL
