MODEL 1
REMARK minimizedAffinity 1.83939946
REMARK minimizedRMSD -1
REMARK  0 active torsions:
REMARK  status: ('A' for Active; 'I' for Inactive)
ROOT
ATOM      1  C   UNL d   1      -5.250   2.628  -4.401  0.00  0.00     0.172 C 
ATOM      2  N   UNL d   1      -5.123   1.679  -3.320  0.00  0.00    -0.070 N 
ATOM      3  C1  UNL d   1      -5.999   1.534  -2.278  0.00  0.00    -0.004 A 
ATOM      4  C2  UNL d   1      -5.526   0.527  -1.464  0.00  0.00    -0.047 A 
ATOM      5  C3  UNL d   1      -4.322   0.052  -2.037  0.00  0.00    -0.047 A 
ATOM      6  C4  UNL d   1      -4.096   0.782  -3.184  0.00  0.00    -0.004 A 
ENDROOT
TORSDOF 0
ENDMDL
