MODEL 1
REMARK minimizedAffinity 0.250321984
REMARK minimizedRMSD -1
REMARK  0 active torsions:
REMARK  status: ('A' for Active; 'I' for Inactive)
ROOT
ATOM      1  C   UNL d   1       2.399  -2.658   4.119  0.00  0.00     0.172 C 
ATOM      2  N   UNL d   1       3.781  -2.696   4.536  0.00  0.00    -0.070 N 
ATOM      3  C1  UNL d   1       4.866  -2.744   3.702  0.00  0.00    -0.004 A 
ATOM      4  C2  UNL d   1       6.000  -2.768   4.485  0.00  0.00    -0.047 A 
ATOM      5  C3  UNL d   1       5.582  -2.735   5.837  0.00  0.00    -0.047 A 
ATOM      6  C4  UNL d   1       4.204  -2.690   5.839  0.00  0.00    -0.004 A 
ENDROOT
TORSDOF 0
ENDMDL
