MODEL 1
REMARK minimizedAffinity 4.24203348
REMARK minimizedRMSD -1
REMARK  0 active torsions:
REMARK  status: ('A' for Active; 'I' for Inactive)
ROOT
ATOM      1  C4' PXY d   1       3.852   5.557   0.751  0.00  0.00     0.077 C 
ATOM      2  C1' PXY d   1       0.316   0.988   0.940  0.00  0.00     0.077 C 
ATOM      3  C1  PXY d   1       1.250   2.182   0.901  0.00  0.00    -0.082 A 
ATOM      4  C2  PXY d   1       0.846   3.311   0.342  0.00  0.00     0.003 A 
ATOM      5  C3  PXY d   1       1.689   4.390   0.269  0.00  0.00     0.003 A 
ATOM      6  C4  PXY d   1       2.940   4.330   0.822  0.00  0.00    -0.082 A 
ATOM      7  C5  PXY d   1       3.356   3.185   1.404  0.00  0.00     0.003 A 
ATOM      8  C6  PXY d   1       2.500   2.088   1.430  0.00  0.00     0.003 A 
ENDROOT
TORSDOF 0
ENDMDL
