MODEL 1
REMARK minimizedAffinity 3.24091125
REMARK minimizedRMSD -1
REMARK  0 active torsions:
REMARK  status: ('A' for Active; 'I' for Inactive)
ROOT
ATOM      1  C4' PXY d   1       1.135  -5.249  -2.875  0.00  0.00     0.077 C 
ATOM      2  C1' PXY d   1       5.995  -5.465  -5.998  0.00  0.00     0.077 C 
ATOM      3  C1  PXY d   1       4.714  -5.409  -5.190  0.00  0.00    -0.082 A 
ATOM      4  C2  PXY d   1       4.735  -4.913  -3.963  0.00  0.00     0.003 A 
ATOM      5  C3  PXY d   1       3.592  -4.884  -3.207  0.00  0.00     0.003 A 
ATOM      6  C4  PXY d   1       2.403  -5.317  -3.731  0.00  0.00    -0.082 A 
ATOM      7  C5  PXY d   1       2.371  -5.814  -4.986  0.00  0.00     0.003 A 
ATOM      8  C6  PXY d   1       3.551  -5.873  -5.722  0.00  0.00     0.003 A 
ENDROOT
TORSDOF 0
ENDMDL
