MODEL 1
REMARK minimizedAffinity 9.16307926
REMARK minimizedRMSD -1
REMARK  0 active torsions:
REMARK  status: ('A' for Active; 'I' for Inactive)
ROOT
ATOM      1  C4' PXY d   1       4.842  -5.363  -6.000  0.00  0.00     0.077 C 
ATOM      2  C1' PXY d   1       1.618  -5.782  -1.220  0.00  0.00     0.077 C 
ATOM      3  C1  PXY d   1       2.471  -5.663  -2.467  0.00  0.00    -0.082 A 
ATOM      4  C2  PXY d   1       1.963  -5.999  -3.642  0.00  0.00     0.003 A 
ATOM      5  C3  PXY d   1       2.730  -5.928  -4.776  0.00  0.00     0.003 A 
ATOM      6  C4  PXY d   1       4.015  -5.458  -4.715  0.00  0.00    -0.082 A 
ATOM      7  C5  PXY d   1       4.537  -5.103  -3.522  0.00  0.00     0.003 A 
ATOM      8  C6  PXY d   1       3.755  -5.221  -2.377  0.00  0.00     0.003 A 
ENDROOT
TORSDOF 0
ENDMDL
