MODEL 1
REMARK minimizedAffinity 1.93819284
REMARK minimizedRMSD -1
REMARK  0 active torsions:
REMARK  status: ('A' for Active; 'I' for Inactive)
ROOT
ATOM      1  C4' PXY d   1       2.229  -5.997  -1.557  0.00  0.00     0.077 C 
ATOM      2  C1' PXY d   1       5.773  -4.940  -6.000  0.00  0.00     0.077 C 
ATOM      3  C1  PXY d   1       4.854  -5.218  -4.827  0.00  0.00    -0.082 A 
ATOM      4  C2  PXY d   1       3.671  -5.771  -5.039  0.00  0.00     0.003 A 
ATOM      5  C3  PXY d   1       2.814  -6.000  -3.993  0.00  0.00     0.003 A 
ATOM      6  C4  PXY d   1       3.194  -5.708  -2.710  0.00  0.00    -0.082 A 
ATOM      7  C5  PXY d   1       4.404  -5.153  -2.484  0.00  0.00     0.003 A 
ATOM      8  C6  PXY d   1       5.242  -4.891  -3.564  0.00  0.00     0.003 A 
ENDROOT
TORSDOF 0
ENDMDL
