MODEL 1
REMARK minimizedAffinity 0.939438164
REMARK minimizedRMSD -1
REMARK  0 active torsions:
REMARK  status: ('A' for Active; 'I' for Inactive)
ROOT
ATOM      1  C4' PXY d   1      -5.962   3.402  -5.914  0.00  0.00     0.077 C 
ATOM      2  C1' PXY d   1      -0.450   2.579  -4.377  0.00  0.00     0.077 C 
ATOM      3  C1  PXY d   1      -1.893   2.807  -4.783  0.00  0.00    -0.082 A 
ATOM      4  C2  PXY d   1      -2.839   2.010  -4.312  0.00  0.00     0.003 A 
ATOM      5  C3  PXY d   1      -4.144   2.183  -4.694  0.00  0.00     0.003 A 
ATOM      6  C4  PXY d   1      -4.493   3.215  -5.524  0.00  0.00    -0.082 A 
ATOM      7  C5  PXY d   1      -3.535   4.039  -5.999  0.00  0.00     0.003 A 
ATOM      8  C6  PXY d   1      -2.210   3.821  -5.632  0.00  0.00     0.003 A 
ENDROOT
TORSDOF 0
ENDMDL
