MODEL 1
REMARK minimizedAffinity -1.01109505
REMARK minimizedRMSD -1
REMARK  0 active torsions:
REMARK  status: ('A' for Active; 'I' for Inactive)
ROOT
ATOM      1  C4' PXY d   1      -0.998   2.999   1.311  0.00  0.00     0.077 C 
ATOM      2  C1' PXY d   1       4.595   1.544   1.448  0.00  0.00     0.077 C 
ATOM      3  C1  PXY d   1       3.128   1.927   1.425  0.00  0.00    -0.082 A 
ATOM      4  C2  PXY d   1       2.365   1.532   0.420  0.00  0.00     0.003 A 
ATOM      5  C3  PXY d   1       1.044   1.896   0.367  0.00  0.00     0.003 A 
ATOM      6  C4  PXY d   1       0.486   2.628   1.381  0.00  0.00    -0.082 A 
ATOM      7  C5  PXY d   1       1.256   3.026   2.416  0.00  0.00     0.003 A 
ATOM      8  C6  PXY d   1       2.604   2.680   2.430  0.00  0.00     0.003 A 
ENDROOT
TORSDOF 0
ENDMDL
