MODEL 1
REMARK minimizedAffinity 1.12762845
REMARK minimizedRMSD -1
REMARK  0 active torsions:
REMARK  status: ('A' for Active; 'I' for Inactive)
ROOT
ATOM      1  C4' PXY d   1      -1.260   3.178   3.286  0.00  0.00     0.077 C 
ATOM      2  C1' PXY d   1       3.003   1.547  -0.261  0.00  0.00     0.077 C 
ATOM      3  C1  PXY d   1       1.877   1.977   0.659  0.00  0.00    -0.082 A 
ATOM      4  C2  PXY d   1       2.154   2.369   1.892  0.00  0.00     0.003 A 
ATOM      5  C3  PXY d   1       1.146   2.731   2.748  0.00  0.00     0.003 A 
ATOM      6  C4  PXY d   1      -0.155   2.743   2.320  0.00  0.00    -0.082 A 
ATOM      7  C5  PXY d   1      -0.444   2.355   1.060  0.00  0.00     0.003 A 
ATOM      8  C6  PXY d   1       0.590   1.952   0.220  0.00  0.00     0.003 A 
ENDROOT
TORSDOF 0
ENDMDL
