MODEL 1
REMARK minimizedAffinity 1.9309057
REMARK minimizedRMSD -1
REMARK  0 active torsions:
REMARK  status: ('A' for Active; 'I' for Inactive)
ROOT
ATOM      1  C4' PXY d   1       6.000  -5.551  -2.788  0.00  0.00     0.077 C 
ATOM      2  C1' PXY d   1       1.214  -6.000  -5.998  0.00  0.00     0.077 C 
ATOM      3  C1  PXY d   1       2.476  -5.886  -5.167  0.00  0.00    -0.082 A 
ATOM      4  C2  PXY d   1       2.398  -5.952  -3.847  0.00  0.00     0.003 A 
ATOM      5  C3  PXY d   1       3.526  -5.819  -3.078  0.00  0.00     0.003 A 
ATOM      6  C4  PXY d   1       4.753  -5.671  -3.668  0.00  0.00    -0.082 A 
ATOM      7  C5  PXY d   1       4.842  -5.614  -5.014  0.00  0.00     0.003 A 
ATOM      8  C6  PXY d   1       3.681  -5.709  -5.775  0.00  0.00     0.003 A 
ENDROOT
TORSDOF 0
ENDMDL
