MODEL 1
REMARK minimizedAffinity 2.06163549
REMARK minimizedRMSD -1
REMARK  0 active torsions:
REMARK  status: ('A' for Active; 'I' for Inactive)
ROOT
ATOM      1  C4' PXY d   1       4.875   6.000   5.969  0.00  0.00     0.077 C 
ATOM      2  C1' PXY d   1       4.817   3.977   0.554  0.00  0.00     0.077 C 
ATOM      3  C1  PXY d   1       4.842   4.499   1.977  0.00  0.00    -0.082 A 
ATOM      4  C2  PXY d   1       3.758   5.060   2.487  0.00  0.00     0.003 A 
ATOM      5  C3  PXY d   1       3.772   5.566   3.762  0.00  0.00     0.003 A 
ATOM      6  C4  PXY d   1       4.893   5.450   4.540  0.00  0.00    -0.082 A 
ATOM      7  C5  PXY d   1       6.000   4.870   4.031  0.00  0.00     0.003 A 
ATOM      8  C6  PXY d   1       5.977   4.399   2.721  0.00  0.00     0.003 A 
ENDROOT
TORSDOF 0
ENDMDL
