MODEL 1
REMARK minimizedAffinity 10.722621
REMARK minimizedRMSD -1
REMARK  0 active torsions:
REMARK  status: ('A' for Active; 'I' for Inactive)
ROOT
ATOM      1  C4' PXY d   1       5.451   4.934   2.475  0.00  0.00     0.077 C 
ATOM      2  C1' PXY d   1       1.342   1.540   0.235  0.00  0.00     0.077 C 
ATOM      3  C1  PXY d   1       2.419   2.438   0.812  0.00  0.00    -0.082 A 
ATOM      4  C2  PXY d   1       3.255   1.957   1.718  0.00  0.00     0.003 A 
ATOM      5  C3  PXY d   1       4.215   2.764   2.274  0.00  0.00     0.003 A 
ATOM      6  C4  PXY d   1       4.354   4.061   1.858  0.00  0.00    -0.082 A 
ATOM      7  C5  PXY d   1       3.512   4.556   0.926  0.00  0.00     0.003 A 
ATOM      8  C6  PXY d   1       2.519   3.732   0.405  0.00  0.00     0.003 A 
ENDROOT
TORSDOF 0
ENDMDL
