MODEL 1
REMARK minimizedAffinity 2.59875631
REMARK minimizedRMSD -1
REMARK  0 active torsions:
REMARK  status: ('A' for Active; 'I' for Inactive)
ROOT
ATOM      1  C4' PXY d   1      -0.634   2.335  -4.034  0.00  0.00     0.077 C 
ATOM      2  C1' PXY d   1      -5.997   3.230  -5.999  0.00  0.00     0.077 C 
ATOM      3  C1  PXY d   1      -4.586   3.000  -5.495  0.00  0.00    -0.082 A 
ATOM      4  C2  PXY d   1      -4.365   2.090  -4.560  0.00  0.00     0.003 A 
ATOM      5  C3  PXY d   1      -3.100   1.892  -4.070  0.00  0.00     0.003 A 
ATOM      6  C4  PXY d   1      -2.041   2.594  -4.580  0.00  0.00    -0.082 A 
ATOM      7  C5  PXY d   1      -2.257   3.516  -5.542  0.00  0.00     0.003 A 
ATOM      8  C6  PXY d   1      -3.554   3.732  -5.996  0.00  0.00     0.003 A 
ENDROOT
TORSDOF 0
ENDMDL
