MODEL 1
REMARK minimizedAffinity -2.47179556
REMARK minimizedRMSD -1
REMARK  0 active torsions:
REMARK  status: ('A' for Active; 'I' for Inactive)
ROOT
ATOM      1  C4' PXY d   1      -0.375   3.634   3.005  0.00  0.00     0.077 C 
ATOM      2  C1' PXY d   1       3.992   1.373  -0.034  0.00  0.00     0.077 C 
ATOM      3  C1  PXY d   1       2.855   1.972   0.771  0.00  0.00    -0.082 A 
ATOM      4  C2  PXY d   1       1.683   1.360   0.803  0.00  0.00     0.003 A 
ATOM      5  C3  PXY d   1       0.635   1.904   1.500  0.00  0.00     0.003 A 
ATOM      6  C4  PXY d   1       0.804   3.060   2.214  0.00  0.00    -0.082 A 
ATOM      7  C5  PXY d   1       2.000   3.686   2.194  0.00  0.00     0.003 A 
ATOM      8  C6  PXY d   1       3.039   3.139   1.447  0.00  0.00     0.003 A 
ENDROOT
TORSDOF 0
ENDMDL
