MODEL 1
REMARK minimizedAffinity 2.67346954
REMARK minimizedRMSD -1
REMARK  0 active torsions:
REMARK  status: ('A' for Active; 'I' for Inactive)
ROOT
ATOM      1  C4' PXY d   1      -0.056   2.711  -4.122  0.00  0.00     0.077 C 
ATOM      2  C1' PXY d   1      -5.509   3.105  -6.000  0.00  0.00     0.077 C 
ATOM      3  C1  PXY d   1      -4.075   3.007  -5.519  0.00  0.00    -0.082 A 
ATOM      4  C2  PXY d   1      -3.745   2.086  -4.628  0.00  0.00     0.003 A 
ATOM      5  C3  PXY d   1      -2.460   2.004  -4.158  0.00  0.00     0.003 A 
ATOM      6  C4  PXY d   1      -1.490   2.840  -4.644  0.00  0.00    -0.082 A 
ATOM      7  C5  PXY d   1      -1.816   3.775  -5.561  0.00  0.00     0.003 A 
ATOM      8  C6  PXY d   1      -3.136   3.869  -5.995  0.00  0.00     0.003 A 
ENDROOT
TORSDOF 0
ENDMDL
