MODEL 1
REMARK minimizedAffinity 1.75166774
REMARK minimizedRMSD -1
REMARK  0 active torsions:
REMARK  status: ('A' for Active; 'I' for Inactive)
ROOT
ATOM      1  C4' PXY d   1       2.333  -5.183  -1.533  0.00  0.00     0.077 C 
ATOM      2  C1' PXY d   1       6.000  -5.372  -5.998  0.00  0.00     0.077 C 
ATOM      3  C1  PXY d   1       5.048  -5.320  -4.819  0.00  0.00    -0.082 A 
ATOM      4  C2  PXY d   1       3.912  -5.996  -4.865  0.00  0.00     0.003 A 
ATOM      5  C3  PXY d   1       3.025  -5.934  -3.821  0.00  0.00     0.003 A 
ATOM      6  C4  PXY d   1       3.328  -5.215  -2.696  0.00  0.00    -0.082 A 
ATOM      7  C5  PXY d   1       4.490  -4.530  -2.637  0.00  0.00     0.003 A 
ATOM      8  C6  PXY d   1       5.358  -4.573  -3.724  0.00  0.00     0.003 A 
ENDROOT
TORSDOF 0
ENDMDL
