MODEL 1
REMARK minimizedAffinity 5.1987524
REMARK minimizedRMSD -1
REMARK  0 active torsions:
REMARK  status: ('A' for Active; 'I' for Inactive)
ROOT
ATOM      1  C4' PXY d   1       2.107  -5.995  -1.814  0.00  0.00     0.077 C 
ATOM      2  C1' PXY d   1       5.837  -4.586  -6.000  0.00  0.00     0.077 C 
ATOM      3  C1  PXY d   1       4.868  -4.954  -4.893  0.00  0.00    -0.082 A 
ATOM      4  C2  PXY d   1       3.799  -5.681  -5.175  0.00  0.00     0.003 A 
ATOM      5  C3  PXY d   1       2.896  -5.996  -4.192  0.00  0.00     0.003 A 
ATOM      6  C4  PXY d   1       3.117  -5.608  -2.898  0.00  0.00    -0.082 A 
ATOM      7  C5  PXY d   1       4.210  -4.874  -2.601  0.00  0.00     0.003 A 
ATOM      8  C6  PXY d   1       5.093  -4.530  -3.620  0.00  0.00     0.003 A 
ENDROOT
TORSDOF 0
ENDMDL
