MODEL 1
REMARK minimizedAffinity 3.98762751
REMARK minimizedRMSD -1
REMARK  0 active torsions:
REMARK  status: ('A' for Active; 'I' for Inactive)
ROOT
ATOM      1  C4' PXY d   1      -0.112   2.189   0.693  0.00  0.00     0.077 C 
ATOM      2  C1' PXY d   1       5.651   1.976   1.086  0.00  0.00     0.077 C 
ATOM      3  C1  PXY d   1       4.141   2.032   0.970  0.00  0.00    -0.082 A 
ATOM      4  C2  PXY d   1       3.427   2.545   1.959  0.00  0.00     0.003 A 
ATOM      5  C3  PXY d   1       2.058   2.574   1.884  0.00  0.00     0.003 A 
ATOM      6  C4  PXY d   1       1.416   2.121   0.763  0.00  0.00    -0.082 A 
ATOM      7  C5  PXY d   1       2.138   1.606  -0.255  0.00  0.00     0.003 A 
ATOM      8  C6  PXY d   1       3.524   1.548  -0.142  0.00  0.00     0.003 A 
ENDROOT
TORSDOF 0
ENDMDL
