MODEL 1
REMARK minimizedAffinity 3.40526032
REMARK minimizedRMSD -1
REMARK  0 active torsions:
REMARK  status: ('A' for Active; 'I' for Inactive)
ROOT
ATOM      1  C4' PXY d   1       2.681  -5.977  -0.834  0.00  0.00     0.077 C 
ATOM      2  C1' PXY d   1       5.217  -5.430  -5.999  0.00  0.00     0.077 C 
ATOM      3  C1  PXY d   1       4.562  -5.580  -4.640  0.00  0.00    -0.082 A 
ATOM      4  C2  PXY d   1       3.247  -5.480  -4.533  0.00  0.00     0.003 A 
ATOM      5  C3  PXY d   1       2.641  -5.582  -3.307  0.00  0.00     0.003 A 
ATOM      6  C4  PXY d   1       3.384  -5.841  -2.187  0.00  0.00    -0.082 A 
ATOM      7  C5  PXY d   1       4.725  -5.955  -2.289  0.00  0.00     0.003 A 
ATOM      8  C6  PXY d   1       5.325  -5.808  -3.537  0.00  0.00     0.003 A 
ENDROOT
TORSDOF 0
ENDMDL
