MODEL 1
REMARK minimizedAffinity 4.38294601
REMARK minimizedRMSD -1
REMARK  0 active torsions:
REMARK  status: ('A' for Active; 'I' for Inactive)
ROOT
ATOM      1  C4' PXY d   1      -5.995   3.148  -6.000  0.00  0.00     0.077 C 
ATOM      2  C1' PXY d   1      -0.665   2.513  -3.856  0.00  0.00     0.077 C 
ATOM      3  C1  PXY d   1      -2.066   2.668  -4.413  0.00  0.00    -0.082 A 
ATOM      4  C2  PXY d   1      -2.261   3.394  -5.501  0.00  0.00     0.003 A 
ATOM      5  C3  PXY d   1      -3.526   3.572  -6.000  0.00  0.00     0.003 A 
ATOM      6  C4  PXY d   1      -4.596   2.956  -5.408  0.00  0.00    -0.082 A 
ATOM      7  C5  PXY d   1      -4.405   2.205  -4.303  0.00  0.00     0.003 A 
ATOM      8  C6  PXY d   1      -3.118   2.071  -3.789  0.00  0.00     0.003 A 
ENDROOT
TORSDOF 0
ENDMDL
