MODEL 1
REMARK minimizedAffinity 0.000565471768
REMARK minimizedRMSD -1
REMARK  0 active torsions:
REMARK  status: ('A' for Active; 'I' for Inactive)
ROOT
ATOM      1  C4' PXY d   1       2.213  -5.209  -1.652  0.00  0.00     0.077 C 
ATOM      2  C1' PXY d   1       6.000  -5.621  -6.000  0.00  0.00     0.077 C 
ATOM      3  C1  PXY d   1       5.017  -5.513  -4.851  0.00  0.00    -0.082 A 
ATOM      4  C2  PXY d   1       3.757  -5.875  -5.033  0.00  0.00     0.003 A 
ATOM      5  C3  PXY d   1       2.847  -5.754  -4.014  0.00  0.00     0.003 A 
ATOM      6  C4  PXY d   1       3.243  -5.309  -2.781  0.00  0.00    -0.082 A 
ATOM      7  C5  PXY d   1       4.529  -4.949  -2.584  0.00  0.00     0.003 A 
ATOM      8  C6  PXY d   1       5.428  -5.040  -3.643  0.00  0.00     0.003 A 
ENDROOT
TORSDOF 0
ENDMDL
