MODEL 1
REMARK minimizedAffinity 3.15576291
REMARK minimizedRMSD -1
REMARK  0 active torsions:
REMARK  status: ('A' for Active; 'I' for Inactive)
ROOT
ATOM      1  C4' PXY d   1       5.234  -5.199  -6.000  0.00  0.00     0.077 C 
ATOM      2  C1' PXY d   1       2.153  -5.505  -1.118  0.00  0.00     0.077 C 
ATOM      3  C1  PXY d   1       2.955  -5.435  -2.403  0.00  0.00    -0.082 A 
ATOM      4  C2  PXY d   1       4.124  -4.816  -2.411  0.00  0.00     0.003 A 
ATOM      5  C3  PXY d   1       4.848  -4.716  -3.572  0.00  0.00     0.003 A 
ATOM      6  C4  PXY d   1       4.395  -5.302  -4.723  0.00  0.00    -0.082 A 
ATOM      7  C5  PXY d   1       3.208  -5.945  -4.720  0.00  0.00     0.003 A 
ATOM      8  C6  PXY d   1       2.470  -6.000  -3.542  0.00  0.00     0.003 A 
ENDROOT
TORSDOF 0
ENDMDL
