MODEL 1
REMARK minimizedAffinity 7.37527227
REMARK minimizedRMSD -1
REMARK  0 active torsions:
REMARK  status: ('A' for Active; 'I' for Inactive)
ROOT
ATOM      1  C   UNL d   1       4.500  -1.330  -1.870  0.00  0.00     0.172 C 
ATOM      2  N   UNL d   1       4.763  -0.117  -2.607  0.00  0.00    -0.070 N 
ATOM      3  C1  UNL d   1       6.000   0.349  -2.964  0.00  0.00    -0.004 A 
ATOM      4  C2  UNL d   1       5.824   1.529  -3.653  0.00  0.00    -0.047 A 
ATOM      5  C3  UNL d   1       4.433   1.783  -3.711  0.00  0.00    -0.047 A 
ATOM      6  C4  UNL d   1       3.800   0.748  -3.056  0.00  0.00    -0.004 A 
ENDROOT
TORSDOF 0
ENDMDL
