MODEL 1
REMARK minimizedAffinity 3.17404366
REMARK minimizedRMSD -1
REMARK  0 active torsions:
REMARK  status: ('A' for Active; 'I' for Inactive)
ROOT
ATOM      1  C   UNL d   1       2.466  -0.953   1.848  0.00  0.00     0.172 C 
ATOM      2  N   UNL d   1       1.106  -1.308   2.181  0.00  0.00    -0.070 N 
ATOM      3  C1  UNL d   1       0.349  -2.253   1.542  0.00  0.00    -0.004 A 
ATOM      4  C2  UNL d   1      -0.884  -2.292   2.158  0.00  0.00    -0.047 A 
ATOM      5  C3  UNL d   1      -0.866  -1.337   3.202  0.00  0.00    -0.047 A 
ATOM      6  C4  UNL d   1       0.378  -0.742   3.194  0.00  0.00    -0.004 A 
ENDROOT
TORSDOF 0
ENDMDL
