MODEL 1
REMARK minimizedAffinity 6.40315056
REMARK minimizedRMSD -1
REMARK  0 active torsions:
REMARK  status: ('A' for Active; 'I' for Inactive)
ROOT
ATOM      1  C   UNL d   1       2.387  -5.877   3.678  0.00  0.00     0.172 C 
ATOM      2  N   UNL d   1       3.657  -5.922   4.363  0.00  0.00    -0.070 N 
ATOM      3  C1  UNL d   1       4.887  -5.965   3.763  0.00  0.00    -0.004 A 
ATOM      4  C2  UNL d   1       5.841  -5.999   4.757  0.00  0.00    -0.047 A 
ATOM      5  C3  UNL d   1       5.161  -5.976   5.998  0.00  0.00    -0.047 A 
ATOM      6  C4  UNL d   1       3.810  -5.929   5.724  0.00  0.00    -0.004 A 
ENDROOT
TORSDOF 0
ENDMDL
