MODEL 1
REMARK minimizedAffinity 7.97237015
REMARK minimizedRMSD -1
REMARK  0 active torsions:
REMARK  status: ('A' for Active; 'I' for Inactive)
ROOT
ATOM      1  C   UNL d   1       3.232  -0.430   1.452  0.00  0.00     0.172 C 
ATOM      2  N   UNL d   1       1.959  -0.911   1.934  0.00  0.00    -0.070 N 
ATOM      3  C1  UNL d   1       1.277  -1.993   1.446  0.00  0.00    -0.004 A 
ATOM      4  C2  UNL d   1       0.112  -2.120   2.171  0.00  0.00    -0.047 A 
ATOM      5  C3  UNL d   1       0.093  -1.077   3.127  0.00  0.00    -0.047 A 
ATOM      6  C4  UNL d   1       1.248  -0.343   2.958  0.00  0.00    -0.004 A 
ENDROOT
TORSDOF 0
ENDMDL
