MODEL 1
REMARK minimizedAffinity 5.85238218
REMARK minimizedRMSD -1
REMARK  0 active torsions:
REMARK  status: ('A' for Active; 'I' for Inactive)
ROOT
ATOM      1  C   UNL d   1       5.998  -2.574  -6.000  0.00  0.00     0.172 C 
ATOM      2  N   UNL d   1       5.641  -1.892  -4.778  0.00  0.00    -0.070 N 
ATOM      3  C1  UNL d   1       6.000  -2.278  -3.514  0.00  0.00    -0.004 A 
ATOM      4  C2  UNL d   1       5.464  -1.369  -2.628  0.00  0.00    -0.047 A 
ATOM      5  C3  UNL d   1       4.758  -0.404  -3.385  0.00  0.00    -0.047 A 
ATOM      6  C4  UNL d   1       4.884  -0.752  -4.713  0.00  0.00    -0.004 A 
ENDROOT
TORSDOF 0
ENDMDL
