MODEL 1
REMARK minimizedAffinity 7.58140278
REMARK minimizedRMSD -1
REMARK  0 active torsions:
REMARK  status: ('A' for Active; 'I' for Inactive)
ROOT
ATOM      1  C   UNL d   1       4.521  -0.375  -3.361  0.00  0.00     0.172 C 
ATOM      2  N   UNL d   1       4.900  -1.434  -4.267  0.00  0.00    -0.070 N 
ATOM      3  C1  UNL d   1       5.990  -2.250  -4.130  0.00  0.00    -0.004 A 
ATOM      4  C2  UNL d   1       5.999  -3.125  -5.195  0.00  0.00    -0.047 A 
ATOM      5  C3  UNL d   1       4.876  -2.824  -6.000  0.00  0.00    -0.047 A 
ATOM      6  C4  UNL d   1       4.212  -1.773  -5.403  0.00  0.00    -0.004 A 
ENDROOT
TORSDOF 0
ENDMDL
