MODEL 1
REMARK minimizedAffinity 10.4867268
REMARK minimizedRMSD -1
REMARK  0 active torsions:
REMARK  status: ('A' for Active; 'I' for Inactive)
ROOT
ATOM      1  C   UNL d   1      -2.036   3.960  -6.000  0.00  0.00     0.172 C 
ATOM      2  N   UNL d   1      -2.224   4.472  -4.663  0.00  0.00    -0.070 N 
ATOM      3  C1  UNL d   1      -2.443   3.717  -3.542  0.00  0.00    -0.004 A 
ATOM      4  C2  UNL d   1      -2.570   4.576  -2.472  0.00  0.00    -0.047 A 
ATOM      5  C3  UNL d   1      -2.422   5.894  -2.967  0.00  0.00    -0.047 A 
ATOM      6  C4  UNL d   1      -2.209   5.800  -4.326  0.00  0.00    -0.004 A 
ENDROOT
TORSDOF 0
ENDMDL
