MODEL 1
REMARK minimizedAffinity 12.157074
REMARK minimizedRMSD -1
REMARK  0 active torsions:
REMARK  status: ('A' for Active; 'I' for Inactive)
ROOT
ATOM      1  C   UNL d   1       1.145   5.999   0.369  0.00  0.00     0.172 C 
ATOM      2  N   UNL d   1       1.163   4.559   0.254  0.00  0.00    -0.070 N 
ATOM      3  C1  UNL d   1       0.106   3.775  -0.124  0.00  0.00    -0.004 A 
ATOM      4  C2  UNL d   1       0.527   2.463  -0.109  0.00  0.00    -0.047 A 
ATOM      5  C3  UNL d   1       1.884   2.458   0.292  0.00  0.00    -0.047 A 
ATOM      6  C4  UNL d   1       2.252   3.769   0.511  0.00  0.00    -0.004 A 
ENDROOT
TORSDOF 0
ENDMDL
