MODEL 1
REMARK minimizedAffinity 8.27146339
REMARK minimizedRMSD -1
REMARK  0 active torsions:
REMARK  status: ('A' for Active; 'I' for Inactive)
ROOT
ATOM      1  C   UNL d   1      -2.991   3.609  -5.999  0.00  0.00     0.172 C 
ATOM      2  N   UNL d   1      -2.696   4.120  -4.681  0.00  0.00    -0.070 N 
ATOM      3  C1  UNL d   1      -2.613   3.375  -3.535  0.00  0.00    -0.004 A 
ATOM      4  C2  UNL d   1      -2.313   4.229  -2.496  0.00  0.00    -0.047 A 
ATOM      5  C3  UNL d   1      -2.213   5.534  -3.036  0.00  0.00    -0.047 A 
ATOM      6  C4  UNL d   1      -2.455   5.437  -4.390  0.00  0.00    -0.004 A 
ENDROOT
TORSDOF 0
ENDMDL
