MODEL 1
REMARK minimizedAffinity 8.77443314
REMARK minimizedRMSD -1
REMARK  0 active torsions:
REMARK  status: ('A' for Active; 'I' for Inactive)
ROOT
ATOM      1  C   UNL d   1       3.878  -0.333   2.231  0.00  0.00     0.172 C 
ATOM      2  N   UNL d   1       2.546  -0.542   2.750  0.00  0.00    -0.070 N 
ATOM      3  C1  UNL d   1       2.103  -0.158   3.988  0.00  0.00    -0.004 A 
ATOM      4  C2  UNL d   1       0.782  -0.537   4.099  0.00  0.00    -0.047 A 
ATOM      5  C3  UNL d   1       0.420  -1.171   2.887  0.00  0.00    -0.047 A 
ATOM      6  C4  UNL d   1       1.531  -1.161   2.070  0.00  0.00    -0.004 A 
ENDROOT
TORSDOF 0
ENDMDL
