MODEL 1
REMARK minimizedAffinity 5.80780077
REMARK minimizedRMSD -1
REMARK  0 active torsions:
REMARK  status: ('A' for Active; 'I' for Inactive)
ROOT
ATOM      1  C   UNL d   1       3.662   0.488   2.926  0.00  0.00     0.172 C 
ATOM      2  N   UNL d   1       2.403   0.071   3.497  0.00  0.00    -0.070 N 
ATOM      3  C1  UNL d   1       2.045   0.189   4.814  0.00  0.00    -0.004 A 
ATOM      4  C2  UNL d   1       0.773  -0.321   4.953  0.00  0.00    -0.047 A 
ATOM      5  C3  UNL d   1       0.351  -0.762   3.676  0.00  0.00    -0.047 A 
ATOM      6  C4  UNL d   1       1.379  -0.507   2.793  0.00  0.00    -0.004 A 
ENDROOT
TORSDOF 0
ENDMDL
