MODEL 1
REMARK minimizedAffinity 2.00536013
REMARK minimizedRMSD -1
REMARK  0 active torsions:
REMARK  status: ('A' for Active; 'I' for Inactive)
ROOT
ATOM      1  C   UNL d   1      -1.559  -3.184   2.915  0.00  0.00     0.172 C 
ATOM      2  N   UNL d   1      -0.407  -2.369   2.606  0.00  0.00    -0.070 N 
ATOM      3  C1  UNL d   1      -0.158  -1.118   3.101  0.00  0.00    -0.004 A 
ATOM      4  C2  UNL d   1       1.035  -0.682   2.568  0.00  0.00    -0.047 A 
ATOM      5  C3  UNL d   1       1.520  -1.708   1.721  0.00  0.00    -0.047 A 
ATOM      6  C4  UNL d   1       0.607  -2.740   1.763  0.00  0.00    -0.004 A 
ENDROOT
TORSDOF 0
ENDMDL
