MODEL 1
REMARK minimizedAffinity 7.24947405
REMARK minimizedRMSD -1
REMARK  0 active torsions:
REMARK  status: ('A' for Active; 'I' for Inactive)
ROOT
ATOM      1  C   UNL d   1      -0.424  -0.708   4.509  0.00  0.00     0.172 C 
ATOM      2  N   UNL d   1       0.160  -1.105   3.250  0.00  0.00    -0.070 N 
ATOM      3  C1  UNL d   1       0.874  -0.294   2.409  0.00  0.00    -0.004 A 
ATOM      4  C2  UNL d   1       1.257  -1.046   1.320  0.00  0.00    -0.047 A 
ATOM      5  C3  UNL d   1       0.755  -2.355   1.512  0.00  0.00    -0.047 A 
ATOM      6  C4  UNL d   1       0.080  -2.364   2.714  0.00  0.00    -0.004 A 
ENDROOT
TORSDOF 0
ENDMDL
