MODEL 1
REMARK minimizedAffinity 1.66415489
REMARK minimizedRMSD -1
REMARK  0 active torsions:
REMARK  status: ('A' for Active; 'I' for Inactive)
ROOT
ATOM      1  C   UNL d   1      -1.832  -3.337   3.416  0.00  0.00     0.172 C 
ATOM      2  N   UNL d   1      -0.799  -2.349   3.212  0.00  0.00    -0.070 N 
ATOM      3  C1  UNL d   1      -0.443  -1.370   4.101  0.00  0.00    -0.004 A 
ATOM      4  C2  UNL d   1       0.578  -0.636   3.536  0.00  0.00    -0.047 A 
ATOM      5  C3  UNL d   1       0.844  -1.193   2.262  0.00  0.00    -0.047 A 
ATOM      6  C4  UNL d   1      -0.022  -2.252   2.087  0.00  0.00    -0.004 A 
ENDROOT
TORSDOF 0
ENDMDL
