MODEL 1
REMARK minimizedAffinity 3.74710894
REMARK minimizedRMSD -1
REMARK  0 active torsions:
REMARK  status: ('A' for Active; 'I' for Inactive)
ROOT
ATOM      1  C   UNL d   1      -1.880   4.120  -5.998  0.00  0.00     0.172 C 
ATOM      2  N   UNL d   1      -2.037   4.364  -4.584  0.00  0.00    -0.070 N 
ATOM      3  C1  UNL d   1      -2.012   5.592  -3.977  0.00  0.00    -0.004 A 
ATOM      4  C2  UNL d   1      -2.198   5.399  -2.626  0.00  0.00    -0.047 A 
ATOM      5  C3  UNL d   1      -2.339   4.007  -2.412  0.00  0.00    -0.047 A 
ATOM      6  C4  UNL d   1      -2.236   3.390  -3.641  0.00  0.00    -0.004 A 
ENDROOT
TORSDOF 0
ENDMDL
