MODEL 1
REMARK minimizedAffinity 3.82834864
REMARK minimizedRMSD -1
REMARK  0 active torsions:
REMARK  status: ('A' for Active; 'I' for Inactive)
ROOT
ATOM      1  C   UNL d   1      -2.374   2.995  -3.044  0.00  0.00     0.172 C 
ATOM      2  N   UNL d   1      -2.249   4.035  -4.038  0.00  0.00    -0.070 N 
ATOM      3  C1  UNL d   1      -1.872   5.329  -3.798  0.00  0.00    -0.004 A 
ATOM      4  C2  UNL d   1      -1.875   6.000  -5.001  0.00  0.00    -0.047 A 
ATOM      5  C3  UNL d   1      -2.268   5.078  -6.000  0.00  0.00    -0.047 A 
ATOM      6  C4  UNL d   1      -2.494   3.869  -5.376  0.00  0.00    -0.004 A 
ENDROOT
TORSDOF 0
ENDMDL
