MODEL 1
REMARK minimizedAffinity 7.79602528
REMARK minimizedRMSD -1
REMARK  1 active torsions:
REMARK  status: ('A' for Active; 'I' for Inactive)
REMARK    1  A    between atoms: N_2  and  C1_3 
ROOT
ATOM      1  C1  UNL d   1       0.763  -2.342  -0.557  0.00  0.00     0.143 A 
ATOM      2  C2  UNL d   1       1.194  -1.617   0.559  0.00  0.00    -0.057 A 
ATOM      3  C3  UNL d   1       1.899  -2.235   1.599  0.00  0.00     0.033 A 
ATOM      4  C4  UNL d   1       2.161  -3.601   1.554  0.00  0.00    -0.042 A 
ATOM      5  C5  UNL d   1       1.720  -4.346   0.466  0.00  0.00     0.033 A 
ATOM      6  C6  UNL d   1       1.023  -3.721  -0.572  0.00  0.00    -0.057 A 
ENDROOT
BRANCH   1   7
ATOM      7  N   UNL d   1      -0.027  -1.805  -1.576  0.00  0.00    -0.732 N 
ATOM      8  C   UNL d   1      -1.297  -1.181  -1.273  0.00  0.00     0.284 C 
ATOM      9  H3  UNL d   1       0.523  -1.309  -2.274  0.00  0.00     0.395 HD
ENDBRANCH   1   7
TORSDOF 1
ENDMDL
