MODEL 1
REMARK minimizedAffinity 0.668308377
REMARK minimizedRMSD -1
REMARK  1 active torsions:
REMARK  status: ('A' for Active; 'I' for Inactive)
REMARK    1  A    between atoms: N_2  and  C1_3 
ROOT
ATOM      1  C1  UNL d   1      -5.771   1.398  -4.835  0.00  0.00     0.143 A 
ATOM      2  C2  UNL d   1      -5.956   0.015  -4.938  0.00  0.00    -0.057 A 
ATOM      3  C3  UNL d   1      -6.000  -0.798  -3.799  0.00  0.00     0.033 A 
ATOM      4  C4  UNL d   1      -5.829  -0.244  -2.535  0.00  0.00    -0.042 A 
ATOM      5  C5  UNL d   1      -5.618   1.125  -2.410  0.00  0.00     0.033 A 
ATOM      6  C6  UNL d   1      -5.582   1.932  -3.551  0.00  0.00    -0.057 A 
ENDROOT
BRANCH   1   7
ATOM      7  N   UNL d   1      -5.620   2.246  -5.935  0.00  0.00    -0.732 N 
ATOM      8  C   UNL d   1      -4.516   3.180  -6.000  0.00  0.00     0.284 C 
ATOM      9  H3  UNL d   1      -5.821   1.780  -6.816  0.00  0.00     0.395 HD
ENDBRANCH   1   7
TORSDOF 1
ENDMDL
