MODEL 1
REMARK minimizedAffinity 6.85461664
REMARK minimizedRMSD -1
REMARK  1 active torsions:
REMARK  status: ('A' for Active; 'I' for Inactive)
REMARK    1  A    between atoms: N_2  and  C1_3 
ROOT
ATOM      1  C1  UNL d   1       4.756  -5.778  -3.537  0.00  0.00     0.143 A 
ATOM      2  C2  UNL d   1       5.432  -5.607  -4.750  0.00  0.00    -0.057 A 
ATOM      3  C3  UNL d   1       4.744  -5.605  -5.970  0.00  0.00     0.033 A 
ATOM      4  C4  UNL d   1       3.368  -5.803  -6.000  0.00  0.00    -0.042 A 
ATOM      5  C5  UNL d   1       2.679  -6.000  -4.809  0.00  0.00     0.033 A 
ATOM      6  C6  UNL d   1       3.370  -5.995  -3.593  0.00  0.00    -0.057 A 
ENDROOT
BRANCH   1   7
ATOM      7  N   UNL d   1       5.395  -5.888  -2.299  0.00  0.00    -0.732 N 
ATOM      8  C   UNL d   1       4.624  -5.999  -1.079  0.00  0.00     0.284 C 
ATOM      9  H3  UNL d   1       6.207  -6.500  -2.335  0.00  0.00     0.395 HD
ENDBRANCH   1   7
TORSDOF 1
ENDMDL
