MODEL 1
REMARK minimizedAffinity 9.31533432
REMARK minimizedRMSD -1
REMARK  1 active torsions:
REMARK  status: ('A' for Active; 'I' for Inactive)
REMARK    1  A    between atoms: N_2  and  C1_3 
ROOT
ATOM      1  C1  UNL d   1       2.718   0.511   2.173  0.00  0.00     0.143 A 
ATOM      2  C2  UNL d   1       1.909  -0.312   1.383  0.00  0.00    -0.057 A 
ATOM      3  C3  UNL d   1       1.466  -1.556   1.847  0.00  0.00     0.033 A 
ATOM      4  C4  UNL d   1       1.849  -2.013   3.104  0.00  0.00    -0.042 A 
ATOM      5  C5  UNL d   1       2.674  -1.222   3.897  0.00  0.00     0.033 A 
ATOM      6  C6  UNL d   1       3.107   0.022   3.430  0.00  0.00    -0.057 A 
ENDROOT
BRANCH   1   7
ATOM      7  N   UNL d   1       3.272   1.715   1.730  0.00  0.00    -0.732 N 
ATOM      8  C   UNL d   1       2.999   2.205   0.396  0.00  0.00     0.284 C 
ATOM      9  H3  UNL d   1       3.260   2.436   2.448  0.00  0.00     0.395 HD
ENDBRANCH   1   7
TORSDOF 1
ENDMDL
