MODEL 1
REMARK minimizedAffinity 7.69600248
REMARK minimizedRMSD -1
REMARK  1 active torsions:
REMARK  status: ('A' for Active; 'I' for Inactive)
REMARK    1  A    between atoms: N_2  and  C1_3 
ROOT
ATOM      1  C1  UNL d   1       3.657  -1.124   2.226  0.00  0.00     0.143 A 
ATOM      2  C2  UNL d   1       3.105  -2.134   3.022  0.00  0.00    -0.057 A 
ATOM      3  C3  UNL d   1       1.940  -1.917   3.767  0.00  0.00     0.033 A 
ATOM      4  C4  UNL d   1       1.320  -0.672   3.753  0.00  0.00    -0.042 A 
ATOM      5  C5  UNL d   1       1.865   0.354   2.989  0.00  0.00     0.033 A 
ATOM      6  C6  UNL d   1       3.024   0.129   2.242  0.00  0.00    -0.057 A 
ENDROOT
BRANCH   1   7
ATOM      7  N   UNL d   1       4.867  -1.247   1.540  0.00  0.00    -0.732 N 
ATOM      8  C   UNL d   1       5.997  -1.913   2.152  0.00  0.00     0.284 C 
ATOM      9  H3  UNL d   1       4.735  -1.473   0.557  0.00  0.00     0.395 HD
ENDBRANCH   1   7
TORSDOF 1
ENDMDL
