MODEL 1
REMARK minimizedAffinity 8.80367184
REMARK minimizedRMSD -1
REMARK  1 active torsions:
REMARK  status: ('A' for Active; 'I' for Inactive)
REMARK    1  A    between atoms: N_2  and  C1_3 
ROOT
ATOM      1  C1  UNL d   1      -5.323   2.994   0.153  0.00  0.00     0.143 A 
ATOM      2  C2  UNL d   1      -5.966   2.845   1.386  0.00  0.00    -0.057 A 
ATOM      3  C3  UNL d   1      -5.246   2.544   2.549  0.00  0.00     0.033 A 
ATOM      4  C4  UNL d   1      -3.869   2.357   2.493  0.00  0.00    -0.042 A 
ATOM      5  C5  UNL d   1      -3.212   2.476   1.273  0.00  0.00     0.033 A 
ATOM      6  C6  UNL d   1      -3.936   2.783   0.117  0.00  0.00    -0.057 A 
ENDROOT
BRANCH   1   7
ATOM      7  N   UNL d   1      -5.995   3.195  -1.055  0.00  0.00    -0.732 N 
ATOM      8  C   UNL d   1      -5.803   2.288  -2.166  0.00  0.00     0.284 C 
ATOM      9  H3  UNL d   1      -6.960   3.487  -0.919  0.00  0.00     0.395 HD
ENDBRANCH   1   7
TORSDOF 1
ENDMDL
