MODEL 1
REMARK minimizedAffinity -2.52048874
REMARK minimizedRMSD -1
REMARK  1 active torsions:
REMARK  status: ('A' for Active; 'I' for Inactive)
REMARK    1  A    between atoms: C1_2  and  C2_3 
ROOT
ATOM      1  C2  UNL d   1       0.119  -0.009  -0.025  0.00  0.00    -0.076 A 
ATOM      2  C3  UNL d   1      -0.237   1.011  -0.924  0.00  0.00     0.004 A 
ATOM      3  C4  UNL d   1      -1.136   2.011  -0.555  0.00  0.00    -0.003 A 
ATOM      4  C5  UNL d   1      -1.693   2.006   0.719  0.00  0.00     0.000 A 
ATOM      5  C6  UNL d   1      -1.338   1.012   1.629  0.00  0.00     0.000 A 
ATOM      6  C7  UNL d   1      -0.420   0.006   1.279  0.00  0.00    -0.073 A 
ATOM      7  C8  UNL d   1      -0.078  -1.045   2.299  0.00  0.00     0.078 C 
ENDROOT
BRANCH   1   8
ATOM      8  C1  UNL d   1       1.078  -1.081  -0.489  0.00  0.00     0.053 C 
ATOM      9  C   UNL d   1       0.490  -1.953  -1.588  0.00  0.00     0.018 C 
ENDBRANCH   1   8
TORSDOF 1
ENDMDL
