MODEL 1
REMARK minimizedAffinity -3.27800131
REMARK minimizedRMSD -1
REMARK  1 active torsions:
REMARK  status: ('A' for Active; 'I' for Inactive)
REMARK    1  A    between atoms: C1_2  and  C2_3 
ROOT
ATOM      1  C2  UNL d   1      -0.429   0.462  -0.109  0.00  0.00    -0.076 A 
ATOM      2  C3  UNL d   1      -1.385   1.333  -0.660  0.00  0.00     0.004 A 
ATOM      3  C4  UNL d   1      -2.256   2.050   0.158  0.00  0.00    -0.003 A 
ATOM      4  C5  UNL d   1      -2.185   1.909   1.539  0.00  0.00     0.000 A 
ATOM      5  C6  UNL d   1      -1.231   1.063   2.103  0.00  0.00     0.000 A 
ATOM      6  C7  UNL d   1      -0.334   0.345   1.294  0.00  0.00    -0.073 A 
ATOM      7  C8  UNL d   1       0.670  -0.559   1.955  0.00  0.00     0.078 C 
ENDROOT
BRANCH   1   8
ATOM      8  C1  UNL d   1       0.472  -0.311  -1.047  0.00  0.00     0.053 C 
ATOM      9  C   UNL d   1      -0.154  -1.616  -1.512  0.00  0.00     0.018 C 
ENDBRANCH   1   8
TORSDOF 1
ENDMDL
