MODEL 1
REMARK minimizedAffinity -2.73183155
REMARK minimizedRMSD -1
REMARK  1 active torsions:
REMARK  status: ('A' for Active; 'I' for Inactive)
REMARK    1  A    between atoms: C1_2  and  C2_3 
ROOT
ATOM      1  C2  UNL d   1       0.374   0.063  -0.160  0.00  0.00    -0.076 A 
ATOM      2  C3  UNL d   1      -0.132   0.953  -1.124  0.00  0.00     0.004 A 
ATOM      3  C4  UNL d   1      -1.125   1.875  -0.798  0.00  0.00    -0.003 A 
ATOM      4  C5  UNL d   1      -1.628   1.924   0.497  0.00  0.00     0.000 A 
ATOM      5  C6  UNL d   1      -1.125   1.061   1.471  0.00  0.00     0.000 A 
ATOM      6  C7  UNL d   1      -0.112   0.136   1.163  0.00  0.00    -0.073 A 
ATOM      7  C8  UNL d   1       0.389  -0.774   2.250  0.00  0.00     0.078 C 
ENDROOT
BRANCH   1   8
ATOM      8  C1  UNL d   1       1.431  -0.933  -0.579  0.00  0.00     0.053 C 
ATOM      9  C   UNL d   1       0.834  -2.221  -1.125  0.00  0.00     0.018 C 
ENDBRANCH   1   8
TORSDOF 1
ENDMDL
