MODEL 1
REMARK minimizedAffinity -3.47534728
REMARK minimizedRMSD -1
REMARK  1 active torsions:
REMARK  status: ('A' for Active; 'I' for Inactive)
REMARK    1  A    between atoms: C1_2  and  C2_3 
ROOT
ATOM      1  C2  UNL d   1       0.633  -0.605  -0.551  0.00  0.00    -0.076 A 
ATOM      2  C3  UNL d   1      -0.109  -1.076   0.547  0.00  0.00     0.004 A 
ATOM      3  C4  UNL d   1      -0.701  -0.190   1.445  0.00  0.00    -0.003 A 
ATOM      4  C5  UNL d   1      -0.562   1.181   1.260  0.00  0.00     0.000 A 
ATOM      5  C6  UNL d   1       0.155   1.666   0.167  0.00  0.00     0.000 A 
ATOM      6  C7  UNL d   1       0.745   0.786  -0.757  0.00  0.00    -0.073 A 
ATOM      7  C8  UNL d   1       1.513   1.364  -1.915  0.00  0.00     0.078 C 
ENDROOT
BRANCH   1   8
ATOM      8  C1  UNL d   1       1.276  -1.613  -1.476  0.00  0.00     0.053 C 
ATOM      9  C   UNL d   1       0.252  -2.465  -2.211  0.00  0.00     0.018 C 
ENDBRANCH   1   8
TORSDOF 1
ENDMDL
