MODEL 1
REMARK minimizedAffinity 5.69488001
REMARK minimizedRMSD -1
REMARK  1 active torsions:
REMARK  status: ('A' for Active; 'I' for Inactive)
REMARK    1  A    between atoms: C1_2  and  C2_3 
ROOT
ATOM      1  C2  UNL d   1       0.501   0.563  -0.278  0.00  0.00    -0.076 A 
ATOM      2  C3  UNL d   1       0.572   1.950  -0.499  0.00  0.00     0.004 A 
ATOM      3  C4  UNL d   1      -0.502   2.643  -1.054  0.00  0.00    -0.003 A 
ATOM      4  C5  UNL d   1      -1.665   1.961  -1.397  0.00  0.00     0.000 A 
ATOM      5  C6  UNL d   1      -1.758   0.589  -1.169  0.00  0.00     0.000 A 
ATOM      6  C7  UNL d   1      -0.691  -0.123  -0.595  0.00  0.00    -0.073 A 
ATOM      7  C8  UNL d   1      -0.844  -1.603  -0.377  0.00  0.00     0.078 C 
ENDROOT
BRANCH   1   8
ATOM      8  C1  UNL d   1       1.708  -0.140   0.301  0.00  0.00     0.053 C 
ATOM      9  C   UNL d   1       1.418  -0.776   1.652  0.00  0.00     0.018 C 
ENDBRANCH   1   8
TORSDOF 1
ENDMDL
