MODEL 1
REMARK minimizedAffinity -3.56458616
REMARK minimizedRMSD -1
REMARK  1 active torsions:
REMARK  status: ('A' for Active; 'I' for Inactive)
REMARK    1  A    between atoms: C1_2  and  C2_3 
ROOT
ATOM      1  C2  UNL d   1      -0.252   0.438   0.463  0.00  0.00    -0.076 A 
ATOM      2  C3  UNL d   1       0.899   0.092  -0.267  0.00  0.00     0.004 A 
ATOM      3  C4  UNL d   1       1.494   1.000  -1.141  0.00  0.00    -0.003 A 
ATOM      4  C5  UNL d   1       0.949   2.269  -1.299  0.00  0.00     0.000 A 
ATOM      5  C6  UNL d   1      -0.182   2.636  -0.569  0.00  0.00     0.000 A 
ATOM      6  C7  UNL d   1      -0.785   1.738   0.328  0.00  0.00    -0.073 A 
ATOM      7  C8  UNL d   1      -2.006   2.184   1.085  0.00  0.00     0.078 C 
ENDROOT
BRANCH   1   8
ATOM      8  C1  UNL d   1      -0.869  -0.598   1.376  0.00  0.00     0.053 C 
ATOM      9  C   UNL d   1       0.129  -1.166   2.372  0.00  0.00     0.018 C 
ENDBRANCH   1   8
TORSDOF 1
ENDMDL
