MODEL 1
REMARK minimizedAffinity -4.11891317
REMARK minimizedRMSD -1
REMARK  1 active torsions:
REMARK  status: ('A' for Active; 'I' for Inactive)
REMARK    1  A    between atoms: C1_2  and  C2_3 
ROOT
ATOM      1  C2  UNL d   1      -0.088  -0.133   0.403  0.00  0.00    -0.076 A 
ATOM      2  C3  UNL d   1      -0.693  -0.536   1.606  0.00  0.00     0.004 A 
ATOM      3  C4  UNL d   1      -1.609   0.287   2.259  0.00  0.00    -0.003 A 
ATOM      4  C5  UNL d   1      -1.936   1.526   1.719  0.00  0.00     0.000 A 
ATOM      5  C6  UNL d   1      -1.358   1.935   0.517  0.00  0.00     0.000 A 
ATOM      6  C7  UNL d   1      -0.445   1.110  -0.162  0.00  0.00    -0.073 A 
ATOM      7  C8  UNL d   1       0.152   1.603  -1.452  0.00  0.00     0.078 C 
ENDROOT
BRANCH   1   8
ATOM      8  C1  UNL d   1       0.918  -1.056  -0.246  0.00  0.00     0.053 C 
ATOM      9  C   UNL d   1       0.264  -2.082  -1.159  0.00  0.00     0.018 C 
ENDBRANCH   1   8
TORSDOF 1
ENDMDL
