MODEL 1
REMARK minimizedAffinity -4.20433569
REMARK minimizedRMSD -1
REMARK  1 active torsions:
REMARK  status: ('A' for Active; 'I' for Inactive)
REMARK    1  A    between atoms: C1_2  and  C2_3 
ROOT
ATOM      1  C2  UNL d   1       0.157   0.358   0.179  0.00  0.00    -0.076 A 
ATOM      2  C3  UNL d   1      -0.391   1.399  -0.591  0.00  0.00     0.004 A 
ATOM      3  C4  UNL d   1      -1.431   2.185  -0.098  0.00  0.00    -0.003 A 
ATOM      4  C5  UNL d   1      -1.939   1.945   1.173  0.00  0.00     0.000 A 
ATOM      5  C6  UNL d   1      -1.396   0.929   1.958  0.00  0.00     0.000 A 
ATOM      6  C7  UNL d   1      -0.337   0.137   1.483  0.00  0.00    -0.073 A 
ATOM      7  C8  UNL d   1       0.207  -0.950   2.370  0.00  0.00     0.078 C 
ENDROOT
BRANCH   1   8
ATOM      8  C1  UNL d   1       1.264  -0.480  -0.419  0.00  0.00     0.053 C 
ATOM      9  C   UNL d   1       0.737  -1.593  -1.310  0.00  0.00     0.018 C 
ENDBRANCH   1   8
TORSDOF 1
ENDMDL
