MODEL 1
REMARK minimizedAffinity -3.08066463
REMARK minimizedRMSD -1
REMARK  1 active torsions:
REMARK  status: ('A' for Active; 'I' for Inactive)
REMARK    1  A    between atoms: C1_2  and  C2_3 
ROOT
ATOM      1  C2  UNL d   1       0.468  -0.261  -0.158  0.00  0.00    -0.076 A 
ATOM      2  C3  UNL d   1       0.144   0.812  -1.005  0.00  0.00     0.004 A 
ATOM      3  C4  UNL d   1      -0.774   1.785  -0.612  0.00  0.00    -0.003 A 
ATOM      4  C5  UNL d   1      -1.381   1.700   0.636  0.00  0.00     0.000 A 
ATOM      5  C6  UNL d   1      -1.058   0.652   1.497  0.00  0.00     0.000 A 
ATOM      6  C7  UNL d   1      -0.123  -0.328   1.122  0.00  0.00    -0.073 A 
ATOM      7  C8  UNL d   1       0.183  -1.441   2.087  0.00  0.00     0.078 C 
ENDROOT
BRANCH   1   8
ATOM      8  C1  UNL d   1       1.449  -1.301  -0.650  0.00  0.00     0.053 C 
ATOM      9  C   UNL d   1       0.790  -2.360  -1.520  0.00  0.00     0.018 C 
ENDBRANCH   1   8
TORSDOF 1
ENDMDL
