MODEL 1
REMARK minimizedAffinity -2.52180886
REMARK minimizedRMSD -1
REMARK  1 active torsions:
REMARK  status: ('A' for Active; 'I' for Inactive)
REMARK    1  A    between atoms: C1_2  and  C2_3 
ROOT
ATOM      1  C2  UNL d   1      -0.019  -0.474   0.047  0.00  0.00    -0.076 A 
ATOM      2  C3  UNL d   1      -0.130   0.617  -0.831  0.00  0.00     0.004 A 
ATOM      3  C4  UNL d   1      -0.734   1.806  -0.425  0.00  0.00    -0.003 A 
ATOM      4  C5  UNL d   1      -1.236   1.923   0.866  0.00  0.00     0.000 A 
ATOM      5  C6  UNL d   1      -1.118   0.856   1.756  0.00  0.00     0.000 A 
ATOM      6  C7  UNL d   1      -0.498  -0.344   1.368  0.00  0.00    -0.073 A 
ATOM      7  C8  UNL d   1      -0.403  -1.464   2.367  0.00  0.00     0.078 C 
ENDROOT
BRANCH   1   8
ATOM      8  C1  UNL d   1       0.622  -1.748  -0.458  0.00  0.00     0.053 C 
ATOM      9  C   UNL d   1      -0.016  -2.251  -1.743  0.00  0.00     0.018 C 
ENDBRANCH   1   8
TORSDOF 1
ENDMDL
