MODEL 1
REMARK minimizedAffinity -2.97796106
REMARK minimizedRMSD -1
REMARK  1 active torsions:
REMARK  status: ('A' for Active; 'I' for Inactive)
REMARK    1  A    between atoms: C1_2  and  C2_3 
ROOT
ATOM      1  C2  UNL d   1      -0.333   0.715   0.767  0.00  0.00    -0.076 A 
ATOM      2  C3  UNL d   1      -0.192   1.395  -0.455  0.00  0.00     0.004 A 
ATOM      3  C4  UNL d   1       0.613   0.884  -1.472  0.00  0.00    -0.003 A 
ATOM      4  C5  UNL d   1       1.290  -0.316  -1.283  0.00  0.00     0.000 A 
ATOM      5  C6  UNL d   1       1.148  -1.012  -0.083  0.00  0.00     0.000 A 
ATOM      6  C7  UNL d   1       0.327  -0.519   0.946  0.00  0.00    -0.073 A 
ATOM      7  C8  UNL d   1       0.215  -1.309   2.221  0.00  0.00     0.078 C 
ENDROOT
BRANCH   1   8
ATOM      8  C1  UNL d   1      -1.198   1.331   1.844  0.00  0.00     0.053 C 
ATOM      9  C   UNL d   1      -2.203   2.326   1.284  0.00  0.00     0.018 C 
ENDBRANCH   1   8
TORSDOF 1
ENDMDL
