MODEL 1
REMARK minimizedAffinity -5.51383638
REMARK minimizedRMSD -1
REMARK  1 active torsions:
REMARK  status: ('A' for Active; 'I' for Inactive)
REMARK    1  A    between atoms: C1_2  and  C2_3 
ROOT
ATOM      1  C2  UNL d   1      -0.096   0.199   0.002  0.00  0.00    -0.076 A 
ATOM      2  C3  UNL d   1      -0.510   1.306  -0.759  0.00  0.00     0.004 A 
ATOM      3  C4  UNL d   1      -1.323   2.294  -0.205  0.00  0.00    -0.003 A 
ATOM      4  C5  UNL d   1      -1.734   2.191   1.120  0.00  0.00     0.000 A 
ATOM      5  C6  UNL d   1      -1.318   1.108   1.894  0.00  0.00     0.000 A 
ATOM      6  C7  UNL d   1      -0.485   0.112   1.356  0.00  0.00    -0.073 A 
ATOM      7  C8  UNL d   1      -0.072  -1.036   2.235  0.00  0.00     0.078 C 
ENDROOT
BRANCH   1   8
ATOM      8  C1  UNL d   1       0.763  -0.855  -0.660  0.00  0.00     0.053 C 
ATOM      9  C   UNL d   1      -0.060  -1.884  -1.420  0.00  0.00     0.018 C 
ENDBRANCH   1   8
TORSDOF 1
ENDMDL
