MODEL 1
REMARK minimizedAffinity -1.84121668
REMARK minimizedRMSD -1
REMARK  1 active torsions:
REMARK  status: ('A' for Active; 'I' for Inactive)
REMARK    1  A    between atoms: C1_2  and  C2_3 
ROOT
ATOM      1  C2  UNL d   1       0.413  -0.950  -0.780  0.00  0.00    -0.076 A 
ATOM      2  C3  UNL d   1      -0.759  -1.200  -0.044  0.00  0.00     0.004 A 
ATOM      3  C4  UNL d   1      -1.393  -0.180   0.663  0.00  0.00    -0.003 A 
ATOM      4  C5  UNL d   1      -0.866   1.107   0.645  0.00  0.00     0.000 A 
ATOM      5  C6  UNL d   1       0.285   1.377  -0.094  0.00  0.00     0.000 A 
ATOM      6  C7  UNL d   1       0.928   0.363  -0.825  0.00  0.00    -0.073 A 
ATOM      7  C8  UNL d   1       2.170   0.709  -1.600  0.00  0.00     0.078 C 
ENDROOT
BRANCH   1   8
ATOM      8  C1  UNL d   1       1.072  -2.102  -1.505  0.00  0.00     0.053 C 
ATOM      9  C   UNL d   1       0.178  -2.701  -2.581  0.00  0.00     0.018 C 
ENDBRANCH   1   8
TORSDOF 1
ENDMDL
