MODEL 1
REMARK minimizedAffinity -3.75758529
REMARK minimizedRMSD -1
REMARK  1 active torsions:
REMARK  status: ('A' for Active; 'I' for Inactive)
REMARK    1  A    between atoms: C1_2  and  C2_3 
ROOT
ATOM      1  C2  UNL d   1      -0.414   1.176   0.835  0.00  0.00    -0.076 A 
ATOM      2  C3  UNL d   1      -0.204   1.942  -0.325  0.00  0.00     0.004 A 
ATOM      3  C4  UNL d   1       0.666   1.508  -1.323  0.00  0.00    -0.003 A 
ATOM      4  C5  UNL d   1       1.340   0.301  -1.178  0.00  0.00     0.000 A 
ATOM      5  C6  UNL d   1       1.131  -0.480  -0.042  0.00  0.00     0.000 A 
ATOM      6  C7  UNL d   1       0.245  -0.065   0.966  0.00  0.00    -0.073 A 
ATOM      7  C8  UNL d   1       0.062  -0.944   2.173  0.00  0.00     0.078 C 
ENDROOT
BRANCH   1   8
ATOM      8  C1  UNL d   1      -1.349   1.710   1.897  0.00  0.00     0.053 C 
ATOM      9  C   UNL d   1      -2.481   2.541   1.312  0.00  0.00     0.018 C 
ENDBRANCH   1   8
TORSDOF 1
ENDMDL
