MODEL 1
REMARK minimizedAffinity -6.07383871
REMARK minimizedRMSD -1
REMARK  1 active torsions:
REMARK  status: ('A' for Active; 'I' for Inactive)
REMARK    1  A    between atoms: C1_2  and  C2_3 
ROOT
ATOM      1  C2  UNL d   1      -0.223  -0.498  -0.172  0.00  0.00    -0.076 A 
ATOM      2  C3  UNL d   1      -1.147   0.324  -0.840  0.00  0.00     0.004 A 
ATOM      3  C4  UNL d   1      -1.893   1.276  -0.147  0.00  0.00    -0.003 A 
ATOM      4  C5  UNL d   1      -1.726   1.422   1.226  0.00  0.00     0.000 A 
ATOM      5  C6  UNL d   1      -0.801   0.627   1.902  0.00  0.00     0.000 A 
ATOM      6  C7  UNL d   1      -0.029  -0.326   1.215  0.00  0.00    -0.073 A 
ATOM      7  C8  UNL d   1       0.949  -1.161   1.995  0.00  0.00     0.078 C 
ENDROOT
BRANCH   1   8
ATOM      8  C1  UNL d   1       0.537  -1.532  -0.972  0.00  0.00     0.053 C 
ATOM      9  C   UNL d   1      -0.187  -1.929  -2.249  0.00  0.00     0.018 C 
ENDBRANCH   1   8
TORSDOF 1
ENDMDL
