MODEL 1
REMARK minimizedAffinity 1.93661344
REMARK minimizedRMSD -1
REMARK  1 active torsions:
REMARK  status: ('A' for Active; 'I' for Inactive)
REMARK    1  A    between atoms: C3_4  and  O_7 
ROOT
ATOM      1  C   UNL d   1      -2.063  -0.151   0.088  0.00  0.00    -0.033 A 
ATOM      2  C1  UNL d   1      -1.075  -0.812  -0.644  0.00  0.00     0.039 A 
ATOM      3  C2  UNL d   1       0.214  -0.939  -0.124  0.00  0.00    -0.080 A 
ATOM      4  C3  UNL d   1       0.502  -0.403   1.128  0.00  0.00     0.150 A 
ATOM      5  C4  UNL d   1      -0.478   0.254   1.865  0.00  0.00    -0.007 A 
ATOM      6  C5  UNL d   1      -1.765   0.380   1.343  0.00  0.00     0.039 A 
ENDROOT
BRANCH   4   7
ATOM      7  O   UNL d   1       1.747  -0.498   1.675  0.00  0.00    -0.526 OA
ATOM      8  H5  UNL d   1       2.328  -0.951   1.041  0.00  0.00     0.418 HD
ENDBRANCH   4   7
TORSDOF 1
ENDMDL
