MODEL 1
REMARK minimizedAffinity -2.26941466
REMARK minimizedRMSD -1
REMARK  1 active torsions:
REMARK  status: ('A' for Active; 'I' for Inactive)
REMARK    1  A    between atoms: C3_4  and  O_7 
ROOT
ATOM      1  C   UNL d   1      -2.665  -0.164   1.229  0.00  0.00    -0.033 A 
ATOM      2  C1  UNL d   1      -2.257  -0.573  -0.042  0.00  0.00     0.039 A 
ATOM      3  C2  UNL d   1      -0.931  -0.951  -0.263  0.00  0.00    -0.080 A 
ATOM      4  C3  UNL d   1      -0.025  -0.916   0.794  0.00  0.00     0.150 A 
ATOM      5  C4  UNL d   1      -0.426  -0.513   2.064  0.00  0.00    -0.007 A 
ATOM      6  C5  UNL d   1      -1.751  -0.135   2.282  0.00  0.00     0.039 A 
ENDROOT
BRANCH   4   7
ATOM      7  O   UNL d   1       1.280  -1.271   0.626  0.00  0.00    -0.526 OA
ATOM      8  H5  UNL d   1       1.419  -1.499  -0.308  0.00  0.00     0.418 HD
ENDBRANCH   4   7
TORSDOF 1
ENDMDL
