MODEL 1
REMARK minimizedAffinity 0.683317065
REMARK minimizedRMSD -1
REMARK  1 active torsions:
REMARK  status: ('A' for Active; 'I' for Inactive)
REMARK    1  A    between atoms: C3_4  and  O_7 
ROOT
ATOM      1  C   UNL d   1      -0.883  -1.189  -1.189  0.00  0.00    -0.033 A 
ATOM      2  C1  UNL d   1      -0.002  -0.874  -0.153  0.00  0.00     0.039 A 
ATOM      3  C2  UNL d   1      -0.484  -0.308   1.029  0.00  0.00    -0.080 A 
ATOM      4  C3  UNL d   1      -1.848  -0.065   1.163  0.00  0.00     0.150 A 
ATOM      5  C4  UNL d   1      -2.733  -0.380   0.137  0.00  0.00    -0.007 A 
ATOM      6  C5  UNL d   1      -2.249  -0.944  -1.043  0.00  0.00     0.039 A 
ENDROOT
BRANCH   4   7
ATOM      7  O   UNL d   1      -2.365   0.490   2.296  0.00  0.00    -0.526 OA
ATOM      8  H5  UNL d   1      -1.633   0.681   2.907  0.00  0.00     0.418 HD
ENDBRANCH   4   7
TORSDOF 1
ENDMDL
