MODEL 1
REMARK minimizedAffinity -3.10969234
REMARK minimizedRMSD -1
REMARK  1 active torsions:
REMARK  status: ('A' for Active; 'I' for Inactive)
REMARK    1  A    between atoms: C3_4  and  O_7 
ROOT
ATOM      1  C   UNL d   1      -0.415  -0.004   2.254  0.00  0.00    -0.033 A 
ATOM      2  C1  UNL d   1       0.767  -0.146   1.523  0.00  0.00     0.039 A 
ATOM      3  C2  UNL d   1       1.901  -0.695   2.124  0.00  0.00    -0.080 A 
ATOM      4  C3  UNL d   1       1.840  -1.098   3.455  0.00  0.00     0.150 A 
ATOM      5  C4  UNL d   1       0.666  -0.964   4.188  0.00  0.00    -0.007 A 
ATOM      6  C5  UNL d   1      -0.465  -0.415   3.586  0.00  0.00     0.039 A 
ENDROOT
BRANCH   4   7
ATOM      7  O   UNL d   1       2.923  -1.635   4.087  0.00  0.00    -0.526 OA
ATOM      8  H5  UNL d   1       3.670  -1.640   3.466  0.00  0.00     0.418 HD
ENDBRANCH   4   7
TORSDOF 1
ENDMDL
