MODEL 1
REMARK minimizedAffinity 1.65198231
REMARK minimizedRMSD -1
REMARK  1 active torsions:
REMARK  status: ('A' for Active; 'I' for Inactive)
REMARK    1  A    between atoms: C3_4  and  O_7 
ROOT
ATOM      1  C   UNL d   1       2.119  -1.820   5.017  0.00  0.00    -0.033 A 
ATOM      2  C1  UNL d   1       0.808  -1.734   4.545  0.00  0.00     0.039 A 
ATOM      3  C2  UNL d   1       0.555  -1.217   3.273  0.00  0.00    -0.080 A 
ATOM      4  C3  UNL d   1       1.620  -0.791   2.484  0.00  0.00     0.150 A 
ATOM      5  C4  UNL d   1       2.929  -0.877   2.947  0.00  0.00    -0.007 A 
ATOM      6  C5  UNL d   1       3.180  -1.393   4.217  0.00  0.00     0.039 A 
ENDROOT
BRANCH   4   7
ATOM      7  O   UNL d   1       1.422  -0.274   1.238  0.00  0.00    -0.526 OA
ATOM      8  H5  UNL d   1       0.466  -0.250   1.063  0.00  0.00     0.418 HD
ENDBRANCH   4   7
TORSDOF 1
ENDMDL
