MODEL 1
REMARK minimizedAffinity -0.338925898
REMARK minimizedRMSD -1
REMARK  1 active torsions:
REMARK  status: ('A' for Active; 'I' for Inactive)
REMARK    1  A    between atoms: C3_4  and  O_7 
ROOT
ATOM      1  C   UNL d   1      -2.627   0.006   0.012  0.00  0.00    -0.033 A 
ATOM      2  C1  UNL d   1      -1.679  -0.479  -0.892  0.00  0.00     0.039 A 
ATOM      3  C2  UNL d   1      -0.366  -0.707  -0.475  0.00  0.00    -0.080 A 
ATOM      4  C3  UNL d   1      -0.014  -0.447   0.847  0.00  0.00     0.150 A 
ATOM      5  C4  UNL d   1      -0.954   0.033   1.754  0.00  0.00    -0.007 A 
ATOM      6  C5  UNL d   1      -2.264   0.260   1.335  0.00  0.00     0.039 A 
ENDROOT
BRANCH   4   7
ATOM      7  O   UNL d   1       1.256  -0.648   1.299  0.00  0.00    -0.526 OA
ATOM      8  H5  UNL d   1       1.802  -0.954   0.556  0.00  0.00     0.418 HD
ENDBRANCH   4   7
TORSDOF 1
ENDMDL
