MODEL 1
REMARK minimizedAffinity 7.88951445
REMARK minimizedRMSD -1
REMARK  0 active torsions:
REMARK  status: ('A' for Active; 'I' for Inactive)
ROOT
ATOM      1  O1  BZF d   1       2.126   0.689   4.537  0.00  0.00    -0.204 OA
ATOM      2  C2  BZF d   1       1.362   0.726   3.387  0.00  0.00     0.174 A 
ATOM      3  C3  BZF d   1       1.905   1.560   2.477  0.00  0.00    -0.012 A 
ATOM      4  C3A BZF d   1       3.132   2.007   3.062  0.00  0.00    -0.107 A 
ATOM      5  C4  BZF d   1       4.126   2.841   2.636  0.00  0.00     0.055 A 
ATOM      6  C5  BZF d   1       5.154   3.127   3.477  0.00  0.00    -0.016 A 
ATOM      7  C6  BZF d   1       5.217   2.602   4.751  0.00  0.00     0.022 A 
ATOM      8  C7  BZF d   1       4.257   1.766   5.217  0.00  0.00     0.029 A 
ATOM      9  C7A BZF d   1       3.234   1.449   4.357  0.00  0.00     0.058 A 
ENDROOT
TORSDOF 0
ENDMDL
