MODEL 1
REMARK minimizedAffinity 1.20107245
REMARK minimizedRMSD -1
REMARK  0 active torsions:
REMARK  status: ('A' for Active; 'I' for Inactive)
ROOT
ATOM      1  O1  BZF d   1       2.588   1.201  -0.738  0.00  0.00    -0.204 OA
ATOM      2  C2  BZF d   1       3.808   0.589  -0.955  0.00  0.00     0.174 A 
ATOM      3  C3  BZF d   1       3.678  -0.753  -0.945  0.00  0.00    -0.012 A 
ATOM      4  C3A BZF d   1       2.275  -0.994  -0.799  0.00  0.00    -0.107 A 
ATOM      5  C4  BZF d   1       1.519  -2.130  -0.738  0.00  0.00     0.055 A 
ATOM      6  C5  BZF d   1       0.182  -2.023  -0.518  0.00  0.00    -0.016 A 
ATOM      7  C6  BZF d   1      -0.430  -0.798  -0.350  0.00  0.00     0.022 A 
ATOM      8  C7  BZF d   1       0.278   0.357  -0.407  0.00  0.00     0.029 A 
ATOM      9  C7A BZF d   1       1.623   0.253  -0.662  0.00  0.00     0.058 A 
ENDROOT
TORSDOF 0
ENDMDL
