MODEL 1
REMARK minimizedAffinity -0.905042648
REMARK minimizedRMSD -1
REMARK  0 active torsions:
REMARK  status: ('A' for Active; 'I' for Inactive)
ROOT
ATOM      1  O1  BZF d   1       3.067  -2.799  -2.177  0.00  0.00    -0.204 OA
ATOM      2  C2  BZF d   1       4.028  -3.244  -3.064  0.00  0.00     0.174 A 
ATOM      3  C3  BZF d   1       4.907  -2.262  -3.351  0.00  0.00    -0.012 A 
ATOM      4  C3A BZF d   1       4.521  -1.159  -2.524  0.00  0.00    -0.107 A 
ATOM      5  C4  BZF d   1       5.020   0.100  -2.345  0.00  0.00     0.055 A 
ATOM      6  C5  BZF d   1       4.367   0.957  -1.517  0.00  0.00    -0.016 A 
ATOM      7  C6  BZF d   1       3.212   0.591  -0.857  0.00  0.00     0.022 A 
ATOM      8  C7  BZF d   1       2.683  -0.648  -0.999  0.00  0.00     0.029 A 
ATOM      9  C7A BZF d   1       3.358  -1.528  -1.809  0.00  0.00     0.058 A 
ENDROOT
TORSDOF 0
ENDMDL
