MODEL 1
REMARK minimizedAffinity 2.17069101
REMARK minimizedRMSD -1
REMARK  0 active torsions:
REMARK  status: ('A' for Active; 'I' for Inactive)
ROOT
ATOM      1  O1  BZF d   1       4.425   0.946  -0.769  0.00  0.00    -0.204 OA
ATOM      2  C2  BZF d   1       5.647   1.249  -1.337  0.00  0.00     0.174 A 
ATOM      3  C3  BZF d   1       6.000   0.311  -2.240  0.00  0.00    -0.012 A 
ATOM      4  C3A BZF d   1       4.889  -0.588  -2.303  0.00  0.00    -0.107 A 
ATOM      5  C4  BZF d   1       4.632  -1.715  -3.031  0.00  0.00     0.055 A 
ATOM      6  C5  BZF d   1       3.482  -2.402  -2.802  0.00  0.00    -0.016 A 
ATOM      7  C6  BZF d   1       2.570  -1.994  -1.851  0.00  0.00     0.022 A 
ATOM      8  C7  BZF d   1       2.778  -0.880  -1.108  0.00  0.00     0.029 A 
ATOM      9  C7A BZF d   1       3.924  -0.165  -1.359  0.00  0.00     0.058 A 
ENDROOT
TORSDOF 0
ENDMDL
