MODEL 1
REMARK minimizedAffinity 6.77816153
REMARK minimizedRMSD -1
REMARK  0 active torsions:
REMARK  status: ('A' for Active; 'I' for Inactive)
ROOT
ATOM      1  O1  BZF d   1      -1.067  -0.979  -0.356  0.00  0.00    -0.204 OA
ATOM      2  C2  BZF d   1      -1.051   0.362  -0.022  0.00  0.00     0.174 A 
ATOM      3  C3  BZF d   1       0.187   0.877  -0.170  0.00  0.00    -0.012 A 
ATOM      4  C3A BZF d   1       0.975  -0.187  -0.713  0.00  0.00    -0.107 A 
ATOM      5  C4  BZF d   1       2.282  -0.288  -1.093  0.00  0.00     0.055 A 
ATOM      6  C5  BZF d   1       2.757  -1.489  -1.516  0.00  0.00    -0.016 A 
ATOM      7  C6  BZF d   1       1.955  -2.610  -1.565  0.00  0.00     0.022 A 
ATOM      8  C7  BZF d   1       0.650  -2.558  -1.203  0.00  0.00     0.029 A 
ATOM      9  C7A BZF d   1       0.159  -1.338  -0.807  0.00  0.00     0.058 A 
ENDROOT
TORSDOF 0
ENDMDL
