MODEL 1
REMARK minimizedAffinity -1.53354418
REMARK minimizedRMSD -1
REMARK  0 active torsions:
REMARK  status: ('A' for Active; 'I' for Inactive)
ROOT
ATOM      1  O1  BZF d   1      -0.642  -0.161  -2.224  0.00  0.00    -0.204 OA
ATOM      2  C2  BZF d   1      -1.174  -1.389  -2.567  0.00  0.00     0.174 A 
ATOM      3  C3  BZF d   1      -0.408  -2.392  -2.093  0.00  0.00    -0.012 A 
ATOM      4  C3A BZF d   1       0.621  -1.752  -1.331  0.00  0.00    -0.107 A 
ATOM      5  C4  BZF d   1       1.677  -2.218  -0.602  0.00  0.00     0.055 A 
ATOM      6  C5  BZF d   1       2.536  -1.327  -0.041  0.00  0.00    -0.016 A 
ATOM      7  C6  BZF d   1       2.373   0.034  -0.193  0.00  0.00     0.022 A 
ATOM      8  C7  BZF d   1       1.337   0.544  -0.903  0.00  0.00     0.029 A 
ATOM      9  C7A BZF d   1       0.449  -0.353  -1.444  0.00  0.00     0.058 A 
ENDROOT
TORSDOF 0
ENDMDL
