MODEL 1
REMARK minimizedAffinity 0.148282021
REMARK minimizedRMSD -1
REMARK  0 active torsions:
REMARK  status: ('A' for Active; 'I' for Inactive)
ROOT
ATOM      1  O1  BZF d   1       2.789   0.418  -0.885  0.00  0.00    -0.204 OA
ATOM      2  C2  BZF d   1       3.188  -0.784  -1.435  0.00  0.00     0.174 A 
ATOM      3  C3  BZF d   1       2.220  -1.714  -1.305  0.00  0.00    -0.012 A 
ATOM      4  C3A BZF d   1       1.114  -1.026  -0.714  0.00  0.00    -0.107 A 
ATOM      5  C4  BZF d   1      -0.146  -1.410  -0.352  0.00  0.00     0.055 A 
ATOM      6  C5  BZF d   1      -0.957  -0.513   0.268  0.00  0.00    -0.016 A 
ATOM      7  C6  BZF d   1      -0.540   0.772   0.546  0.00  0.00     0.022 A 
ATOM      8  C7  BZF d   1       0.699   1.201   0.202  0.00  0.00     0.029 A 
ATOM      9  C7A BZF d   1       1.509   0.307  -0.455  0.00  0.00     0.058 A 
ENDROOT
TORSDOF 0
ENDMDL
