MODEL 1
REMARK minimizedAffinity 4.94809055
REMARK minimizedRMSD -1
REMARK  2 active torsions:
REMARK  status: ('A' for Active; 'I' for Inactive)
REMARK    1  A    between atoms: C2'_3  and  C1'_4 
REMARK    2  A    between atoms: C1'_4  and  C1_5 
ROOT
ATOM      1  C1  I4B d   1       0.378   1.599   2.663  0.00  0.00    -0.075 A 
ATOM      2  C2  I4B d   1       1.131   0.700   1.950  0.00  0.00     0.003 A 
ATOM      3  C3  I4B d   1       1.575  -0.499   2.559  0.00  0.00     0.002 A 
ATOM      4  C4  I4B d   1       1.287  -0.733   3.889  0.00  0.00    -0.004 A 
ATOM      5  C5  I4B d   1       0.504   0.169   4.603  0.00  0.00     0.002 A 
ATOM      6  C6  I4B d   1       0.036   1.337   3.983  0.00  0.00     0.003 A 
ENDROOT
BRANCH   1   7
ATOM      7  C1' I4B d   1      -0.046   2.870   1.998  0.00  0.00     0.060 C 
BRANCH   7   8
ATOM      8  C2' I4B d   1      -1.466   2.687   1.503  0.00  0.00    -0.013 C 
ATOM      9  C4' I4B d   1      -2.206   1.670   2.331  0.00  0.00     0.013 C 
ATOM     10  C3' I4B d   1      -2.148   4.022   1.548  0.00  0.00     0.013 C 
ENDBRANCH   7   8
ENDBRANCH   1   7
TORSDOF 2
ENDMDL
