MODEL 1
REMARK minimizedAffinity 10.3064013
REMARK minimizedRMSD -1
REMARK  2 active torsions:
REMARK  status: ('A' for Active; 'I' for Inactive)
REMARK    1  A    between atoms: C2'_3  and  C1'_4 
REMARK    2  A    between atoms: C1'_4  and  C1_5 
ROOT
ATOM      1  C1  I4B d   1      -2.815   1.976  -2.059  0.00  0.00    -0.075 A 
ATOM      2  C2  I4B d   1      -2.903   0.627  -1.824  0.00  0.00     0.003 A 
ATOM      3  C3  I4B d   1      -1.740  -0.179  -1.853  0.00  0.00     0.002 A 
ATOM      4  C4  I4B d   1      -0.524   0.393  -2.169  0.00  0.00    -0.004 A 
ATOM      5  C5  I4B d   1      -0.433   1.765  -2.384  0.00  0.00     0.002 A 
ATOM      6  C6  I4B d   1      -1.583   2.564  -2.316  0.00  0.00     0.003 A 
ENDROOT
BRANCH   1   7
ATOM      7  C1' I4B d   1      -4.069   2.793  -2.052  0.00  0.00     0.060 C 
BRANCH   7   8
ATOM      8  C2' I4B d   1      -3.683   4.241  -2.273  0.00  0.00    -0.013 C 
ATOM      9  C4' I4B d   1      -4.136   4.726  -3.625  0.00  0.00     0.013 C 
ATOM     10  C3' I4B d   1      -4.296   5.056  -1.173  0.00  0.00     0.013 C 
ENDBRANCH   7   8
ENDBRANCH   1   7
TORSDOF 2
ENDMDL
