MODEL 1
REMARK minimizedAffinity 8.02476788
REMARK minimizedRMSD -1
REMARK  2 active torsions:
REMARK  status: ('A' for Active; 'I' for Inactive)
REMARK    1  A    between atoms: C2'_3  and  C1'_4 
REMARK    2  A    between atoms: C1'_4  and  C1_5 
ROOT
ATOM      1  C1  I4B d   1      -4.096  -0.543   2.323  0.00  0.00    -0.075 A 
ATOM      2  C2  I4B d   1      -3.384  -1.472   3.040  0.00  0.00     0.003 A 
ATOM      3  C3  I4B d   1      -3.984  -2.140   4.135  0.00  0.00     0.002 A 
ATOM      4  C4  I4B d   1      -5.272  -1.814   4.508  0.00  0.00    -0.004 A 
ATOM      5  C5  I4B d   1      -6.000  -0.888   3.766  0.00  0.00     0.002 A 
ATOM      6  C6  I4B d   1      -5.413  -0.257   2.659  0.00  0.00     0.003 A 
ENDROOT
BRANCH   1   7
ATOM      7  C1' I4B d   1      -3.421   0.167   1.193  0.00  0.00     0.060 C 
BRANCH   7   8
ATOM      8  C2' I4B d   1      -3.630  -0.652  -0.065  0.00  0.00    -0.013 C 
ATOM      9  C4' I4B d   1      -4.393   0.128  -1.103  0.00  0.00     0.013 C 
ATOM     10  C3' I4B d   1      -2.283  -1.064  -0.578  0.00  0.00     0.013 C 
ENDBRANCH   7   8
ENDBRANCH   1   7
TORSDOF 2
ENDMDL
