MODEL 1
REMARK minimizedAffinity 5.144979
REMARK minimizedRMSD -1
REMARK  2 active torsions:
REMARK  status: ('A' for Active; 'I' for Inactive)
REMARK    1  A    between atoms: C2'_3  and  C1'_4 
REMARK    2  A    between atoms: C1'_4  and  C1_5 
ROOT
ATOM      1  C1  I4B d   1       3.699  -3.834  -1.969  0.00  0.00    -0.075 A 
ATOM      2  C2  I4B d   1       4.309  -2.760  -2.569  0.00  0.00     0.003 A 
ATOM      3  C3  I4B d   1       4.254  -1.480  -1.967  0.00  0.00     0.002 A 
ATOM      4  C4  I4B d   1       3.540  -1.309  -0.798  0.00  0.00    -0.004 A 
ATOM      5  C5  I4B d   1       2.942  -2.403  -0.179  0.00  0.00     0.002 A 
ATOM      6  C6  I4B d   1       3.032  -3.676  -0.761  0.00  0.00     0.003 A 
ENDROOT
BRANCH   1   7
ATOM      7  C1' I4B d   1       3.749  -5.165  -2.650  0.00  0.00     0.060 C 
BRANCH   7   8
ATOM      8  C2' I4B d   1       5.167  -5.690  -2.544  0.00  0.00    -0.013 C 
ATOM      9  C4' I4B d   1       5.998  -5.256  -3.722  0.00  0.00     0.013 C 
ATOM     10  C3' I4B d   1       5.750  -5.191  -1.256  0.00  0.00     0.013 C 
ENDBRANCH   7   8
ENDBRANCH   1   7
TORSDOF 2
ENDMDL
