MODEL 1
REMARK minimizedAffinity 1.83540785
REMARK minimizedRMSD -1
REMARK  2 active torsions:
REMARK  status: ('A' for Active; 'I' for Inactive)
REMARK    1  A    between atoms: C2'_3  and  C1'_4 
REMARK    2  A    between atoms: C1'_4  and  C1_5 
ROOT
ATOM      1  C1  I4B d   1      -1.229  -1.537  -0.799  0.00  0.00    -0.075 A 
ATOM      2  C2  I4B d   1      -2.503  -1.814  -1.228  0.00  0.00     0.003 A 
ATOM      3  C3  I4B d   1      -2.833  -3.112  -1.689  0.00  0.00     0.002 A 
ATOM      4  C4  I4B d   1      -1.853  -4.081  -1.750  0.00  0.00    -0.004 A 
ATOM      5  C5  I4B d   1      -0.568  -3.804  -1.292  0.00  0.00     0.002 A 
ATOM      6  C6  I4B d   1      -0.256  -2.528  -0.802  0.00  0.00     0.003 A 
ENDROOT
BRANCH   1   7
ATOM      7  C1' I4B d   1      -0.907  -0.147  -0.349  0.00  0.00     0.060 C 
BRANCH   7   8
ATOM      8  C2' I4B d   1       0.531  -0.132   0.128  0.00  0.00    -0.013 C 
ATOM      9  C4' I4B d   1       1.373   0.798  -0.705  0.00  0.00     0.013 C 
ATOM     10  C3' I4B d   1       0.536   0.278   1.570  0.00  0.00     0.013 C 
ENDBRANCH   7   8
ENDBRANCH   1   7
TORSDOF 2
ENDMDL
