MODEL 1
REMARK minimizedAffinity -1.3347137
REMARK minimizedRMSD -1
REMARK  2 active torsions:
REMARK  status: ('A' for Active; 'I' for Inactive)
REMARK    1  A    between atoms: C2'_3  and  C1'_4 
REMARK    2  A    between atoms: C1'_4  and  C1_5 
ROOT
ATOM      1  C1  I4B d   1       0.352   0.957   0.945  0.00  0.00    -0.075 A 
ATOM      2  C2  I4B d   1       0.529   1.838   1.982  0.00  0.00     0.003 A 
ATOM      3  C3  I4B d   1       0.740   3.214   1.720  0.00  0.00     0.002 A 
ATOM      4  C4  I4B d   1       0.817   3.653   0.414  0.00  0.00    -0.004 A 
ATOM      5  C5  I4B d   1       0.614   2.762  -0.636  0.00  0.00     0.002 A 
ATOM      6  C6  I4B d   1       0.368   1.407  -0.369  0.00  0.00     0.003 A 
ENDROOT
BRANCH   1   7
ATOM      7  C1' I4B d   1       0.165  -0.494   1.257  0.00  0.00     0.060 C 
BRANCH   7   8
ATOM      8  C2' I4B d   1       1.500  -1.187   1.076  0.00  0.00    -0.013 C 
ATOM      9  C4' I4B d   1       2.140  -0.804  -0.233  0.00  0.00     0.013 C 
ATOM     10  C3' I4B d   1       2.375  -0.815   2.235  0.00  0.00     0.013 C 
ENDBRANCH   7   8
ENDBRANCH   1   7
TORSDOF 2
ENDMDL
