MODEL 1
REMARK minimizedAffinity 9.95857334
REMARK minimizedRMSD -1
REMARK  0 active torsions:
REMARK  status: ('A' for Active; 'I' for Inactive)
ROOT
ATOM      1  C4' PXY d   1      -5.913  -0.020  -1.092  0.00  0.00     0.077 C 
ATOM      2  C1' PXY d   1      -0.830   1.941  -3.023  0.00  0.00     0.077 C 
ATOM      3  C1  PXY d   1      -2.157   1.416  -2.512  0.00  0.00    -0.082 A 
ATOM      4  C2  PXY d   1      -3.284   1.836  -3.065  0.00  0.00     0.003 A 
ATOM      5  C3  PXY d   1      -4.494   1.396  -2.594  0.00  0.00     0.003 A 
ATOM      6  C4  PXY d   1      -4.550   0.476  -1.582  0.00  0.00    -0.082 A 
ATOM      7  C5  PXY d   1      -3.405   0.034  -1.020  0.00  0.00     0.003 A 
ATOM      8  C6  PXY d   1      -2.188   0.525  -1.485  0.00  0.00     0.003 A 
ENDROOT
TORSDOF 0
ENDMDL
