MODEL 1
REMARK minimizedAffinity 2.48948407
REMARK minimizedRMSD -1
REMARK  0 active torsions:
REMARK  status: ('A' for Active; 'I' for Inactive)
ROOT
ATOM      1  C4' PXY d   1       1.714  -5.840  -5.634  0.00  0.00     0.077 C 
ATOM      2  C1' PXY d   1      -3.177  -5.989  -2.556  0.00  0.00     0.077 C 
ATOM      3  C1  PXY d   1      -1.888  -5.944  -3.353  0.00  0.00    -0.082 A 
ATOM      4  C2  PXY d   1      -1.935  -5.998  -4.674  0.00  0.00     0.003 A 
ATOM      5  C3  PXY d   1      -0.777  -5.991  -5.410  0.00  0.00     0.003 A 
ATOM      6  C4  PXY d   1       0.437  -5.873  -4.789  0.00  0.00    -0.082 A 
ATOM      7  C5  PXY d   1       0.492  -5.806  -3.441  0.00  0.00     0.003 A 
ATOM      8  C6  PXY d   1      -0.692  -5.856  -2.711  0.00  0.00     0.003 A 
ENDROOT
TORSDOF 0
ENDMDL
