MODEL 1
REMARK minimizedAffinity 3.74163151
REMARK minimizedRMSD -1
REMARK  0 active torsions:
REMARK  status: ('A' for Active; 'I' for Inactive)
ROOT
ATOM      1  C4' PXY d   1      -2.165  -5.999  -3.144  0.00  0.00     0.077 C 
ATOM      2  C1' PXY d   1       3.150  -4.959  -5.163  0.00  0.00     0.077 C 
ATOM      3  C1  PXY d   1       1.752  -5.231  -4.646  0.00  0.00    -0.082 A 
ATOM      4  C2  PXY d   1       1.458  -4.966  -3.383  0.00  0.00     0.003 A 
ATOM      5  C3  PXY d   1       0.207  -5.235  -2.890  0.00  0.00     0.003 A 
ATOM      6  C4  PXY d   1      -0.769  -5.732  -3.712  0.00  0.00    -0.082 A 
ATOM      7  C5  PXY d   1      -0.480  -5.995  -5.004  0.00  0.00     0.003 A 
ATOM      8  C6  PXY d   1       0.807  -5.753  -5.474  0.00  0.00     0.003 A 
ENDROOT
TORSDOF 0
ENDMDL
