MODEL 1
REMARK minimizedAffinity 8.99976635
REMARK minimizedRMSD -1
REMARK  0 active torsions:
REMARK  status: ('A' for Active; 'I' for Inactive)
ROOT
ATOM      1  C4' PXY d   1       2.809  -5.927  -5.886  0.00  0.00     0.077 C 
ATOM      2  C1' PXY d   1      -2.366  -5.990  -3.311  0.00  0.00     0.077 C 
ATOM      3  C1  PXY d   1      -1.003  -5.968  -3.976  0.00  0.00    -0.082 A 
ATOM      4  C2  PXY d   1      -0.919  -5.979  -5.296  0.00  0.00     0.003 A 
ATOM      5  C3  PXY d   1       0.305  -5.991  -5.914  0.00  0.00     0.003 A 
ATOM      6  C4  PXY d   1       1.455  -5.939  -5.172  0.00  0.00    -0.082 A 
ATOM      7  C5  PXY d   1       1.378  -5.917  -3.825  0.00  0.00     0.003 A 
ATOM      8  C6  PXY d   1       0.126  -5.946  -3.217  0.00  0.00     0.003 A 
ENDROOT
TORSDOF 0
ENDMDL
