MODEL 1
REMARK minimizedAffinity 2.43359113
REMARK minimizedRMSD -1
REMARK  0 active torsions:
REMARK  status: ('A' for Active; 'I' for Inactive)
ROOT
ATOM      1  C4' PXY d   1       1.708  -5.973  -5.993  0.00  0.00     0.077 C 
ATOM      2  C1' PXY d   1      -2.910  -5.999  -2.517  0.00  0.00     0.077 C 
ATOM      3  C1  PXY d   1      -1.692  -5.987  -3.419  0.00  0.00    -0.082 A 
ATOM      4  C2  PXY d   1      -1.850  -5.979  -4.732  0.00  0.00     0.003 A 
ATOM      5  C3  PXY d   1      -0.760  -6.000  -5.563  0.00  0.00     0.003 A 
ATOM      6  C4  PXY d   1       0.507  -5.976  -5.044  0.00  0.00    -0.082 A 
ATOM      7  C5  PXY d   1       0.677  -5.974  -3.705  0.00  0.00     0.003 A 
ATOM      8  C6  PXY d   1      -0.443  -5.994  -2.879  0.00  0.00     0.003 A 
ENDROOT
TORSDOF 0
ENDMDL
