MODEL 1
REMARK minimizedAffinity 1.96767735
REMARK minimizedRMSD -1
REMARK  0 active torsions:
REMARK  status: ('A' for Active; 'I' for Inactive)
ROOT
ATOM      1  C4' PXY d   1      -3.572  -6.000  -2.261  0.00  0.00     0.077 C 
ATOM      2  C1' PXY d   1       1.803  -5.270  -4.261  0.00  0.00     0.077 C 
ATOM      3  C1  PXY d   1       0.389  -5.454  -3.746  0.00  0.00    -0.082 A 
ATOM      4  C2  PXY d   1       0.192  -5.796  -2.483  0.00  0.00     0.003 A 
ATOM      5  C3  PXY d   1      -1.079  -5.997  -2.009  0.00  0.00     0.003 A 
ATOM      6  C4  PXY d   1      -2.162  -5.794  -2.822  0.00  0.00    -0.082 A 
ATOM      7  C5  PXY d   1      -1.969  -5.435  -4.109  0.00  0.00     0.003 A 
ATOM      8  C6  PXY d   1      -0.670  -5.276  -4.581  0.00  0.00     0.003 A 
ENDROOT
TORSDOF 0
ENDMDL
