MODEL 1
REMARK minimizedAffinity -0.423581928
REMARK minimizedRMSD -1
REMARK  0 active torsions:
REMARK  status: ('A' for Active; 'I' for Inactive)
ROOT
ATOM      1  C4' PXY d   1       1.892  -5.973  -4.848  0.00  0.00     0.077 C 
ATOM      2  C1' PXY d   1      -3.704  -5.999  -3.399  0.00  0.00     0.077 C 
ATOM      3  C1  PXY d   1      -2.240  -5.998  -3.790  0.00  0.00    -0.082 A 
ATOM      4  C2  PXY d   1      -1.311  -6.000  -2.848  0.00  0.00     0.003 A 
ATOM      5  C3  PXY d   1       0.018  -5.966  -3.184  0.00  0.00     0.003 A 
ATOM      6  C4  PXY d   1       0.401  -5.984  -4.499  0.00  0.00    -0.082 A 
ATOM      7  C5  PXY d   1      -0.541  -5.992  -5.466  0.00  0.00     0.003 A 
ATOM      8  C6  PXY d   1      -1.885  -5.985  -5.104  0.00  0.00     0.003 A 
ENDROOT
TORSDOF 0
ENDMDL
