MODEL 1
REMARK minimizedAffinity -2.53233862
REMARK minimizedRMSD -1
REMARK  0 active torsions:
REMARK  status: ('A' for Active; 'I' for Inactive)
ROOT
ATOM      1  C4' PXY d   1      -3.348  -5.999  -2.755  0.00  0.00     0.077 C 
ATOM      2  C1' PXY d   1       1.850  -5.977  -5.284  0.00  0.00     0.077 C 
ATOM      3  C1  PXY d   1       0.482  -5.977  -4.631  0.00  0.00    -0.082 A 
ATOM      4  C2  PXY d   1       0.387  -5.967  -3.312  0.00  0.00     0.003 A 
ATOM      5  C3  PXY d   1      -0.843  -6.000  -2.705  0.00  0.00     0.003 A 
ATOM      6  C4  PXY d   1      -1.987  -5.990  -3.457  0.00  0.00    -0.082 A 
ATOM      7  C5  PXY d   1      -1.898  -5.989  -4.804  0.00  0.00     0.003 A 
ATOM      8  C6  PXY d   1      -0.640  -5.998  -5.400  0.00  0.00     0.003 A 
ENDROOT
TORSDOF 0
ENDMDL
