MODEL 1
REMARK minimizedAffinity -0.830304384
REMARK minimizedRMSD -1
REMARK  0 active torsions:
REMARK  status: ('A' for Active; 'I' for Inactive)
ROOT
ATOM      1  C4' PXY d   1       1.151  -5.978  -4.973  0.00  0.00     0.077 C 
ATOM      2  C1' PXY d   1      -3.733  -5.999  -1.881  0.00  0.00     0.077 C 
ATOM      3  C1  PXY d   1      -2.446  -5.988  -2.682  0.00  0.00    -0.082 A 
ATOM      4  C2  PXY d   1      -2.498  -5.976  -4.004  0.00  0.00     0.003 A 
ATOM      5  C3  PXY d   1      -1.344  -5.999  -4.744  0.00  0.00     0.003 A 
ATOM      6  C4  PXY d   1      -0.123  -5.979  -4.124  0.00  0.00    -0.082 A 
ATOM      7  C5  PXY d   1      -0.062  -5.981  -2.776  0.00  0.00     0.003 A 
ATOM      8  C6  PXY d   1      -1.245  -6.000  -2.043  0.00  0.00     0.003 A 
ENDROOT
TORSDOF 0
ENDMDL
