MODEL 1
REMARK minimizedAffinity -3.24351048
REMARK minimizedRMSD -1
REMARK  0 active torsions:
REMARK  status: ('A' for Active; 'I' for Inactive)
ROOT
ATOM      1  C4' PXY d   1      -3.644  -5.973  -2.448  0.00  0.00     0.077 C 
ATOM      2  C1' PXY d   1       1.467  -5.998  -5.148  0.00  0.00     0.077 C 
ATOM      3  C1  PXY d   1       0.132  -5.997  -4.429  0.00  0.00    -0.082 A 
ATOM      4  C2  PXY d   1      -0.989  -5.991  -5.132  0.00  0.00     0.003 A 
ATOM      5  C3  PXY d   1      -2.204  -5.958  -4.498  0.00  0.00     0.003 A 
ATOM      6  C4  PXY d   1      -2.274  -5.984  -3.131  0.00  0.00    -0.082 A 
ATOM      7  C5  PXY d   1      -1.135  -6.000  -2.407  0.00  0.00     0.003 A 
ATOM      8  C6  PXY d   1       0.089  -5.992  -3.069  0.00  0.00     0.003 A 
ENDROOT
TORSDOF 0
ENDMDL
