MODEL 1
REMARK minimizedAffinity -3.03705883
REMARK minimizedRMSD -1
REMARK  0 active torsions:
REMARK  status: ('A' for Active; 'I' for Inactive)
ROOT
ATOM      1  C4' PXY d   1       1.469  -5.950  -4.885  0.00  0.00     0.077 C 
ATOM      2  C1' PXY d   1      -3.729  -6.000  -2.358  0.00  0.00     0.077 C 
ATOM      3  C1  PXY d   1      -2.361  -5.981  -3.010  0.00  0.00    -0.082 A 
ATOM      4  C2  PXY d   1      -2.265  -5.981  -4.329  0.00  0.00     0.003 A 
ATOM      5  C3  PXY d   1      -1.035  -5.997  -4.935  0.00  0.00     0.003 A 
ATOM      6  C4  PXY d   1       0.108  -5.959  -4.183  0.00  0.00    -0.082 A 
ATOM      7  C5  PXY d   1       0.019  -5.948  -2.836  0.00  0.00     0.003 A 
ATOM      8  C6  PXY d   1      -1.239  -5.974  -2.240  0.00  0.00     0.003 A 
ENDROOT
TORSDOF 0
ENDMDL
