MODEL 1
REMARK minimizedAffinity 2.4363904
REMARK minimizedRMSD -1
REMARK  0 active torsions:
REMARK  status: ('A' for Active; 'I' for Inactive)
ROOT
ATOM      1  C4' PXY d   1      -3.183  -6.000  -2.155  0.00  0.00     0.077 C 
ATOM      2  C1' PXY d   1       1.763  -5.979  -5.148  0.00  0.00     0.077 C 
ATOM      3  C1  PXY d   1       0.472  -5.990  -4.353  0.00  0.00    -0.082 A 
ATOM      4  C2  PXY d   1      -0.688  -5.999  -4.989  0.00  0.00     0.003 A 
ATOM      5  C3  PXY d   1      -1.865  -5.976  -4.286  0.00  0.00     0.003 A 
ATOM      6  C4  PXY d   1      -1.855  -5.998  -2.917  0.00  0.00    -0.082 A 
ATOM      7  C5  PXY d   1      -0.675  -6.000  -2.260  0.00  0.00     0.003 A 
ATOM      8  C6  PXY d   1       0.508  -5.981  -2.992  0.00  0.00     0.003 A 
ENDROOT
TORSDOF 0
ENDMDL
