MODEL 1
REMARK minimizedAffinity 7.57481003
REMARK minimizedRMSD -1
REMARK  0 active torsions:
REMARK  status: ('A' for Active; 'I' for Inactive)
ROOT
ATOM      1  C4' PXY d   1       2.124  -5.997  -5.994  0.00  0.00     0.077 C 
ATOM      2  C1' PXY d   1      -2.723  -5.939  -2.845  0.00  0.00     0.077 C 
ATOM      3  C1  PXY d   1      -1.458  -5.960  -3.681  0.00  0.00    -0.082 A 
ATOM      4  C2  PXY d   1      -0.278  -5.958  -3.082  0.00  0.00     0.003 A 
ATOM      5  C3  PXY d   1       0.875  -5.944  -3.823  0.00  0.00     0.003 A 
ATOM      6  C4  PXY d   1       0.821  -5.987  -5.190  0.00  0.00    -0.082 A 
ATOM      7  C5  PXY d   1      -0.379  -6.000  -5.808  0.00  0.00     0.003 A 
ATOM      8  C6  PXY d   1      -1.538  -5.972  -5.039  0.00  0.00     0.003 A 
ENDROOT
TORSDOF 0
ENDMDL
