MODEL 1
REMARK minimizedAffinity 6.99883747
REMARK minimizedRMSD -1
REMARK  0 active torsions:
REMARK  status: ('A' for Active; 'I' for Inactive)
ROOT
ATOM      1  C4' PXY d   1       1.983   0.056  -1.345  0.00  0.00     0.077 C 
ATOM      2  C1' PXY d   1       5.110   0.132   3.516  0.00  0.00     0.077 C 
ATOM      3  C1  PXY d   1       4.280   0.108   2.248  0.00  0.00    -0.082 A 
ATOM      4  C2  PXY d   1       4.882   0.008   1.074  0.00  0.00     0.003 A 
ATOM      5  C3  PXY d   1       4.148   0.017  -0.084  0.00  0.00     0.003 A 
ATOM      6  C4  PXY d   1       2.781   0.075  -0.038  0.00  0.00    -0.082 A 
ATOM      7  C5  PXY d   1       2.159   0.167   1.157  0.00  0.00     0.003 A 
ATOM      8  C6  PXY d   1       2.924   0.198   2.319  0.00  0.00     0.003 A 
ENDROOT
TORSDOF 0
ENDMDL
