MODEL 1
REMARK minimizedAffinity 4.05814409
REMARK minimizedRMSD -1
REMARK  0 active torsions:
REMARK  status: ('A' for Active; 'I' for Inactive)
ROOT
ATOM      1  C4' PXY d   1      -2.322  -5.999  -2.965  0.00  0.00     0.077 C 
ATOM      2  C1' PXY d   1       2.603  -5.978  -5.991  0.00  0.00     0.077 C 
ATOM      3  C1  PXY d   1       1.305  -5.979  -5.208  0.00  0.00    -0.082 A 
ATOM      4  C2  PXY d   1       1.340  -5.967  -3.885  0.00  0.00     0.003 A 
ATOM      5  C3  PXY d   1       0.176  -5.999  -3.161  0.00  0.00     0.003 A 
ATOM      6  C4  PXY d   1      -1.036  -5.990  -3.797  0.00  0.00    -0.082 A 
ATOM      7  C5  PXY d   1      -1.080  -5.991  -5.146  0.00  0.00     0.003 A 
ATOM      8  C6  PXY d   1       0.113  -6.000  -5.863  0.00  0.00     0.003 A 
ENDROOT
TORSDOF 0
ENDMDL
