MODEL 1
REMARK minimizedAffinity -2.03024936
REMARK minimizedRMSD -1
REMARK  0 active torsions:
REMARK  status: ('A' for Active; 'I' for Inactive)
ROOT
ATOM      1  C4' PXY d   1       2.191  -5.707  -5.616  0.00  0.00     0.077 C 
ATOM      2  C1' PXY d   1      -2.954  -5.995  -2.997  0.00  0.00     0.077 C 
ATOM      3  C1  PXY d   1      -1.599  -5.915  -3.673  0.00  0.00    -0.082 A 
ATOM      4  C2  PXY d   1      -1.531  -5.772  -4.986  0.00  0.00     0.003 A 
ATOM      5  C3  PXY d   1      -0.314  -5.730  -5.617  0.00  0.00     0.003 A 
ATOM      6  C4  PXY d   1       0.845  -5.782  -4.890  0.00  0.00    -0.082 A 
ATOM      7  C5  PXY d   1       0.784  -5.918  -3.549  0.00  0.00     0.003 A 
ATOM      8  C6  PXY d   1      -0.461  -5.999  -2.932  0.00  0.00     0.003 A 
ENDROOT
TORSDOF 0
ENDMDL
