MODEL 1
REMARK minimizedAffinity 7.80951738
REMARK minimizedRMSD -1
REMARK  0 active torsions:
REMARK  status: ('A' for Active; 'I' for Inactive)
ROOT
ATOM      1  C4' PXY d   1       0.092  -4.912  -0.354  0.00  0.00     0.077 C 
ATOM      2  C1' PXY d   1       0.765  -5.998  -5.991  0.00  0.00     0.077 C 
ATOM      3  C1  PXY d   1       0.602  -5.714  -4.511  0.00  0.00    -0.082 A 
ATOM      4  C2  PXY d   1      -0.546  -5.993  -3.915  0.00  0.00     0.003 A 
ATOM      5  C3  PXY d   1      -0.722  -5.713  -2.584  0.00  0.00     0.003 A 
ATOM      6  C4  PXY d   1       0.305  -5.191  -1.844  0.00  0.00    -0.082 A 
ATOM      7  C5  PXY d   1       1.483  -4.914  -2.443  0.00  0.00     0.003 A 
ATOM      8  C6  PXY d   1       1.627  -5.167  -3.804  0.00  0.00     0.003 A 
ENDROOT
TORSDOF 0
ENDMDL
