MODEL 1
REMARK minimizedAffinity 10.3358049
REMARK minimizedRMSD -1
REMARK  0 active torsions:
REMARK  status: ('A' for Active; 'I' for Inactive)
ROOT
ATOM      1  C4' PXY d   1      -0.195  -5.971  -5.983  0.00  0.00     0.077 C 
ATOM      2  C1' PXY d   1      -4.078  -5.995  -1.700  0.00  0.00     0.077 C 
ATOM      3  C1  PXY d   1      -3.068  -5.994  -2.831  0.00  0.00    -0.082 A 
ATOM      4  C2  PXY d   1      -1.775  -5.988  -2.553  0.00  0.00     0.003 A 
ATOM      5  C3  PXY d   1      -0.849  -5.954  -3.564  0.00  0.00     0.003 A 
ATOM      6  C4  PXY d   1      -1.250  -5.982  -4.873  0.00  0.00    -0.082 A 
ATOM      7  C5  PXY d   1      -2.568  -6.000  -5.164  0.00  0.00     0.003 A 
ATOM      8  C6  PXY d   1      -3.493  -5.992  -4.124  0.00  0.00     0.003 A 
ENDROOT
TORSDOF 0
ENDMDL
