MODEL 1
REMARK minimizedAffinity 1.54647815
REMARK minimizedRMSD -1
REMARK  0 active torsions:
REMARK  status: ('A' for Active; 'I' for Inactive)
ROOT
ATOM      1  C4' PXY d   1       0.272   0.144  -2.184  0.00  0.00     0.077 C 
ATOM      2  C1' PXY d   1       0.194  -2.772   2.807  0.00  0.00     0.077 C 
ATOM      3  C1  PXY d   1       0.210  -1.997   1.504  0.00  0.00    -0.082 A 
ATOM      4  C2  PXY d   1       0.112  -2.646   0.355  0.00  0.00     0.003 A 
ATOM      5  C3  PXY d   1       0.158  -1.963  -0.833  0.00  0.00     0.003 A 
ATOM      6  C4  PXY d   1       0.251  -0.597  -0.844  0.00  0.00    -0.082 A 
ATOM      7  C5  PXY d   1       0.340   0.073   0.324  0.00  0.00     0.003 A 
ATOM      8  C6  PXY d   1       0.334  -0.642   1.518  0.00  0.00     0.003 A 
ENDROOT
TORSDOF 0
ENDMDL
