MODEL 1
REMARK minimizedAffinity -2.24207997
REMARK minimizedRMSD -1
REMARK  0 active torsions:
REMARK  status: ('A' for Active; 'I' for Inactive)
ROOT
ATOM      1  C   UNL d   1       0.582   1.988   3.271  0.00  0.00     0.077 C 
ATOM      2  C1  UNL d   1      -0.247   1.518   2.113  0.00  0.00    -0.074 A 
ATOM      3  C2  UNL d   1      -1.544   2.002   1.914  0.00  0.00    -0.005 A 
ATOM      4  C3  UNL d   1      -2.299   1.563   0.826  0.00  0.00     0.006 A 
ATOM      5  C4  UNL d   1      -1.766   0.637  -0.072  0.00  0.00    -0.005 A 
ATOM      6  C5  UNL d   1      -0.471   0.143   0.111  0.00  0.00    -0.074 A 
ATOM      7  C6  UNL d   1       0.121  -0.845  -0.850  0.00  0.00     0.077 C 
ATOM      8  C7  UNL d   1       0.285   0.594   1.202  0.00  0.00    -0.001 A 
ENDROOT
TORSDOF 0
ENDMDL
