MODEL 1
REMARK minimizedAffinity -2.00804138
REMARK minimizedRMSD -1
REMARK  0 active torsions:
REMARK  status: ('A' for Active; 'I' for Inactive)
ROOT
ATOM      1  C   UNL d   1      -1.879   2.479   2.045  0.00  0.00     0.077 C 
ATOM      2  C1  UNL d   1      -1.200   1.185   1.709  0.00  0.00    -0.074 A 
ATOM      3  C2  UNL d   1      -1.333   0.066   2.538  0.00  0.00    -0.005 A 
ATOM      4  C3  UNL d   1      -0.703  -1.133   2.207  0.00  0.00     0.006 A 
ATOM      5  C4  UNL d   1       0.066  -1.226   1.046  0.00  0.00    -0.005 A 
ATOM      6  C5  UNL d   1       0.209  -0.119   0.204  0.00  0.00    -0.074 A 
ATOM      7  C6  UNL d   1       1.023  -0.205  -1.053  0.00  0.00     0.077 C 
ATOM      8  C7  UNL d   1      -0.433   1.081   0.540  0.00  0.00    -0.001 A 
ENDROOT
TORSDOF 0
ENDMDL
