MODEL 1
REMARK minimizedAffinity -5.29486942
REMARK minimizedRMSD -1
REMARK  0 active torsions:
REMARK  status: ('A' for Active; 'I' for Inactive)
ROOT
ATOM      1  C   UNL d   1      -2.238   1.115   0.951  0.00  0.00     0.077 C 
ATOM      2  C1  UNL d   1      -1.182   0.303   0.262  0.00  0.00    -0.074 A 
ATOM      3  C2  UNL d   1       0.155   0.713   0.265  0.00  0.00    -0.005 A 
ATOM      4  C3  UNL d   1       1.128  -0.057  -0.373  0.00  0.00     0.006 A 
ATOM      5  C4  UNL d   1       0.774  -1.243  -1.018  0.00  0.00    -0.005 A 
ATOM      6  C5  UNL d   1      -0.558  -1.668  -1.031  0.00  0.00    -0.074 A 
ATOM      7  C6  UNL d   1      -0.954  -2.945  -1.712  0.00  0.00     0.077 C 
ATOM      8  C7  UNL d   1      -1.529  -0.893  -0.382  0.00  0.00    -0.001 A 
ENDROOT
TORSDOF 0
ENDMDL
