MODEL 1
REMARK minimizedAffinity -4.52869844
REMARK minimizedRMSD -1
REMARK  0 active torsions:
REMARK  status: ('A' for Active; 'I' for Inactive)
ROOT
ATOM      1  C   UNL d   1      -0.249  -1.333  -1.352  0.00  0.00     0.077 C 
ATOM      2  C1  UNL d   1      -0.463  -0.577  -0.075  0.00  0.00    -0.074 A 
ATOM      3  C2  UNL d   1       0.213  -0.936   1.096  0.00  0.00    -0.005 A 
ATOM      4  C3  UNL d   1       0.011  -0.217   2.274  0.00  0.00     0.006 A 
ATOM      5  C4  UNL d   1      -0.869   0.866   2.294  0.00  0.00    -0.005 A 
ATOM      6  C5  UNL d   1      -1.553   1.240   1.133  0.00  0.00    -0.074 A 
ATOM      7  C6  UNL d   1      -2.494   2.408   1.134  0.00  0.00     0.077 C 
ATOM      8  C7  UNL d   1      -1.339   0.518  -0.049  0.00  0.00    -0.001 A 
ENDROOT
TORSDOF 0
ENDMDL
