MODEL 1
REMARK minimizedAffinity -4.8745575
REMARK minimizedRMSD -1
REMARK  0 active torsions:
REMARK  status: ('A' for Active; 'I' for Inactive)
ROOT
ATOM      1  C   UNL d   1      -2.436   2.517   1.143  0.00  0.00     0.077 C 
ATOM      2  C1  UNL d   1      -1.627   1.257   1.231  0.00  0.00    -0.074 A 
ATOM      3  C2  UNL d   1      -1.556   0.530   2.423  0.00  0.00    -0.005 A 
ATOM      4  C3  UNL d   1      -0.807  -0.645   2.487  0.00  0.00     0.006 A 
ATOM      5  C4  UNL d   1      -0.122  -1.104   1.361  0.00  0.00    -0.005 A 
ATOM      6  C5  UNL d   1      -0.182  -0.390   0.159  0.00  0.00    -0.074 A 
ATOM      7  C6  UNL d   1       0.540  -0.875  -1.063  0.00  0.00     0.077 C 
ATOM      8  C7  UNL d   1      -0.942   0.786   0.101  0.00  0.00    -0.001 A 
ENDROOT
TORSDOF 0
ENDMDL
