MODEL 1
REMARK minimizedAffinity -4.41684771
REMARK minimizedRMSD -1
REMARK  0 active torsions:
REMARK  status: ('A' for Active; 'I' for Inactive)
ROOT
ATOM      1  C   UNL d   1      -0.990  -1.327   2.663  0.00  0.00     0.077 C 
ATOM      2  C1  UNL d   1      -0.893  -0.324   1.552  0.00  0.00    -0.074 A 
ATOM      3  C2  UNL d   1      -1.896   0.630   1.356  0.00  0.00    -0.005 A 
ATOM      4  C3  UNL d   1      -1.787   1.563   0.324  0.00  0.00     0.006 A 
ATOM      5  C4  UNL d   1      -0.676   1.551  -0.519  0.00  0.00    -0.005 A 
ATOM      6  C5  UNL d   1       0.338   0.605  -0.337  0.00  0.00    -0.074 A 
ATOM      7  C6  UNL d   1       1.544   0.585  -1.228  0.00  0.00     0.077 C 
ATOM      8  C7  UNL d   1       0.225  -0.324   0.706  0.00  0.00    -0.001 A 
ENDROOT
TORSDOF 0
ENDMDL
