MODEL 1
REMARK minimizedAffinity -4.83861637
REMARK minimizedRMSD -1
REMARK  0 active torsions:
REMARK  status: ('A' for Active; 'I' for Inactive)
ROOT
ATOM      1  C   UNL d   1       0.764   1.402  -1.478  0.00  0.00     0.077 C 
ATOM      2  C1  UNL d   1      -0.200   1.315  -0.332  0.00  0.00    -0.074 A 
ATOM      3  C2  UNL d   1      -1.179   2.295  -0.139  0.00  0.00    -0.005 A 
ATOM      4  C3  UNL d   1      -2.074   2.195   0.925  0.00  0.00     0.006 A 
ATOM      5  C4  UNL d   1      -2.000   1.115   1.807  0.00  0.00    -0.005 A 
ATOM      6  C5  UNL d   1      -1.029   0.125   1.629  0.00  0.00    -0.074 A 
ATOM      7  C6  UNL d   1      -0.942  -1.047   2.562  0.00  0.00     0.077 C 
ATOM      8  C7  UNL d   1      -0.137   0.229   0.553  0.00  0.00    -0.001 A 
ENDROOT
TORSDOF 0
ENDMDL
