MODEL 1
REMARK minimizedAffinity -3.56758022
REMARK minimizedRMSD -1
REMARK  0 active torsions:
REMARK  status: ('A' for Active; 'I' for Inactive)
ROOT
ATOM      1  C   UNL d   1      -2.482   2.938   1.128  0.00  0.00     0.077 C 
ATOM      2  C1  UNL d   1      -1.410   2.074   0.534  0.00  0.00    -0.074 A 
ATOM      3  C2  UNL d   1      -0.781   2.430  -0.663  0.00  0.00    -0.005 A 
ATOM      4  C3  UNL d   1       0.221   1.621  -1.199  0.00  0.00     0.006 A 
ATOM      5  C4  UNL d   1       0.605   0.450  -0.543  0.00  0.00    -0.005 A 
ATOM      6  C5  UNL d   1      -0.012   0.079   0.656  0.00  0.00    -0.074 A 
ATOM      7  C6  UNL d   1       0.395  -1.171   1.378  0.00  0.00     0.077 C 
ATOM      8  C7  UNL d   1      -1.014   0.900   1.191  0.00  0.00    -0.001 A 
ENDROOT
TORSDOF 0
ENDMDL
