MODEL 1
REMARK minimizedAffinity -3.74296403
REMARK minimizedRMSD -1
REMARK  0 active torsions:
REMARK  status: ('A' for Active; 'I' for Inactive)
ROOT
ATOM      1  C   UNL d   1       0.041  -1.391   2.319  0.00  0.00     0.077 C 
ATOM      2  C1  UNL d   1      -0.241  -0.303   1.326  0.00  0.00    -0.074 A 
ATOM      3  C2  UNL d   1       0.407  -0.275   0.087  0.00  0.00    -0.005 A 
ATOM      4  C3  UNL d   1       0.127   0.739  -0.830  0.00  0.00     0.006 A 
ATOM      5  C4  UNL d   1      -0.801   1.732  -0.518  0.00  0.00    -0.005 A 
ATOM      6  C5  UNL d   1      -1.460   1.720   0.716  0.00  0.00    -0.074 A 
ATOM      7  C6  UNL d   1      -2.468   2.774   1.063  0.00  0.00     0.077 C 
ATOM      8  C7  UNL d   1      -1.179   0.694   1.629  0.00  0.00    -0.001 A 
ENDROOT
TORSDOF 0
ENDMDL
