MODEL 1
REMARK minimizedAffinity -5.22505522
REMARK minimizedRMSD -1
REMARK  0 active torsions:
REMARK  status: ('A' for Active; 'I' for Inactive)
ROOT
ATOM      1  C   UNL d   1       2.835  -5.079   0.155  0.00  0.00     0.077 C 
ATOM      2  C1  UNL d   1       1.847  -4.199  -0.551  0.00  0.00    -0.074 A 
ATOM      3  C2  UNL d   1       0.869  -4.745  -1.389  0.00  0.00    -0.005 A 
ATOM      4  C3  UNL d   1      -0.049  -3.914  -2.032  0.00  0.00     0.006 A 
ATOM      5  C4  UNL d   1       0.000  -2.533  -1.843  0.00  0.00    -0.005 A 
ATOM      6  C5  UNL d   1       0.970  -1.969  -1.008  0.00  0.00    -0.074 A 
ATOM      7  C6  UNL d   1       1.032  -0.487  -0.786  0.00  0.00     0.077 C 
ATOM      8  C7  UNL d   1       1.885  -2.811  -0.360  0.00  0.00    -0.001 A 
ENDROOT
TORSDOF 0
ENDMDL
