MODEL 1
REMARK minimizedAffinity -5.36524582
REMARK minimizedRMSD -1
REMARK  0 active torsions:
REMARK  status: ('A' for Active; 'I' for Inactive)
ROOT
ATOM      1  C   UNL d   1      -2.739   2.287   0.747  0.00  0.00     0.077 C 
ATOM      2  C1  UNL d   1      -1.715   1.196   0.849  0.00  0.00    -0.074 A 
ATOM      3  C2  UNL d   1      -1.674   0.351   1.962  0.00  0.00    -0.005 A 
ATOM      4  C3  UNL d   1      -0.721  -0.665   2.039  0.00  0.00     0.006 A 
ATOM      5  C4  UNL d   1       0.199  -0.845   1.006  0.00  0.00    -0.005 A 
ATOM      6  C5  UNL d   1       0.172  -0.010  -0.116  0.00  0.00    -0.074 A 
ATOM      7  C6  UNL d   1       1.147  -0.197  -1.240  0.00  0.00     0.077 C 
ATOM      8  C7  UNL d   1      -0.793   1.004  -0.189  0.00  0.00    -0.001 A 
ENDROOT
TORSDOF 0
ENDMDL
