MODEL 1
REMARK minimizedAffinity -2.55596948
REMARK minimizedRMSD -1
REMARK  0 active torsions:
REMARK  status: ('A' for Active; 'I' for Inactive)
ROOT
ATOM      1  C   UNL d   1      -2.168   2.129   1.480  0.00  0.00     0.077 C 
ATOM      2  C1  UNL d   1      -1.118   1.399   0.696  0.00  0.00    -0.074 A 
ATOM      3  C2  UNL d   1      -0.960   0.015   0.821  0.00  0.00    -0.005 A 
ATOM      4  C3  UNL d   1       0.014  -0.651   0.078  0.00  0.00     0.006 A 
ATOM      5  C4  UNL d   1       0.839   0.058  -0.796  0.00  0.00    -0.005 A 
ATOM      6  C5  UNL d   1       0.695   1.442  -0.935  0.00  0.00    -0.074 A 
ATOM      7  C6  UNL d   1       1.567   2.218  -1.876  0.00  0.00     0.077 C 
ATOM      8  C7  UNL d   1      -0.291   2.104  -0.190  0.00  0.00    -0.001 A 
ENDROOT
TORSDOF 0
ENDMDL
