MODEL 1
REMARK minimizedAffinity -3.65719151
REMARK minimizedRMSD -1
REMARK  0 active torsions:
REMARK  status: ('A' for Active; 'I' for Inactive)
ROOT
ATOM      1  C   UNL d   1      -2.088   2.816   1.018  0.00  0.00     0.077 C 
ATOM      2  C1  UNL d   1      -1.349   1.511   1.054  0.00  0.00    -0.074 A 
ATOM      3  C2  UNL d   1      -1.426   0.672   2.170  0.00  0.00    -0.005 A 
ATOM      4  C3  UNL d   1      -0.741  -0.543   2.186  0.00  0.00     0.006 A 
ATOM      5  C4  UNL d   1       0.026  -0.931   1.087  0.00  0.00    -0.005 A 
ATOM      6  C5  UNL d   1       0.114  -0.106  -0.039  0.00  0.00    -0.074 A 
ATOM      7  C6  UNL d   1       0.926  -0.512  -1.232  0.00  0.00     0.077 C 
ATOM      8  C7  UNL d   1      -0.583   1.110  -0.049  0.00  0.00    -0.001 A 
ENDROOT
TORSDOF 0
ENDMDL
