MODEL 1
REMARK minimizedAffinity -2.28710151
REMARK minimizedRMSD -1
REMARK  1 active torsions:
REMARK  status: ('A' for Active; 'I' for Inactive)
REMARK    1  A    between atoms: C3_4  and  O_7 
ROOT
ATOM      1  C   UNL d   1      -0.120   0.015  -0.158  0.00  0.00    -0.033 A 
ATOM      2  C1  UNL d   1       0.864  -0.368   0.756  0.00  0.00     0.039 A 
ATOM      3  C2  UNL d   1       1.831   0.550   1.169  0.00  0.00    -0.080 A 
ATOM      4  C3  UNL d   1       1.802   1.847   0.664  0.00  0.00     0.150 A 
ATOM      5  C4  UNL d   1       0.822   2.237  -0.244  0.00  0.00    -0.007 A 
ATOM      6  C5  UNL d   1      -0.142   1.318  -0.656  0.00  0.00     0.039 A 
ENDROOT
BRANCH   4   7
ATOM      7  O   UNL d   1       2.727   2.777   1.034  0.00  0.00    -0.526 OA
ATOM      8  H5  UNL d   1       3.358   2.358   1.643  0.00  0.00     0.418 HD
ENDBRANCH   4   7
TORSDOF 1
ENDMDL
