MODEL 1
REMARK minimizedAffinity -2.90207934
REMARK minimizedRMSD -1
REMARK  1 active torsions:
REMARK  status: ('A' for Active; 'I' for Inactive)
REMARK    1  A    between atoms: C3_4  and  O_7 
ROOT
ATOM      1  C   UNL d   1      -2.318  -1.128  -0.587  0.00  0.00    -0.033 A 
ATOM      2  C1  UNL d   1      -1.875  -0.214  -1.545  0.00  0.00     0.039 A 
ATOM      3  C2  UNL d   1      -0.713   0.527  -1.320  0.00  0.00    -0.080 A 
ATOM      4  C3  UNL d   1      -0.005   0.344  -0.135  0.00  0.00     0.150 A 
ATOM      5  C4  UNL d   1      -0.439  -0.567   0.822  0.00  0.00    -0.007 A 
ATOM      6  C5  UNL d   1      -1.600  -1.306   0.596  0.00  0.00     0.039 A 
ENDROOT
BRANCH   4   7
ATOM      7  O   UNL d   1       1.132   1.048   0.131  0.00  0.00    -0.526 OA
ATOM      8  H5  UNL d   1       1.295   1.661  -0.606  0.00  0.00     0.418 HD
ENDBRANCH   4   7
TORSDOF 1
ENDMDL
