MODEL 1
REMARK minimizedAffinity -5.52455711
REMARK minimizedRMSD -1
REMARK  1 active torsions:
REMARK  status: ('A' for Active; 'I' for Inactive)
REMARK    1  A    between atoms: C3_4  and  O_7 
ROOT
ATOM      1  C   UNL d   1      -3.659  -0.613  -0.807  0.00  0.00    -0.033 A 
ATOM      2  C1  UNL d   1      -3.022  -0.986   0.379  0.00  0.00     0.039 A 
ATOM      3  C2  UNL d   1      -1.652  -0.771   0.535  0.00  0.00    -0.080 A 
ATOM      4  C3  UNL d   1      -0.930  -0.183  -0.501  0.00  0.00     0.150 A 
ATOM      5  C4  UNL d   1      -1.559   0.195  -1.683  0.00  0.00    -0.007 A 
ATOM      6  C5  UNL d   1      -2.928  -0.022  -1.837  0.00  0.00     0.039 A 
ENDROOT
BRANCH   4   7
ATOM      7  O   UNL d   1       0.410   0.043  -0.397  0.00  0.00    -0.526 OA
ATOM      8  H5  UNL d   1       0.713  -0.295   0.463  0.00  0.00     0.418 HD
ENDBRANCH   4   7
TORSDOF 1
ENDMDL
