MODEL 1
REMARK minimizedAffinity -3.50909138
REMARK minimizedRMSD -1
REMARK  1 active torsions:
REMARK  status: ('A' for Active; 'I' for Inactive)
REMARK    1  A    between atoms: C3_4  and  O_7 
ROOT
ATOM      1  C   UNL d   1      -2.257  -1.341  -1.225  0.00  0.00    -0.033 A 
ATOM      2  C1  UNL d   1      -1.722  -1.791  -0.016  0.00  0.00     0.039 A 
ATOM      3  C2  UNL d   1      -0.688  -1.082   0.598  0.00  0.00    -0.080 A 
ATOM      4  C3  UNL d   1      -0.199   0.073  -0.005  0.00  0.00     0.150 A 
ATOM      5  C4  UNL d   1      -0.730   0.529  -1.207  0.00  0.00    -0.007 A 
ATOM      6  C5  UNL d   1      -1.762  -0.180  -1.820  0.00  0.00     0.039 A 
ENDROOT
BRANCH   4   7
ATOM      7  O   UNL d   1       0.812   0.796   0.554  0.00  0.00    -0.526 OA
ATOM      8  H5  UNL d   1       1.099   0.346   1.367  0.00  0.00     0.418 HD
ENDBRANCH   4   7
TORSDOF 1
ENDMDL
