MODEL 1
REMARK minimizedAffinity -4.44568491
REMARK minimizedRMSD -1
REMARK  1 active torsions:
REMARK  status: ('A' for Active; 'I' for Inactive)
REMARK    1  A    between atoms: C3_4  and  O_7 
ROOT
ATOM      1  C   UNL d   1       0.720   0.141  -0.035  0.00  0.00    -0.033 A 
ATOM      2  C1  UNL d   1       0.108  -0.756   0.842  0.00  0.00     0.039 A 
ATOM      3  C2  UNL d   1      -1.245  -1.067   0.694  0.00  0.00    -0.080 A 
ATOM      4  C3  UNL d   1      -1.973  -0.475  -0.335  0.00  0.00     0.150 A 
ATOM      5  C4  UNL d   1      -1.369   0.417  -1.214  0.00  0.00    -0.007 A 
ATOM      6  C5  UNL d   1      -0.018   0.727  -1.064  0.00  0.00     0.039 A 
ENDROOT
BRANCH   4   7
ATOM      7  O   UNL d   1      -3.297  -0.743  -0.517  0.00  0.00    -0.526 OA
ATOM      8  H5  UNL d   1      -3.586  -1.354   0.182  0.00  0.00     0.418 HD
ENDBRANCH   4   7
TORSDOF 1
ENDMDL
