MODEL 1
REMARK minimizedAffinity -3.748173
REMARK minimizedRMSD -1
REMARK  1 active torsions:
REMARK  status: ('A' for Active; 'I' for Inactive)
REMARK    1  A    between atoms: C3_4  and  O_7 
ROOT
ATOM      1  C   UNL d   1       0.705  -0.875   0.271  0.00  0.00    -0.033 A 
ATOM      2  C1  UNL d   1       0.034  -0.162  -0.724  0.00  0.00     0.039 A 
ATOM      3  C2  UNL d   1      -1.347  -0.305  -0.877  0.00  0.00    -0.080 A 
ATOM      4  C3  UNL d   1      -2.043  -1.163  -0.030  0.00  0.00     0.150 A 
ATOM      5  C4  UNL d   1      -1.381  -1.873   0.966  0.00  0.00    -0.007 A 
ATOM      6  C5  UNL d   1      -0.002  -1.729   1.117  0.00  0.00     0.039 A 
ENDROOT
BRANCH   4   7
ATOM      7  O   UNL d   1      -3.390  -1.339  -0.144  0.00  0.00    -0.526 OA
ATOM      8  H5  UNL d   1      -3.707  -0.808  -0.893  0.00  0.00     0.418 HD
ENDBRANCH   4   7
TORSDOF 1
ENDMDL
