MODEL 1
REMARK minimizedAffinity -5.20275021
REMARK minimizedRMSD -1
REMARK  1 active torsions:
REMARK  status: ('A' for Active; 'I' for Inactive)
REMARK    1  A    between atoms: C3_4  and  O_7 
ROOT
ATOM      1  C   UNL d   1       0.100  -0.333  -0.055  0.00  0.00    -0.033 A 
ATOM      2  C1  UNL d   1      -0.242   0.054  -1.352  0.00  0.00     0.039 A 
ATOM      3  C2  UNL d   1      -1.582   0.081  -1.744  0.00  0.00    -0.080 A 
ATOM      4  C3  UNL d   1      -2.568  -0.280  -0.830  0.00  0.00     0.150 A 
ATOM      5  C4  UNL d   1      -2.235  -0.663   0.465  0.00  0.00    -0.007 A 
ATOM      6  C5  UNL d   1      -0.896  -0.690   0.854  0.00  0.00     0.039 A 
ENDROOT
BRANCH   4   7
ATOM      7  O   UNL d   1      -3.889  -0.274  -1.168  0.00  0.00    -0.526 OA
ATOM      8  H5  UNL d   1      -3.966  -0.016  -2.102  0.00  0.00     0.418 HD
ENDBRANCH   4   7
TORSDOF 1
ENDMDL
