MODEL 1
REMARK minimizedAffinity -4.49079227
REMARK minimizedRMSD -1
REMARK  1 active torsions:
REMARK  status: ('A' for Active; 'I' for Inactive)
REMARK    1  A    between atoms: C3_4  and  O_7 
ROOT
ATOM      1  C   UNL d   1       0.344  -0.027   0.740  0.00  0.00    -0.033 A 
ATOM      2  C1  UNL d   1      -0.897  -0.570   1.078  0.00  0.00     0.039 A 
ATOM      3  C2  UNL d   1      -1.839  -0.835   0.082  0.00  0.00    -0.080 A 
ATOM      4  C3  UNL d   1      -1.527  -0.554  -1.246  0.00  0.00     0.150 A 
ATOM      5  C4  UNL d   1      -0.291  -0.016  -1.589  0.00  0.00    -0.007 A 
ATOM      6  C5  UNL d   1       0.648   0.249  -0.593  0.00  0.00     0.039 A 
ENDROOT
BRANCH   4   7
ATOM      7  O   UNL d   1      -2.416  -0.791  -2.252  0.00  0.00    -0.526 OA
ATOM      8  H5  UNL d   1      -3.237  -1.135  -1.862  0.00  0.00     0.418 HD
ENDBRANCH   4   7
TORSDOF 1
ENDMDL
