MODEL 1
REMARK minimizedAffinity -4.89249802
REMARK minimizedRMSD -1
REMARK  1 active torsions:
REMARK  status: ('A' for Active; 'I' for Inactive)
REMARK    1  A    between atoms: C3_4  and  O_7 
ROOT
ATOM      1  C   UNL d   1      -2.050  -0.208  -1.680  0.00  0.00    -0.033 A 
ATOM      2  C1  UNL d   1      -2.226  -0.641  -0.364  0.00  0.00     0.039 A 
ATOM      3  C2  UNL d   1      -1.185  -0.520   0.558  0.00  0.00    -0.080 A 
ATOM      4  C3  UNL d   1       0.026   0.035   0.153  0.00  0.00     0.150 A 
ATOM      5  C4  UNL d   1       0.207   0.472  -1.155  0.00  0.00    -0.007 A 
ATOM      6  C5  UNL d   1      -0.834   0.350  -2.075  0.00  0.00     0.039 A 
ENDROOT
BRANCH   4   7
ATOM      7  O   UNL d   1       1.073   0.169   1.016  0.00  0.00    -0.526 OA
ATOM      8  H5  UNL d   1       0.812  -0.201   1.876  0.00  0.00     0.418 HD
ENDBRANCH   4   7
TORSDOF 1
ENDMDL
