MODEL 1
REMARK minimizedAffinity -2.50284314
REMARK minimizedRMSD -1
REMARK  1 active torsions:
REMARK  status: ('A' for Active; 'I' for Inactive)
REMARK    1  A    between atoms: C3_4  and  O_7 
ROOT
ATOM      1  C   UNL d   1       2.011   0.567  -0.596  0.00  0.00    -0.033 A 
ATOM      2  C1  UNL d   1       2.849   1.681  -0.507  0.00  0.00     0.039 A 
ATOM      3  C2  UNL d   1       2.986   2.358   0.707  0.00  0.00    -0.080 A 
ATOM      4  C3  UNL d   1       2.283   1.911   1.822  0.00  0.00     0.150 A 
ATOM      5  C4  UNL d   1       1.450   0.800   1.741  0.00  0.00    -0.007 A 
ATOM      6  C5  UNL d   1       1.313   0.126   0.528  0.00  0.00     0.039 A 
ENDROOT
BRANCH   4   7
ATOM      7  O   UNL d   1       2.381   2.542   3.027  0.00  0.00    -0.526 OA
ATOM      8  H5  UNL d   1       2.969   3.309   2.925  0.00  0.00     0.418 HD
ENDBRANCH   4   7
TORSDOF 1
ENDMDL
