MODEL 1
REMARK minimizedAffinity -2.2449367
REMARK minimizedRMSD -1
REMARK  1 active torsions:
REMARK  status: ('A' for Active; 'I' for Inactive)
REMARK    1  A    between atoms: C3_4  and  O_7 
ROOT
ATOM      1  C   UNL d   1      -2.512  -0.932  -1.468  0.00  0.00    -0.033 A 
ATOM      2  C1  UNL d   1      -1.775  -1.663  -0.534  0.00  0.00     0.039 A 
ATOM      3  C2  UNL d   1      -0.668  -1.086   0.091  0.00  0.00    -0.080 A 
ATOM      4  C3  UNL d   1      -0.310   0.221  -0.226  0.00  0.00     0.150 A 
ATOM      5  C4  UNL d   1      -1.041   0.957  -1.153  0.00  0.00    -0.007 A 
ATOM      6  C5  UNL d   1      -2.146   0.378  -1.777  0.00  0.00     0.039 A 
ENDROOT
BRANCH   4   7
ATOM      7  O   UNL d   1       0.766   0.826   0.355  0.00  0.00    -0.526 OA
ATOM      8  H5  UNL d   1       1.192   0.188   0.952  0.00  0.00     0.418 HD
ENDBRANCH   4   7
TORSDOF 1
ENDMDL
