MODEL 1
REMARK minimizedAffinity -5.2766118
REMARK minimizedRMSD -1
REMARK  1 active torsions:
REMARK  status: ('A' for Active; 'I' for Inactive)
REMARK    1  A    between atoms: C3_4  and  O_7 
ROOT
ATOM      1  C   UNL d   1      -0.214   0.468  -0.911  0.00  0.00    -0.033 A 
ATOM      2  C1  UNL d   1      -0.823   0.842   0.289  0.00  0.00     0.039 A 
ATOM      3  C2  UNL d   1      -2.134   0.447   0.561  0.00  0.00    -0.080 A 
ATOM      4  C3  UNL d   1      -2.824  -0.321  -0.373  0.00  0.00     0.150 A 
ATOM      5  C4  UNL d   1      -2.222  -0.700  -1.569  0.00  0.00    -0.007 A 
ATOM      6  C5  UNL d   1      -0.913  -0.304  -1.839  0.00  0.00     0.039 A 
ENDROOT
BRANCH   4   7
ATOM      7  O   UNL d   1      -4.107  -0.726  -0.154  0.00  0.00    -0.526 OA
ATOM      8  H5  UNL d   1      -4.402  -0.366   0.699  0.00  0.00     0.418 HD
ENDBRANCH   4   7
TORSDOF 1
ENDMDL
