MODEL 1
REMARK minimizedAffinity -4.73801708
REMARK minimizedRMSD -1
REMARK  1 active torsions:
REMARK  status: ('A' for Active; 'I' for Inactive)
REMARK    1  A    between atoms: C3_4  and  O_7 
ROOT
ATOM      1  C   UNL d   1       0.699  -0.104   1.664  0.00  0.00    -0.033 A 
ATOM      2  C1  UNL d   1       1.580   0.161   0.613  0.00  0.00     0.039 A 
ATOM      3  C2  UNL d   1       2.099   1.445   0.442  0.00  0.00    -0.080 A 
ATOM      4  C3  UNL d   1       1.732   2.454   1.328  0.00  0.00     0.150 A 
ATOM      5  C4  UNL d   1       0.858   2.197   2.379  0.00  0.00    -0.007 A 
ATOM      6  C5  UNL d   1       0.339   0.914   2.548  0.00  0.00     0.039 A 
ENDROOT
BRANCH   4   7
ATOM      7  O   UNL d   1       2.209   3.725   1.199  0.00  0.00    -0.526 OA
ATOM      8  H5  UNL d   1       2.779   3.761   0.412  0.00  0.00     0.418 HD
ENDBRANCH   4   7
TORSDOF 1
ENDMDL
