MODEL 1
REMARK minimizedAffinity -2.13571358
REMARK minimizedRMSD -1
REMARK  1 active torsions:
REMARK  status: ('A' for Active; 'I' for Inactive)
REMARK    1  A    between atoms: C3_4  and  O_7 
ROOT
ATOM      1  C   UNL d   1      -2.903  -0.791  -2.968  0.00  0.00    -0.033 A 
ATOM      2  C1  UNL d   1      -2.610  -1.795  -2.044  0.00  0.00     0.039 A 
ATOM      3  C2  UNL d   1      -1.734  -1.540  -0.987  0.00  0.00    -0.080 A 
ATOM      4  C3  UNL d   1      -1.159  -0.279  -0.866  0.00  0.00     0.150 A 
ATOM      5  C4  UNL d   1      -1.449   0.728  -1.781  0.00  0.00    -0.007 A 
ATOM      6  C5  UNL d   1      -2.323   0.471  -2.836  0.00  0.00     0.039 A 
ENDROOT
BRANCH   4   7
ATOM      7  O   UNL d   1      -0.294   0.016   0.146  0.00  0.00    -0.526 OA
ATOM      8  H5  UNL d   1      -0.166  -0.783   0.684  0.00  0.00     0.418 HD
ENDBRANCH   4   7
TORSDOF 1
ENDMDL
