MODEL 1
REMARK minimizedAffinity -2.21939731
REMARK minimizedRMSD -1
REMARK  0 active torsions:
REMARK  status: ('A' for Active; 'I' for Inactive)
ROOT
ATOM      1  C   UNL d   1       2.538  -0.084  -2.693  0.00  0.00     0.023 A 
ATOM      2  C1  UNL d   1       1.340  -0.748  -2.958  0.00  0.00     0.003 A 
ATOM      3  C2  UNL d   1       0.307  -0.730  -2.018  0.00  0.00     0.048 A 
ATOM      4  C3  UNL d   1       0.479  -0.046  -0.815  0.00  0.00     0.023 A 
ATOM      5  C4  UNL d   1       1.676   0.620  -0.546  0.00  0.00     0.048 A 
ATOM      6  C5  UNL d   1       2.706   0.599  -1.489  0.00  0.00     0.003 A 
ATOM      7  I   UNL d   1      -1.056  -0.018   0.585  0.00  0.00    -0.146 I 
ENDROOT
TORSDOF 0
ENDMDL
