MODEL 1
REMARK minimizedAffinity -2.08416462
REMARK minimizedRMSD -1
REMARK  0 active torsions:
REMARK  status: ('A' for Active; 'I' for Inactive)
ROOT
ATOM      1  C   UNL d   1       1.763   0.187  -2.561  0.00  0.00     0.023 A 
ATOM      2  C1  UNL d   1       1.502   1.340  -1.820  0.00  0.00     0.003 A 
ATOM      3  C2  UNL d   1       0.638   1.287  -0.725  0.00  0.00     0.048 A 
ATOM      4  C3  UNL d   1       0.038   0.078  -0.375  0.00  0.00     0.023 A 
ATOM      5  C4  UNL d   1       0.297  -1.079  -1.112  0.00  0.00     0.048 A 
ATOM      6  C5  UNL d   1       1.161  -1.021  -2.207  0.00  0.00     0.003 A 
ATOM      7  I   UNL d   1      -1.249  -0.004   1.255  0.00  0.00    -0.146 I 
ENDROOT
TORSDOF 0
ENDMDL
