MODEL 1
REMARK minimizedAffinity -0.70022732
REMARK minimizedRMSD -1
REMARK  0 active torsions:
REMARK  status: ('A' for Active; 'I' for Inactive)
ROOT
ATOM      1  C   UNL d   1      -4.135   1.586   2.486  0.00  0.00     0.023 A 
ATOM      2  C1  UNL d   1      -3.007   2.374   2.257  0.00  0.00     0.003 A 
ATOM      3  C2  UNL d   1      -1.848   1.799   1.732  0.00  0.00     0.048 A 
ATOM      4  C3  UNL d   1      -1.824   0.436   1.439  0.00  0.00     0.023 A 
ATOM      5  C4  UNL d   1      -2.951  -0.356   1.666  0.00  0.00     0.048 A 
ATOM      6  C5  UNL d   1      -4.107   0.223   2.192  0.00  0.00     0.003 A 
ATOM      7  I   UNL d   1      -0.099  -0.422   0.658  0.00  0.00    -0.146 I 
ENDROOT
TORSDOF 0
ENDMDL
