MODEL 1
REMARK minimizedAffinity -3.33567452
REMARK minimizedRMSD -1
REMARK  0 active torsions:
REMARK  status: ('A' for Active; 'I' for Inactive)
ROOT
ATOM      1  C   UNL d   1      -3.891   1.662   2.404  0.00  0.00     0.023 A 
ATOM      2  C1  UNL d   1      -3.954   0.536   1.583  0.00  0.00     0.003 A 
ATOM      3  C2  UNL d   1      -2.781  -0.023   1.071  0.00  0.00     0.048 A 
ATOM      4  C3  UNL d   1      -1.549   0.550   1.384  0.00  0.00     0.023 A 
ATOM      5  C4  UNL d   1      -1.481   1.677   2.205  0.00  0.00     0.048 A 
ATOM      6  C5  UNL d   1      -2.657   2.232   2.714  0.00  0.00     0.003 A 
ATOM      7  I   UNL d   1       0.199  -0.279   0.622  0.00  0.00    -0.146 I 
ENDROOT
TORSDOF 0
ENDMDL
