MODEL 1
REMARK minimizedAffinity -3.575454
REMARK minimizedRMSD -1
REMARK  0 active torsions:
REMARK  status: ('A' for Active; 'I' for Inactive)
ROOT
ATOM      1  C   UNL d   1      -0.088  -0.896   1.328  0.00  0.00     0.023 A 
ATOM      2  C1  UNL d   1       0.158  -1.977   0.482  0.00  0.00     0.003 A 
ATOM      3  C2  UNL d   1       0.772  -1.772  -0.756  0.00  0.00     0.048 A 
ATOM      4  C3  UNL d   1       1.138  -0.482  -1.140  0.00  0.00     0.023 A 
ATOM      5  C4  UNL d   1       0.894   0.603  -0.296  0.00  0.00     0.048 A 
ATOM      6  C5  UNL d   1       0.279   0.392   0.939  0.00  0.00     0.003 A 
ATOM      7  I   UNL d   1       2.052  -0.174  -2.981  0.00  0.00    -0.146 I 
ENDROOT
TORSDOF 0
ENDMDL
