MODEL 1
REMARK minimizedAffinity -2.42261744
REMARK minimizedRMSD -1
REMARK  0 active torsions:
REMARK  status: ('A' for Active; 'I' for Inactive)
ROOT
ATOM      1  C   UNL d   1       1.617   0.089  -2.507  0.00  0.00     0.023 A 
ATOM      2  C1  UNL d   1       1.994   0.563  -1.250  0.00  0.00     0.003 A 
ATOM      3  C2  UNL d   1       1.045   0.677  -0.232  0.00  0.00     0.048 A 
ATOM      4  C3  UNL d   1      -0.279   0.315  -0.478  0.00  0.00     0.023 A 
ATOM      5  C4  UNL d   1      -0.661  -0.160  -1.733  0.00  0.00     0.048 A 
ATOM      6  C5  UNL d   1       0.291  -0.272  -2.748  0.00  0.00     0.003 A 
ATOM      7  I   UNL d   1      -1.693   0.483   1.036  0.00  0.00    -0.146 I 
ENDROOT
TORSDOF 0
ENDMDL
