MODEL 1
REMARK minimizedAffinity -3.16998267
REMARK minimizedRMSD -1
REMARK  0 active torsions:
REMARK  status: ('A' for Active; 'I' for Inactive)
ROOT
ATOM      1  C   UNL d   1       1.679   0.090  -2.747  0.00  0.00     0.023 A 
ATOM      2  C1  UNL d   1       0.337  -0.289  -2.761  0.00  0.00     0.003 A 
ATOM      3  C2  UNL d   1      -0.387  -0.343  -1.568  0.00  0.00     0.048 A 
ATOM      4  C3  UNL d   1       0.238  -0.014  -0.365  0.00  0.00     0.023 A 
ATOM      5  C4  UNL d   1       1.581   0.367  -0.347  0.00  0.00     0.048 A 
ATOM      6  C5  UNL d   1       2.300   0.417  -1.542  0.00  0.00     0.003 A 
ATOM      7  I   UNL d   1      -0.837  -0.092   1.412  0.00  0.00    -0.146 I 
ENDROOT
TORSDOF 0
ENDMDL
