MODEL 1
REMARK minimizedAffinity -3.5402422
REMARK minimizedRMSD -1
REMARK  0 active torsions:
REMARK  status: ('A' for Active; 'I' for Inactive)
ROOT
ATOM      1  C   UNL d   1       2.143  -0.001  -2.159  0.00  0.00     0.023 A 
ATOM      2  C1  UNL d   1       1.374  -1.150  -1.974  0.00  0.00     0.003 A 
ATOM      3  C2  UNL d   1       0.350  -1.161  -1.025  0.00  0.00     0.048 A 
ATOM      4  C3  UNL d   1       0.099  -0.019  -0.265  0.00  0.00     0.023 A 
ATOM      5  C4  UNL d   1       0.866   1.133  -0.447  0.00  0.00     0.048 A 
ATOM      6  C5  UNL d   1       1.890   1.139  -1.396  0.00  0.00     0.003 A 
ATOM      7  I   UNL d   1      -1.425  -0.033   1.148  0.00  0.00    -0.146 I 
ENDROOT
TORSDOF 0
ENDMDL
