MODEL 1
REMARK minimizedAffinity -3.59205723
REMARK minimizedRMSD -1
REMARK  0 active torsions:
REMARK  status: ('A' for Active; 'I' for Inactive)
ROOT
ATOM      1  C   UNL d   1       2.381   0.161  -2.479  0.00  0.00     0.023 A 
ATOM      2  C1  UNL d   1       1.351  -0.780  -2.491  0.00  0.00     0.003 A 
ATOM      3  C2  UNL d   1       0.446  -0.839  -1.429  0.00  0.00     0.048 A 
ATOM      4  C3  UNL d   1       0.576   0.046  -0.360  0.00  0.00     0.023 A 
ATOM      5  C4  UNL d   1       1.604   0.989  -0.344  0.00  0.00     0.048 A 
ATOM      6  C5  UNL d   1       2.507   1.044  -1.407  0.00  0.00     0.003 A 
ATOM      7  I   UNL d   1      -0.770  -0.041   1.222  0.00  0.00    -0.146 I 
ENDROOT
TORSDOF 0
ENDMDL
