MODEL 1
REMARK minimizedAffinity -2.07527328
REMARK minimizedRMSD -1
REMARK  0 active torsions:
REMARK  status: ('A' for Active; 'I' for Inactive)
ROOT
ATOM      1  C   UNL d   1       1.727   0.408  -2.380  0.00  0.00     0.023 A 
ATOM      2  C1  UNL d   1       1.999   1.150  -1.231  0.00  0.00     0.003 A 
ATOM      3  C2  UNL d   1       1.249   0.943  -0.071  0.00  0.00     0.048 A 
ATOM      4  C3  UNL d   1       0.230  -0.009  -0.067  0.00  0.00     0.023 A 
ATOM      5  C4  UNL d   1      -0.045  -0.755  -1.214  0.00  0.00     0.048 A 
ATOM      6  C5  UNL d   1       0.707  -0.543  -2.372  0.00  0.00     0.003 A 
ATOM      7  I   UNL d   1      -0.886  -0.319   1.658  0.00  0.00    -0.146 I 
ENDROOT
TORSDOF 0
ENDMDL
