MODEL 1
REMARK minimizedAffinity -3.24893594
REMARK minimizedRMSD -1
REMARK  0 active torsions:
REMARK  status: ('A' for Active; 'I' for Inactive)
ROOT
ATOM      1  C   UNL d   1       2.871  -1.026  -2.028  0.00  0.00     0.023 A 
ATOM      2  C1  UNL d   1       2.204  -2.076  -1.395  0.00  0.00     0.003 A 
ATOM      3  C2  UNL d   1       1.160  -1.807  -0.507  0.00  0.00     0.048 A 
ATOM      4  C3  UNL d   1       0.787  -0.487  -0.257  0.00  0.00     0.023 A 
ATOM      5  C4  UNL d   1       1.451   0.566  -0.889  0.00  0.00     0.048 A 
ATOM      6  C5  UNL d   1       2.494   0.293  -1.775  0.00  0.00     0.003 A 
ATOM      7  I   UNL d   1      -0.766  -0.085   1.064  0.00  0.00    -0.146 I 
ENDROOT
TORSDOF 0
ENDMDL
