MODEL 1
REMARK minimizedAffinity -4.00114012
REMARK minimizedRMSD -1
REMARK  0 active torsions:
REMARK  status: ('A' for Active; 'I' for Inactive)
ROOT
ATOM      1  C   UNL d   1       2.189  -0.289  -2.623  0.00  0.00     0.023 A 
ATOM      2  C1  UNL d   1       1.190  -1.254  -2.495  0.00  0.00     0.003 A 
ATOM      3  C2  UNL d   1       0.253  -1.158  -1.465  0.00  0.00     0.048 A 
ATOM      4  C3  UNL d   1       0.319  -0.093  -0.567  0.00  0.00     0.023 A 
ATOM      5  C4  UNL d   1       1.317   0.876  -0.692  0.00  0.00     0.048 A 
ATOM      6  C5  UNL d   1       2.253   0.774  -1.723  0.00  0.00     0.003 A 
ATOM      7  I   UNL d   1      -1.075   0.053   0.967  0.00  0.00    -0.146 I 
ENDROOT
TORSDOF 0
ENDMDL
