MODEL 1
REMARK minimizedAffinity -2.88220429
REMARK minimizedRMSD -1
REMARK  0 active torsions:
REMARK  status: ('A' for Active; 'I' for Inactive)
ROOT
ATOM      1  C   UNL d   1       1.563   0.588  -2.623  0.00  0.00     0.023 A 
ATOM      2  C1  UNL d   1       0.256   0.107  -2.713  0.00  0.00     0.003 A 
ATOM      3  C2  UNL d   1      -0.498  -0.090  -1.554  0.00  0.00     0.048 A 
ATOM      4  C3  UNL d   1       0.061   0.196  -0.309  0.00  0.00     0.023 A 
ATOM      5  C4  UNL d   1       1.367   0.677  -0.214  0.00  0.00     0.048 A 
ATOM      6  C5  UNL d   1       2.118   0.872  -1.375  0.00  0.00     0.003 A 
ATOM      7  I   UNL d   1      -1.060  -0.097   1.417  0.00  0.00    -0.146 I 
ENDROOT
TORSDOF 0
ENDMDL
