MODEL 1
REMARK minimizedAffinity -2.70383501
REMARK minimizedRMSD -1
REMARK  0 active torsions:
REMARK  status: ('A' for Active; 'I' for Inactive)
ROOT
ATOM      1  C   UNL d   1       1.925  -0.022  -2.715  0.00  0.00     0.023 A 
ATOM      2  C1  UNL d   1       1.943   0.878  -1.650  0.00  0.00     0.003 A 
ATOM      3  C2  UNL d   1       1.217   0.603  -0.489  0.00  0.00     0.048 A 
ATOM      4  C3  UNL d   1       0.475  -0.574  -0.400  0.00  0.00     0.023 A 
ATOM      5  C4  UNL d   1       0.454  -1.478  -1.464  0.00  0.00     0.048 A 
ATOM      6  C5  UNL d   1       1.181  -1.198  -2.622  0.00  0.00     0.003 A 
ATOM      7  I   UNL d   1      -0.606  -0.986   1.326  0.00  0.00    -0.146 I 
ENDROOT
TORSDOF 0
ENDMDL
