MODEL 1
REMARK minimizedAffinity -3.13758302
REMARK minimizedRMSD -1
REMARK  0 active torsions:
REMARK  status: ('A' for Active; 'I' for Inactive)
ROOT
ATOM      1  C   UNL d   1       1.923  -0.125  -2.473  0.00  0.00     0.023 A 
ATOM      2  C1  UNL d   1       2.006   0.929  -1.562  0.00  0.00     0.003 A 
ATOM      3  C2  UNL d   1       1.120   0.994  -0.485  0.00  0.00     0.048 A 
ATOM      4  C3  UNL d   1       0.154   0.002  -0.324  0.00  0.00     0.023 A 
ATOM      5  C4  UNL d   1       0.067  -1.054  -1.232  0.00  0.00     0.048 A 
ATOM      6  C5  UNL d   1       0.955  -1.115  -2.308  0.00  0.00     0.003 A 
ATOM      7  I   UNL d   1      -1.166   0.097   1.279  0.00  0.00    -0.146 I 
ENDROOT
TORSDOF 0
ENDMDL
