MODEL 1
REMARK minimizedAffinity -3.10544538
REMARK minimizedRMSD -1
REMARK  0 active torsions:
REMARK  status: ('A' for Active; 'I' for Inactive)
ROOT
ATOM      1  C   UNL d   1       1.533   0.013  -2.286  0.00  0.00     0.023 A 
ATOM      2  C1  UNL d   1       0.864  -1.170  -1.971  0.00  0.00     0.003 A 
ATOM      3  C2  UNL d   1       0.061  -1.237  -0.831  0.00  0.00     0.048 A 
ATOM      4  C3  UNL d   1      -0.069  -0.117  -0.010  0.00  0.00     0.023 A 
ATOM      5  C4  UNL d   1       0.598   1.069  -0.322  0.00  0.00     0.048 A 
ATOM      6  C5  UNL d   1       1.400   1.131  -1.463  0.00  0.00     0.003 A 
ATOM      7  I   UNL d   1      -1.264  -0.214   1.688  0.00  0.00    -0.146 I 
ENDROOT
TORSDOF 0
ENDMDL
