MODEL 1
REMARK minimizedAffinity -3.8795259
REMARK minimizedRMSD -1
REMARK  0 active torsions:
REMARK  status: ('A' for Active; 'I' for Inactive)
ROOT
ATOM      1  C   UNL d   1       1.953  -1.542  -2.407  0.00  0.00     0.023 A 
ATOM      2  C1  UNL d   1       1.270  -2.459  -1.608  0.00  0.00     0.003 A 
ATOM      3  C2  UNL d   1       0.418  -2.009  -0.598  0.00  0.00     0.048 A 
ATOM      4  C3  UNL d   1       0.251  -0.640  -0.393  0.00  0.00     0.023 A 
ATOM      5  C4  UNL d   1       0.931   0.282  -1.190  0.00  0.00     0.048 A 
ATOM      6  C5  UNL d   1       1.784  -0.173  -2.198  0.00  0.00     0.003 A 
ATOM      7  I   UNL d   1      -1.018   0.032   1.110  0.00  0.00    -0.146 I 
ENDROOT
TORSDOF 0
ENDMDL
