MODEL 1
REMARK minimizedAffinity -5.79364443
REMARK minimizedRMSD -1
REMARK  3 active torsions:
REMARK  status: ('A' for Active; 'I' for Inactive)
REMARK    1  A    between atoms: C3'_2  and  C2'_3 
REMARK    2  A    between atoms: C2'_3  and  C1'_4 
REMARK    3  A    between atoms: C1'_4  and  C1_5 
ROOT
ATOM      1  C1  N4B d   1       0.944   0.134   0.435  0.00  0.00    -0.075 A 
ATOM      2  C2  N4B d   1       2.297   0.536   0.446  0.00  0.00     0.002 A 
ATOM      3  C3  N4B d   1       3.234  -0.227   1.099  0.00  0.00     0.002 A 
ATOM      4  C4  N4B d   1       2.840  -1.380   1.761  0.00  0.00    -0.004 A 
ATOM      5  C5  N4B d   1       1.534  -1.774   1.724  0.00  0.00     0.002 A 
ATOM      6  C6  N4B d   1       0.583  -1.019   1.068  0.00  0.00     0.002 A 
ENDROOT
BRANCH   1   7
ATOM      7  C1' N4B d   1      -0.131   0.980  -0.193  0.00  0.00     0.057 C 
BRANCH   7   8
ATOM      8  C2' N4B d   1      -1.428   0.180  -0.250  0.00  0.00     0.009 C 
BRANCH   8   9
ATOM      9  C3' N4B d   1      -2.364   0.693  -1.331  0.00  0.00     0.004 C 
ATOM     10  C4' N4B d   1      -2.433  -0.218  -2.521  0.00  0.00     0.003 C 
ENDBRANCH   8   9
ENDBRANCH   7   8
ENDBRANCH   1   7
TORSDOF 3
ENDMDL
