MODEL 1
REMARK minimizedAffinity -4.26643658
REMARK minimizedRMSD -1
REMARK  3 active torsions:
REMARK  status: ('A' for Active; 'I' for Inactive)
REMARK    1  A    between atoms: C3'_2  and  C2'_3 
REMARK    2  A    between atoms: C2'_3  and  C1'_4 
REMARK    3  A    between atoms: C1'_4  and  C1_5 
ROOT
ATOM      1  C1  N4B d   1       0.396  -0.251   0.081  0.00  0.00    -0.075 A 
ATOM      2  C2  N4B d   1       1.100  -1.353  -0.452  0.00  0.00     0.002 A 
ATOM      3  C3  N4B d   1       2.448  -1.484  -0.221  0.00  0.00     0.002 A 
ATOM      4  C4  N4B d   1       3.113  -0.519   0.520  0.00  0.00    -0.004 A 
ATOM      5  C5  N4B d   1       2.420   0.530   1.053  0.00  0.00     0.002 A 
ATOM      6  C6  N4B d   1       1.065   0.671   0.832  0.00  0.00     0.002 A 
ENDROOT
BRANCH   1   7
ATOM      7  C1' N4B d   1      -1.061  -0.021  -0.217  0.00  0.00     0.057 C 
BRANCH   7   8
ATOM      8  C2' N4B d   1      -1.421  -0.720  -1.524  0.00  0.00     0.009 C 
BRANCH   8   9
ATOM      9  C3' N4B d   1      -2.544  -0.007  -2.259  0.00  0.00     0.004 C 
ATOM     10  C4' N4B d   1      -2.339   0.023  -3.744  0.00  0.00     0.003 C 
ENDBRANCH   8   9
ENDBRANCH   7   8
ENDBRANCH   1   7
TORSDOF 3
ENDMDL
