MODEL 1
REMARK minimizedAffinity -1.8810842
REMARK minimizedRMSD -1
REMARK  3 active torsions:
REMARK  status: ('A' for Active; 'I' for Inactive)
REMARK    1  A    between atoms: C3'_2  and  C2'_3 
REMARK    2  A    between atoms: C2'_3  and  C1'_4 
REMARK    3  A    between atoms: C1'_4  and  C1_5 
ROOT
ATOM      1  C1  N4B d   1      -0.395   0.088  -0.324  0.00  0.00    -0.075 A 
ATOM      2  C2  N4B d   1       0.023  -1.245  -0.110  0.00  0.00     0.002 A 
ATOM      3  C3  N4B d   1       1.142  -1.501   0.644  0.00  0.00     0.002 A 
ATOM      4  C4  N4B d   1       1.867  -0.445   1.176  0.00  0.00    -0.004 A 
ATOM      5  C5  N4B d   1       1.442   0.838   0.986  0.00  0.00     0.002 A 
ATOM      6  C6  N4B d   1       0.317   1.110   0.234  0.00  0.00     0.002 A 
ENDROOT
BRANCH   1   7
ATOM      7  C1' N4B d   1      -1.562   0.421  -1.212  0.00  0.00     0.057 C 
BRANCH   7   8
ATOM      8  C2' N4B d   1      -1.609  -0.571  -2.370  0.00  0.00     0.009 C 
BRANCH   8   9
ATOM      9  C3' N4B d   1      -2.349  -0.008  -3.571  0.00  0.00     0.004 C 
ATOM     10  C4' N4B d   1      -3.246   1.140  -3.215  0.00  0.00     0.003 C 
ENDBRANCH   8   9
ENDBRANCH   7   8
ENDBRANCH   1   7
TORSDOF 3
ENDMDL
