MODEL 1
REMARK minimizedAffinity -5.57723999
REMARK minimizedRMSD -1
REMARK  3 active torsions:
REMARK  status: ('A' for Active; 'I' for Inactive)
REMARK    1  A    between atoms: C3'_2  and  C2'_3 
REMARK    2  A    between atoms: C2'_3  and  C1'_4 
REMARK    3  A    between atoms: C1'_4  and  C1_5 
ROOT
ATOM      1  C1  N4B d   1      -0.047  -0.099  -0.041  0.00  0.00    -0.075 A 
ATOM      2  C2  N4B d   1       0.387   1.217   0.230  0.00  0.00     0.002 A 
ATOM      3  C3  N4B d   1       1.710   1.462   0.506  0.00  0.00     0.002 A 
ATOM      4  C4  N4B d   1       2.610   0.407   0.535  0.00  0.00    -0.004 A 
ATOM      5  C5  N4B d   1       2.188  -0.858   0.247  0.00  0.00     0.002 A 
ATOM      6  C6  N4B d   1       0.862  -1.117  -0.036  0.00  0.00     0.002 A 
ENDROOT
BRANCH   1   7
ATOM      7  C1' N4B d   1      -1.498  -0.427  -0.263  0.00  0.00     0.057 C 
BRANCH   7   8
ATOM      8  C2' N4B d   1      -2.071   0.522  -1.311  0.00  0.00     0.009 C 
BRANCH   8   9
ATOM      9  C3' N4B d   1      -1.918  -0.026  -2.719  0.00  0.00     0.004 C 
ATOM     10  C4' N4B d   1      -2.965  -1.044  -3.063  0.00  0.00     0.003 C 
ENDBRANCH   8   9
ENDBRANCH   7   8
ENDBRANCH   1   7
TORSDOF 3
ENDMDL
