MODEL 1
REMARK minimizedAffinity 6.17481613
REMARK minimizedRMSD -1
REMARK  1 active torsions:
REMARK  status: ('A' for Active; 'I' for Inactive)
REMARK    1  A    between atoms: N_2  and  C1_3 
ROOT
ATOM      1  C1  UNL d   1      -2.890   2.976   1.037  0.00  0.00     0.143 A 
ATOM      2  C2  UNL d   1      -3.376   3.728  -0.037  0.00  0.00    -0.057 A 
ATOM      3  C3  UNL d   1      -4.676   4.247  -0.032  0.00  0.00     0.033 A 
ATOM      4  C4  UNL d   1      -5.527   3.997   1.040  0.00  0.00    -0.042 A 
ATOM      5  C5  UNL d   1      -5.074   3.231   2.108  0.00  0.00     0.033 A 
ATOM      6  C6  UNL d   1      -3.772   2.721   2.100  0.00  0.00    -0.057 A 
ENDROOT
BRANCH   1   7
ATOM      7  N   UNL d   1      -1.641   2.350   1.048  0.00  0.00    -0.732 N 
ATOM      8  C   UNL d   1      -1.517   0.946   0.719  0.00  0.00     0.284 C 
ATOM      9  H3  UNL d   1      -0.910   2.936   0.651  0.00  0.00     0.395 HD
ENDBRANCH   1   7
TORSDOF 1
ENDMDL
