MODEL 1
REMARK minimizedAffinity 2.32776737
REMARK minimizedRMSD -1
REMARK  1 active torsions:
REMARK  status: ('A' for Active; 'I' for Inactive)
REMARK    1  A    between atoms: N_2  and  C1_3 
ROOT
ATOM      1  C1  UNL d   1       3.744  -2.159   4.047  0.00  0.00     0.143 A 
ATOM      2  C2  UNL d   1       2.613  -2.884   4.438  0.00  0.00    -0.057 A 
ATOM      3  C3  UNL d   1       1.353  -2.612   3.892  0.00  0.00     0.033 A 
ATOM      4  C4  UNL d   1       1.196  -1.588   2.964  0.00  0.00    -0.042 A 
ATOM      5  C5  UNL d   1       2.302  -0.838   2.580  0.00  0.00     0.033 A 
ATOM      6  C6  UNL d   1       3.559  -1.118   3.124  0.00  0.00    -0.057 A 
ENDROOT
BRANCH   1   7
ATOM      7  N   UNL d   1       5.006  -2.315   4.626  0.00  0.00    -0.732 N 
ATOM      8  C   UNL d   1       5.139  -2.749   6.000  0.00  0.00     0.284 C 
ATOM      9  H3  UNL d   1       5.675  -2.742   3.989  0.00  0.00     0.395 HD
ENDBRANCH   1   7
TORSDOF 1
ENDMDL
