MODEL 1
REMARK minimizedAffinity 2.50315571
REMARK minimizedRMSD -1
REMARK  1 active torsions:
REMARK  status: ('A' for Active; 'I' for Inactive)
REMARK    1  A    between atoms: N_2  and  C1_3 
ROOT
ATOM      1  C1  UNL d   1       3.535  -1.704   4.126  0.00  0.00     0.143 A 
ATOM      2  C2  UNL d   1       4.744  -1.513   3.449  0.00  0.00    -0.057 A 
ATOM      3  C3  UNL d   1       5.965  -1.891   4.022  0.00  0.00     0.033 A 
ATOM      4  C4  UNL d   1       5.999  -2.442   5.299  0.00  0.00    -0.042 A 
ATOM      5  C5  UNL d   1       4.811  -2.619   6.000  0.00  0.00     0.033 A 
ATOM      6  C6  UNL d   1       3.595  -2.245   5.419  0.00  0.00    -0.057 A 
ENDROOT
BRANCH   1   7
ATOM      7  N   UNL d   1       2.299  -1.259   3.650  0.00  0.00    -0.732 N 
ATOM      8  C   UNL d   1       2.227  -0.290   2.578  0.00  0.00     0.284 C 
ATOM      9  H3  UNL d   1       1.617  -2.010   3.577  0.00  0.00     0.395 HD
ENDBRANCH   1   7
TORSDOF 1
ENDMDL
