MODEL 1
REMARK minimizedAffinity 7.69824791
REMARK minimizedRMSD -1
REMARK  1 active torsions:
REMARK  status: ('A' for Active; 'I' for Inactive)
REMARK    1  A    between atoms: N_2  and  C1_3 
ROOT
ATOM      1  C1  UNL d   1       0.833  -0.662   1.366  0.00  0.00     0.143 A 
ATOM      2  C2  UNL d   1      -0.534  -0.461   1.148  0.00  0.00    -0.057 A 
ATOM      3  C3  UNL d   1      -1.176  -0.997   0.025  0.00  0.00     0.033 A 
ATOM      4  C4  UNL d   1      -0.453  -1.721  -0.918  0.00  0.00    -0.042 A 
ATOM      5  C5  UNL d   1       0.911  -1.912  -0.733  0.00  0.00     0.033 A 
ATOM      6  C6  UNL d   1       1.546  -1.380   0.393  0.00  0.00    -0.057 A 
ENDROOT
BRANCH   1   7
ATOM      7  N   UNL d   1       1.549  -0.073   2.412  0.00  0.00    -0.732 N 
ATOM      8  C   UNL d   1       2.166  -0.889   3.435  0.00  0.00     0.284 C 
ATOM      9  H3  UNL d   1       2.124   0.706   2.098  0.00  0.00     0.395 HD
ENDBRANCH   1   7
TORSDOF 1
ENDMDL
