MODEL 1
REMARK minimizedAffinity -2.01530671
REMARK minimizedRMSD -1
REMARK  0 active torsions:
REMARK  status: ('A' for Active; 'I' for Inactive)
ROOT
ATOM      1  C   UNL d   1      -4.484   0.609  -5.630  0.00  0.00     0.078 C 
ATOM      2  C1  UNL d   1      -4.282   2.092  -5.731  0.00  0.00    -0.077 A 
ATOM      3  C2  UNL d   1      -3.004   2.654  -5.632  0.00  0.00    -0.001 A 
ATOM      4  C3  UNL d   1      -2.832   4.037  -5.719  0.00  0.00     0.003 A 
ATOM      5  C4  UNL d   1      -3.934   4.869  -5.903  0.00  0.00    -0.005 A 
ATOM      6  C5  UNL d   1      -5.211   4.318  -6.000  0.00  0.00     0.003 A 
ATOM      7  C6  UNL d   1      -5.384   2.936  -5.914  0.00  0.00    -0.001 A 
ENDROOT
TORSDOF 0
ENDMDL
