MODEL 1
REMARK minimizedAffinity -4.75588179
REMARK minimizedRMSD -1
REMARK  0 active torsions:
REMARK  status: ('A' for Active; 'I' for Inactive)
ROOT
ATOM      1  C   UNL d   1       0.649   0.092  -0.624  0.00  0.00     0.078 C 
ATOM      2  C1  UNL d   1       2.000  -0.386  -1.067  0.00  0.00    -0.077 A 
ATOM      3  C2  UNL d   1       2.222  -1.734  -1.376  0.00  0.00    -0.001 A 
ATOM      4  C3  UNL d   1       3.487  -2.167  -1.777  0.00  0.00     0.003 A 
ATOM      5  C4  UNL d   1       4.539  -1.259  -1.872  0.00  0.00    -0.005 A 
ATOM      6  C5  UNL d   1       4.328   0.084  -1.565  0.00  0.00     0.003 A 
ATOM      7  C6  UNL d   1       3.064   0.518  -1.163  0.00  0.00    -0.001 A 
ENDROOT
TORSDOF 0
ENDMDL
