MODEL 1
REMARK minimizedAffinity 0.575023651
REMARK minimizedRMSD -1
REMARK  0 active torsions:
REMARK  status: ('A' for Active; 'I' for Inactive)
ROOT
ATOM      1  C   UNL d   1      -0.201  -1.285   1.026  0.00  0.00     0.078 C 
ATOM      2  C1  UNL d   1      -0.037  -0.780  -0.376  0.00  0.00    -0.077 A 
ATOM      3  C2  UNL d   1       0.821   0.289  -0.662  0.00  0.00    -0.001 A 
ATOM      4  C3  UNL d   1       0.956   0.755  -1.971  0.00  0.00     0.003 A 
ATOM      5  C4  UNL d   1       0.236   0.159  -3.004  0.00  0.00    -0.005 A 
ATOM      6  C5  UNL d   1      -0.623  -0.904  -2.729  0.00  0.00     0.003 A 
ATOM      7  C6  UNL d   1      -0.759  -1.371  -1.420  0.00  0.00    -0.001 A 
ENDROOT
TORSDOF 0
ENDMDL
