MODEL 1
REMARK minimizedAffinity -1.03446066
REMARK minimizedRMSD -1
REMARK  0 active torsions:
REMARK  status: ('A' for Active; 'I' for Inactive)
ROOT
ATOM      1  C   UNL d   1      -1.350   3.542  -5.347  0.00  0.00     0.078 C 
ATOM      2  C1  UNL d   1      -2.786   3.932  -5.539  0.00  0.00    -0.077 A 
ATOM      3  C2  UNL d   1      -3.193   5.266  -5.419  0.00  0.00    -0.001 A 
ATOM      4  C3  UNL d   1      -4.534   5.613  -5.591  0.00  0.00     0.003 A 
ATOM      5  C4  UNL d   1      -5.479   4.630  -5.881  0.00  0.00    -0.005 A 
ATOM      6  C5  UNL d   1      -5.084   3.300  -6.000  0.00  0.00     0.003 A 
ATOM      7  C6  UNL d   1      -3.743   2.951  -5.829  0.00  0.00    -0.001 A 
ENDROOT
TORSDOF 0
ENDMDL
