MODEL 1
REMARK minimizedAffinity -2.38236189
REMARK minimizedRMSD -1
REMARK  0 active torsions:
REMARK  status: ('A' for Active; 'I' for Inactive)
ROOT
ATOM      1  C   UNL d   1      -5.998   4.509  -5.999  0.00  0.00     0.078 C 
ATOM      2  C1  UNL d   1      -4.529   4.220  -5.931  0.00  0.00    -0.077 A 
ATOM      3  C2  UNL d   1      -4.058   2.908  -5.789  0.00  0.00    -0.001 A 
ATOM      4  C3  UNL d   1      -2.688   2.654  -5.717  0.00  0.00     0.003 A 
ATOM      5  C4  UNL d   1      -1.776   3.706  -5.786  0.00  0.00    -0.005 A 
ATOM      6  C5  UNL d   1      -2.235   5.014  -5.926  0.00  0.00     0.003 A 
ATOM      7  C6  UNL d   1      -3.605   5.270  -5.998  0.00  0.00    -0.001 A 
ENDROOT
TORSDOF 0
ENDMDL
