MODEL 1
REMARK minimizedAffinity -3.62550354
REMARK minimizedRMSD -1
REMARK  0 active torsions:
REMARK  status: ('A' for Active; 'I' for Inactive)
ROOT
ATOM      1  C   UNL d   1      -1.771   4.145  -5.242  0.00  0.00     0.078 C 
ATOM      2  C1  UNL d   1      -3.059   3.421  -5.497  0.00  0.00    -0.077 A 
ATOM      3  C2  UNL d   1      -3.111   2.022  -5.500  0.00  0.00    -0.001 A 
ATOM      4  C3  UNL d   1      -4.315   1.361  -5.749  0.00  0.00     0.003 A 
ATOM      5  C4  UNL d   1      -5.476   2.091  -5.998  0.00  0.00    -0.005 A 
ATOM      6  C5  UNL d   1      -5.433   3.483  -5.999  0.00  0.00     0.003 A 
ATOM      7  C6  UNL d   1      -4.230   4.146  -5.751  0.00  0.00    -0.001 A 
ENDROOT
TORSDOF 0
ENDMDL
