MODEL 1
REMARK minimizedAffinity -3.23157263
REMARK minimizedRMSD -1
REMARK  0 active torsions:
REMARK  status: ('A' for Active; 'I' for Inactive)
ROOT
ATOM      1  C   UNL d   1      -1.176  -1.501  -3.221  0.00  0.00     0.078 C 
ATOM      2  C1  UNL d   1      -0.527  -0.953  -1.985  0.00  0.00    -0.077 A 
ATOM      3  C2  UNL d   1       0.357   0.130  -2.055  0.00  0.00    -0.001 A 
ATOM      4  C3  UNL d   1       0.961   0.624  -0.897  0.00  0.00     0.003 A 
ATOM      5  C4  UNL d   1       0.688   0.039   0.338  0.00  0.00    -0.005 A 
ATOM      6  C5  UNL d   1      -0.189  -1.040   0.417  0.00  0.00     0.003 A 
ATOM      7  C6  UNL d   1      -0.794  -1.535  -0.740  0.00  0.00    -0.001 A 
ENDROOT
TORSDOF 0
ENDMDL
