MODEL 1
REMARK minimizedAffinity -1.60835087
REMARK minimizedRMSD -1
REMARK  0 active torsions:
REMARK  status: ('A' for Active; 'I' for Inactive)
ROOT
ATOM      1  C   UNL d   1      -4.686   1.833  -5.980  0.00  0.00     0.078 C 
ATOM      2  C1  UNL d   1      -4.083   3.205  -5.952  0.00  0.00    -0.077 A 
ATOM      3  C2  UNL d   1      -2.697   3.383  -5.864  0.00  0.00    -0.001 A 
ATOM      4  C3  UNL d   1      -2.150   4.667  -5.829  0.00  0.00     0.003 A 
ATOM      5  C4  UNL d   1      -2.983   5.783  -5.879  0.00  0.00    -0.005 A 
ATOM      6  C5  UNL d   1      -4.363   5.616  -5.964  0.00  0.00     0.003 A 
ATOM      7  C6  UNL d   1      -4.912   4.333  -6.000  0.00  0.00    -0.001 A 
ENDROOT
TORSDOF 0
ENDMDL
