MODEL 1
REMARK minimizedAffinity -3.59015703
REMARK minimizedRMSD -1
REMARK  0 active torsions:
REMARK  status: ('A' for Active; 'I' for Inactive)
ROOT
ATOM      1  C   UNL d   1      -1.909   4.099  -5.942  0.00  0.00     0.078 C 
ATOM      2  C1  UNL d   1      -3.331   3.624  -5.954  0.00  0.00    -0.077 A 
ATOM      3  C2  UNL d   1      -3.635   2.257  -5.979  0.00  0.00    -0.001 A 
ATOM      4  C3  UNL d   1      -4.963   1.829  -6.000  0.00  0.00     0.003 A 
ATOM      5  C4  UNL d   1      -5.999   2.762  -5.996  0.00  0.00    -0.005 A 
ATOM      6  C5  UNL d   1      -5.706   4.124  -5.972  0.00  0.00     0.003 A 
ATOM      7  C6  UNL d   1      -4.378   4.554  -5.952  0.00  0.00    -0.001 A 
ENDROOT
TORSDOF 0
ENDMDL
