MODEL 1
REMARK minimizedAffinity 0.846044481
REMARK minimizedRMSD -1
REMARK  0 active torsions:
REMARK  status: ('A' for Active; 'I' for Inactive)
ROOT
ATOM      1  C   UNL d   1      -5.215   2.760  -5.840  0.00  0.00     0.078 C 
ATOM      2  C1  UNL d   1      -4.065   3.722  -5.850  0.00  0.00    -0.077 A 
ATOM      3  C2  UNL d   1      -2.747   3.272  -5.699  0.00  0.00    -0.001 A 
ATOM      4  C3  UNL d   1      -1.687   4.179  -5.700  0.00  0.00     0.003 A 
ATOM      5  C4  UNL d   1      -1.932   5.542  -5.851  0.00  0.00    -0.005 A 
ATOM      6  C5  UNL d   1      -3.240   6.000  -6.000  0.00  0.00     0.003 A 
ATOM      7  C6  UNL d   1      -4.302   5.094  -5.999  0.00  0.00    -0.001 A 
ENDROOT
TORSDOF 0
ENDMDL
