MODEL 1
REMARK minimizedAffinity -2.88379455
REMARK minimizedRMSD -1
REMARK  0 active torsions:
REMARK  status: ('A' for Active; 'I' for Inactive)
ROOT
ATOM      1  C   UNL d   1      -1.154  -1.445  -3.834  0.00  0.00     0.078 C 
ATOM      2  C1  UNL d   1      -1.809  -2.587  -4.552  0.00  0.00    -0.077 A 
ATOM      3  C2  UNL d   1      -2.995  -2.401  -5.272  0.00  0.00    -0.001 A 
ATOM      4  C3  UNL d   1      -3.599  -3.475  -5.928  0.00  0.00     0.003 A 
ATOM      5  C4  UNL d   1      -3.025  -4.743  -5.868  0.00  0.00    -0.005 A 
ATOM      6  C5  UNL d   1      -1.846  -4.939  -5.151  0.00  0.00     0.003 A 
ATOM      7  C6  UNL d   1      -1.240  -3.866  -4.496  0.00  0.00    -0.001 A 
ENDROOT
TORSDOF 0
ENDMDL
