MODEL 1
REMARK minimizedAffinity 4.11066628
REMARK minimizedRMSD -1
REMARK  0 active torsions:
REMARK  status: ('A' for Active; 'I' for Inactive)
ROOT
ATOM      1  C   UNL d   1       1.667   0.603  -1.083  0.00  0.00     0.078 C 
ATOM      2  C1  UNL d   1       3.121   0.968  -1.095  0.00  0.00    -0.077 A 
ATOM      3  C2  UNL d   1       4.105   0.005  -1.347  0.00  0.00    -0.001 A 
ATOM      4  C3  UNL d   1       5.456   0.358  -1.345  0.00  0.00     0.003 A 
ATOM      5  C4  UNL d   1       5.835   1.674  -1.090  0.00  0.00    -0.005 A 
ATOM      6  C5  UNL d   1       4.862   2.640  -0.835  0.00  0.00     0.003 A 
ATOM      7  C6  UNL d   1       3.512   2.289  -0.837  0.00  0.00    -0.001 A 
ENDROOT
TORSDOF 0
ENDMDL
