MODEL 1
REMARK minimizedAffinity -0.232826725
REMARK minimizedRMSD -1
REMARK  0 active torsions:
REMARK  status: ('A' for Active; 'I' for Inactive)
ROOT
ATOM      1  C   UNL d   1      -1.826   4.196  -5.625  0.00  0.00     0.078 C 
ATOM      2  C1  UNL d   1      -3.279   3.828  -5.653  0.00  0.00    -0.077 A 
ATOM      3  C2  UNL d   1      -4.256   4.774  -5.986  0.00  0.00    -0.001 A 
ATOM      4  C3  UNL d   1      -5.607   4.420  -5.999  0.00  0.00     0.003 A 
ATOM      5  C4  UNL d   1      -5.992   3.120  -5.677  0.00  0.00    -0.005 A 
ATOM      6  C5  UNL d   1      -5.027   2.172  -5.342  0.00  0.00     0.003 A 
ATOM      7  C6  UNL d   1      -3.677   2.525  -5.329  0.00  0.00    -0.001 A 
ENDROOT
TORSDOF 0
ENDMDL
