MODEL 1
REMARK minimizedAffinity -3.33192372
REMARK minimizedRMSD -1
REMARK  0 active torsions:
REMARK  status: ('A' for Active; 'I' for Inactive)
ROOT
ATOM      1  C   UNL d   1      -4.409   0.467  -5.984  0.00  0.00     0.078 C 
ATOM      2  C1  UNL d   1      -4.271  -1.026  -5.996  0.00  0.00    -0.077 A 
ATOM      3  C2  UNL d   1      -5.400  -1.854  -5.994  0.00  0.00    -0.001 A 
ATOM      4  C3  UNL d   1      -5.257  -3.242  -5.996  0.00  0.00     0.003 A 
ATOM      5  C4  UNL d   1      -3.987  -3.815  -5.997  0.00  0.00    -0.005 A 
ATOM      6  C5  UNL d   1      -2.857  -2.999  -5.996  0.00  0.00     0.003 A 
ATOM      7  C6  UNL d   1      -2.999  -1.610  -5.995  0.00  0.00    -0.001 A 
ENDROOT
TORSDOF 0
ENDMDL
