MODEL 1
REMARK minimizedAffinity -4.86909962
REMARK minimizedRMSD -1
REMARK  0 active torsions:
REMARK  status: ('A' for Active; 'I' for Inactive)
ROOT
ATOM      1  C   UNL d   1       4.773  -1.903  -5.976  0.00  0.00     0.078 C 
ATOM      2  C1  UNL d   1       4.100  -1.763  -4.643  0.00  0.00    -0.077 A 
ATOM      3  C2  UNL d   1       4.262  -2.734  -3.648  0.00  0.00    -0.001 A 
ATOM      4  C3  UNL d   1       3.622  -2.596  -2.415  0.00  0.00     0.003 A 
ATOM      5  C4  UNL d   1       2.815  -1.488  -2.167  0.00  0.00    -0.005 A 
ATOM      6  C5  UNL d   1       2.646  -0.517  -3.152  0.00  0.00     0.003 A 
ATOM      7  C6  UNL d   1       3.285  -0.654  -4.385  0.00  0.00    -0.001 A 
ENDROOT
TORSDOF 0
ENDMDL
