MODEL 1
REMARK minimizedAffinity -1.84842145
REMARK minimizedRMSD -1
REMARK  0 active torsions:
REMARK  status: ('A' for Active; 'I' for Inactive)
ROOT
ATOM      1  C   UNL d   1      -1.713  -3.377  -5.246  0.00  0.00     0.078 C 
ATOM      2  C1  UNL d   1      -2.878  -2.471  -5.515  0.00  0.00    -0.077 A 
ATOM      3  C2  UNL d   1      -2.705  -1.086  -5.622  0.00  0.00    -0.001 A 
ATOM      4  C3  UNL d   1      -3.800  -0.255  -5.862  0.00  0.00     0.003 A 
ATOM      5  C4  UNL d   1      -5.076  -0.799  -5.997  0.00  0.00    -0.005 A 
ATOM      6  C5  UNL d   1      -5.258  -2.176  -5.890  0.00  0.00     0.003 A 
ATOM      7  C6  UNL d   1      -4.164  -3.009  -5.649  0.00  0.00    -0.001 A 
ENDROOT
TORSDOF 0
ENDMDL
