MODEL 1
REMARK minimizedAffinity -1.64772153
REMARK minimizedRMSD -1
REMARK  0 active torsions:
REMARK  status: ('A' for Active; 'I' for Inactive)
ROOT
ATOM      1  C   UNL d   1      -4.068   0.816  -4.503  0.00  0.00     0.078 C 
ATOM      2  C1  UNL d   1      -2.901   0.108  -3.884  0.00  0.00    -0.077 A 
ATOM      3  C2  UNL d   1      -1.903   0.819  -3.206  0.00  0.00    -0.001 A 
ATOM      4  C3  UNL d   1      -0.816   0.147  -2.643  0.00  0.00     0.003 A 
ATOM      5  C4  UNL d   1      -0.717  -1.239  -2.753  0.00  0.00    -0.005 A 
ATOM      6  C5  UNL d   1      -1.705  -1.954  -3.427  0.00  0.00     0.003 A 
ATOM      7  C6  UNL d   1      -2.792  -1.284  -3.990  0.00  0.00    -0.001 A 
ENDROOT
TORSDOF 0
ENDMDL
