MODEL 1
REMARK minimizedAffinity 22.8284092
REMARK minimizedRMSD -1
REMARK  0 active torsions:
REMARK  status: ('A' for Active; 'I' for Inactive)
ROOT
ATOM      1  C   UNL d   1       3.506  -0.614  -1.475  0.00  0.00     0.124 A 
ATOM      2  C1  UNL d   1       3.350   0.412  -0.554  0.00  0.00     0.062 A 
ATOM      3  C2  UNL d   1       2.639   0.194   0.623  0.00  0.00     0.162 A 
ATOM      4  C3  UNL d   1       2.080  -1.057   0.886  0.00  0.00    -0.034 A 
ATOM      5  C4  UNL d   1       2.241  -2.084  -0.047  0.00  0.00     0.162 A 
ATOM      6  C5  UNL d   1       2.952  -1.860  -1.221  0.00  0.00     0.062 A 
ATOM      7  F   UNL d   1       3.102  -2.853  -2.110  0.00  0.00    -0.097 F 
ATOM      8  F1  UNL d   1       1.716  -3.298   0.174  0.00  0.00    -0.096 F 
ATOM      9  I   UNL d   1       1.017  -1.388   2.644  0.00  0.00    -0.060 I 
ATOM     10  F2  UNL d   1       2.504   1.203   1.496  0.00  0.00    -0.096 F 
ATOM     11  F3  UNL d   1       3.884   1.618  -0.798  0.00  0.00    -0.097 F 
ATOM     12  F4  UNL d   1       4.190  -0.401  -2.607  0.00  0.00    -0.092 F 
ENDROOT
TORSDOF 0
ENDMDL
