MODEL 1
REMARK minimizedAffinity 8.02849674
REMARK minimizedRMSD -1
REMARK  0 active torsions:
REMARK  status: ('A' for Active; 'I' for Inactive)
ROOT
ATOM      1  C   UNL d   1      -0.284   1.494   1.468  0.00  0.00     0.124 A 
ATOM      2  C1  UNL d   1       0.717   1.921   2.330  0.00  0.00     0.062 A 
ATOM      3  C2  UNL d   1       2.045   1.920   1.915  0.00  0.00     0.162 A 
ATOM      4  C3  UNL d   1       2.381   1.491   0.631  0.00  0.00    -0.034 A 
ATOM      5  C4  UNL d   1       1.370   1.062  -0.230  0.00  0.00     0.162 A 
ATOM      6  C5  UNL d   1       0.043   1.065   0.189  0.00  0.00     0.062 A 
ATOM      7  F   UNL d   1      -0.922   0.653  -0.645  0.00  0.00    -0.097 F 
ATOM      8  F1  UNL d   1       1.658   0.643  -1.471  0.00  0.00    -0.096 F 
ATOM      9  I   UNL d   1       4.367   1.487   0.008  0.00  0.00    -0.060 I 
ATOM     10  F2  UNL d   1       2.992   2.338   2.769  0.00  0.00    -0.096 F 
ATOM     11  F3  UNL d   1       0.403   2.335   3.566  0.00  0.00    -0.097 F 
ATOM     12  F4  UNL d   1      -1.562   1.496   1.870  0.00  0.00    -0.092 F 
ENDROOT
TORSDOF 0
ENDMDL
