MODEL 1
REMARK minimizedAffinity 19.259573
REMARK minimizedRMSD -1
REMARK  0 active torsions:
REMARK  status: ('A' for Active; 'I' for Inactive)
ROOT
ATOM      1  C   UNL d   1      -0.786   1.797   1.788  0.00  0.00     0.124 A 
ATOM      2  C1  UNL d   1       0.319   1.771   2.627  0.00  0.00     0.062 A 
ATOM      3  C2  UNL d   1       1.592   1.570   2.101  0.00  0.00     0.162 A 
ATOM      4  C3  UNL d   1       1.767   1.395   0.728  0.00  0.00    -0.034 A 
ATOM      5  C4  UNL d   1       0.650   1.422  -0.109  0.00  0.00     0.162 A 
ATOM      6  C5  UNL d   1      -0.620   1.623   0.421  0.00  0.00     0.062 A 
ATOM      7  F   UNL d   1      -1.687   1.648  -0.391  0.00  0.00    -0.097 F 
ATOM      8  F1  UNL d   1       0.783   1.257  -1.433  0.00  0.00    -0.096 F 
ATOM      9  I   UNL d   1       3.669   1.095  -0.062  0.00  0.00    -0.060 I 
ATOM     10  F2  UNL d   1       2.642   1.550   2.935  0.00  0.00    -0.096 F 
ATOM     11  F3  UNL d   1       0.161   1.938   3.948  0.00  0.00    -0.097 F 
ATOM     12  F4  UNL d   1      -2.010   1.989   2.297  0.00  0.00    -0.092 F 
ENDROOT
TORSDOF 0
ENDMDL
