MODEL 1
REMARK minimizedAffinity 10.4236317
REMARK minimizedRMSD -1
REMARK  0 active torsions:
REMARK  status: ('A' for Active; 'I' for Inactive)
ROOT
ATOM      1  C   UNL d   1       4.187  -0.614  -2.349  0.00  0.00     0.124 A 
ATOM      2  C1  UNL d   1       4.184   0.283  -1.290  0.00  0.00     0.062 A 
ATOM      3  C2  UNL d   1       3.482  -0.012  -0.125  0.00  0.00     0.162 A 
ATOM      4  C3  UNL d   1       2.778  -1.211  -0.012  0.00  0.00    -0.034 A 
ATOM      5  C4  UNL d   1       2.786  -2.108  -1.081  0.00  0.00     0.162 A 
ATOM      6  C5  UNL d   1       3.488  -1.809  -2.244  0.00  0.00     0.062 A 
ATOM      7  F   UNL d   1       3.490  -2.677  -3.266  0.00  0.00    -0.097 F 
ATOM      8  F1  UNL d   1       2.119  -3.270  -1.006  0.00  0.00    -0.096 F 
ATOM      9  I   UNL d   1       1.728  -1.656   1.729  0.00  0.00    -0.060 I 
ATOM     10  F2  UNL d   1       3.497   0.873   0.883  0.00  0.00    -0.096 F 
ATOM     11  F3  UNL d   1       4.858   1.438  -1.390  0.00  0.00    -0.097 F 
ATOM     12  F4  UNL d   1       4.862  -0.328  -3.470  0.00  0.00    -0.092 F 
ENDROOT
TORSDOF 0
ENDMDL
