MODEL 1
REMARK minimizedAffinity 14.7532167
REMARK minimizedRMSD -1
REMARK  0 active torsions:
REMARK  status: ('A' for Active; 'I' for Inactive)
ROOT
ATOM      1  C   UNL d   1       2.470  -1.680  -0.384  0.00  0.00     0.124 A 
ATOM      2  C1  UNL d   1       1.422  -2.452  -0.867  0.00  0.00     0.062 A 
ATOM      3  C2  UNL d   1       0.314  -1.843  -1.450  0.00  0.00     0.162 A 
ATOM      4  C3  UNL d   1       0.249  -0.453  -1.554  0.00  0.00    -0.034 A 
ATOM      5  C4  UNL d   1       1.306   0.316  -1.065  0.00  0.00     0.162 A 
ATOM      6  C5  UNL d   1       2.411  -0.297  -0.484  0.00  0.00     0.062 A 
ATOM      7  F   UNL d   1       3.422   0.450  -0.018  0.00  0.00    -0.097 F 
ATOM      8  F1  UNL d   1       1.275   1.655  -1.150  0.00  0.00    -0.096 F 
ATOM      9  I   UNL d   1      -1.406   0.461  -2.424  0.00  0.00    -0.060 I 
ATOM     10  F2  UNL d   1      -0.684  -2.614  -1.908  0.00  0.00    -0.096 F 
ATOM     11  F3  UNL d   1       1.476  -3.788  -0.771  0.00  0.00    -0.097 F 
ATOM     12  F4  UNL d   1       3.534  -2.269   0.176  0.00  0.00    -0.092 F 
ENDROOT
TORSDOF 0
ENDMDL
