MODEL 1
REMARK minimizedAffinity 17.0586224
REMARK minimizedRMSD -1
REMARK  0 active torsions:
REMARK  status: ('A' for Active; 'I' for Inactive)
ROOT
ATOM      1  C   UNL d   1      -2.851   2.446  -3.925  0.00  0.00     0.124 A 
ATOM      2  C1  UNL d   1      -2.602   1.123  -3.587  0.00  0.00     0.062 A 
ATOM      3  C2  UNL d   1      -3.500   0.425  -2.784  0.00  0.00     0.162 A 
ATOM      4  C3  UNL d   1      -4.655   1.049  -2.314  0.00  0.00    -0.034 A 
ATOM      5  C4  UNL d   1      -4.898   2.380  -2.657  0.00  0.00     0.162 A 
ATOM      6  C5  UNL d   1      -3.999   3.073  -3.460  0.00  0.00     0.062 A 
ATOM      7  F   UNL d   1      -4.241   4.351  -3.786  0.00  0.00    -0.097 F 
ATOM      8  F1  UNL d   1      -6.000   3.010  -2.223  0.00  0.00    -0.096 F 
ATOM      9  I   UNL d   1      -6.000   0.009  -1.112  0.00  0.00    -0.060 I 
ATOM     10  F2  UNL d   1      -3.234  -0.852  -2.473  0.00  0.00    -0.096 F 
ATOM     11  F3  UNL d   1      -1.494   0.516  -4.034  0.00  0.00    -0.097 F 
ATOM     12  F4  UNL d   1      -1.986   3.116  -4.697  0.00  0.00    -0.092 F 
ENDROOT
TORSDOF 0
ENDMDL
