MODEL 1
REMARK minimizedAffinity 13.4405441
REMARK minimizedRMSD -1
REMARK  0 active torsions:
REMARK  status: ('A' for Active; 'I' for Inactive)
ROOT
ATOM      1  C   UNL d   1       5.053   1.089  -1.587  0.00  0.00     0.124 A 
ATOM      2  C1  UNL d   1       4.224   1.008  -0.477  0.00  0.00     0.062 A 
ATOM      3  C2  UNL d   1       3.239   0.027  -0.409  0.00  0.00     0.162 A 
ATOM      4  C3  UNL d   1       3.078  -0.883  -1.454  0.00  0.00    -0.034 A 
ATOM      5  C4  UNL d   1       3.916  -0.795  -2.568  0.00  0.00     0.162 A 
ATOM      6  C5  UNL d   1       4.898   0.188  -2.631  0.00  0.00     0.062 A 
ATOM      7  F   UNL d   1       5.698   0.265  -3.704  0.00  0.00    -0.097 F 
ATOM      8  F1  UNL d   1       3.789  -1.653  -3.590  0.00  0.00    -0.096 F 
ATOM      9  I   UNL d   1       1.607  -2.352  -1.356  0.00  0.00    -0.060 I 
ATOM     10  F2  UNL d   1       2.452  -0.028   0.676  0.00  0.00    -0.096 F 
ATOM     11  F3  UNL d   1       4.371   1.878   0.533  0.00  0.00    -0.097 F 
ATOM     12  F4  UNL d   1       5.999   2.035  -1.650  0.00  0.00    -0.092 F 
ENDROOT
TORSDOF 0
ENDMDL
