MODEL 1
REMARK minimizedAffinity 17.8204937
REMARK minimizedRMSD -1
REMARK  0 active torsions:
REMARK  status: ('A' for Active; 'I' for Inactive)
ROOT
ATOM      1  C   UNL d   1      -5.854   1.741  -3.144  0.00  0.00     0.124 A 
ATOM      2  C1  UNL d   1      -5.853   1.470  -1.783  0.00  0.00     0.062 A 
ATOM      3  C2  UNL d   1      -5.700   2.504  -0.863  0.00  0.00     0.162 A 
ATOM      4  C3  UNL d   1      -5.547   3.819  -1.302  0.00  0.00    -0.034 A 
ATOM      5  C4  UNL d   1      -5.547   4.084  -2.673  0.00  0.00     0.162 A 
ATOM      6  C5  UNL d   1      -5.701   3.047  -3.587  0.00  0.00     0.062 A 
ATOM      7  F   UNL d   1      -5.701   3.311  -4.902  0.00  0.00    -0.097 F 
ATOM      8  F1  UNL d   1      -5.403   5.337  -3.129  0.00  0.00    -0.096 F 
ATOM      9  I   UNL d   1      -5.318   5.367   0.070  0.00  0.00    -0.060 I 
ATOM     10  F2  UNL d   1      -5.704   2.213   0.446  0.00  0.00    -0.096 F 
ATOM     11  F3  UNL d   1      -6.000   0.209  -1.352  0.00  0.00    -0.097 F 
ATOM     12  F4  UNL d   1      -6.000   0.744  -4.026  0.00  0.00    -0.092 F 
ENDROOT
TORSDOF 0
ENDMDL
