MODEL 1
REMARK minimizedAffinity 12.6206903
REMARK minimizedRMSD -1
REMARK  0 active torsions:
REMARK  status: ('A' for Active; 'I' for Inactive)
ROOT
ATOM      1  C   UNL d   1      -3.781   0.691  -2.216  0.00  0.00     0.124 A 
ATOM      2  C1  UNL d   1      -2.671   1.139  -2.920  0.00  0.00     0.062 A 
ATOM      3  C2  UNL d   1      -2.676   2.401  -3.505  0.00  0.00     0.162 A 
ATOM      4  C3  UNL d   1      -3.795   3.226  -3.389  0.00  0.00    -0.034 A 
ATOM      5  C4  UNL d   1      -4.908   2.769  -2.681  0.00  0.00     0.162 A 
ATOM      6  C5  UNL d   1      -4.898   1.506  -2.098  0.00  0.00     0.062 A 
ATOM      7  F   UNL d   1      -5.971   1.075  -1.418  0.00  0.00    -0.097 F 
ATOM      8  F1  UNL d   1      -6.000   3.536  -2.550  0.00  0.00    -0.096 F 
ATOM      9  I   UNL d   1      -3.807   5.115  -4.264  0.00  0.00    -0.060 I 
ATOM     10  F2  UNL d   1      -1.590   2.808  -4.179  0.00  0.00    -0.096 F 
ATOM     11  F3  UNL d   1      -1.591   0.353  -3.036  0.00  0.00    -0.097 F 
ATOM     12  F4  UNL d   1      -3.773  -0.525  -1.654  0.00  0.00    -0.092 F 
ENDROOT
TORSDOF 0
ENDMDL
