MODEL 1
REMARK minimizedAffinity -0.628371596
REMARK minimizedRMSD -1
REMARK  0 active torsions:
REMARK  status: ('A' for Active; 'I' for Inactive)
ROOT
ATOM      1  N1  IND d   1       5.319   3.575  -2.341  0.00  0.00    -0.196 N 
ATOM      2  C2  IND d   1       4.541   2.454  -2.412  0.00  0.00     0.054 A 
ATOM      3  C3  IND d   1       3.844   2.291  -1.265  0.00  0.00    -0.031 A 
ATOM      4  C4  IND d   1       3.750   3.799   0.819  0.00  0.00     0.051 A 
ATOM      5  C5  IND d   1       4.315   4.917   1.366  0.00  0.00    -0.031 A 
ATOM      6  C6  IND d   1       5.260   5.662   0.691  0.00  0.00     0.015 A 
ATOM      7  C7  IND d   1       5.670   5.320  -0.567  0.00  0.00    -0.016 A 
ATOM      8  C8  IND d   1       5.104   4.182  -1.123  0.00  0.00    -0.047 A 
ATOM      9  C9  IND d   1       4.175   3.399  -0.425  0.00  0.00    -0.096 A 
ATOM     10  HN1 IND d   1       5.854   3.855  -2.954  0.00  0.00     0.298 HD
ENDROOT
TORSDOF 0
ENDMDL
