MODEL 1
REMARK minimizedAffinity -2.05688763
REMARK minimizedRMSD -1
REMARK  0 active torsions:
REMARK  status: ('A' for Active; 'I' for Inactive)
ROOT
ATOM      1  N1  IND d   1      -1.600  -1.266   0.927  0.00  0.00    -0.196 N 
ATOM      2  C2  IND d   1      -1.477  -0.004   1.439  0.00  0.00     0.054 A 
ATOM      3  C3  IND d   1      -0.179   0.374   1.450  0.00  0.00    -0.031 A 
ATOM      4  C4  IND d   1       1.897  -0.877   0.582  0.00  0.00     0.051 A 
ATOM      5  C5  IND d   1       2.292  -2.077   0.061  0.00  0.00    -0.031 A 
ATOM      6  C6  IND d   1       1.391  -3.088  -0.206  0.00  0.00     0.015 A 
ATOM      7  C7  IND d   1       0.054  -2.931   0.029  0.00  0.00    -0.016 A 
ATOM      8  C8  IND d   1      -0.349  -1.716   0.564  0.00  0.00    -0.047 A 
ATOM      9  C9  IND d   1       0.565  -0.702   0.877  0.00  0.00    -0.096 A 
ATOM     10  HN1 IND d   1      -2.335  -1.704   0.845  0.00  0.00     0.298 HD
ENDROOT
TORSDOF 0
ENDMDL
