MODEL 1
REMARK minimizedAffinity -0.841110468
REMARK minimizedRMSD -1
REMARK  0 active torsions:
REMARK  status: ('A' for Active; 'I' for Inactive)
ROOT
ATOM      1  N1  IND d   1       2.334  -2.404  -0.062  0.00  0.00    -0.196 N 
ATOM      2  C2  IND d   1       1.711  -3.506  -0.576  0.00  0.00     0.054 A 
ATOM      3  C3  IND d   1       0.374  -3.415  -0.402  0.00  0.00    -0.031 A 
ATOM      4  C4  IND d   1      -1.017  -1.499   0.610  0.00  0.00     0.051 A 
ATOM      5  C5  IND d   1      -0.890  -0.297   1.248  0.00  0.00    -0.031 A 
ATOM      6  C6  IND d   1       0.342   0.277   1.485  0.00  0.00     0.015 A 
ATOM      7  C7  IND d   1       1.499  -0.327   1.080  0.00  0.00    -0.016 A 
ATOM      8  C8  IND d   1       1.375  -1.551   0.438  0.00  0.00    -0.047 A 
ATOM      9  C9  IND d   1       0.129  -2.159   0.233  0.00  0.00    -0.096 A 
ATOM     10  HN1 IND d   1       3.183  -2.266  -0.052  0.00  0.00     0.298 HD
ENDROOT
TORSDOF 0
ENDMDL
