MODEL 1
REMARK minimizedAffinity -3.62349963
REMARK minimizedRMSD -1
REMARK  0 active torsions:
REMARK  status: ('A' for Active; 'I' for Inactive)
ROOT
ATOM      1  N1  IND d   1       1.119  -2.415   0.731  0.00  0.00    -0.196 N 
ATOM      2  C2  IND d   1       1.906  -1.675  -0.107  0.00  0.00     0.054 A 
ATOM      3  C3  IND d   1       1.465  -0.398  -0.160  0.00  0.00    -0.031 A 
ATOM      4  C4  IND d   1      -0.467   0.721   1.122  0.00  0.00     0.051 A 
ATOM      5  C5  IND d   1      -1.497   0.442   1.976  0.00  0.00    -0.031 A 
ATOM      6  C6  IND d   1      -1.710  -0.828   2.471  0.00  0.00     0.015 A 
ATOM      7  C7  IND d   1      -0.891  -1.870   2.137  0.00  0.00    -0.016 A 
ATOM      8  C8  IND d   1       0.151  -1.592   1.265  0.00  0.00    -0.047 A 
ATOM      9  C9  IND d   1       0.347  -0.314   0.726  0.00  0.00    -0.096 A 
ATOM     10  HN1 IND d   1       1.212  -3.253   0.896  0.00  0.00     0.298 HD
ENDROOT
TORSDOF 0
ENDMDL
