MODEL 1
REMARK minimizedAffinity 0.873997986
REMARK minimizedRMSD -1
REMARK  0 active torsions:
REMARK  status: ('A' for Active; 'I' for Inactive)
ROOT
ATOM      1  N1  IND d   1       5.248   4.118  -1.635  0.00  0.00    -0.196 N 
ATOM      2  C2  IND d   1       4.452   3.031  -1.868  0.00  0.00     0.054 A 
ATOM      3  C3  IND d   1       3.629   2.817  -0.817  0.00  0.00    -0.031 A 
ATOM      4  C4  IND d   1       3.346   4.185   1.345  0.00  0.00     0.051 A 
ATOM      5  C5  IND d   1       3.877   5.244   2.027  0.00  0.00    -0.031 A 
ATOM      6  C6  IND d   1       4.911   5.998   1.512  0.00  0.00     0.015 A 
ATOM      7  C7  IND d   1       5.447   5.728   0.285  0.00  0.00    -0.016 A 
ATOM      8  C8  IND d   1       4.915   4.649  -0.408  0.00  0.00    -0.047 A 
ATOM      9  C9  IND d   1       3.895   3.854   0.129  0.00  0.00    -0.096 A 
ATOM     10  HN1 IND d   1       5.854   4.420  -2.165  0.00  0.00     0.298 HD
ENDROOT
TORSDOF 0
ENDMDL
