MODEL 1
REMARK minimizedAffinity -1.58102214
REMARK minimizedRMSD -1
REMARK  0 active torsions:
REMARK  status: ('A' for Active; 'I' for Inactive)
ROOT
ATOM      1  N1  IND d   1       2.514   0.157   2.553  0.00  0.00    -0.196 N 
ATOM      2  C2  IND d   1       3.346   0.264   1.473  0.00  0.00     0.054 A 
ATOM      3  C3  IND d   1       2.735  -0.200   0.360  0.00  0.00    -0.031 A 
ATOM      4  C4  IND d   1       0.337  -1.088   0.061  0.00  0.00     0.051 A 
ATOM      5  C5  IND d   1      -0.789  -1.409   0.766  0.00  0.00    -0.031 A 
ATOM      6  C6  IND d   1      -0.874  -1.219   2.131  0.00  0.00     0.015 A 
ATOM      7  C7  IND d   1       0.165  -0.687   2.841  0.00  0.00    -0.016 A 
ATOM      8  C8  IND d   1       1.312  -0.365   2.129  0.00  0.00    -0.047 A 
ATOM      9  C9  IND d   1       1.419  -0.596   0.752  0.00  0.00    -0.096 A 
ATOM     10  HN1 IND d   1       2.709   0.379   3.360  0.00  0.00     0.298 HD
ENDROOT
TORSDOF 0
ENDMDL
