MODEL 1
REMARK minimizedAffinity 0.759447575
REMARK minimizedRMSD -1
REMARK  0 active torsions:
REMARK  status: ('A' for Active; 'I' for Inactive)
ROOT
ATOM      1  N1  IND d   1       1.960  -3.090  -0.373  0.00  0.00    -0.196 N 
ATOM      2  C2  IND d   1       3.086  -2.333  -0.205  0.00  0.00     0.054 A 
ATOM      3  C3  IND d   1       2.776  -1.149   0.370  0.00  0.00    -0.031 A 
ATOM      4  C4  IND d   1       0.502  -0.287   1.213  0.00  0.00     0.051 A 
ATOM      5  C5  IND d   1      -0.827  -0.607   1.247  0.00  0.00    -0.031 A 
ATOM      6  C6  IND d   1      -1.303  -1.797   0.735  0.00  0.00     0.015 A 
ATOM      7  C7  IND d   1      -0.463  -2.719   0.177  0.00  0.00    -0.016 A 
ATOM      8  C8  IND d   1       0.885  -2.394   0.135  0.00  0.00    -0.047 A 
ATOM      9  C9  IND d   1       1.369  -1.170   0.615  0.00  0.00    -0.096 A 
ATOM     10  HN1 IND d   1       1.929  -3.869  -0.734  0.00  0.00     0.298 HD
ENDROOT
TORSDOF 0
ENDMDL
