MODEL 1
REMARK minimizedAffinity 3.91033053
REMARK minimizedRMSD -1
REMARK  0 active torsions:
REMARK  status: ('A' for Active; 'I' for Inactive)
ROOT
ATOM      1  N1  IND d   1      -2.417  -0.134  -0.132  0.00  0.00    -0.196 N 
ATOM      2  C2  IND d   1      -2.782   0.818   0.778  0.00  0.00     0.054 A 
ATOM      3  C3  IND d   1      -1.798   1.001   1.687  0.00  0.00    -0.031 A 
ATOM      4  C4  IND d   1       0.535  -0.079   1.812  0.00  0.00     0.051 A 
ATOM      5  C5  IND d   1       1.312  -1.036   1.221  0.00  0.00    -0.031 A 
ATOM      6  C6  IND d   1       0.878  -1.754   0.125  0.00  0.00     0.015 A 
ATOM      7  C7  IND d   1      -0.350  -1.532  -0.430  0.00  0.00    -0.016 A 
ATOM      8  C8  IND d   1      -1.145  -0.567   0.171  0.00  0.00    -0.047 A 
ATOM      9  C9  IND d   1      -0.727   0.135   1.309  0.00  0.00    -0.096 A 
ATOM     10  HN1 IND d   1      -2.901  -0.416  -0.785  0.00  0.00     0.298 HD
ENDROOT
TORSDOF 0
ENDMDL
