MODEL 1
REMARK minimizedAffinity -0.981858373
REMARK minimizedRMSD -1
REMARK  0 active torsions:
REMARK  status: ('A' for Active; 'I' for Inactive)
ROOT
ATOM      1  N1  IND d   1       0.752  -0.298   1.603  0.00  0.00    -0.196 N 
ATOM      2  C2  IND d   1      -0.589  -0.534   1.729  0.00  0.00     0.054 A 
ATOM      3  C3  IND d   1      -0.933  -1.657   1.059  0.00  0.00    -0.031 A 
ATOM      4  C4  IND d   1       0.557  -3.315  -0.228  0.00  0.00     0.051 A 
ATOM      5  C5  IND d   1       1.843  -3.504  -0.651  0.00  0.00    -0.031 A 
ATOM      6  C6  IND d   1       2.852  -2.617  -0.335  0.00  0.00     0.015 A 
ATOM      7  C7  IND d   1       2.613  -1.509   0.428  0.00  0.00    -0.016 A 
ATOM      8  C8  IND d   1       1.307  -1.311   0.853  0.00  0.00    -0.047 A 
ATOM      9  C9  IND d   1       0.271  -2.185   0.500  0.00  0.00    -0.096 A 
ATOM     10  HN1 IND d   1       1.177   0.372   1.937  0.00  0.00     0.298 HD
ENDROOT
TORSDOF 0
ENDMDL
