MODEL 1
REMARK minimizedAffinity -2.40830016
REMARK minimizedRMSD -1
REMARK  0 active torsions:
REMARK  status: ('A' for Active; 'I' for Inactive)
ROOT
ATOM      1  N1  IND d   1       0.969  -1.360   3.698  0.00  0.00    -0.196 N 
ATOM      2  C2  IND d   1       0.326  -0.402   4.432  0.00  0.00     0.054 A 
ATOM      3  C3  IND d   1      -0.663   0.163   3.704  0.00  0.00    -0.031 A 
ATOM      4  C4  IND d   1      -1.469  -0.399   1.324  0.00  0.00     0.051 A 
ATOM      5  C5  IND d   1      -1.169  -1.176   0.241  0.00  0.00    -0.031 A 
ATOM      6  C6  IND d   1      -0.122  -2.074   0.256  0.00  0.00     0.015 A 
ATOM      7  C7  IND d   1       0.661  -2.238   1.363  0.00  0.00    -0.016 A 
ATOM      8  C8  IND d   1       0.364  -1.445   2.463  0.00  0.00    -0.047 A 
ATOM      9  C9  IND d   1      -0.671  -0.501   2.439  0.00  0.00    -0.096 A 
ATOM     10  HN1 IND d   1       1.638  -1.830   3.963  0.00  0.00     0.298 HD
ENDROOT
TORSDOF 0
ENDMDL
