MODEL 1
REMARK minimizedAffinity -0.653228343
REMARK minimizedRMSD -1
REMARK  0 active torsions:
REMARK  status: ('A' for Active; 'I' for Inactive)
ROOT
ATOM      1  N1  IND d   1       0.849  -3.769  -0.284  0.00  0.00    -0.196 N 
ATOM      2  C2  IND d   1       2.131  -3.533  -0.696  0.00  0.00     0.054 A 
ATOM      3  C3  IND d   1       2.454  -2.234  -0.506  0.00  0.00    -0.031 A 
ATOM      4  C4  IND d   1       1.069  -0.343   0.558  0.00  0.00     0.051 A 
ATOM      5  C5  IND d   1      -0.175  -0.065   1.053  0.00  0.00    -0.031 A 
ATOM      6  C6  IND d   1      -1.159  -1.029   1.131  0.00  0.00     0.015 A 
ATOM      7  C7  IND d   1      -0.933  -2.314   0.727  0.00  0.00    -0.016 A 
ATOM      8  C8  IND d   1       0.327  -2.597   0.217  0.00  0.00    -0.047 A 
ATOM      9  C9  IND d   1       1.316  -1.613   0.095  0.00  0.00    -0.096 A 
ATOM     10  HN1 IND d   1       0.438  -4.523  -0.330  0.00  0.00     0.298 HD
ENDROOT
TORSDOF 0
ENDMDL
