MODEL 1
REMARK minimizedAffinity -1.79284978
REMARK minimizedRMSD -1
REMARK  0 active torsions:
REMARK  status: ('A' for Active; 'I' for Inactive)
ROOT
ATOM      1  N1  IND d   1       2.615  -2.875  -0.251  0.00  0.00    -0.196 N 
ATOM      2  C2  IND d   1       1.894  -4.004  -0.522  0.00  0.00     0.054 A 
ATOM      3  C3  IND d   1       0.577  -3.784  -0.308  0.00  0.00    -0.031 A 
ATOM      4  C4  IND d   1      -0.627  -1.618   0.389  0.00  0.00     0.051 A 
ATOM      5  C5  IND d   1      -0.388  -0.332   0.785  0.00  0.00    -0.031 A 
ATOM      6  C6  IND d   1       0.891   0.184   0.854  0.00  0.00     0.015 A 
ATOM      7  C7  IND d   1       1.981  -0.568   0.518  0.00  0.00    -0.016 A 
ATOM      8  C8  IND d   1       1.742  -1.876   0.122  0.00  0.00    -0.047 A 
ATOM      9  C9  IND d   1       0.451  -2.418   0.091  0.00  0.00    -0.096 A 
ATOM     10  HN1 IND d   1       3.470  -2.800  -0.306  0.00  0.00     0.298 HD
ENDROOT
TORSDOF 0
ENDMDL
