MODEL 1
REMARK minimizedAffinity 5.73365355
REMARK minimizedRMSD -1
REMARK  0 active torsions:
REMARK  status: ('A' for Active; 'I' for Inactive)
ROOT
ATOM      1  N1  IND d   1       1.742   0.009   2.726  0.00  0.00    -0.196 N 
ATOM      2  C2  IND d   1       2.978  -0.298   2.231  0.00  0.00     0.054 A 
ATOM      3  C3  IND d   1       2.869  -0.859   1.006  0.00  0.00    -0.031 A 
ATOM      4  C4  IND d   1       0.766  -1.275  -0.420  0.00  0.00     0.051 A 
ATOM      5  C5  IND d   1      -0.598  -1.194  -0.377  0.00  0.00    -0.031 A 
ATOM      6  C6  IND d   1      -1.265  -0.696   0.723  0.00  0.00     0.015 A 
ATOM      7  C7  IND d   1      -0.589  -0.247   1.822  0.00  0.00    -0.016 A 
ATOM      8  C8  IND d   1       0.795  -0.334   1.785  0.00  0.00    -0.047 A 
ATOM      9  C9  IND d   1       1.476  -0.878   0.689  0.00  0.00    -0.096 A 
ATOM     10  HN1 IND d   1       1.582   0.357   3.496  0.00  0.00     0.298 HD
ENDROOT
TORSDOF 0
ENDMDL
