MODEL 1
REMARK minimizedAffinity 5.17920399
REMARK minimizedRMSD -1
REMARK  0 active torsions:
REMARK  status: ('A' for Active; 'I' for Inactive)
ROOT
ATOM      1  N1  IND d   1      -0.446   0.381   2.222  0.00  0.00    -0.196 N 
ATOM      2  C2  IND d   1      -1.754   0.094   1.947  0.00  0.00     0.054 A 
ATOM      3  C3  IND d   1      -1.835  -0.899   1.033  0.00  0.00    -0.031 A 
ATOM      4  C4  IND d   1       0.047  -2.266  -0.069  0.00  0.00     0.051 A 
ATOM      5  C5  IND d   1       1.409  -2.347  -0.160  0.00  0.00    -0.031 A 
ATOM      6  C6  IND d   1       2.238  -1.507   0.554  0.00  0.00     0.015 A 
ATOM      7  C7  IND d   1       1.735  -0.558   1.400  0.00  0.00    -0.016 A 
ATOM      8  C8  IND d   1       0.353  -0.469   1.489  0.00  0.00    -0.047 A 
ATOM      9  C9  IND d   1      -0.494  -1.291   0.734  0.00  0.00    -0.096 A 
ATOM     10  HN1 IND d   1      -0.169   0.990   2.762  0.00  0.00     0.298 HD
ENDROOT
TORSDOF 0
ENDMDL
