MODEL 1
REMARK minimizedAffinity 0.723222017
REMARK minimizedRMSD -1
REMARK  0 active torsions:
REMARK  status: ('A' for Active; 'I' for Inactive)
ROOT
ATOM      1  N1  IND d   1       2.615  -2.329   0.094  0.00  0.00    -0.196 N 
ATOM      2  C2  IND d   1       2.145  -3.406  -0.605  0.00  0.00     0.054 A 
ATOM      3  C3  IND d   1       0.793  -3.397  -0.629  0.00  0.00    -0.031 A 
ATOM      4  C4  IND d   1      -0.849  -1.658   0.324  0.00  0.00     0.051 A 
ATOM      5  C5  IND d   1      -0.893  -0.519   1.078  0.00  0.00    -0.031 A 
ATOM      6  C6  IND d   1       0.252   0.089   1.549  0.00  0.00     0.015 A 
ATOM      7  C7  IND d   1       1.491  -0.416   1.274  0.00  0.00    -0.016 A 
ATOM      8  C8  IND d   1       1.540  -1.577   0.515  0.00  0.00    -0.047 A 
ATOM      9  C9  IND d   1       0.379  -2.221   0.069  0.00  0.00    -0.096 A 
ATOM     10  HN1 IND d   1       3.442  -2.152   0.246  0.00  0.00     0.298 HD
ENDROOT
TORSDOF 0
ENDMDL
