MODEL 1
REMARK minimizedAffinity -1.78599107
REMARK minimizedRMSD -1
REMARK  0 active torsions:
REMARK  status: ('A' for Active; 'I' for Inactive)
ROOT
ATOM      1  N1  IND d   1       2.269  -3.877  -0.329  0.00  0.00    -0.196 N 
ATOM      2  C2  IND d   1       3.541  -3.386  -0.435  0.00  0.00     0.054 A 
ATOM      3  C3  IND d   1       3.555  -2.059  -0.180  0.00  0.00    -0.031 A 
ATOM      4  C4  IND d   1       1.627  -0.509   0.530  0.00  0.00     0.051 A 
ATOM      5  C5  IND d   1       0.274  -0.492   0.724  0.00  0.00    -0.031 A 
ATOM      6  C6  IND d   1      -0.498  -1.626   0.577  0.00  0.00     0.015 A 
ATOM      7  C7  IND d   1       0.058  -2.827   0.240  0.00  0.00    -0.016 A 
ATOM      8  C8  IND d   1       1.431  -2.847   0.035  0.00  0.00    -0.047 A 
ATOM      9  C9  IND d   1       2.213  -1.690   0.141  0.00  0.00    -0.096 A 
ATOM     10  HN1 IND d   1       2.033  -4.693  -0.466  0.00  0.00     0.298 HD
ENDROOT
TORSDOF 0
ENDMDL
