MODEL 1
REMARK minimizedAffinity 7.5411253
REMARK minimizedRMSD -1
REMARK  0 active torsions:
REMARK  status: ('A' for Active; 'I' for Inactive)
ROOT
ATOM      1  N1  IND d   1      -1.009  -2.819  -0.012  0.00  0.00    -0.196 N 
ATOM      2  C2  IND d   1      -0.586  -3.218  -1.249  0.00  0.00     0.054 A 
ATOM      3  C3  IND d   1       0.562  -2.585  -1.580  0.00  0.00    -0.031 A 
ATOM      4  C4  IND d   1       1.975  -0.933  -0.201  0.00  0.00     0.051 A 
ATOM      5  C5  IND d   1       1.975  -0.236   0.975  0.00  0.00    -0.031 A 
ATOM      6  C6  IND d   1       0.961  -0.369   1.902  0.00  0.00     0.015 A 
ATOM      7  C7  IND d   1      -0.089  -1.217   1.691  0.00  0.00    -0.016 A 
ATOM      8  C8  IND d   1      -0.096  -1.921   0.495  0.00  0.00    -0.047 A 
ATOM      9  C9  IND d   1       0.908  -1.757  -0.468  0.00  0.00    -0.096 A 
ATOM     10  HN1 IND d   1      -1.726  -3.085   0.383  0.00  0.00     0.298 HD
ENDROOT
TORSDOF 0
ENDMDL
