MODEL 1
REMARK minimizedAffinity 9.81084061
REMARK minimizedRMSD -1
REMARK  0 active torsions:
REMARK  status: ('A' for Active; 'I' for Inactive)
ROOT
ATOM      1  N1  IND d   1       0.921  -1.581  -0.369  0.00  0.00    -0.196 N 
ATOM      2  C2  IND d   1      -0.433  -1.763  -0.340  0.00  0.00     0.054 A 
ATOM      3  C3  IND d   1      -0.929  -1.412   0.868  0.00  0.00    -0.031 A 
ATOM      4  C4  IND d   1       0.285  -0.419   2.909  0.00  0.00     0.051 A 
ATOM      5  C5  IND d   1       1.532  -0.104   3.372  0.00  0.00    -0.031 A 
ATOM      6  C6  IND d   1       2.661  -0.266   2.596  0.00  0.00     0.015 A 
ATOM      7  C7  IND d   1       2.584  -0.740   1.317  0.00  0.00    -0.016 A 
ATOM      8  C8  IND d   1       1.321  -1.068   0.845  0.00  0.00    -0.047 A 
ATOM      9  C9  IND d   1       0.176  -0.946   1.643  0.00  0.00    -0.096 A 
ATOM     10  HN1 IND d   1       1.437  -1.758  -1.034  0.00  0.00     0.298 HD
ENDROOT
TORSDOF 0
ENDMDL
