MODEL 1
REMARK minimizedAffinity 0.656734109
REMARK minimizedRMSD -1
REMARK  0 active torsions:
REMARK  status: ('A' for Active; 'I' for Inactive)
ROOT
ATOM      1  N1  IND d   1       3.364   3.794  -5.265  0.00  0.00    -0.196 N 
ATOM      2  C2  IND d   1       3.681   2.999  -4.199  0.00  0.00     0.054 A 
ATOM      3  C3  IND d   1       2.797   3.187  -3.193  0.00  0.00    -0.031 A 
ATOM      4  C4  IND d   1       0.697   4.674  -3.119  0.00  0.00     0.051 A 
ATOM      5  C5  IND d   1       0.015   5.613  -3.841  0.00  0.00    -0.031 A 
ATOM      6  C6  IND d   1       0.422   6.000  -5.101  0.00  0.00     0.015 A 
ATOM      7  C7  IND d   1       1.524   5.451  -5.694  0.00  0.00    -0.016 A 
ATOM      8  C8  IND d   1       2.222   4.502  -4.961  0.00  0.00    -0.047 A 
ATOM      9  C9  IND d   1       1.839   4.136  -3.664  0.00  0.00    -0.096 A 
ATOM     10  HN1 IND d   1       3.804   3.843  -6.002  0.00  0.00     0.298 HD
ENDROOT
TORSDOF 0
ENDMDL
