MODEL 1
REMARK minimizedAffinity 7.19117022
REMARK minimizedRMSD -1
REMARK  1 active torsions:
REMARK  status: ('A' for Active; 'I' for Inactive)
REMARK    1  A    between atoms: N_2  and  C1_3 
ROOT
ATOM      1  C1  UNL d   1      -3.794  -3.815  -4.956  0.00  0.00     0.143 A 
ATOM      2  C2  UNL d   1      -2.988  -4.020  -3.831  0.00  0.00    -0.057 A 
ATOM      3  C3  UNL d   1      -2.086  -5.089  -3.769  0.00  0.00     0.033 A 
ATOM      4  C4  UNL d   1      -1.995  -5.992  -4.822  0.00  0.00    -0.042 A 
ATOM      5  C5  UNL d   1      -2.804  -5.823  -5.940  0.00  0.00     0.033 A 
ATOM      6  C6  UNL d   1      -3.698  -4.750  -5.999  0.00  0.00    -0.057 A 
ENDROOT
BRANCH   1   7
ATOM      7  N   UNL d   1      -4.780  -2.829  -5.038  0.00  0.00    -0.732 N 
ATOM      8  C   UNL d   1      -5.992  -3.060  -5.793  0.00  0.00     0.284 C 
ATOM      9  H3  UNL d   1      -4.927  -2.352  -4.151  0.00  0.00     0.395 HD
ENDBRANCH   1   7
TORSDOF 1
ENDMDL
