MODEL 1
REMARK minimizedAffinity 5.48706293
REMARK minimizedRMSD -1
REMARK  1 active torsions:
REMARK  status: ('A' for Active; 'I' for Inactive)
REMARK    1  A    between atoms: N_2  and  C1_3 
ROOT
ATOM      1  C1  UNL d   1       3.123  -3.112  -1.424  0.00  0.00     0.143 A 
ATOM      2  C2  UNL d   1       2.217  -3.361  -2.461  0.00  0.00    -0.057 A 
ATOM      3  C3  UNL d   1       1.186  -2.462  -2.756  0.00  0.00     0.033 A 
ATOM      4  C4  UNL d   1       1.023  -1.308  -1.997  0.00  0.00    -0.042 A 
ATOM      5  C5  UNL d   1       1.896  -1.052  -0.946  0.00  0.00     0.033 A 
ATOM      6  C6  UNL d   1       2.928  -1.950  -0.660  0.00  0.00    -0.057 A 
ENDROOT
BRANCH   1   7
ATOM      7  N   UNL d   1       4.109  -4.015  -1.018  0.00  0.00    -0.732 N 
ATOM      8  C   UNL d   1       4.666  -4.967  -1.954  0.00  0.00     0.284 C 
ATOM      9  H3  UNL d   1       4.795  -3.588  -0.400  0.00  0.00     0.395 HD
ENDBRANCH   1   7
TORSDOF 1
ENDMDL
