MODEL 1
REMARK minimizedAffinity 9.37810516
REMARK minimizedRMSD -1
REMARK  1 active torsions:
REMARK  status: ('A' for Active; 'I' for Inactive)
REMARK    1  A    between atoms: N_2  and  C1_3 
ROOT
ATOM      1  C1  UNL d   1       4.154  -3.988  -4.674  0.00  0.00     0.143 A 
ATOM      2  C2  UNL d   1       3.447  -3.573  -3.541  0.00  0.00    -0.057 A 
ATOM      3  C3  UNL d   1       2.413  -2.633  -3.634  0.00  0.00     0.033 A 
ATOM      4  C4  UNL d   1       2.087  -2.069  -4.863  0.00  0.00    -0.042 A 
ATOM      5  C5  UNL d   1       2.793  -2.448  -5.999  0.00  0.00     0.033 A 
ATOM      6  C6  UNL d   1       3.820  -3.392  -5.900  0.00  0.00    -0.057 A 
ENDROOT
BRANCH   1   7
ATOM      7  N   UNL d   1       5.257  -4.845  -4.632  0.00  0.00    -0.732 N 
ATOM      8  C   UNL d   1       5.825  -5.253  -3.365  0.00  0.00     0.284 C 
ATOM      9  H3  UNL d   1       5.195  -5.592  -5.319  0.00  0.00     0.395 HD
ENDBRANCH   1   7
TORSDOF 1
ENDMDL
