MODEL 1
REMARK minimizedAffinity 4.45811224
REMARK minimizedRMSD -1
REMARK  1 active torsions:
REMARK  status: ('A' for Active; 'I' for Inactive)
REMARK    1  A    between atoms: N_2  and  C1_3 
ROOT
ATOM      1  C1  UNL d   1       2.622  -1.001  -1.495  0.00  0.00     0.143 A 
ATOM      2  C2  UNL d   1       3.586  -2.002  -1.337  0.00  0.00    -0.057 A 
ATOM      3  C3  UNL d   1       3.219  -3.330  -1.086  0.00  0.00     0.033 A 
ATOM      4  C4  UNL d   1       1.877  -3.675  -0.961  0.00  0.00    -0.042 A 
ATOM      5  C5  UNL d   1       0.903  -2.691  -1.090  0.00  0.00     0.033 A 
ATOM      6  C6  UNL d   1       1.276  -1.368  -1.347  0.00  0.00    -0.057 A 
ENDROOT
BRANCH   1   7
ATOM      7  N   UNL d   1       2.927   0.354  -1.648  0.00  0.00    -0.732 N 
ATOM      8  C   UNL d   1       4.172   0.892  -1.143  0.00  0.00     0.284 C 
ATOM      9  H3  UNL d   1       2.660   0.712  -2.562  0.00  0.00     0.395 HD
ENDBRANCH   1   7
TORSDOF 1
ENDMDL
