MODEL 1
REMARK minimizedAffinity 7.52418375
REMARK minimizedRMSD -1
REMARK  1 active torsions:
REMARK  status: ('A' for Active; 'I' for Inactive)
REMARK    1  A    between atoms: N_2  and  C1_3 
ROOT
ATOM      1  C1  UNL d   1      -3.418   1.630   3.844  0.00  0.00     0.143 A 
ATOM      2  C2  UNL d   1      -2.114   1.786   3.361  0.00  0.00    -0.057 A 
ATOM      3  C3  UNL d   1      -1.572   0.891   2.431  0.00  0.00     0.033 A 
ATOM      4  C4  UNL d   1      -2.317  -0.197   1.988  0.00  0.00    -0.042 A 
ATOM      5  C5  UNL d   1      -3.606  -0.387   2.474  0.00  0.00     0.033 A 
ATOM      6  C6  UNL d   1      -4.144   0.514   3.398  0.00  0.00    -0.057 A 
ENDROOT
BRANCH   1   7
ATOM      7  N   UNL d   1      -3.978   2.429   4.844  0.00  0.00    -0.732 N 
ATOM      8  C   UNL d   1      -5.139   3.248   4.568  0.00  0.00     0.284 C 
ATOM      9  H3  UNL d   1      -4.004   1.961   5.746  0.00  0.00     0.395 HD
ENDBRANCH   1   7
TORSDOF 1
ENDMDL
