MODEL 1
REMARK minimizedAffinity 10.0765514
REMARK minimizedRMSD -1
REMARK  1 active torsions:
REMARK  status: ('A' for Active; 'I' for Inactive)
REMARK    1  A    between atoms: N_2  and  C1_3 
ROOT
ATOM      1  C1  UNL d   1       2.560  -1.275  -1.047  0.00  0.00     0.143 A 
ATOM      2  C2  UNL d   1       1.797  -1.365  -2.217  0.00  0.00    -0.057 A 
ATOM      3  C3  UNL d   1       1.415  -0.218  -2.924  0.00  0.00     0.033 A 
ATOM      4  C4  UNL d   1       1.766   1.044  -2.456  0.00  0.00    -0.042 A 
ATOM      5  C5  UNL d   1       2.502   1.158  -1.282  0.00  0.00     0.033 A 
ATOM      6  C6  UNL d   1       2.886   0.010  -0.584  0.00  0.00    -0.057 A 
ENDROOT
BRANCH   1   7
ATOM      7  N   UNL d   1       2.886  -2.371  -0.246  0.00  0.00    -0.732 N 
ATOM      8  C   UNL d   1       2.178  -3.625  -0.388  0.00  0.00     0.284 C 
ATOM      9  H3  UNL d   1       3.891  -2.473  -0.118  0.00  0.00     0.395 HD
ENDBRANCH   1   7
TORSDOF 1
ENDMDL
