MODEL 1
REMARK minimizedAffinity 4.83285332
REMARK minimizedRMSD -1
REMARK  1 active torsions:
REMARK  status: ('A' for Active; 'I' for Inactive)
REMARK    1  A    between atoms: N_2  and  C1_3 
ROOT
ATOM      1  C1  UNL d   1       0.341  -2.538   0.417  0.00  0.00     0.143 A 
ATOM      2  C2  UNL d   1       0.425  -1.853  -0.800  0.00  0.00    -0.057 A 
ATOM      3  C3  UNL d   1       1.351  -2.226  -1.782  0.00  0.00     0.033 A 
ATOM      4  C4  UNL d   1       2.233  -3.277  -1.551  0.00  0.00    -0.042 A 
ATOM      5  C5  UNL d   1       2.184  -3.956  -0.338  0.00  0.00     0.033 A 
ATOM      6  C6  UNL d   1       1.253  -3.583   0.635  0.00  0.00    -0.057 A 
ENDROOT
BRANCH   1   7
ATOM      7  N   UNL d   1      -0.491  -2.153   1.471  0.00  0.00    -0.732 N 
ATOM      8  C   UNL d   1      -1.600  -1.252   1.243  0.00  0.00     0.284 C 
ATOM      9  H3  UNL d   1      -0.704  -2.924   2.099  0.00  0.00     0.395 HD
ENDBRANCH   1   7
TORSDOF 1
ENDMDL
