MODEL 1
REMARK minimizedAffinity 6.81747532
REMARK minimizedRMSD -1
REMARK  1 active torsions:
REMARK  status: ('A' for Active; 'I' for Inactive)
REMARK    1  A    between atoms: N_2  and  C1_3 
ROOT
ATOM      1  C1  UNL d   1      -3.569  -5.999   0.380  0.00  0.00     0.143 A 
ATOM      2  C2  UNL d   1      -4.912  -5.981   0.772  0.00  0.00    -0.057 A 
ATOM      3  C3  UNL d   1      -5.944  -5.996  -0.174  0.00  0.00     0.033 A 
ATOM      4  C4  UNL d   1      -5.650  -6.000  -1.533  0.00  0.00    -0.042 A 
ATOM      5  C5  UNL d   1      -4.322  -5.992  -1.946  0.00  0.00     0.033 A 
ATOM      6  C6  UNL d   1      -3.296  -5.984  -0.997  0.00  0.00    -0.057 A 
ENDROOT
BRANCH   1   7
ATOM      7  N   UNL d   1      -2.498  -5.885   1.270  0.00  0.00    -0.732 N 
ATOM      8  C   UNL d   1      -2.113  -4.595   1.800  0.00  0.00     0.284 C 
ATOM      9  H3  UNL d   1      -2.480  -6.638   1.954  0.00  0.00     0.395 HD
ENDBRANCH   1   7
TORSDOF 1
ENDMDL
