MODEL 1
REMARK minimizedAffinity 1.41844261
REMARK minimizedRMSD -1
REMARK  1 active torsions:
REMARK  status: ('A' for Active; 'I' for Inactive)
REMARK    1  A    between atoms: N_2  and  C1_3 
ROOT
ATOM      1  C1  UNL d   1      -3.257  -4.639  -5.641  0.00  0.00     0.143 A 
ATOM      2  C2  UNL d   1      -4.591  -4.912  -5.966  0.00  0.00    -0.057 A 
ATOM      3  C3  UNL d   1      -5.553  -3.895  -5.999  0.00  0.00     0.033 A 
ATOM      4  C4  UNL d   1      -5.203  -2.588  -5.679  0.00  0.00    -0.042 A 
ATOM      5  C5  UNL d   1      -3.889  -2.297  -5.329  0.00  0.00     0.033 A 
ATOM      6  C6  UNL d   1      -2.932  -3.316  -5.304  0.00  0.00    -0.057 A 
ENDROOT
BRANCH   1   7
ATOM      7  N   UNL d   1      -2.275  -5.622  -5.495  0.00  0.00    -0.732 N 
ATOM      8  C   UNL d   1      -1.772  -5.972  -4.184  0.00  0.00     0.284 C 
ATOM      9  H3  UNL d   1      -2.430  -6.419  -6.107  0.00  0.00     0.395 HD
ENDBRANCH   1   7
TORSDOF 1
ENDMDL
