MODEL 1
REMARK minimizedAffinity 6.04358482
REMARK minimizedRMSD -1
REMARK  1 active torsions:
REMARK  status: ('A' for Active; 'I' for Inactive)
REMARK    1  A    between atoms: N_2  and  C1_3 
ROOT
ATOM      1  C1  UNL d   1      -4.724   1.328   3.968  0.00  0.00     0.143 A 
ATOM      2  C2  UNL d   1      -5.328   0.179   3.447  0.00  0.00    -0.057 A 
ATOM      3  C3  UNL d   1      -4.617  -0.707   2.628  0.00  0.00     0.033 A 
ATOM      4  C4  UNL d   1      -3.294  -0.442   2.291  0.00  0.00    -0.042 A 
ATOM      5  C5  UNL d   1      -2.681   0.707   2.777  0.00  0.00     0.033 A 
ATOM      6  C6  UNL d   1      -3.394   1.584   3.600  0.00  0.00    -0.057 A 
ENDROOT
BRANCH   1   7
ATOM      7  N   UNL d   1      -5.406   2.298   4.707  0.00  0.00    -0.732 N 
ATOM      8  C   UNL d   1      -4.823   2.853   5.910  0.00  0.00     0.284 C 
ATOM      9  H3  UNL d   1      -5.869   2.984   4.115  0.00  0.00     0.395 HD
ENDBRANCH   1   7
TORSDOF 1
ENDMDL
