MODEL 1
REMARK minimizedAffinity -2.81985617
REMARK minimizedRMSD -1
REMARK  0 active torsions:
REMARK  status: ('A' for Active; 'I' for Inactive)
ROOT
ATOM      1  C   UNL d   1       0.427  -1.214  -0.765  0.00  0.00     0.078 C 
ATOM      2  C1  UNL d   1      -0.015   0.087  -0.164  0.00  0.00    -0.077 A 
ATOM      3  C2  UNL d   1      -0.679   0.123   1.069  0.00  0.00    -0.001 A 
ATOM      4  C3  UNL d   1      -1.093   1.341   1.612  0.00  0.00     0.003 A 
ATOM      5  C4  UNL d   1      -0.850   2.531   0.928  0.00  0.00    -0.005 A 
ATOM      6  C5  UNL d   1      -0.192   2.504  -0.300  0.00  0.00     0.003 A 
ATOM      7  C6  UNL d   1       0.223   1.288  -0.844  0.00  0.00    -0.001 A 
ENDROOT
TORSDOF 0
ENDMDL
