MODEL 1
REMARK minimizedAffinity -1.54703951
REMARK minimizedRMSD -1
REMARK  0 active torsions:
REMARK  status: ('A' for Active; 'I' for Inactive)
ROOT
ATOM      1  C   UNL d   1      -0.020  -1.193  -0.408  0.00  0.00     0.078 C 
ATOM      2  C1  UNL d   1      -0.271  -0.219   0.705  0.00  0.00    -0.077 A 
ATOM      3  C2  UNL d   1      -1.144   0.862   0.534  0.00  0.00    -0.001 A 
ATOM      4  C3  UNL d   1      -1.361   1.766   1.575  0.00  0.00     0.003 A 
ATOM      5  C4  UNL d   1      -0.708   1.599   2.794  0.00  0.00    -0.005 A 
ATOM      6  C5  UNL d   1       0.165   0.527   2.973  0.00  0.00     0.003 A 
ATOM      7  C6  UNL d   1       0.383  -0.378   1.933  0.00  0.00    -0.001 A 
ENDROOT
TORSDOF 0
ENDMDL
