MODEL 1
REMARK minimizedAffinity -5.39217138
REMARK minimizedRMSD -1
REMARK  0 active torsions:
REMARK  status: ('A' for Active; 'I' for Inactive)
ROOT
ATOM      1  C   UNL d   1       1.011  -2.701  -2.316  0.00  0.00     0.078 C 
ATOM      2  C1  UNL d   1       0.221  -2.118  -1.183  0.00  0.00    -0.077 A 
ATOM      3  C2  UNL d   1      -0.850  -2.819  -0.615  0.00  0.00    -0.001 A 
ATOM      4  C3  UNL d   1      -1.583  -2.260   0.433  0.00  0.00     0.003 A 
ATOM      5  C4  UNL d   1      -1.254  -0.997   0.922  0.00  0.00    -0.005 A 
ATOM      6  C5  UNL d   1      -0.191  -0.291   0.362  0.00  0.00     0.003 A 
ATOM      7  C6  UNL d   1       0.544  -0.849  -0.686  0.00  0.00    -0.001 A 
ENDROOT
TORSDOF 0
ENDMDL
