MODEL 1
REMARK minimizedAffinity -3.33001709
REMARK minimizedRMSD -1
REMARK  0 active torsions:
REMARK  status: ('A' for Active; 'I' for Inactive)
ROOT
ATOM      1  C   UNL d   1      -1.502  -1.012   1.228  0.00  0.00     0.078 C 
ATOM      2  C1  UNL d   1      -0.494  -1.552   0.257  0.00  0.00    -0.077 A 
ATOM      3  C2  UNL d   1       0.533  -0.742  -0.242  0.00  0.00    -0.001 A 
ATOM      4  C3  UNL d   1       1.458  -1.256  -1.152  0.00  0.00     0.003 A 
ATOM      5  C4  UNL d   1       1.365  -2.581  -1.572  0.00  0.00    -0.005 A 
ATOM      6  C5  UNL d   1       0.345  -3.395  -1.082  0.00  0.00     0.003 A 
ATOM      7  C6  UNL d   1      -0.581  -2.883  -0.172  0.00  0.00    -0.001 A 
ENDROOT
TORSDOF 0
ENDMDL
