MODEL 1
REMARK minimizedAffinity -3.72080517
REMARK minimizedRMSD -1
REMARK  0 active torsions:
REMARK  status: ('A' for Active; 'I' for Inactive)
ROOT
ATOM      1  C   UNL d   1       0.683  -3.099  -2.399  0.00  0.00     0.078 C 
ATOM      2  C1  UNL d   1       0.436  -2.037  -1.370  0.00  0.00    -0.077 A 
ATOM      3  C2  UNL d   1       1.337  -0.979  -1.195  0.00  0.00    -0.001 A 
ATOM      4  C3  UNL d   1       1.099  -0.003  -0.225  0.00  0.00     0.003 A 
ATOM      5  C4  UNL d   1      -0.038  -0.076   0.577  0.00  0.00    -0.005 A 
ATOM      6  C5  UNL d   1      -0.938  -1.127   0.412  0.00  0.00     0.003 A 
ATOM      7  C6  UNL d   1      -0.702  -2.104  -0.557  0.00  0.00    -0.001 A 
ENDROOT
TORSDOF 0
ENDMDL
