MODEL 1
REMARK minimizedAffinity -2.28333592
REMARK minimizedRMSD -1
REMARK  0 active torsions:
REMARK  status: ('A' for Active; 'I' for Inactive)
ROOT
ATOM      1  C   UNL d   1       1.407  -1.190  -0.738  0.00  0.00     0.078 C 
ATOM      2  C1  UNL d   1       0.382  -0.648   0.213  0.00  0.00    -0.077 A 
ATOM      3  C2  UNL d   1       0.755  -0.137   1.462  0.00  0.00    -0.001 A 
ATOM      4  C3  UNL d   1      -0.211   0.355   2.341  0.00  0.00     0.003 A 
ATOM      5  C4  UNL d   1      -1.557   0.340   1.980  0.00  0.00    -0.005 A 
ATOM      6  C5  UNL d   1      -1.939  -0.168   0.740  0.00  0.00     0.003 A 
ATOM      7  C6  UNL d   1      -0.974  -0.660  -0.140  0.00  0.00    -0.001 A 
ENDROOT
TORSDOF 0
ENDMDL
