MODEL 1
REMARK minimizedAffinity -4.28155041
REMARK minimizedRMSD -1
REMARK  0 active torsions:
REMARK  status: ('A' for Active; 'I' for Inactive)
ROOT
ATOM      1  C   UNL d   1      -0.614   3.801  -0.064  0.00  0.00     0.078 C 
ATOM      2  C1  UNL d   1      -0.434   2.352   0.274  0.00  0.00    -0.077 A 
ATOM      3  C2  UNL d   1      -0.884   1.835   1.495  0.00  0.00    -0.001 A 
ATOM      4  C3  UNL d   1      -0.701   0.485   1.801  0.00  0.00     0.003 A 
ATOM      5  C4  UNL d   1      -0.065  -0.358   0.892  0.00  0.00    -0.005 A 
ATOM      6  C5  UNL d   1       0.389   0.148  -0.324  0.00  0.00     0.003 A 
ATOM      7  C6  UNL d   1       0.206   1.497  -0.632  0.00  0.00    -0.001 A 
ENDROOT
TORSDOF 0
ENDMDL
