MODEL 1
REMARK minimizedAffinity -3.66536713
REMARK minimizedRMSD -1
REMARK  0 active torsions:
REMARK  status: ('A' for Active; 'I' for Inactive)
ROOT
ATOM      1  C   UNL d   1       1.070  -1.453  -0.828  0.00  0.00     0.078 C 
ATOM      2  C1  UNL d   1       0.274  -0.880   0.307  0.00  0.00    -0.077 A 
ATOM      3  C2  UNL d   1      -0.089  -1.670   1.404  0.00  0.00    -0.001 A 
ATOM      4  C3  UNL d   1      -0.838  -1.126   2.449  0.00  0.00     0.003 A 
ATOM      5  C4  UNL d   1      -1.231   0.210   2.406  0.00  0.00    -0.005 A 
ATOM      6  C5  UNL d   1      -0.877   1.003   1.316  0.00  0.00     0.003 A 
ATOM      7  C6  UNL d   1      -0.128   0.461   0.271  0.00  0.00    -0.001 A 
ENDROOT
TORSDOF 0
ENDMDL
