MODEL 1
REMARK minimizedAffinity -3.26422811
REMARK minimizedRMSD -1
REMARK  0 active torsions:
REMARK  status: ('A' for Active; 'I' for Inactive)
ROOT
ATOM      1  C   UNL d   1       0.348   3.365  -0.516  0.00  0.00     0.078 C 
ATOM      2  C1  UNL d   1       0.230   2.008   0.112  0.00  0.00    -0.077 A 
ATOM      3  C2  UNL d   1       0.974   0.924  -0.369  0.00  0.00    -0.001 A 
ATOM      4  C3  UNL d   1       0.846  -0.335   0.219  0.00  0.00     0.003 A 
ATOM      5  C4  UNL d   1      -0.025  -0.523   1.289  0.00  0.00    -0.005 A 
ATOM      6  C5  UNL d   1      -0.772   0.549   1.773  0.00  0.00     0.003 A 
ATOM      7  C6  UNL d   1      -0.646   1.810   1.187  0.00  0.00    -0.001 A 
ENDROOT
TORSDOF 0
ENDMDL
