MODEL 1
REMARK minimizedAffinity -1.95966864
REMARK minimizedRMSD -1
REMARK  0 active torsions:
REMARK  status: ('A' for Active; 'I' for Inactive)
ROOT
ATOM      1  C   UNL d   1      -0.023   3.735  -0.368  0.00  0.00     0.078 C 
ATOM      2  C1  UNL d   1      -0.446   2.412   0.198  0.00  0.00    -0.077 A 
ATOM      3  C2  UNL d   1       0.053   1.212  -0.323  0.00  0.00    -0.001 A 
ATOM      4  C3  UNL d   1      -0.357  -0.012   0.207  0.00  0.00     0.003 A 
ATOM      5  C4  UNL d   1      -1.268  -0.048   1.260  0.00  0.00    -0.005 A 
ATOM      6  C5  UNL d   1      -1.772   1.140   1.784  0.00  0.00     0.003 A 
ATOM      7  C6  UNL d   1      -1.363   2.366   1.255  0.00  0.00    -0.001 A 
ENDROOT
TORSDOF 0
ENDMDL
