MODEL 1
REMARK minimizedAffinity -4.21775913
REMARK minimizedRMSD -1
REMARK  0 active torsions:
REMARK  status: ('A' for Active; 'I' for Inactive)
ROOT
ATOM      1  C   UNL d   1       0.021   3.794   0.017  0.00  0.00     0.078 C 
ATOM      2  C1  UNL d   1      -0.229   2.406   0.527  0.00  0.00    -0.077 A 
ATOM      3  C2  UNL d   1      -1.040   2.185   1.647  0.00  0.00    -0.001 A 
ATOM      4  C3  UNL d   1      -1.256   0.889   2.117  0.00  0.00     0.003 A 
ATOM      5  C4  UNL d   1      -0.664  -0.196   1.474  0.00  0.00    -0.005 A 
ATOM      6  C5  UNL d   1       0.147   0.014   0.361  0.00  0.00     0.003 A 
ATOM      7  C6  UNL d   1       0.364   1.310  -0.111  0.00  0.00    -0.001 A 
ENDROOT
TORSDOF 0
ENDMDL
