MODEL 1
REMARK minimizedAffinity -3.03079343
REMARK minimizedRMSD -1
REMARK  0 active torsions:
REMARK  status: ('A' for Active; 'I' for Inactive)
ROOT
ATOM      1  C   UNL d   1       0.737  -2.675  -3.049  0.00  0.00     0.078 C 
ATOM      2  C1  UNL d   1       0.481  -1.805  -1.856  0.00  0.00    -0.077 A 
ATOM      3  C2  UNL d   1       1.541  -1.286  -1.101  0.00  0.00    -0.001 A 
ATOM      4  C3  UNL d   1       1.288  -0.484   0.013  0.00  0.00     0.003 A 
ATOM      5  C4  UNL d   1      -0.024  -0.196   0.384  0.00  0.00    -0.005 A 
ATOM      6  C5  UNL d   1      -1.085  -0.710  -0.359  0.00  0.00     0.003 A 
ATOM      7  C6  UNL d   1      -0.834  -1.511  -1.474  0.00  0.00    -0.001 A 
ENDROOT
TORSDOF 0
ENDMDL
