MODEL 1
REMARK minimizedAffinity -4.16074371
REMARK minimizedRMSD -1
REMARK  0 active torsions:
REMARK  status: ('A' for Active; 'I' for Inactive)
ROOT
ATOM      1  C   UNL d   1      -0.130  -0.048   0.003  0.00  0.00     0.078 C 
ATOM      2  C1  UNL d   1      -0.290   1.376   0.443  0.00  0.00    -0.077 A 
ATOM      3  C2  UNL d   1      -0.259   2.425  -0.485  0.00  0.00    -0.001 A 
ATOM      4  C3  UNL d   1      -0.400   3.747  -0.060  0.00  0.00     0.003 A 
ATOM      5  C4  UNL d   1      -0.572   4.033   1.292  0.00  0.00    -0.005 A 
ATOM      6  C5  UNL d   1      -0.603   2.996   2.223  0.00  0.00     0.003 A 
ATOM      7  C6  UNL d   1      -0.462   1.674   1.800  0.00  0.00    -0.001 A 
ENDROOT
TORSDOF 0
ENDMDL
