MODEL 1
REMARK minimizedAffinity -5.30572081
REMARK minimizedRMSD -1
REMARK  0 active torsions:
REMARK  status: ('A' for Active; 'I' for Inactive)
ROOT
ATOM      1  C   UNL d   1       0.745  -0.590  -0.373  0.00  0.00     0.078 C 
ATOM      2  C1  UNL d   1       0.060   0.675   0.049  0.00  0.00    -0.077 A 
ATOM      3  C2  UNL d   1       0.237   1.865  -0.667  0.00  0.00    -0.001 A 
ATOM      4  C3  UNL d   1      -0.400   3.038  -0.257  0.00  0.00     0.003 A 
ATOM      5  C4  UNL d   1      -1.217   3.032   0.872  0.00  0.00    -0.005 A 
ATOM      6  C5  UNL d   1      -1.397   1.853   1.592  0.00  0.00     0.003 A 
ATOM      7  C6  UNL d   1      -0.762   0.680   1.183  0.00  0.00    -0.001 A 
ENDROOT
TORSDOF 0
ENDMDL
