MODEL 1
REMARK minimizedAffinity 5.70423985
REMARK minimizedRMSD -1
REMARK  0 active torsions:
REMARK  status: ('A' for Active; 'I' for Inactive)
ROOT
ATOM      1  C   UNL d   1       4.498   1.887   2.376  0.00  0.00     0.078 C 
ATOM      2  C1  UNL d   1       4.015   1.261   1.101  0.00  0.00    -0.077 A 
ATOM      3  C2  UNL d   1       4.854   1.160  -0.015  0.00  0.00    -0.001 A 
ATOM      4  C3  UNL d   1       4.388   0.584  -1.198  0.00  0.00     0.003 A 
ATOM      5  C4  UNL d   1       3.081   0.105  -1.276  0.00  0.00    -0.005 A 
ATOM      6  C5  UNL d   1       2.239   0.204  -0.171  0.00  0.00     0.003 A 
ATOM      7  C6  UNL d   1       2.703   0.780   1.013  0.00  0.00    -0.001 A 
ENDROOT
TORSDOF 0
ENDMDL
