MODEL 1
REMARK minimizedAffinity 10.6312943
REMARK minimizedRMSD -1
REMARK  0 active torsions:
REMARK  status: ('A' for Active; 'I' for Inactive)
ROOT
ATOM      1  C   UNL d   1       2.862  -0.193  -0.654  0.00  0.00     0.078 C 
ATOM      2  C1  UNL d   1       1.541   0.279  -0.123  0.00  0.00    -0.077 A 
ATOM      3  C2  UNL d   1       0.553   0.773  -0.983  0.00  0.00    -0.001 A 
ATOM      4  C3  UNL d   1      -0.668   1.218  -0.474  0.00  0.00     0.003 A 
ATOM      5  C4  UNL d   1      -0.912   1.174   0.897  0.00  0.00    -0.005 A 
ATOM      6  C5  UNL d   1       0.066   0.685   1.761  0.00  0.00     0.003 A 
ATOM      7  C6  UNL d   1       1.288   0.240   1.254  0.00  0.00    -0.001 A 
ENDROOT
TORSDOF 0
ENDMDL
