MODEL 1
REMARK minimizedAffinity 4.1237092
REMARK minimizedRMSD -1
REMARK  0 active torsions:
REMARK  status: ('A' for Active; 'I' for Inactive)
ROOT
ATOM      1  C   UNL d   1       3.731   0.373  -1.032  0.00  0.00     0.078 C 
ATOM      2  C1  UNL d   1       4.513   1.493  -0.414  0.00  0.00    -0.077 A 
ATOM      3  C2  UNL d   1       4.522   2.769  -0.989  0.00  0.00    -0.001 A 
ATOM      4  C3  UNL d   1       5.262   3.800  -0.408  0.00  0.00     0.003 A 
ATOM      5  C4  UNL d   1       6.000   3.565   0.751  0.00  0.00    -0.005 A 
ATOM      6  C5  UNL d   1       5.998   2.298   1.329  0.00  0.00     0.003 A 
ATOM      7  C6  UNL d   1       5.259   1.266   0.750  0.00  0.00    -0.001 A 
ENDROOT
TORSDOF 0
ENDMDL
