MODEL 1
REMARK minimizedAffinity 9.23430443
REMARK minimizedRMSD -1
REMARK  0 active torsions:
REMARK  status: ('A' for Active; 'I' for Inactive)
ROOT
ATOM      1  C   UNL d   1       5.994   1.495   0.531  0.00  0.00     0.078 C 
ATOM      2  C1  UNL d   1       5.986   2.897   0.001  0.00  0.00    -0.077 A 
ATOM      3  C2  UNL d   1       5.984   3.147  -1.377  0.00  0.00    -0.001 A 
ATOM      4  C3  UNL d   1       5.987   4.458  -1.857  0.00  0.00     0.003 A 
ATOM      5  C4  UNL d   1       5.993   5.529  -0.966  0.00  0.00    -0.005 A 
ATOM      6  C5  UNL d   1       5.997   5.290   0.407  0.00  0.00     0.003 A 
ATOM      7  C6  UNL d   1       5.995   3.980   0.888  0.00  0.00    -0.001 A 
ENDROOT
TORSDOF 0
ENDMDL
