MODEL 1
REMARK minimizedAffinity 1.69334769
REMARK minimizedRMSD -1
REMARK  0 active torsions:
REMARK  status: ('A' for Active; 'I' for Inactive)
ROOT
ATOM      1  C   UNL d   1      -5.655   1.990  -2.118  0.00  0.00     0.078 C 
ATOM      2  C1  UNL d   1      -4.589   1.584  -3.090  0.00  0.00    -0.077 A 
ATOM      3  C2  UNL d   1      -3.355   1.095  -2.645  0.00  0.00    -0.001 A 
ATOM      4  C3  UNL d   1      -2.367   0.730  -3.561  0.00  0.00     0.003 A 
ATOM      5  C4  UNL d   1      -2.603   0.852  -4.929  0.00  0.00    -0.005 A 
ATOM      6  C5  UNL d   1      -3.827   1.340  -5.382  0.00  0.00     0.003 A 
ATOM      7  C6  UNL d   1      -4.816   1.705  -4.467  0.00  0.00    -0.001 A 
ENDROOT
TORSDOF 0
ENDMDL
