MODEL 1
REMARK minimizedAffinity 5.77949381
REMARK minimizedRMSD -1
REMARK  0 active torsions:
REMARK  status: ('A' for Active; 'I' for Inactive)
ROOT
ATOM      1  C   UNL d   1      -5.848   0.574  -4.856  0.00  0.00     0.078 C 
ATOM      2  C1  UNL d   1      -4.387   0.542  -4.520  0.00  0.00    -0.077 A 
ATOM      3  C2  UNL d   1      -3.458   1.274  -5.270  0.00  0.00    -0.001 A 
ATOM      4  C3  UNL d   1      -2.100   1.228  -4.951  0.00  0.00     0.003 A 
ATOM      5  C4  UNL d   1      -1.658   0.449  -3.883  0.00  0.00    -0.005 A 
ATOM      6  C5  UNL d   1      -2.574  -0.284  -3.133  0.00  0.00     0.003 A 
ATOM      7  C6  UNL d   1      -3.933  -0.239  -3.450  0.00  0.00    -0.001 A 
ENDROOT
TORSDOF 0
ENDMDL
