MODEL 1
REMARK minimizedAffinity 6.12565088
REMARK minimizedRMSD -1
REMARK  0 active torsions:
REMARK  status: ('A' for Active; 'I' for Inactive)
ROOT
ATOM      1  C   UNL d   1       1.744   0.005  -0.450  0.00  0.00     0.078 C 
ATOM      2  C1  UNL d   1       3.225   0.238  -0.440  0.00  0.00    -0.077 A 
ATOM      3  C2  UNL d   1       3.761   1.484  -0.787  0.00  0.00    -0.001 A 
ATOM      4  C3  UNL d   1       5.142   1.684  -0.783  0.00  0.00     0.003 A 
ATOM      5  C4  UNL d   1       5.999   0.643  -0.434  0.00  0.00    -0.005 A 
ATOM      6  C5  UNL d   1       5.475  -0.602  -0.089  0.00  0.00     0.003 A 
ATOM      7  C6  UNL d   1       4.094  -0.804  -0.093  0.00  0.00    -0.001 A 
ENDROOT
TORSDOF 0
ENDMDL
