MODEL 1
REMARK minimizedAffinity 11.6436663
REMARK minimizedRMSD -1
REMARK  0 active torsions:
REMARK  status: ('A' for Active; 'I' for Inactive)
ROOT
ATOM      1  C   UNL d   1       5.622   2.705   2.986  0.00  0.00     0.078 C 
ATOM      2  C1  UNL d   1       5.717   3.467   1.699  0.00  0.00    -0.077 A 
ATOM      3  C2  UNL d   1       5.921   4.853   1.694  0.00  0.00    -0.001 A 
ATOM      4  C3  UNL d   1       5.997   5.551   0.488  0.00  0.00     0.003 A 
ATOM      5  C4  UNL d   1       5.870   4.873  -0.722  0.00  0.00    -0.005 A 
ATOM      6  C5  UNL d   1       5.666   3.495  -0.728  0.00  0.00     0.003 A 
ATOM      7  C6  UNL d   1       5.589   2.795   0.477  0.00  0.00    -0.001 A 
ENDROOT
TORSDOF 0
ENDMDL
