MODEL 1
REMARK minimizedAffinity 4.32239485
REMARK minimizedRMSD -1
REMARK  0 active torsions:
REMARK  status: ('A' for Active; 'I' for Inactive)
ROOT
ATOM      1  C   UNL d   1      -6.000   2.256  -3.765  0.00  0.00     0.078 C 
ATOM      2  C1  UNL d   1      -4.678   1.548  -3.796  0.00  0.00    -0.077 A 
ATOM      3  C2  UNL d   1      -4.244   0.783  -2.707  0.00  0.00    -0.001 A 
ATOM      4  C3  UNL d   1      -3.007   0.138  -2.746  0.00  0.00     0.003 A 
ATOM      5  C4  UNL d   1      -2.193   0.253  -3.871  0.00  0.00    -0.005 A 
ATOM      6  C5  UNL d   1      -2.615   1.014  -4.959  0.00  0.00     0.003 A 
ATOM      7  C6  UNL d   1      -3.852   1.660  -4.922  0.00  0.00    -0.001 A 
ENDROOT
TORSDOF 0
ENDMDL
