MODEL 1
REMARK minimizedAffinity -1.52729273
REMARK minimizedRMSD -1
REMARK  0 active torsions:
REMARK  status: ('A' for Active; 'I' for Inactive)
ROOT
ATOM      1  C2' OXE d   1      -3.128   5.744  -6.000  0.00  0.00     0.078 C 
ATOM      2  C1' OXE d   1      -5.927   5.928  -5.916  0.00  0.00     0.078 C 
ATOM      3  C1  OXE d   1      -5.257   4.963  -4.970  0.00  0.00    -0.078 A 
ATOM      4  C2  OXE d   1      -3.890   4.845  -5.051  0.00  0.00    -0.078 A 
ATOM      5  C3  OXE d   1      -3.217   4.010  -4.164  0.00  0.00     0.003 A 
ATOM      6  C4  OXE d   1      -3.931   3.175  -3.295  0.00  0.00    -0.002 A 
ATOM      7  C5  OXE d   1      -5.326   3.250  -3.225  0.00  0.00    -0.002 A 
ATOM      8  C6  OXE d   1      -6.000   4.168  -4.024  0.00  0.00     0.003 A 
ENDROOT
TORSDOF 0
ENDMDL
