MODEL 1
REMARK minimizedAffinity 10.5894203
REMARK minimizedRMSD -1
REMARK  0 active torsions:
REMARK  status: ('A' for Active; 'I' for Inactive)
ROOT
ATOM      1  C2' OXE d   1      -3.742   1.899  -3.221  0.00  0.00     0.078 C 
ATOM      2  C1' OXE d   1      -4.160   2.057  -5.993  0.00  0.00     0.078 C 
ATOM      3  C1  OXE d   1      -4.251   3.333  -5.194  0.00  0.00    -0.078 A 
ATOM      4  C2  OXE d   1      -4.091   3.239  -3.832  0.00  0.00    -0.078 A 
ATOM      5  C3  OXE d   1      -4.111   4.393  -3.054  0.00  0.00     0.003 A 
ATOM      6  C4  OXE d   1      -4.444   5.627  -3.626  0.00  0.00    -0.002 A 
ATOM      7  C5  OXE d   1      -4.649   5.739  -5.005  0.00  0.00    -0.002 A 
ATOM      8  C6  OXE d   1      -4.515   4.611  -5.807  0.00  0.00     0.003 A 
ENDROOT
TORSDOF 0
ENDMDL
