MODEL 1
REMARK minimizedAffinity 3.11852908
REMARK minimizedRMSD -1
REMARK  0 active torsions:
REMARK  status: ('A' for Active; 'I' for Inactive)
ROOT
ATOM      1  C2' OXE d   1       3.373  -1.163  -1.540  0.00  0.00     0.078 C 
ATOM      2  C1' OXE d   1       1.849  -3.380  -2.340  0.00  0.00     0.078 C 
ATOM      3  C1  OXE d   1       3.175  -3.155  -3.022  0.00  0.00    -0.078 A 
ATOM      4  C2  OXE d   1       3.893  -2.041  -2.658  0.00  0.00    -0.078 A 
ATOM      5  C3  OXE d   1       5.148  -1.816  -3.216  0.00  0.00     0.003 A 
ATOM      6  C4  OXE d   1       5.616  -2.628  -4.257  0.00  0.00    -0.002 A 
ATOM      7  C5  OXE d   1       4.883  -3.745  -4.671  0.00  0.00    -0.002 A 
ATOM      8  C6  OXE d   1       3.683  -4.046  -4.036  0.00  0.00     0.003 A 
ENDROOT
TORSDOF 0
ENDMDL
