MODEL 1
REMARK minimizedAffinity 13.7702827
REMARK minimizedRMSD -1
REMARK  0 active torsions:
REMARK  status: ('A' for Active; 'I' for Inactive)
ROOT
ATOM      1  C2' OXE d   1      -0.251  -0.907   5.822  0.00  0.00     0.078 C 
ATOM      2  C1' OXE d   1       1.697  -2.272   4.332  0.00  0.00     0.078 C 
ATOM      3  C1  OXE d   1       1.321  -0.880   3.890  0.00  0.00    -0.078 A 
ATOM      4  C2  OXE d   1       0.333  -0.237   4.597  0.00  0.00    -0.078 A 
ATOM      5  C3  OXE d   1      -0.013   1.069   4.265  0.00  0.00     0.003 A 
ATOM      6  C4  OXE d   1       0.525   1.677   3.124  0.00  0.00    -0.002 A 
ATOM      7  C5  OXE d   1       1.503   1.025   2.366  0.00  0.00    -0.002 A 
ATOM      8  C6  OXE d   1       1.942  -0.235   2.760  0.00  0.00     0.003 A 
ENDROOT
TORSDOF 0
ENDMDL
