MODEL 1
REMARK minimizedAffinity 17.1911621
REMARK minimizedRMSD -1
REMARK  0 active torsions:
REMARK  status: ('A' for Active; 'I' for Inactive)
ROOT
ATOM      1  C2' OXE d   1       0.458   1.167   3.562  0.00  0.00     0.078 C 
ATOM      2  C1' OXE d   1       2.568   1.778   1.814  0.00  0.00     0.078 C 
ATOM      3  C1  OXE d   1       1.159   1.981   1.314  0.00  0.00    -0.078 A 
ATOM      4  C2  OXE d   1       0.132   1.635   2.160  0.00  0.00    -0.078 A 
ATOM      5  C3  OXE d   1      -1.186   1.854   1.769  0.00  0.00     0.003 A 
ATOM      6  C4  OXE d   1      -1.478   2.277   0.467  0.00  0.00    -0.002 A 
ATOM      7  C5  OXE d   1      -0.448   2.597  -0.424  0.00  0.00    -0.002 A 
ATOM      8  C6  OXE d   1       0.873   2.495  -0.003  0.00  0.00     0.003 A 
ENDROOT
TORSDOF 0
ENDMDL
