MODEL 1
REMARK minimizedAffinity 6.98339939
REMARK minimizedRMSD -1
REMARK  0 active torsions:
REMARK  status: ('A' for Active; 'I' for Inactive)
ROOT
ATOM      1  C2' OXE d   1      -2.868   2.764  -2.734  0.00  0.00     0.078 C 
ATOM      2  C1' OXE d   1      -0.109   2.465  -2.311  0.00  0.00     0.078 C 
ATOM      3  C1  OXE d   1      -0.739   1.669  -3.425  0.00  0.00    -0.078 A 
ATOM      4  C2  OXE d   1      -2.098   1.786  -3.595  0.00  0.00    -0.078 A 
ATOM      5  C3  OXE d   1      -2.722   1.115  -4.643  0.00  0.00     0.003 A 
ATOM      6  C4  OXE d   1      -2.004   0.205  -5.429  0.00  0.00    -0.002 A 
ATOM      7  C5  OXE d   1      -0.627   0.041  -5.247  0.00  0.00    -0.002 A 
ATOM      8  C6  OXE d   1       0.027   0.796  -4.280  0.00  0.00     0.003 A 
ENDROOT
TORSDOF 0
ENDMDL
