MODEL 1
REMARK minimizedAffinity 8.11472893
REMARK minimizedRMSD -1
REMARK  0 active torsions:
REMARK  status: ('A' for Active; 'I' for Inactive)
ROOT
ATOM      1  C2' OXE d   1       3.948  -1.193  -1.697  0.00  0.00     0.078 C 
ATOM      2  C1' OXE d   1       1.843  -2.302  -3.187  0.00  0.00     0.078 C 
ATOM      3  C1  OXE d   1       3.253  -2.669  -3.580  0.00  0.00    -0.078 A 
ATOM      4  C2  OXE d   1       4.278  -2.085  -2.875  0.00  0.00    -0.078 A 
ATOM      5  C3  OXE d   1       5.595  -2.431  -3.161  0.00  0.00     0.003 A 
ATOM      6  C4  OXE d   1       5.892  -3.249  -4.258  0.00  0.00    -0.002 A 
ATOM      7  C5  OXE d   1       4.864  -3.822  -5.014  0.00  0.00    -0.002 A 
ATOM      8  C6  OXE d   1       3.541  -3.577  -4.663  0.00  0.00     0.003 A 
ENDROOT
TORSDOF 0
ENDMDL
