MODEL 1
REMARK minimizedAffinity 2.17554021
REMARK minimizedRMSD -1
REMARK  0 active torsions:
REMARK  status: ('A' for Active; 'I' for Inactive)
ROOT
ATOM      1  C   UNL d   1      -3.171   0.734   1.137  0.00  0.00     0.078 C 
ATOM      2  C1  UNL d   1      -1.916   0.693   1.956  0.00  0.00    -0.077 A 
ATOM      3  C2  UNL d   1      -0.703   0.272   1.396  0.00  0.00    -0.001 A 
ATOM      4  C3  UNL d   1       0.456   0.229   2.173  0.00  0.00     0.003 A 
ATOM      5  C4  UNL d   1       0.414   0.605   3.514  0.00  0.00    -0.005 A 
ATOM      6  C5  UNL d   1      -0.789   1.023   4.080  0.00  0.00     0.003 A 
ATOM      7  C6  UNL d   1      -1.949   1.067   3.305  0.00  0.00    -0.001 A 
ENDROOT
TORSDOF 0
ENDMDL
