MODEL 1
REMARK minimizedAffinity -1.11342359
REMARK minimizedRMSD -1
REMARK  0 active torsions:
REMARK  status: ('A' for Active; 'I' for Inactive)
ROOT
ATOM      1  C   UNL d   1       0.130   0.977   2.912  0.00  0.00     0.078 C 
ATOM      2  C1  UNL d   1      -1.313   0.935   2.506  0.00  0.00    -0.077 A 
ATOM      3  C2  UNL d   1      -1.801  -0.085   1.680  0.00  0.00    -0.001 A 
ATOM      4  C3  UNL d   1      -3.144  -0.107   1.302  0.00  0.00     0.003 A 
ATOM      5  C4  UNL d   1      -4.011   0.890   1.745  0.00  0.00    -0.005 A 
ATOM      6  C5  UNL d   1      -3.535   1.911   2.565  0.00  0.00     0.003 A 
ATOM      7  C6  UNL d   1      -2.192   1.934   2.944  0.00  0.00    -0.001 A 
ENDROOT
TORSDOF 0
ENDMDL
