MODEL 1
REMARK minimizedAffinity 5.66215181
REMARK minimizedRMSD -1
REMARK  0 active torsions:
REMARK  status: ('A' for Active; 'I' for Inactive)
ROOT
ATOM      1  C   UNL d   1      -0.768   0.356   2.210  0.00  0.00     0.078 C 
ATOM      2  C1  UNL d   1      -2.250   0.563   2.122  0.00  0.00    -0.077 A 
ATOM      3  C2  UNL d   1      -3.020   0.762   3.274  0.00  0.00    -0.001 A 
ATOM      4  C3  UNL d   1      -4.401   0.944   3.178  0.00  0.00     0.003 A 
ATOM      5  C4  UNL d   1      -5.024   0.926   1.932  0.00  0.00    -0.005 A 
ATOM      6  C5  UNL d   1      -4.266   0.727   0.780  0.00  0.00     0.003 A 
ATOM      7  C6  UNL d   1      -2.885   0.545   0.874  0.00  0.00    -0.001 A 
ENDROOT
TORSDOF 0
ENDMDL
