MODEL 1
REMARK minimizedAffinity 6.75973845
REMARK minimizedRMSD -1
REMARK  0 active torsions:
REMARK  status: ('A' for Active; 'I' for Inactive)
ROOT
ATOM      1  C   UNL d   1       5.997  -5.942   3.431  0.00  0.00     0.078 C 
ATOM      2  C1  UNL d   1       4.611  -5.960   2.861  0.00  0.00    -0.077 A 
ATOM      3  C2  UNL d   1       4.400  -5.930   1.477  0.00  0.00    -0.001 A 
ATOM      4  C3  UNL d   1       3.104  -5.937   0.960  0.00  0.00     0.003 A 
ATOM      5  C4  UNL d   1       2.008  -5.972   1.819  0.00  0.00    -0.005 A 
ATOM      6  C5  UNL d   1       2.207  -6.000   3.198  0.00  0.00     0.003 A 
ATOM      7  C6  UNL d   1       3.503  -5.993   3.717  0.00  0.00    -0.001 A 
ENDROOT
TORSDOF 0
ENDMDL
