MODEL 1
REMARK minimizedAffinity -0.201422676
REMARK minimizedRMSD -1
REMARK  0 active torsions:
REMARK  status: ('A' for Active; 'I' for Inactive)
ROOT
ATOM      1  C   UNL d   1      -0.118   0.262   3.377  0.00  0.00     0.078 C 
ATOM      2  C1  UNL d   1      -1.415   0.266   2.624  0.00  0.00    -0.077 A 
ATOM      3  C2  UNL d   1      -2.634   0.445   3.289  0.00  0.00    -0.001 A 
ATOM      4  C3  UNL d   1      -3.834   0.437   2.577  0.00  0.00     0.003 A 
ATOM      5  C4  UNL d   1      -3.827   0.249   1.196  0.00  0.00    -0.005 A 
ATOM      6  C5  UNL d   1      -2.619   0.068   0.526  0.00  0.00     0.003 A 
ATOM      7  C6  UNL d   1      -1.418   0.076   1.237  0.00  0.00    -0.001 A 
ENDROOT
TORSDOF 0
ENDMDL
