MODEL 1
REMARK minimizedAffinity 6.86208391
REMARK minimizedRMSD -1
REMARK  0 active torsions:
REMARK  status: ('A' for Active; 'I' for Inactive)
ROOT
ATOM      1  C   UNL d   1      -0.138   0.326   2.025  0.00  0.00     0.078 C 
ATOM      2  C1  UNL d   1      -1.630   0.470   2.061  0.00  0.00    -0.077 A 
ATOM      3  C2  UNL d   1      -2.275   1.485   1.343  0.00  0.00    -0.001 A 
ATOM      4  C3  UNL d   1      -3.664   1.613   1.393  0.00  0.00     0.003 A 
ATOM      5  C4  UNL d   1      -4.420   0.731   2.162  0.00  0.00    -0.005 A 
ATOM      6  C5  UNL d   1      -3.788  -0.281   2.882  0.00  0.00     0.003 A 
ATOM      7  C6  UNL d   1      -2.399  -0.410   2.833  0.00  0.00    -0.001 A 
ENDROOT
TORSDOF 0
ENDMDL
