MODEL 1
REMARK minimizedAffinity 0.971669436
REMARK minimizedRMSD -1
REMARK  0 active torsions:
REMARK  status: ('A' for Active; 'I' for Inactive)
ROOT
ATOM      1  C   UNL d   1       1.490  -5.999   5.315  0.00  0.00     0.078 C 
ATOM      2  C1  UNL d   1       1.927  -5.622   3.931  0.00  0.00    -0.077 A 
ATOM      3  C2  UNL d   1       3.184  -5.999   3.443  0.00  0.00    -0.001 A 
ATOM      4  C3  UNL d   1       3.582  -5.633   2.157  0.00  0.00     0.003 A 
ATOM      5  C4  UNL d   1       2.728  -4.886   1.347  0.00  0.00    -0.005 A 
ATOM      6  C5  UNL d   1       1.476  -4.505   1.824  0.00  0.00     0.003 A 
ATOM      7  C6  UNL d   1       1.077  -4.870   3.110  0.00  0.00    -0.001 A 
ENDROOT
TORSDOF 0
ENDMDL
