MODEL 1
REMARK minimizedAffinity 1.5604223
REMARK minimizedRMSD -1
REMARK  0 active torsions:
REMARK  status: ('A' for Active; 'I' for Inactive)
ROOT
ATOM      1  C   UNL d   1      -4.038   0.205   2.860  0.00  0.00     0.078 C 
ATOM      2  C1  UNL d   1      -2.596   0.585   2.699  0.00  0.00    -0.077 A 
ATOM      3  C2  UNL d   1      -1.574  -0.334   2.964  0.00  0.00    -0.001 A 
ATOM      4  C3  UNL d   1      -0.236   0.036   2.820  0.00  0.00     0.003 A 
ATOM      5  C4  UNL d   1       0.092   1.327   2.412  0.00  0.00    -0.005 A 
ATOM      6  C5  UNL d   1      -0.918   2.250   2.148  0.00  0.00     0.003 A 
ATOM      7  C6  UNL d   1      -2.257   1.881   2.292  0.00  0.00    -0.001 A 
ENDROOT
TORSDOF 0
ENDMDL
