MODEL 1
REMARK minimizedAffinity 1.62127841
REMARK minimizedRMSD -1
REMARK  0 active torsions:
REMARK  status: ('A' for Active; 'I' for Inactive)
ROOT
ATOM      1  C   UNL d   1      -1.549   0.571   2.350  0.00  0.00     0.078 C 
ATOM      2  C1  UNL d   1      -3.036   0.374   2.353  0.00  0.00    -0.077 A 
ATOM      3  C2  UNL d   1      -3.683  -0.218   3.444  0.00  0.00    -0.001 A 
ATOM      4  C3  UNL d   1      -5.066  -0.404   3.429  0.00  0.00     0.003 A 
ATOM      5  C4  UNL d   1      -5.814  -0.002   2.324  0.00  0.00    -0.005 A 
ATOM      6  C5  UNL d   1      -5.179   0.586   1.232  0.00  0.00     0.003 A 
ATOM      7  C6  UNL d   1      -3.796   0.773   1.246  0.00  0.00    -0.001 A 
ENDROOT
TORSDOF 0
ENDMDL
