MODEL 1
REMARK minimizedAffinity -0.427591801
REMARK minimizedRMSD -1
REMARK  0 active torsions:
REMARK  status: ('A' for Active; 'I' for Inactive)
ROOT
ATOM      1  C   UNL d   1      -3.354   0.637   1.838  0.00  0.00     0.078 C 
ATOM      2  C1  UNL d   1      -2.076   1.010   2.527  0.00  0.00    -0.077 A 
ATOM      3  C2  UNL d   1      -1.812   2.336   2.892  0.00  0.00    -0.001 A 
ATOM      4  C3  UNL d   1      -0.614   2.670   3.524  0.00  0.00     0.003 A 
ATOM      5  C4  UNL d   1       0.332   1.683   3.796  0.00  0.00    -0.005 A 
ATOM      6  C5  UNL d   1       0.080   0.361   3.435  0.00  0.00     0.003 A 
ATOM      7  C6  UNL d   1      -1.118   0.026   2.803  0.00  0.00    -0.001 A 
ENDROOT
TORSDOF 0
ENDMDL
