MODEL 1
REMARK minimizedAffinity -0.81450808
REMARK minimizedRMSD -1
REMARK  0 active torsions:
REMARK  status: ('A' for Active; 'I' for Inactive)
ROOT
ATOM      1  C   UNL d   1       0.685   0.073   3.708  0.00  0.00     0.078 C 
ATOM      2  C1  UNL d   1      -0.722   0.129   3.191  0.00  0.00    -0.077 A 
ATOM      3  C2  UNL d   1      -1.811   0.187   4.069  0.00  0.00    -0.001 A 
ATOM      4  C3  UNL d   1      -3.115   0.229   3.574  0.00  0.00     0.003 A 
ATOM      5  C4  UNL d   1      -3.343   0.212   2.199  0.00  0.00    -0.005 A 
ATOM      6  C5  UNL d   1      -2.265   0.151   1.317  0.00  0.00     0.003 A 
ATOM      7  C6  UNL d   1      -0.960   0.110   1.811  0.00  0.00    -0.001 A 
ENDROOT
TORSDOF 0
ENDMDL
