MODEL 1
REMARK minimizedAffinity -2.54264092
REMARK minimizedRMSD -1
REMARK  0 active torsions:
REMARK  status: ('A' for Active; 'I' for Inactive)
ROOT
ATOM      1  C   UNL d   1       1.116  -5.952   1.106  0.00  0.00     0.078 C 
ATOM      2  C1  UNL d   1      -0.209  -5.265   0.959  0.00  0.00    -0.077 A 
ATOM      3  C2  UNL d   1      -1.398  -6.000   0.882  0.00  0.00    -0.001 A 
ATOM      4  C3  UNL d   1      -2.623  -5.347   0.735  0.00  0.00     0.003 A 
ATOM      5  C4  UNL d   1      -2.670  -3.956   0.663  0.00  0.00    -0.005 A 
ATOM      6  C5  UNL d   1      -1.492  -3.216   0.736  0.00  0.00     0.003 A 
ATOM      7  C6  UNL d   1      -0.266  -3.868   0.883  0.00  0.00    -0.001 A 
ENDROOT
TORSDOF 0
ENDMDL
