MODEL 1
REMARK minimizedAffinity 1.81732953
REMARK minimizedRMSD -1
REMARK  0 active torsions:
REMARK  status: ('A' for Active; 'I' for Inactive)
ROOT
ATOM      1  C   UNL d   1      -4.349  -1.752   0.210  0.00  0.00     0.078 C 
ATOM      2  C1  UNL d   1      -3.780  -0.691   1.104  0.00  0.00    -0.077 A 
ATOM      3  C2  UNL d   1      -2.403  -0.443   1.143  0.00  0.00    -0.001 A 
ATOM      4  C3  UNL d   1      -1.886   0.541   1.987  0.00  0.00     0.003 A 
ATOM      5  C4  UNL d   1      -2.740   1.285   2.799  0.00  0.00    -0.005 A 
ATOM      6  C5  UNL d   1      -4.112   1.045   2.768  0.00  0.00     0.003 A 
ATOM      7  C6  UNL d   1      -4.630   0.061   1.925  0.00  0.00    -0.001 A 
ENDROOT
TORSDOF 0
ENDMDL
