MODEL 1
REMARK minimizedAffinity 7.06893253
REMARK minimizedRMSD -1
REMARK  0 active torsions:
REMARK  status: ('A' for Active; 'I' for Inactive)
ROOT
ATOM      1  C   UNL d   1      -4.809   2.556   2.016  0.00  0.00     0.078 C 
ATOM      2  C1  UNL d   1      -4.225   1.293   1.458  0.00  0.00    -0.077 A 
ATOM      3  C2  UNL d   1      -5.006   0.406   0.708  0.00  0.00    -0.001 A 
ATOM      4  C3  UNL d   1      -4.451  -0.770   0.202  0.00  0.00     0.003 A 
ATOM      5  C4  UNL d   1      -3.113  -1.072   0.443  0.00  0.00    -0.005 A 
ATOM      6  C5  UNL d   1      -2.327  -0.197   1.191  0.00  0.00     0.003 A 
ATOM      7  C6  UNL d   1      -2.880   0.980   1.697  0.00  0.00    -0.001 A 
ENDROOT
TORSDOF 0
ENDMDL
