MODEL 1
REMARK minimizedAffinity 1.75800192
REMARK minimizedRMSD -1
REMARK  0 active torsions:
REMARK  status: ('A' for Active; 'I' for Inactive)
ROOT
ATOM      1  C   UNL d   1       5.217  -4.445   4.581  0.00  0.00    -0.002 A 
ATOM      2  C1  UNL d   1       4.864  -3.261   5.212  0.00  0.00     0.010 A 
ATOM      3  C2  UNL d   1       3.728  -2.554   4.812  0.00  0.00     0.041 A 
ATOM      4  C3  UNL d   1       2.944  -3.064   3.759  0.00  0.00    -0.075 A 
ATOM      5  S   UNL d   1       1.510  -2.370   3.101  0.00  0.00     0.015 SA
ATOM      6  C4  UNL d   1       1.331  -3.630   1.967  0.00  0.00     0.022 A 
ATOM      7  C5  UNL d   1       2.333  -4.565   2.074  0.00  0.00     0.026 A 
ATOM      8  C6  UNL d   1       3.279  -4.255   3.108  0.00  0.00    -0.082 A 
ATOM      9  C7  UNL d   1       4.437  -4.948   3.536  0.00  0.00     0.045 A 
ENDROOT
TORSDOF 0
ENDMDL
