MODEL 1
REMARK minimizedAffinity 5.00983429
REMARK minimizedRMSD -1
REMARK  0 active torsions:
REMARK  status: ('A' for Active; 'I' for Inactive)
ROOT
ATOM      1  C   UNL d   1       2.774  -3.261   1.123  0.00  0.00    -0.002 A 
ATOM      2  C1  UNL d   1       2.192  -4.494   1.378  0.00  0.00     0.010 A 
ATOM      3  C2  UNL d   1       0.968  -4.577   2.045  0.00  0.00     0.041 A 
ATOM      4  C3  UNL d   1       0.331  -3.388   2.452  0.00  0.00    -0.075 A 
ATOM      5  S   UNL d   1      -1.173  -3.246   3.283  0.00  0.00     0.015 SA
ATOM      6  C4  UNL d   1      -1.078  -1.545   3.317  0.00  0.00     0.022 A 
ATOM      7  C5  UNL d   1       0.067  -1.080   2.715  0.00  0.00     0.026 A 
ATOM      8  C6  UNL d   1       0.898  -2.134   2.206  0.00  0.00    -0.082 A 
ATOM      9  C7  UNL d   1       2.140  -2.084   1.529  0.00  0.00     0.045 A 
ENDROOT
TORSDOF 0
ENDMDL
