MODEL 1
REMARK minimizedAffinity 14.7098417
REMARK minimizedRMSD -1
REMARK  0 active torsions:
REMARK  status: ('A' for Active; 'I' for Inactive)
ROOT
ATOM      1  C   UNL d   1       5.989   0.615  -2.825  0.00  0.00    -0.002 A 
ATOM      2  C1  UNL d   1       5.992  -0.562  -2.089  0.00  0.00     0.010 A 
ATOM      3  C2  UNL d   1       5.996  -0.527  -0.693  0.00  0.00     0.041 A 
ATOM      4  C3  UNL d   1       5.994   0.723  -0.043  0.00  0.00    -0.075 A 
ATOM      5  S   UNL d   1       5.997   1.011   1.657  0.00  0.00     0.015 SA
ATOM      6  C4  UNL d   1       5.993   2.702   1.446  0.00  0.00     0.022 A 
ATOM      7  C5  UNL d   1       5.990   3.056   0.118  0.00  0.00     0.026 A 
ATOM      8  C6  UNL d   1       5.990   1.922  -0.763  0.00  0.00    -0.082 A 
ATOM      9  C7  UNL d   1       5.988   1.853  -2.177  0.00  0.00     0.045 A 
ENDROOT
TORSDOF 0
ENDMDL
