MODEL 1
REMARK minimizedAffinity 14.3380566
REMARK minimizedRMSD -1
REMARK  0 active torsions:
REMARK  status: ('A' for Active; 'I' for Inactive)
ROOT
ATOM      1  C   UNL d   1      -5.374   4.510  -4.833  0.00  0.00    -0.002 A 
ATOM      2  C1  UNL d   1      -5.930   3.258  -5.056  0.00  0.00     0.010 A 
ATOM      3  C2  UNL d   1      -5.337   2.113  -4.521  0.00  0.00     0.041 A 
ATOM      4  C3  UNL d   1      -4.167   2.248  -3.748  0.00  0.00    -0.075 A 
ATOM      5  S   UNL d   1      -3.269   0.986  -2.992  0.00  0.00     0.015 SA
ATOM      6  C4  UNL d   1      -2.127   2.079  -2.354  0.00  0.00     0.022 A 
ATOM      7  C5  UNL d   1      -2.409   3.379  -2.700  0.00  0.00     0.026 A 
ATOM      8  C6  UNL d   1      -3.590   3.498  -3.509  0.00  0.00    -0.082 A 
ATOM      9  C7  UNL d   1      -4.213   4.641  -4.066  0.00  0.00     0.045 A 
ENDROOT
TORSDOF 0
ENDMDL
