MODEL 1
REMARK minimizedAffinity 18.1373577
REMARK minimizedRMSD -1
REMARK  0 active torsions:
REMARK  status: ('A' for Active; 'I' for Inactive)
ROOT
ATOM      1  C   UNL d   1       2.084  -1.067   2.456  0.00  0.00    -0.002 A 
ATOM      2  C1  UNL d   1       1.834  -1.987   1.448  0.00  0.00     0.010 A 
ATOM      3  C2  UNL d   1       0.529  -2.228   1.014  0.00  0.00     0.041 A 
ATOM      4  C3  UNL d   1      -0.531  -1.520   1.615  0.00  0.00    -0.075 A 
ATOM      5  S   UNL d   1      -2.209  -1.650   1.244  0.00  0.00     0.015 SA
ATOM      6  C4  UNL d   1      -2.634  -0.486   2.415  0.00  0.00     0.022 A 
ATOM      7  C5  UNL d   1      -1.534  -0.000   3.081  0.00  0.00     0.026 A 
ATOM      8  C6  UNL d   1      -0.304  -0.587   2.631  0.00  0.00    -0.082 A 
ATOM      9  C7  UNL d   1       1.030  -0.366   3.050  0.00  0.00     0.045 A 
ENDROOT
TORSDOF 0
ENDMDL
