MODEL 1
REMARK minimizedAffinity 5.34045649
REMARK minimizedRMSD -1
REMARK  0 active torsions:
REMARK  status: ('A' for Active; 'I' for Inactive)
ROOT
ATOM      1  C2' OXE d   1      -5.994  -0.713   5.079  0.00  0.00     0.078 C 
ATOM      2  C1' OXE d   1      -4.182  -2.324   3.665  0.00  0.00     0.078 C 
ATOM      3  C1  OXE d   1      -4.651  -1.050   3.008  0.00  0.00    -0.078 A 
ATOM      4  C2  OXE d   1      -5.573  -0.291   3.688  0.00  0.00    -0.078 A 
ATOM      5  C3  OXE d   1      -5.998   0.921   3.151  0.00  0.00     0.003 A 
ATOM      6  C4  OXE d   1      -5.612   1.299   1.859  0.00  0.00    -0.002 A 
ATOM      7  C5  OXE d   1      -4.704   0.520   1.134  0.00  0.00    -0.002 A 
ATOM      8  C6  OXE d   1      -4.182  -0.633   1.710  0.00  0.00     0.003 A 
ENDROOT
TORSDOF 0
ENDMDL
