MODEL 1
REMARK minimizedAffinity 2.9049809
REMARK minimizedRMSD -1
REMARK  0 active torsions:
REMARK  status: ('A' for Active; 'I' for Inactive)
ROOT
ATOM      1  C2' OXE d   1      -5.960   0.855  -2.596  0.00  0.00     0.078 C 
ATOM      2  C1' OXE d   1      -5.948   0.793  -5.403  0.00  0.00     0.078 C 
ATOM      3  C1  OXE d   1      -5.940   2.142  -4.729  0.00  0.00    -0.078 A 
ATOM      4  C2  OXE d   1      -5.993   2.163  -3.356  0.00  0.00    -0.078 A 
ATOM      5  C3  OXE d   1      -5.932   3.380  -2.683  0.00  0.00     0.003 A 
ATOM      6  C4  OXE d   1      -5.973   4.586  -3.393  0.00  0.00    -0.002 A 
ATOM      7  C5  OXE d   1      -5.959   4.587  -4.792  0.00  0.00    -0.002 A 
ATOM      8  C6  OXE d   1      -5.899   3.377  -5.473  0.00  0.00     0.003 A 
ENDROOT
TORSDOF 0
ENDMDL
