MODEL 1
REMARK minimizedAffinity 10.9893475
REMARK minimizedRMSD -1
REMARK  0 active torsions:
REMARK  status: ('A' for Active; 'I' for Inactive)
ROOT
ATOM      1  C2' OXE d   1      -1.197  -3.234  -1.990  0.00  0.00     0.078 C 
ATOM      2  C1' OXE d   1       0.627  -5.305  -1.478  0.00  0.00     0.078 C 
ATOM      3  C1  OXE d   1       0.921  -3.947  -0.890  0.00  0.00    -0.078 A 
ATOM      4  C2  OXE d   1       0.047  -2.928  -1.185  0.00  0.00    -0.078 A 
ATOM      5  C3  OXE d   1       0.241  -1.669  -0.623  0.00  0.00     0.003 A 
ATOM      6  C4  OXE d   1       1.399  -1.392   0.112  0.00  0.00    -0.002 A 
ATOM      7  C5  OXE d   1       2.323  -2.406   0.391  0.00  0.00    -0.002 A 
ATOM      8  C6  OXE d   1       2.077  -3.696  -0.066  0.00  0.00     0.003 A 
ENDROOT
TORSDOF 0
ENDMDL
