MODEL 1
REMARK minimizedAffinity -0.117996253
REMARK minimizedRMSD -1
REMARK  0 active torsions:
REMARK  status: ('A' for Active; 'I' for Inactive)
ROOT
ATOM      1  C2' OXE d   1      -5.976   2.235  -0.908  0.00  0.00     0.078 C 
ATOM      2  C1' OXE d   1      -5.963   4.697  -2.256  0.00  0.00     0.078 C 
ATOM      3  C1  OXE d   1      -5.971   3.440  -3.088  0.00  0.00    -0.078 A 
ATOM      4  C2  OXE d   1      -5.931   2.239  -2.421  0.00  0.00    -0.078 A 
ATOM      5  C3  OXE d   1      -5.991   1.049  -3.140  0.00  0.00     0.003 A 
ATOM      6  C4  OXE d   1      -5.939   1.062  -4.539  0.00  0.00    -0.002 A 
ATOM      7  C5  OXE d   1      -5.940   2.273  -5.238  0.00  0.00    -0.002 A 
ATOM      8  C6  OXE d   1      -5.999   3.469  -4.530  0.00  0.00     0.003 A 
ENDROOT
TORSDOF 0
ENDMDL
