MODEL 1
REMARK minimizedAffinity -2.51059866
REMARK minimizedRMSD -1
REMARK  0 active torsions:
REMARK  status: ('A' for Active; 'I' for Inactive)
ROOT
ATOM      1  C2' OXE d   1      -5.997   1.399  -4.606  0.00  0.00     0.078 C 
ATOM      2  C1' OXE d   1      -5.393   4.128  -4.874  0.00  0.00     0.078 C 
ATOM      3  C1  OXE d   1      -5.552   3.576  -3.479  0.00  0.00    -0.078 A 
ATOM      4  C2  OXE d   1      -5.894   2.250  -3.359  0.00  0.00    -0.078 A 
ATOM      5  C3  OXE d   1      -5.999   1.678  -2.095  0.00  0.00     0.003 A 
ATOM      6  C4  OXE d   1      -5.912   2.474  -0.946  0.00  0.00    -0.002 A 
ATOM      7  C5  OXE d   1      -5.604   3.835  -1.048  0.00  0.00    -0.002 A 
ATOM      8  C6  OXE d   1      -5.379   4.391  -2.302  0.00  0.00     0.003 A 
ENDROOT
TORSDOF 0
ENDMDL
