MODEL 1
REMARK minimizedAffinity 10.2210608
REMARK minimizedRMSD -1
REMARK  0 active torsions:
REMARK  status: ('A' for Active; 'I' for Inactive)
ROOT
ATOM      1  C2' OXE d   1       0.475  -1.149  -0.852  0.00  0.00     0.078 C 
ATOM      2  C1' OXE d   1       1.390  -3.634   0.080  0.00  0.00     0.078 C 
ATOM      3  C1  OXE d   1       0.378  -3.631  -1.038  0.00  0.00    -0.078 A 
ATOM      4  C2  OXE d   1      -0.099  -2.412  -1.457  0.00  0.00    -0.078 A 
ATOM      5  C3  OXE d   1      -0.993  -2.351  -2.522  0.00  0.00     0.003 A 
ATOM      6  C4  OXE d   1      -1.526  -3.524  -3.069  0.00  0.00    -0.002 A 
ATOM      7  C5  OXE d   1      -1.083  -4.777  -2.630  0.00  0.00    -0.002 A 
ATOM      8  C6  OXE d   1      -0.102  -4.847  -1.648  0.00  0.00     0.003 A 
ENDROOT
TORSDOF 0
ENDMDL
