MODEL 1
REMARK minimizedAffinity 0.936833382
REMARK minimizedRMSD -1
REMARK  0 active torsions:
REMARK  status: ('A' for Active; 'I' for Inactive)
ROOT
ATOM      1  C2' OXE d   1      -5.981   3.536  -5.199  0.00  0.00     0.078 C 
ATOM      2  C1' OXE d   1      -5.998   0.728  -5.199  0.00  0.00     0.078 C 
ATOM      3  C1  OXE d   1      -5.980   1.432  -3.865  0.00  0.00    -0.078 A 
ATOM      4  C2  OXE d   1      -5.925   2.805  -3.875  0.00  0.00    -0.078 A 
ATOM      5  C3  OXE d   1      -5.961   3.504  -2.672  0.00  0.00     0.003 A 
ATOM      6  C4  OXE d   1      -5.899   2.821  -1.452  0.00  0.00    -0.002 A 
ATOM      7  C5  OXE d   1      -5.915   1.422  -1.420  0.00  0.00    -0.002 A 
ATOM      8  C6  OXE d   1      -5.999   0.714  -2.614  0.00  0.00     0.003 A 
ENDROOT
TORSDOF 0
ENDMDL
