MODEL 1
REMARK minimizedAffinity 6.94373131
REMARK minimizedRMSD -1
REMARK  0 active torsions:
REMARK  status: ('A' for Active; 'I' for Inactive)
ROOT
ATOM      1  C2' OXE d   1      -0.809  -4.122  -1.869  0.00  0.00     0.078 C 
ATOM      2  C1' OXE d   1       1.264  -5.778  -0.951  0.00  0.00     0.078 C 
ATOM      3  C1  OXE d   1       1.347  -4.305  -0.635  0.00  0.00    -0.078 A 
ATOM      4  C2  OXE d   1       0.352  -3.496  -1.128  0.00  0.00    -0.078 A 
ATOM      5  C3  OXE d   1       0.352  -2.138  -0.820  0.00  0.00     0.003 A 
ATOM      6  C4  OXE d   1       1.435  -1.565  -0.143  0.00  0.00    -0.002 A 
ATOM      7  C5  OXE d   1       2.478  -2.366   0.334  0.00  0.00    -0.002 A 
ATOM      8  C6  OXE d   1       2.428  -3.741   0.134  0.00  0.00     0.003 A 
ENDROOT
TORSDOF 0
ENDMDL
