MODEL 1
REMARK minimizedAffinity -0.106929488
REMARK minimizedRMSD -1
REMARK  0 active torsions:
REMARK  status: ('A' for Active; 'I' for Inactive)
ROOT
ATOM      1  C2' OXE d   1      -6.000   0.879  -4.864  0.00  0.00     0.078 C 
ATOM      2  C1' OXE d   1      -4.918   3.434  -5.288  0.00  0.00     0.078 C 
ATOM      3  C1  OXE d   1      -5.198   3.016  -3.866  0.00  0.00    -0.078 A 
ATOM      4  C2  OXE d   1      -5.770   1.782  -3.671  0.00  0.00    -0.078 A 
ATOM      5  C3  OXE d   1      -5.998   1.325  -2.377  0.00  0.00     0.003 A 
ATOM      6  C4  OXE d   1      -5.793   2.170  -1.280  0.00  0.00    -0.002 A 
ATOM      7  C5  OXE d   1      -5.247   3.446  -1.459  0.00  0.00    -0.002 A 
ATOM      8  C6  OXE d   1      -4.905   3.867  -2.739  0.00  0.00     0.003 A 
ENDROOT
TORSDOF 0
ENDMDL
