MODEL 1
REMARK minimizedAffinity 0.0921081156
REMARK minimizedRMSD -1
REMARK  0 active torsions:
REMARK  status: ('A' for Active; 'I' for Inactive)
ROOT
ATOM      1  C2' OXE d   1       5.548  -4.221  -0.894  0.00  0.00     0.078 C 
ATOM      2  C1' OXE d   1       3.931  -2.027  -0.221  0.00  0.00     0.078 C 
ATOM      3  C1  OXE d   1       3.272  -3.379  -0.335  0.00  0.00    -0.078 A 
ATOM      4  C2  OXE d   1       4.062  -4.439  -0.710  0.00  0.00    -0.078 A 
ATOM      5  C3  OXE d   1       3.515  -5.717  -0.776  0.00  0.00     0.003 A 
ATOM      6  C4  OXE d   1       2.137  -5.908  -0.614  0.00  0.00    -0.002 A 
ATOM      7  C5  OXE d   1       1.308  -4.835  -0.271  0.00  0.00    -0.002 A 
ATOM      8  C6  OXE d   1       1.865  -3.575  -0.086  0.00  0.00     0.003 A 
ENDROOT
TORSDOF 0
ENDMDL
