MODEL 1
REMARK minimizedAffinity -5.20564938
REMARK minimizedRMSD -1
REMARK  1 active torsions:
REMARK  status: ('A' for Active; 'I' for Inactive)
REMARK    1  A    between atoms: C1_2  and  C2_3 
ROOT
ATOM      1  C2  UNL d   1      -0.272   0.242  -0.266  0.00  0.00    -0.081 A 
ATOM      2  C3  UNL d   1      -0.890  -0.554   0.706  0.00  0.00     0.006 A 
ATOM      3  C4  UNL d   1      -0.842  -1.947   0.616  0.00  0.00     0.002 A 
ATOM      4  C5  UNL d   1      -0.170  -2.567  -0.443  0.00  0.00    -0.080 A 
ATOM      5  C6  UNL d   1      -0.086  -4.062  -0.536  0.00  0.00     0.076 C 
ATOM      6  C7  UNL d   1       0.432  -1.772  -1.424  0.00  0.00     0.002 A 
ATOM      7  C8  UNL d   1       0.385  -0.379  -1.334  0.00  0.00     0.006 A 
ENDROOT
BRANCH   1   8
ATOM      8  C1  UNL d   1      -0.265   1.744  -0.137  0.00  0.00     0.054 C 
ATOM      9  C   UNL d   1       1.110   2.259   0.264  0.00  0.00     0.018 C 
ENDBRANCH   1   8
TORSDOF 1
ENDMDL
