MODEL 1
REMARK minimizedAffinity -3.62801409
REMARK minimizedRMSD -1
REMARK  1 active torsions:
REMARK  status: ('A' for Active; 'I' for Inactive)
REMARK    1  A    between atoms: C1_2  and  C2_3 
ROOT
ATOM      1  C2  UNL d   1      -0.367  -1.234   0.507  0.00  0.00    -0.081 A 
ATOM      2  C3  UNL d   1       0.311  -0.728  -0.609  0.00  0.00     0.006 A 
ATOM      3  C4  UNL d   1       0.546   0.643  -0.734  0.00  0.00     0.002 A 
ATOM      4  C5  UNL d   1       0.114   1.530   0.258  0.00  0.00    -0.080 A 
ATOM      5  C6  UNL d   1       0.386   3.001   0.152  0.00  0.00     0.076 C 
ATOM      6  C7  UNL d   1      -0.579   1.027   1.364  0.00  0.00     0.002 A 
ATOM      7  C8  UNL d   1      -0.815  -0.344   1.489  0.00  0.00     0.006 A 
ENDROOT
BRANCH   1   8
ATOM      8  C1  UNL d   1      -0.565  -2.719   0.675  0.00  0.00     0.054 C 
ATOM      9  C   UNL d   1      -0.416  -3.451  -0.651  0.00  0.00     0.018 C 
ENDBRANCH   1   8
TORSDOF 1
ENDMDL
