MODEL 1
REMARK minimizedAffinity -4.81593418
REMARK minimizedRMSD -1
REMARK  1 active torsions:
REMARK  status: ('A' for Active; 'I' for Inactive)
REMARK    1  A    between atoms: C1_2  and  C2_3 
ROOT
ATOM      1  C2  UNL d   1       0.307   0.910   0.234  0.00  0.00    -0.081 A 
ATOM      2  C3  UNL d   1      -0.136   0.384   1.454  0.00  0.00     0.006 A 
ATOM      3  C4  UNL d   1      -0.356  -0.988   1.595  0.00  0.00     0.002 A 
ATOM      4  C5  UNL d   1      -0.131  -1.857   0.523  0.00  0.00    -0.080 A 
ATOM      5  C6  UNL d   1      -0.335  -3.336   0.670  0.00  0.00     0.076 C 
ATOM      6  C7  UNL d   1       0.294  -1.330  -0.701  0.00  0.00     0.002 A 
ATOM      7  C8  UNL d   1       0.514   0.042  -0.843  0.00  0.00     0.006 A 
ENDROOT
BRANCH   1   8
ATOM      8  C1  UNL d   1       0.607   2.381   0.098  0.00  0.00     0.054 C 
ATOM      9  C   UNL d   1       1.905   2.748   0.803  0.00  0.00     0.018 C 
ENDBRANCH   1   8
TORSDOF 1
ENDMDL
