MODEL 1
REMARK minimizedAffinity -5.29014063
REMARK minimizedRMSD -1
REMARK  1 active torsions:
REMARK  status: ('A' for Active; 'I' for Inactive)
REMARK    1  A    between atoms: C1_2  and  C2_3 
ROOT
ATOM      1  C2  UNL d   1      -0.014   1.121   0.066  0.00  0.00    -0.081 A 
ATOM      2  C3  UNL d   1      -0.814   0.528   1.051  0.00  0.00     0.006 A 
ATOM      3  C4  UNL d   1      -0.853  -0.861   1.190  0.00  0.00     0.002 A 
ATOM      4  C5  UNL d   1      -0.089  -1.680   0.353  0.00  0.00    -0.080 A 
ATOM      5  C6  UNL d   1      -0.099  -3.172   0.511  0.00  0.00     0.076 C 
ATOM      6  C7  UNL d   1       0.697  -1.089  -0.643  0.00  0.00     0.002 A 
ATOM      7  C8  UNL d   1       0.736   0.300  -0.783  0.00  0.00     0.006 A 
ENDROOT
BRANCH   1   8
ATOM      8  C1  UNL d   1       0.081   2.621  -0.044  0.00  0.00     0.054 C 
ATOM      9  C   UNL d   1       1.376   3.140   0.563  0.00  0.00     0.018 C 
ENDBRANCH   1   8
TORSDOF 1
ENDMDL
