MODEL 1
REMARK minimizedAffinity -5.34579039
REMARK minimizedRMSD -1
REMARK  1 active torsions:
REMARK  status: ('A' for Active; 'I' for Inactive)
REMARK    1  A    between atoms: C1_2  and  C2_3 
ROOT
ATOM      1  C2  UNL d   1       0.269   0.902  -0.054  0.00  0.00    -0.081 A 
ATOM      2  C3  UNL d   1      -0.626   0.548   0.963  0.00  0.00     0.006 A 
ATOM      3  C4  UNL d   1      -0.841  -0.796   1.280  0.00  0.00     0.002 A 
ATOM      4  C5  UNL d   1      -0.159  -1.805   0.593  0.00  0.00    -0.080 A 
ATOM      5  C6  UNL d   1      -0.358  -3.250   0.944  0.00  0.00     0.076 C 
ATOM      6  C7  UNL d   1       0.722  -1.452  -0.435  0.00  0.00     0.002 A 
ATOM      7  C8  UNL d   1       0.936  -0.109  -0.754  0.00  0.00     0.006 A 
ENDROOT
BRANCH   1   8
ATOM      8  C1  UNL d   1       0.552   2.352  -0.355  0.00  0.00     0.054 C 
ATOM      9  C   UNL d   1       2.024   2.682  -0.156  0.00  0.00     0.018 C 
ENDBRANCH   1   8
TORSDOF 1
ENDMDL
