MODEL 1
REMARK minimizedAffinity -5.73379755
REMARK minimizedRMSD -1
REMARK  1 active torsions:
REMARK  status: ('A' for Active; 'I' for Inactive)
REMARK    1  A    between atoms: C1_2  and  C2_3 
ROOT
ATOM      1  C2  UNL d   1      -0.258   1.242   0.141  0.00  0.00    -0.081 A 
ATOM      2  C3  UNL d   1      -0.930   0.708   1.247  0.00  0.00     0.006 A 
ATOM      3  C4  UNL d   1      -1.001  -0.675   1.433  0.00  0.00     0.002 A 
ATOM      4  C5  UNL d   1      -0.394  -1.545   0.521  0.00  0.00    -0.080 A 
ATOM      5  C6  UNL d   1      -0.436  -3.030   0.725  0.00  0.00     0.076 C 
ATOM      6  C7  UNL d   1       0.263  -1.012  -0.593  0.00  0.00     0.002 A 
ATOM      7  C8  UNL d   1       0.333   0.370  -0.780  0.00  0.00     0.006 A 
ENDROOT
BRANCH   1   8
ATOM      8  C1  UNL d   1      -0.125   2.734  -0.028  0.00  0.00     0.054 C 
ATOM      9  C   UNL d   1       1.332   3.169   0.023  0.00  0.00     0.018 C 
ENDBRANCH   1   8
TORSDOF 1
ENDMDL
