MODEL 1
REMARK minimizedAffinity -3.47334623
REMARK minimizedRMSD -1
REMARK  1 active torsions:
REMARK  status: ('A' for Active; 'I' for Inactive)
REMARK    1  A    between atoms: C1_2  and  C2_3 
ROOT
ATOM      1  C2  UNL d   1      -0.114   1.390   0.107  0.00  0.00    -0.081 A 
ATOM      2  C3  UNL d   1      -0.701   0.902   1.281  0.00  0.00     0.006 A 
ATOM      3  C4  UNL d   1      -0.963  -0.463   1.428  0.00  0.00     0.002 A 
ATOM      4  C5  UNL d   1      -0.634  -1.362   0.407  0.00  0.00    -0.080 A 
ATOM      5  C6  UNL d   1      -0.882  -2.833   0.564  0.00  0.00     0.076 C 
ATOM      6  C7  UNL d   1      -0.064  -0.872  -0.772  0.00  0.00     0.002 A 
ATOM      7  C8  UNL d   1       0.197   0.492  -0.920  0.00  0.00     0.006 A 
ENDROOT
BRANCH   1   8
ATOM      8  C1  UNL d   1       0.228   2.852  -0.028  0.00  0.00     0.054 C 
ATOM      9  C   UNL d   1       1.706   3.101   0.238  0.00  0.00     0.018 C 
ENDBRANCH   1   8
TORSDOF 1
ENDMDL
