MODEL 1
REMARK minimizedAffinity -5.8440423
REMARK minimizedRMSD -1
REMARK  1 active torsions:
REMARK  status: ('A' for Active; 'I' for Inactive)
REMARK    1  A    between atoms: C1_2  and  C2_3 
ROOT
ATOM      1  C2  UNL d   1      -0.037   0.949  -0.211  0.00  0.00    -0.081 A 
ATOM      2  C3  UNL d   1       0.002  -0.076   0.742  0.00  0.00     0.006 A 
ATOM      3  C4  UNL d   1      -0.024  -1.415   0.343  0.00  0.00     0.002 A 
ATOM      4  C5  UNL d   1      -0.081  -1.751  -1.014  0.00  0.00    -0.080 A 
ATOM      5  C6  UNL d   1      -0.079  -3.184  -1.456  0.00  0.00     0.076 C 
ATOM      6  C7  UNL d   1      -0.138  -0.726  -1.965  0.00  0.00     0.002 A 
ATOM      7  C8  UNL d   1      -0.113   0.612  -1.567  0.00  0.00     0.006 A 
ENDROOT
BRANCH   1   8
ATOM      8  C1  UNL d   1       0.055   2.393   0.212  0.00  0.00     0.054 C 
ATOM      9  C   UNL d   1       1.502   2.815   0.425  0.00  0.00     0.018 C 
ENDBRANCH   1   8
TORSDOF 1
ENDMDL
