MODEL 1
REMARK minimizedAffinity -5.11047268
REMARK minimizedRMSD -1
REMARK  1 active torsions:
REMARK  status: ('A' for Active; 'I' for Inactive)
REMARK    1  A    between atoms: C1_2  and  C2_3 
ROOT
ATOM      1  C2  UNL d   1      -0.206   1.181   0.047  0.00  0.00    -0.081 A 
ATOM      2  C3  UNL d   1      -0.975   0.574   1.048  0.00  0.00     0.006 A 
ATOM      3  C4  UNL d   1      -1.115  -0.815   1.089  0.00  0.00     0.002 A 
ATOM      4  C5  UNL d   1      -0.482  -1.620   0.136  0.00  0.00    -0.080 A 
ATOM      5  C6  UNL d   1      -0.599  -3.115   0.187  0.00  0.00     0.076 C 
ATOM      6  C7  UNL d   1       0.272  -1.013  -0.874  0.00  0.00     0.002 A 
ATOM      7  C8  UNL d   1       0.411   0.376  -0.916  0.00  0.00     0.006 A 
ENDROOT
BRANCH   1   8
ATOM      8  C1  UNL d   1      -0.001   2.675   0.038  0.00  0.00     0.054 C 
ATOM      9  C   UNL d   1       1.438   3.037   0.375  0.00  0.00     0.018 C 
ENDBRANCH   1   8
TORSDOF 1
ENDMDL
