MODEL 1
REMARK minimizedAffinity -3.22659087
REMARK minimizedRMSD -1
REMARK  1 active torsions:
REMARK  status: ('A' for Active; 'I' for Inactive)
REMARK    1  A    between atoms: C1_2  and  C2_3 
ROOT
ATOM      1  C2  UNL d   1      -0.133   0.866  -0.379  0.00  0.00    -0.081 A 
ATOM      2  C3  UNL d   1      -0.639   0.465   0.864  0.00  0.00     0.006 A 
ATOM      3  C4  UNL d   1      -0.656  -0.885   1.220  0.00  0.00     0.002 A 
ATOM      4  C5  UNL d   1      -0.161  -1.857   0.344  0.00  0.00    -0.080 A 
ATOM      5  C6  UNL d   1      -0.145  -3.307   0.726  0.00  0.00     0.076 C 
ATOM      6  C7  UNL d   1       0.329  -1.459  -0.905  0.00  0.00     0.002 A 
ATOM      7  C8  UNL d   1       0.346  -0.109  -1.262  0.00  0.00     0.006 A 
ENDROOT
BRANCH   1   8
ATOM      8  C1  UNL d   1      -0.053   2.327  -0.739  0.00  0.00     0.054 C 
ATOM      9  C   UNL d   1       0.902   3.073   0.181  0.00  0.00     0.018 C 
ENDBRANCH   1   8
TORSDOF 1
ENDMDL
