MODEL 1
REMARK minimizedAffinity 6.20096731
REMARK minimizedRMSD -1
REMARK  0 active torsions:
REMARK  status: ('A' for Active; 'I' for Inactive)
ROOT
ATOM      1  C   UNL d   1      -5.477   3.435  -6.000  0.00  0.00    -0.002 A 
ATOM      2  C1  UNL d   1      -4.609   4.058  -5.114  0.00  0.00     0.010 A 
ATOM      3  C2  UNL d   1      -4.230   3.426  -3.928  0.00  0.00     0.041 A 
ATOM      4  C3  UNL d   1      -4.741   2.144  -3.646  0.00  0.00    -0.075 A 
ATOM      5  S   UNL d   1      -4.415   1.177  -2.256  0.00  0.00     0.015 SA
ATOM      6  C4  UNL d   1      -5.420  -0.085  -2.806  0.00  0.00     0.022 A 
ATOM      7  C5  UNL d   1      -5.998   0.207  -4.018  0.00  0.00     0.026 A 
ATOM      8  C6  UNL d   1      -5.616   1.496  -4.523  0.00  0.00    -0.082 A 
ATOM      9  C7  UNL d   1      -5.983   2.164  -5.716  0.00  0.00     0.045 A 
ENDROOT
TORSDOF 0
ENDMDL
