MODEL 1
REMARK minimizedAffinity -0.712999046
REMARK minimizedRMSD -1
REMARK  0 active torsions:
REMARK  status: ('A' for Active; 'I' for Inactive)
ROOT
ATOM      1  C   UNL d   1      -5.999   0.104  -1.506  0.00  0.00    -0.002 A 
ATOM      2  C1  UNL d   1      -5.998  -0.939  -2.421  0.00  0.00     0.010 A 
ATOM      3  C2  UNL d   1      -6.000  -0.681  -3.793  0.00  0.00     0.041 A 
ATOM      4  C3  UNL d   1      -5.999   0.656  -4.235  0.00  0.00    -0.075 A 
ATOM      5  S   UNL d   1      -6.000   1.212  -5.867  0.00  0.00     0.015 SA
ATOM      6  C4  UNL d   1      -6.000   2.848  -5.389  0.00  0.00     0.022 A 
ATOM      7  C5  UNL d   1      -6.000   2.985  -4.021  0.00  0.00     0.026 A 
ATOM      8  C6  UNL d   1      -5.999   1.724  -3.334  0.00  0.00    -0.082 A 
ATOM      9  C7  UNL d   1      -5.999   1.430  -1.949  0.00  0.00     0.045 A 
ENDROOT
TORSDOF 0
ENDMDL
