MODEL 1
REMARK minimizedAffinity 9.63418293
REMARK minimizedRMSD -1
REMARK  0 active torsions:
REMARK  status: ('A' for Active; 'I' for Inactive)
ROOT
ATOM      1  C   UNL d   1      -0.455   1.750  -0.025  0.00  0.00    -0.002 A 
ATOM      2  C1  UNL d   1      -0.383   0.731   0.914  0.00  0.00     0.010 A 
ATOM      3  C2  UNL d   1       0.140   0.973   2.186  0.00  0.00     0.041 A 
ATOM      4  C3  UNL d   1       0.592   2.269   2.502  0.00  0.00    -0.075 A 
ATOM      5  S   UNL d   1       1.270   2.798   3.996  0.00  0.00     0.015 SA
ATOM      6  C4  UNL d   1       1.480   4.389   3.424  0.00  0.00     0.022 A 
ATOM      7  C5  UNL d   1       1.050   4.531   2.126  0.00  0.00     0.026 A 
ATOM      8  C6  UNL d   1       0.530   3.312   1.573  0.00  0.00    -0.082 A 
ATOM      9  C7  UNL d   1      -0.004   3.035   0.292  0.00  0.00     0.045 A 
ENDROOT
TORSDOF 0
ENDMDL
