MODEL 1
REMARK minimizedAffinity 2.12708735
REMARK minimizedRMSD -1
REMARK  0 active torsions:
REMARK  status: ('A' for Active; 'I' for Inactive)
ROOT
ATOM      1  C   UNL d   1      -5.995   2.256  -5.267  0.00  0.00    -0.002 A 
ATOM      2  C1  UNL d   1      -6.000   3.481  -5.918  0.00  0.00     0.010 A 
ATOM      3  C2  UNL d   1      -4.835   4.246  -6.000  0.00  0.00     0.041 A 
ATOM      4  C3  UNL d   1      -3.653   3.754  -5.412  0.00  0.00    -0.075 A 
ATOM      5  S   UNL d   1      -2.107   4.517  -5.389  0.00  0.00     0.015 SA
ATOM      6  C4  UNL d   1      -1.404   3.234  -4.515  0.00  0.00     0.022 A 
ATOM      7  C5  UNL d   1      -2.312   2.239  -4.239  0.00  0.00     0.026 A 
ATOM      8  C6  UNL d   1      -3.623   2.522  -4.752  0.00  0.00    -0.082 A 
ATOM      9  C7  UNL d   1      -4.820   1.770  -4.685  0.00  0.00     0.045 A 
ENDROOT
TORSDOF 0
ENDMDL
