MODEL 1
REMARK minimizedAffinity 13.0867691
REMARK minimizedRMSD -1
REMARK  0 active torsions:
REMARK  status: ('A' for Active; 'I' for Inactive)
ROOT
ATOM      1  C   UNL d   1       0.742   3.168   2.589  0.00  0.00    -0.002 A 
ATOM      2  C1  UNL d   1       0.648   3.935   1.436  0.00  0.00     0.010 A 
ATOM      3  C2  UNL d   1       0.385   3.334   0.203  0.00  0.00     0.041 A 
ATOM      4  C3  UNL d   1       0.214   1.937   0.148  0.00  0.00    -0.075 A 
ATOM      5  S   UNL d   1      -0.117   0.985  -1.250  0.00  0.00     0.015 SA
ATOM      6  C4  UNL d   1      -0.143  -0.462  -0.350  0.00  0.00     0.022 A 
ATOM      7  C5  UNL d   1       0.093  -0.243   0.986  0.00  0.00     0.026 A 
ATOM      8  C6  UNL d   1       0.302   1.144   1.296  0.00  0.00    -0.082 A 
ATOM      9  C7  UNL d   1       0.571   1.782   2.530  0.00  0.00     0.045 A 
ENDROOT
TORSDOF 0
ENDMDL
