MODEL 1
REMARK minimizedAffinity 9.36129379
REMARK minimizedRMSD -1
REMARK  0 active torsions:
REMARK  status: ('A' for Active; 'I' for Inactive)
ROOT
ATOM      1  C   UNL d   1      -0.205   3.198   0.359  0.00  0.00    -0.002 A 
ATOM      2  C1  UNL d   1      -0.079   2.479  -0.821  0.00  0.00     0.010 A 
ATOM      3  C2  UNL d   1       0.419   1.175  -0.809  0.00  0.00     0.041 A 
ATOM      4  C3  UNL d   1       0.789   0.598   0.423  0.00  0.00    -0.075 A 
ATOM      5  S   UNL d   1       1.422  -0.984   0.681  0.00  0.00     0.015 SA
ATOM      6  C4  UNL d   1       1.538  -0.744   2.364  0.00  0.00     0.022 A 
ATOM      7  C5  UNL d   1       1.109   0.508   2.737  0.00  0.00     0.026 A 
ATOM      8  C6  UNL d   1       0.670   1.302   1.624  0.00  0.00    -0.082 A 
ATOM      9  C7  UNL d   1       0.163   2.623   1.578  0.00  0.00     0.045 A 
ENDROOT
TORSDOF 0
ENDMDL
