MODEL 1
REMARK minimizedAffinity 13.6034784
REMARK minimizedRMSD -1
REMARK  0 active torsions:
REMARK  status: ('A' for Active; 'I' for Inactive)
ROOT
ATOM      1  C   UNL d   1       0.421   0.885   1.643  0.00  0.00    -0.002 A 
ATOM      2  C1  UNL d   1      -0.486   1.932   1.568  0.00  0.00     0.010 A 
ATOM      3  C2  UNL d   1      -0.836   2.482   0.333  0.00  0.00     0.041 A 
ATOM      4  C3  UNL d   1      -0.255   1.954  -0.837  0.00  0.00    -0.075 A 
ATOM      5  S   UNL d   1      -0.534   2.468  -2.459  0.00  0.00     0.015 SA
ATOM      6  C4  UNL d   1       0.543   1.308  -3.090  0.00  0.00     0.022 A 
ATOM      7  C5  UNL d   1       1.111   0.540  -2.102  0.00  0.00     0.026 A 
ATOM      8  C6  UNL d   1       0.660   0.899  -0.787  0.00  0.00    -0.082 A 
ATOM      9  C7  UNL d   1       0.995   0.364   0.480  0.00  0.00     0.045 A 
ENDROOT
TORSDOF 0
ENDMDL
