MODEL 1
REMARK minimizedAffinity 16.057642
REMARK minimizedRMSD -1
REMARK  0 active torsions:
REMARK  status: ('A' for Active; 'I' for Inactive)
ROOT
ATOM      1  C   UNL d   1      -3.678   1.252  -1.870  0.00  0.00    -0.002 A 
ATOM      2  C1  UNL d   1      -3.004   2.419  -2.201  0.00  0.00     0.010 A 
ATOM      3  C2  UNL d   1      -3.308   3.106  -3.378  0.00  0.00     0.041 A 
ATOM      4  C3  UNL d   1      -4.312   2.595  -4.225  0.00  0.00    -0.075 A 
ATOM      5  S   UNL d   1      -4.854   3.268  -5.717  0.00  0.00     0.015 SA
ATOM      6  C4  UNL d   1      -5.993   2.022  -5.951  0.00  0.00     0.022 A 
ATOM      7  C5  UNL d   1      -5.973   1.106  -4.925  0.00  0.00     0.026 A 
ATOM      8  C6  UNL d   1      -5.005   1.422  -3.913  0.00  0.00    -0.082 A 
ATOM      9  C7  UNL d   1      -4.672   0.749  -2.713  0.00  0.00     0.045 A 
ENDROOT
TORSDOF 0
ENDMDL
