MODEL 1
REMARK minimizedAffinity 15.1248512
REMARK minimizedRMSD -1
REMARK  0 active torsions:
REMARK  status: ('A' for Active; 'I' for Inactive)
ROOT
ATOM      1  C   UNL d   1      -5.600   2.879  -6.000  0.00  0.00    -0.002 A 
ATOM      2  C1  UNL d   1      -4.855   3.579  -5.062  0.00  0.00     0.010 A 
ATOM      3  C2  UNL d   1      -4.495   2.983  -3.852  0.00  0.00     0.041 A 
ATOM      4  C3  UNL d   1      -4.899   1.657  -3.599  0.00  0.00    -0.075 A 
ATOM      5  S   UNL d   1      -4.574   0.723  -2.187  0.00  0.00     0.015 SA
ATOM      6  C4  UNL d   1      -5.416  -0.628  -2.796  0.00  0.00     0.022 A 
ATOM      7  C5  UNL d   1      -5.939  -0.390  -4.045  0.00  0.00     0.026 A 
ATOM      8  C6  UNL d   1      -5.650   0.931  -4.528  0.00  0.00    -0.082 A 
ATOM      9  C7  UNL d   1      -5.999   1.564  -5.745  0.00  0.00     0.045 A 
ENDROOT
TORSDOF 0
ENDMDL
