MODEL 1
REMARK minimizedAffinity 6.82653999
REMARK minimizedRMSD -1
REMARK  0 active torsions:
REMARK  status: ('A' for Active; 'I' for Inactive)
ROOT
ATOM      1  C   UNL d   1      -6.000   1.912  -5.710  0.00  0.00    -0.002 A 
ATOM      2  C1  UNL d   1      -5.923   3.268  -5.996  0.00  0.00     0.010 A 
ATOM      3  C2  UNL d   1      -4.954   4.068  -5.388  0.00  0.00     0.041 A 
ATOM      4  C3  UNL d   1      -4.053   3.477  -4.481  0.00  0.00    -0.075 A 
ATOM      5  S   UNL d   1      -2.783   4.261  -3.617  0.00  0.00     0.015 SA
ATOM      6  C4  UNL d   1      -2.312   2.814  -2.849  0.00  0.00     0.022 A 
ATOM      7  C5  UNL d   1      -3.094   1.750  -3.230  0.00  0.00     0.026 A 
ATOM      8  C6  UNL d   1      -4.110   2.114  -4.177  0.00  0.00    -0.082 A 
ATOM      9  C7  UNL d   1      -5.104   1.329  -4.809  0.00  0.00     0.045 A 
ENDROOT
TORSDOF 0
ENDMDL
