MODEL 1
REMARK minimizedAffinity 11.3920279
REMARK minimizedRMSD -1
REMARK  0 active torsions:
REMARK  status: ('A' for Active; 'I' for Inactive)
ROOT
ATOM      1  C   UNL d   1      -2.203   4.521  -3.887  0.00  0.00    -0.002 A 
ATOM      2  C1  UNL d   1      -2.683   5.378  -4.868  0.00  0.00     0.010 A 
ATOM      3  C2  UNL d   1      -3.849   5.070  -5.571  0.00  0.00     0.041 A 
ATOM      4  C3  UNL d   1      -4.534   3.877  -5.268  0.00  0.00    -0.075 A 
ATOM      5  S   UNL d   1      -5.983   3.295  -5.998  0.00  0.00     0.015 SA
ATOM      6  C4  UNL d   1      -6.000   1.895  -5.026  0.00  0.00     0.022 A 
ATOM      7  C5  UNL d   1      -4.933   1.857  -4.159  0.00  0.00     0.026 A 
ATOM      8  C6  UNL d   1      -4.071   2.998  -4.284  0.00  0.00    -0.082 A 
ATOM      9  C7  UNL d   1      -2.885   3.338  -3.589  0.00  0.00     0.045 A 
ENDROOT
TORSDOF 0
ENDMDL
