MODEL 1
REMARK minimizedAffinity 7.4806571
REMARK minimizedRMSD -1
REMARK  0 active torsions:
REMARK  status: ('A' for Active; 'I' for Inactive)
ROOT
ATOM      1  C   UNL d   1      -0.685   1.517  -0.390  0.00  0.00    -0.002 A 
ATOM      2  C1  UNL d   1      -0.382   0.400   0.376  0.00  0.00     0.010 A 
ATOM      3  C2  UNL d   1       0.272   0.536   1.602  0.00  0.00     0.041 A 
ATOM      4  C3  UNL d   1       0.618   1.826   2.051  0.00  0.00    -0.075 A 
ATOM      5  S   UNL d   1       1.422   2.235   3.520  0.00  0.00     0.015 SA
ATOM      6  C4  UNL d   1       1.382   3.902   3.166  0.00  0.00     0.022 A 
ATOM      7  C5  UNL d   1       0.773   4.158   1.960  0.00  0.00     0.026 A 
ATOM      8  C6  UNL d   1       0.323   2.966   1.298  0.00  0.00    -0.082 A 
ATOM      9  C7  UNL d   1      -0.340   2.795   0.059  0.00  0.00     0.045 A 
ENDROOT
TORSDOF 0
ENDMDL
