MODEL 1
REMARK minimizedAffinity 14.2320137
REMARK minimizedRMSD -1
REMARK  0 active torsions:
REMARK  status: ('A' for Active; 'I' for Inactive)
ROOT
ATOM      1  C   UNL d   1       0.526   0.444   1.055  0.00  0.00    -0.002 A 
ATOM      2  C1  UNL d   1      -0.173   1.641   0.990  0.00  0.00     0.010 A 
ATOM      3  C2  UNL d   1      -0.457   2.231  -0.243  0.00  0.00     0.041 A 
ATOM      4  C3  UNL d   1      -0.025   1.591  -1.421  0.00  0.00    -0.075 A 
ATOM      5  S   UNL d   1      -0.260   2.127  -3.043  0.00  0.00     0.015 SA
ATOM      6  C4  UNL d   1       0.561   0.780  -3.687  0.00  0.00     0.022 A 
ATOM      7  C5  UNL d   1       1.010  -0.069  -2.703  0.00  0.00     0.026 A 
ATOM      8  C6  UNL d   1       0.680   0.384  -1.381  0.00  0.00    -0.082 A 
ATOM      9  C7  UNL d   1       0.953  -0.188  -0.116  0.00  0.00     0.045 A 
ENDROOT
TORSDOF 0
ENDMDL
