MODEL 1
REMARK minimizedAffinity 12.751564
REMARK minimizedRMSD -1
REMARK  0 active torsions:
REMARK  status: ('A' for Active; 'I' for Inactive)
ROOT
ATOM      1  C   UNL d   1      -5.977   2.006  -5.308  0.00  0.00    -0.002 A 
ATOM      2  C1  UNL d   1      -5.523   1.492  -4.101  0.00  0.00     0.010 A 
ATOM      3  C2  UNL d   1      -4.305   1.914  -3.563  0.00  0.00     0.041 A 
ATOM      4  C3  UNL d   1      -3.545   2.871  -4.264  0.00  0.00    -0.075 A 
ATOM      5  S   UNL d   1      -2.025   3.536  -3.796  0.00  0.00     0.015 SA
ATOM      6  C4  UNL d   1      -1.943   4.519  -5.186  0.00  0.00     0.022 A 
ATOM      7  C5  UNL d   1      -3.040   4.356  -5.998  0.00  0.00     0.026 A 
ATOM      8  C6  UNL d   1      -3.982   3.404  -5.480  0.00  0.00    -0.082 A 
ATOM      9  C7  UNL d   1      -5.220   2.956  -6.000  0.00  0.00     0.045 A 
ENDROOT
TORSDOF 0
ENDMDL
