MODEL 1
REMARK minimizedAffinity 5.25073195
REMARK minimizedRMSD -1
REMARK  0 active torsions:
REMARK  status: ('A' for Active; 'I' for Inactive)
ROOT
ATOM      1  C   UNL d   1      -6.000   1.975  -5.348  0.00  0.00    -0.002 A 
ATOM      2  C1  UNL d   1      -5.480   1.372  -4.211  0.00  0.00     0.010 A 
ATOM      3  C2  UNL d   1      -4.239   1.763  -3.704  0.00  0.00     0.041 A 
ATOM      4  C3  UNL d   1      -3.523   2.780  -4.365  0.00  0.00    -0.075 A 
ATOM      5  S   UNL d   1      -1.985   3.423  -3.925  0.00  0.00     0.015 SA
ATOM      6  C4  UNL d   1      -1.982   4.513  -5.235  0.00  0.00     0.022 A 
ATOM      7  C5  UNL d   1      -3.119   4.403  -6.000  0.00  0.00     0.026 A 
ATOM      8  C6  UNL d   1      -4.026   3.403  -5.511  0.00  0.00    -0.082 A 
ATOM      9  C7  UNL d   1      -5.287   2.984  -6.000  0.00  0.00     0.045 A 
ENDROOT
TORSDOF 0
ENDMDL
