MODEL 1
REMARK minimizedAffinity 7.57738686
REMARK minimizedRMSD -1
REMARK  1 active torsions:
REMARK  status: ('A' for Active; 'I' for Inactive)
REMARK    1  A    between atoms: C1_2  and  C2_3 
ROOT
ATOM      1  C2  UNL d   1      -4.069   1.766  -3.836  0.00  0.00    -0.077 A 
ATOM      2  C3  UNL d   1      -4.084   3.006  -4.489  0.00  0.00     0.002 A 
ATOM      3  C4  UNL d   1      -5.048   3.963  -4.165  0.00  0.00     0.002 A 
ATOM      4  C5  UNL d   1      -6.000   3.692  -3.184  0.00  0.00    -0.004 A 
ATOM      5  C6  UNL d   1      -5.995   2.460  -2.531  0.00  0.00     0.002 A 
ATOM      6  C7  UNL d   1      -5.033   1.502  -2.854  0.00  0.00     0.002 A 
ENDROOT
BRANCH   1   7
ATOM      7  C1  UNL d   1      -3.001   0.751  -4.149  0.00  0.00     0.055 C 
ATOM      8  C   UNL d   1      -2.255   0.326  -2.892  0.00  0.00     0.019 C 
ENDBRANCH   1   7
TORSDOF 1
ENDMDL
