MODEL 1
REMARK minimizedAffinity 1.6495173
REMARK minimizedRMSD -1
REMARK  1 active torsions:
REMARK  status: ('A' for Active; 'I' for Inactive)
REMARK    1  A    between atoms: C1_2  and  C2_3 
ROOT
ATOM      1  C2  UNL d   1       3.457  -0.256   0.056  0.00  0.00    -0.077 A 
ATOM      2  C3  UNL d   1       4.595  -0.084   0.857  0.00  0.00     0.002 A 
ATOM      3  C4  UNL d   1       5.398   1.049   0.709  0.00  0.00     0.002 A 
ATOM      4  C5  UNL d   1       5.069   2.019  -0.235  0.00  0.00    -0.004 A 
ATOM      5  C6  UNL d   1       3.941   1.856  -1.037  0.00  0.00     0.002 A 
ATOM      6  C7  UNL d   1       3.138   0.724  -0.892  0.00  0.00     0.002 A 
ENDROOT
BRANCH   1   7
ATOM      7  C1  UNL d   1       2.563  -1.453   0.248  0.00  0.00     0.055 C 
ATOM      8  C   UNL d   1       2.330  -2.186  -1.065  0.00  0.00     0.019 C 
ENDBRANCH   1   7
TORSDOF 1
ENDMDL
