MODEL 1
REMARK minimizedAffinity -4.76561451
REMARK minimizedRMSD -1
REMARK  1 active torsions:
REMARK  status: ('A' for Active; 'I' for Inactive)
REMARK    1  A    between atoms: C1_2  and  C2_3 
ROOT
ATOM      1  C2  UNL d   1       2.997   4.101   5.445  0.00  0.00    -0.077 A 
ATOM      2  C3  UNL d   1       3.210   3.004   4.600  0.00  0.00     0.002 A 
ATOM      3  C4  UNL d   1       4.494   2.705   4.140  0.00  0.00     0.002 A 
ATOM      4  C5  UNL d   1       5.575   3.496   4.524  0.00  0.00    -0.004 A 
ATOM      5  C6  UNL d   1       5.373   4.591   5.364  0.00  0.00     0.002 A 
ATOM      6  C7  UNL d   1       4.090   4.892   5.823  0.00  0.00     0.002 A 
ENDROOT
BRANCH   1   7
ATOM      7  C1  UNL d   1       1.620   4.396   5.982  0.00  0.00     0.055 C 
ATOM      8  C   UNL d   1       0.960   5.534   5.217  0.00  0.00     0.019 C 
ENDBRANCH   1   7
TORSDOF 1
ENDMDL
