MODEL 1
REMARK minimizedAffinity -0.162660778
REMARK minimizedRMSD -1
REMARK  1 active torsions:
REMARK  status: ('A' for Active; 'I' for Inactive)
REMARK    1  A    between atoms: C1_2  and  C2_3 
ROOT
ATOM      1  C2  UNL d   1       2.562   4.577   5.993  0.00  0.00    -0.077 A 
ATOM      2  C3  UNL d   1       3.673   5.429   5.933  0.00  0.00     0.002 A 
ATOM      3  C4  UNL d   1       4.966   4.903   5.881  0.00  0.00     0.002 A 
ATOM      4  C5  UNL d   1       5.158   3.523   5.885  0.00  0.00    -0.004 A 
ATOM      5  C6  UNL d   1       4.060   2.667   5.947  0.00  0.00     0.002 A 
ATOM      6  C7  UNL d   1       2.767   3.191   6.000  0.00  0.00     0.002 A 
ENDROOT
BRANCH   1   7
ATOM      7  C1  UNL d   1       1.166   5.142   6.000  0.00  0.00     0.055 C 
ATOM      8  C   UNL d   1       0.901   5.976   4.755  0.00  0.00     0.019 C 
ENDBRANCH   1   7
TORSDOF 1
ENDMDL
