MODEL 1
REMARK minimizedAffinity -2.17064428
REMARK minimizedRMSD -1
REMARK  1 active torsions:
REMARK  status: ('A' for Active; 'I' for Inactive)
REMARK    1  A    between atoms: C1_2  and  C2_3 
ROOT
ATOM      1  C2  UNL d   1       3.684   3.332   5.947  0.00  0.00    -0.077 A 
ATOM      2  C3  UNL d   1       2.323   3.638   5.814  0.00  0.00     0.002 A 
ATOM      3  C4  UNL d   1       1.903   4.967   5.734  0.00  0.00     0.002 A 
ATOM      4  C5  UNL d   1       2.837   5.999   5.783  0.00  0.00    -0.004 A 
ATOM      5  C6  UNL d   1       4.194   5.705   5.918  0.00  0.00     0.002 A 
ATOM      6  C7  UNL d   1       4.615   4.377   5.998  0.00  0.00     0.002 A 
ENDROOT
BRANCH   1   7
ATOM      7  C1  UNL d   1       4.144   1.898   5.983  0.00  0.00     0.055 C 
ATOM      8  C   UNL d   1       2.963   0.938   5.995  0.00  0.00     0.019 C 
ENDBRANCH   1   7
TORSDOF 1
ENDMDL
