MODEL 1
REMARK minimizedAffinity 4.31729364
REMARK minimizedRMSD -1
REMARK  1 active torsions:
REMARK  status: ('A' for Active; 'I' for Inactive)
REMARK    1  A    between atoms: C1_2  and  C2_3 
ROOT
ATOM      1  C2  UNL d   1       4.374   3.891   5.616  0.00  0.00    -0.077 A 
ATOM      2  C3  UNL d   1       5.423   3.054   5.211  0.00  0.00     0.002 A 
ATOM      3  C4  UNL d   1       5.252   1.668   5.188  0.00  0.00     0.002 A 
ATOM      4  C5  UNL d   1       4.033   1.108   5.565  0.00  0.00    -0.004 A 
ATOM      5  C6  UNL d   1       2.985   1.932   5.972  0.00  0.00     0.002 A 
ATOM      6  C7  UNL d   1       3.154   3.317   5.996  0.00  0.00     0.002 A 
ENDROOT
BRANCH   1   7
ATOM      7  C1  UNL d   1       4.540   5.388   5.594  0.00  0.00     0.055 C 
ATOM      8  C   UNL d   1       5.952   5.794   5.992  0.00  0.00     0.019 C 
ENDBRANCH   1   7
TORSDOF 1
ENDMDL
