MODEL 1
REMARK minimizedAffinity 0.836171627
REMARK minimizedRMSD -1
REMARK  1 active torsions:
REMARK  status: ('A' for Active; 'I' for Inactive)
REMARK    1  A    between atoms: C1_2  and  C2_3 
ROOT
ATOM      1  C2  UNL d   1       2.943   4.487   5.497  0.00  0.00    -0.077 A 
ATOM      2  C3  UNL d   1       2.664   3.205   5.991  0.00  0.00     0.002 A 
ATOM      3  C4  UNL d   1       3.406   2.104   5.558  0.00  0.00     0.002 A 
ATOM      4  C5  UNL d   1       4.434   2.275   4.633  0.00  0.00    -0.004 A 
ATOM      5  C6  UNL d   1       4.718   3.546   4.134  0.00  0.00     0.002 A 
ATOM      6  C7  UNL d   1       3.976   4.647   4.565  0.00  0.00     0.002 A 
ENDROOT
BRANCH   1   7
ATOM      7  C1  UNL d   1       2.176   5.682   6.000  0.00  0.00     0.055 C 
ATOM      8  C   UNL d   1       0.736   5.662   5.509  0.00  0.00     0.019 C 
ENDBRANCH   1   7
TORSDOF 1
ENDMDL
