MODEL 1
REMARK minimizedAffinity 10.6361933
REMARK minimizedRMSD -1
REMARK  1 active torsions:
REMARK  status: ('A' for Active; 'I' for Inactive)
REMARK    1  A    between atoms: C1_2  and  C2_3 
ROOT
ATOM      1  C2  UNL d   1      -3.636   1.393  -4.079  0.00  0.00    -0.077 A 
ATOM      2  C3  UNL d   1      -3.641   2.780  -3.878  0.00  0.00     0.002 A 
ATOM      3  C4  UNL d   1      -4.815   3.515  -4.053  0.00  0.00     0.002 A 
ATOM      4  C5  UNL d   1      -5.993   2.871  -4.426  0.00  0.00    -0.004 A 
ATOM      5  C6  UNL d   1      -5.998   1.492  -4.631  0.00  0.00     0.002 A 
ATOM      6  C7  UNL d   1      -4.825   0.756  -4.457  0.00  0.00     0.002 A 
ENDROOT
BRANCH   1   7
ATOM      7  C1  UNL d   1      -2.383   0.591  -3.842  0.00  0.00     0.055 C 
ATOM      8  C   UNL d   1      -2.209   0.258  -2.368  0.00  0.00     0.019 C 
ENDBRANCH   1   7
TORSDOF 1
ENDMDL
