MODEL 1
REMARK minimizedAffinity 2.03891087
REMARK minimizedRMSD -1
REMARK  1 active torsions:
REMARK  status: ('A' for Active; 'I' for Inactive)
REMARK    1  A    between atoms: C1_2  and  C2_3 
ROOT
ATOM      1  C2  UNL d   1       3.349   4.218   5.299  0.00  0.00    -0.077 A 
ATOM      2  C3  UNL d   1       3.953   3.151   5.979  0.00  0.00     0.002 A 
ATOM      3  C4  UNL d   1       4.910   2.358   5.342  0.00  0.00     0.002 A 
ATOM      4  C5  UNL d   1       5.275   2.627   4.025  0.00  0.00    -0.004 A 
ATOM      5  C6  UNL d   1       4.679   3.684   3.339  0.00  0.00     0.002 A 
ATOM      6  C7  UNL d   1       3.721   4.477   3.973  0.00  0.00     0.002 A 
ENDROOT
BRANCH   1   7
ATOM      7  C1  UNL d   1       2.353   5.104   5.999  0.00  0.00     0.055 C 
ATOM      8  C   UNL d   1       1.509   5.884   5.002  0.00  0.00     0.019 C 
ENDBRANCH   1   7
TORSDOF 1
ENDMDL
