MODEL 1
REMARK minimizedAffinity -3.94298792
REMARK minimizedRMSD -1
REMARK  0 active torsions:
REMARK  status: ('A' for Active; 'I' for Inactive)
ROOT
ATOM      1  C   UNL d   1       0.782   0.656  -0.006  0.00  0.00     0.172 C 
ATOM      2  N   UNL d   1       0.226  -0.629   0.347  0.00  0.00    -0.070 N 
ATOM      3  C1  UNL d   1       0.593  -1.833  -0.192  0.00  0.00    -0.004 A 
ATOM      4  C2  UNL d   1      -0.169  -2.813   0.407  0.00  0.00    -0.047 A 
ATOM      5  C3  UNL d   1      -1.024  -2.176   1.337  0.00  0.00    -0.047 A 
ATOM      6  C4  UNL d   1      -0.759  -0.824   1.279  0.00  0.00    -0.004 A 
ENDROOT
TORSDOF 0
ENDMDL
