MODEL 1
REMARK minimizedAffinity -3.57261205
REMARK minimizedRMSD -1
REMARK  0 active torsions:
REMARK  status: ('A' for Active; 'I' for Inactive)
ROOT
ATOM      1  C   UNL d   1      -0.134   0.838  -0.763  0.00  0.00     0.172 C 
ATOM      2  N   UNL d   1      -0.252  -0.437  -0.096  0.00  0.00    -0.070 N 
ATOM      3  C1  UNL d   1       0.678  -1.441  -0.123  0.00  0.00    -0.004 A 
ATOM      4  C2  UNL d   1       0.194  -2.486   0.634  0.00  0.00    -0.047 A 
ATOM      5  C3  UNL d   1      -1.071  -2.096   1.134  0.00  0.00    -0.047 A 
ATOM      6  C4  UNL d   1      -1.323  -0.823   0.666  0.00  0.00    -0.004 A 
ENDROOT
TORSDOF 0
ENDMDL
