MODEL 1
REMARK minimizedAffinity -1.65836191
REMARK minimizedRMSD -1
REMARK  0 active torsions:
REMARK  status: ('A' for Active; 'I' for Inactive)
ROOT
ATOM      1  C   UNL d   1       0.682  -2.965   0.360  0.00  0.00     0.172 C 
ATOM      2  N   UNL d   1       0.483  -1.564   0.074  0.00  0.00    -0.070 N 
ATOM      3  C1  UNL d   1      -0.212  -0.680   0.856  0.00  0.00    -0.004 A 
ATOM      4  C2  UNL d   1      -0.171   0.552   0.239  0.00  0.00    -0.047 A 
ATOM      5  C3  UNL d   1       0.574   0.403  -0.955  0.00  0.00    -0.047 A 
ATOM      6  C4  UNL d   1       0.966  -0.917  -1.033  0.00  0.00    -0.004 A 
ENDROOT
TORSDOF 0
ENDMDL
