MODEL 1
REMARK minimizedAffinity -2.92201567
REMARK minimizedRMSD -1
REMARK  0 active torsions:
REMARK  status: ('A' for Active; 'I' for Inactive)
ROOT
ATOM      1  C   UNL d   1       0.348  -2.548   0.293  0.00  0.00     0.172 C 
ATOM      2  N   UNL d   1       0.204  -1.137   0.020  0.00  0.00    -0.070 N 
ATOM      3  C1  UNL d   1      -0.376  -0.218   0.854  0.00  0.00    -0.004 A 
ATOM      4  C2  UNL d   1      -0.316   1.011   0.233  0.00  0.00    -0.047 A 
ATOM      5  C3  UNL d   1       0.321   0.824  -1.017  0.00  0.00    -0.047 A 
ATOM      6  C4  UNL d   1       0.632  -0.515  -1.123  0.00  0.00    -0.004 A 
ENDROOT
TORSDOF 0
ENDMDL
