MODEL 1
REMARK minimizedAffinity -2.74237299
REMARK minimizedRMSD -1
REMARK  0 active torsions:
REMARK  status: ('A' for Active; 'I' for Inactive)
ROOT
ATOM      1  C   UNL d   1       0.297   0.830  -0.253  0.00  0.00     0.172 C 
ATOM      2  N   UNL d   1      -0.050  -0.492   0.212  0.00  0.00    -0.070 N 
ATOM      3  C1  UNL d   1       0.566  -1.657  -0.162  0.00  0.00    -0.004 A 
ATOM      4  C2  UNL d   1      -0.056  -2.694   0.499  0.00  0.00    -0.047 A 
ATOM      5  C3  UNL d   1      -1.081  -2.133   1.297  0.00  0.00    -0.047 A 
ATOM      6  C4  UNL d   1      -1.056  -0.769   1.100  0.00  0.00    -0.004 A 
ENDROOT
TORSDOF 0
ENDMDL
