MODEL 1
REMARK minimizedAffinity -4.05762959
REMARK minimizedRMSD -1
REMARK  0 active torsions:
REMARK  status: ('A' for Active; 'I' for Inactive)
ROOT
ATOM      1  C   UNL d   1       0.180   0.761   0.019  0.00  0.00     0.172 C 
ATOM      2  N   UNL d   1       0.214  -0.659   0.277  0.00  0.00    -0.070 N 
ATOM      3  C1  UNL d   1      -0.068  -1.259   1.475  0.00  0.00    -0.004 A 
ATOM      4  C2  UNL d   1       0.077  -2.620   1.310  0.00  0.00    -0.047 A 
ATOM      5  C3  UNL d   1       0.460  -2.845  -0.034  0.00  0.00    -0.047 A 
ATOM      6  C4  UNL d   1       0.537  -1.614  -0.651  0.00  0.00    -0.004 A 
ENDROOT
TORSDOF 0
ENDMDL
