MODEL 1
REMARK minimizedAffinity -3.13909578
REMARK minimizedRMSD -1
REMARK  0 active torsions:
REMARK  status: ('A' for Active; 'I' for Inactive)
ROOT
ATOM      1  C   UNL d   1       0.032   0.159   0.234  0.00  0.00     0.172 C 
ATOM      2  N   UNL d   1      -0.432  -1.202   0.372  0.00  0.00    -0.070 N 
ATOM      3  C1  UNL d   1      -1.730  -1.585   0.581  0.00  0.00    -0.004 A 
ATOM      4  C2  UNL d   1      -1.756  -2.961   0.655  0.00  0.00    -0.047 A 
ATOM      5  C3  UNL d   1      -0.428  -3.420   0.486  0.00  0.00    -0.047 A 
ATOM      6  C4  UNL d   1       0.371  -2.310   0.313  0.00  0.00    -0.004 A 
ENDROOT
TORSDOF 0
ENDMDL
