MODEL 1
REMARK minimizedAffinity -3.38037419
REMARK minimizedRMSD -1
REMARK  0 active torsions:
REMARK  status: ('A' for Active; 'I' for Inactive)
ROOT
ATOM      1  C   UNL d   1      -0.057   0.802  -0.230  0.00  0.00     0.172 C 
ATOM      2  N   UNL d   1      -0.171  -0.554   0.252  0.00  0.00    -0.070 N 
ATOM      3  C1  UNL d   1       0.672  -1.586  -0.061  0.00  0.00    -0.004 A 
ATOM      4  C2  UNL d   1       0.225  -2.712   0.597  0.00  0.00    -0.047 A 
ATOM      5  C3  UNL d   1      -0.928  -2.343   1.331  0.00  0.00    -0.047 A 
ATOM      6  C4  UNL d   1      -1.151  -1.002   1.099  0.00  0.00    -0.004 A 
ENDROOT
TORSDOF 0
ENDMDL
