MODEL 1
REMARK minimizedAffinity -1.15728688
REMARK minimizedRMSD -1
REMARK  0 active torsions:
REMARK  status: ('A' for Active; 'I' for Inactive)
ROOT
ATOM      1  C   UNL d   1       2.236   3.412   1.781  0.00  0.00     0.172 C 
ATOM      2  N   UNL d   1       1.821   2.798   0.541  0.00  0.00    -0.070 N 
ATOM      3  C1  UNL d   1       0.740   1.973   0.381  0.00  0.00    -0.004 A 
ATOM      4  C2  UNL d   1       0.686   1.600  -0.944  0.00  0.00    -0.047 A 
ATOM      5  C3  UNL d   1       1.773   2.221  -1.604  0.00  0.00    -0.047 A 
ATOM      6  C4  UNL d   1       2.459   2.957  -0.661  0.00  0.00    -0.004 A 
ENDROOT
TORSDOF 0
ENDMDL
