MODEL 1
REMARK minimizedAffinity -1.69094336
REMARK minimizedRMSD -1
REMARK  0 active torsions:
REMARK  status: ('A' for Active; 'I' for Inactive)
ROOT
ATOM      1  C   UNL d   1       0.261   1.170  -0.844  0.00  0.00     0.172 C 
ATOM      2  N   UNL d   1       1.053   2.090  -0.063  0.00  0.00    -0.070 N 
ATOM      3  C1  UNL d   1       2.266   2.609  -0.429  0.00  0.00    -0.004 A 
ATOM      4  C2  UNL d   1       2.691   3.443   0.583  0.00  0.00    -0.047 A 
ATOM      5  C3  UNL d   1       1.700   3.423   1.593  0.00  0.00    -0.047 A 
ATOM      6  C4  UNL d   1       0.697   2.577   1.167  0.00  0.00    -0.004 A 
ENDROOT
TORSDOF 0
ENDMDL
