MODEL 1
REMARK minimizedAffinity -3.27898002
REMARK minimizedRMSD -1
REMARK  0 active torsions:
REMARK  status: ('A' for Active; 'I' for Inactive)
ROOT
ATOM      1  C   UNL d   1       2.166   3.371  -1.318  0.00  0.00     0.172 C 
ATOM      2  N   UNL d   1       1.929   3.260   0.102  0.00  0.00    -0.070 N 
ATOM      3  C1  UNL d   1       2.416   4.107   1.061  0.00  0.00    -0.004 A 
ATOM      4  C2  UNL d   1       1.966   3.662   2.285  0.00  0.00    -0.047 A 
ATOM      5  C3  UNL d   1       1.181   2.507   2.054  0.00  0.00    -0.047 A 
ATOM      6  C4  UNL d   1       1.175   2.281   0.693  0.00  0.00    -0.004 A 
ENDROOT
TORSDOF 0
ENDMDL
