MODEL 1
REMARK minimizedAffinity -4.09953403
REMARK minimizedRMSD -1
REMARK  0 active torsions:
REMARK  status: ('A' for Active; 'I' for Inactive)
ROOT
ATOM      1  C   UNL d   1       0.406   0.315  -0.182  0.00  0.00     0.172 C 
ATOM      2  N   UNL d   1       0.315  -1.089  -0.507  0.00  0.00    -0.070 N 
ATOM      3  C1  UNL d   1       0.502  -1.634  -1.749  0.00  0.00    -0.004 A 
ATOM      4  C2  UNL d   1       0.329  -2.997  -1.642  0.00  0.00    -0.047 A 
ATOM      5  C3  UNL d   1       0.028  -3.281  -0.288  0.00  0.00    -0.047 A 
ATOM      6  C4  UNL d   1       0.025  -2.081   0.392  0.00  0.00    -0.004 A 
ENDROOT
TORSDOF 0
ENDMDL
