MODEL 1
REMARK minimizedAffinity -2.71150565
REMARK minimizedRMSD -1
REMARK  0 active torsions:
REMARK  status: ('A' for Active; 'I' for Inactive)
ROOT
ATOM      1  C   UNL d   1      -0.108   0.881   0.148  0.00  0.00     0.172 C 
ATOM      2  N   UNL d   1      -0.505  -0.446   0.557  0.00  0.00    -0.070 N 
ATOM      3  C1  UNL d   1      -0.921  -0.803   1.812  0.00  0.00    -0.004 A 
ATOM      4  C2  UNL d   1      -1.208  -2.151   1.794  0.00  0.00    -0.047 A 
ATOM      5  C3  UNL d   1      -0.954  -2.620   0.483  0.00  0.00    -0.047 A 
ATOM      6  C4  UNL d   1      -0.520  -1.544  -0.261  0.00  0.00    -0.004 A 
ENDROOT
TORSDOF 0
ENDMDL
