MODEL 1
REMARK minimizedAffinity -3.66484833
REMARK minimizedRMSD -1
REMARK  0 active torsions:
REMARK  status: ('A' for Active; 'I' for Inactive)
ROOT
ATOM      1  C   UNL d   1      -0.234   1.002  -0.273  0.00  0.00     0.172 C 
ATOM      2  N   UNL d   1      -0.360  -0.394   0.074  0.00  0.00    -0.070 N 
ATOM      3  C1  UNL d   1      -1.179  -0.904   1.046  0.00  0.00    -0.004 A 
ATOM      4  C2  UNL d   1      -1.009  -2.272   1.065  0.00  0.00    -0.047 A 
ATOM      5  C3  UNL d   1      -0.055  -2.595   0.072  0.00  0.00    -0.047 A 
ATOM      6  C4  UNL d   1       0.331  -1.414  -0.526  0.00  0.00    -0.004 A 
ENDROOT
TORSDOF 0
ENDMDL
