MODEL 1
REMARK minimizedAffinity -3.87862706
REMARK minimizedRMSD -1
REMARK  0 active torsions:
REMARK  status: ('A' for Active; 'I' for Inactive)
ROOT
ATOM      1  C   UNL d   1       0.914  -1.583  -0.615  0.00  0.00     0.172 C 
ATOM      2  N   UNL d   1      -0.169  -1.349   0.312  0.00  0.00    -0.070 N 
ATOM      3  C1  UNL d   1      -0.432  -0.167   0.951  0.00  0.00    -0.004 A 
ATOM      4  C2  UNL d   1      -1.542  -0.354   1.745  0.00  0.00    -0.047 A 
ATOM      5  C3  UNL d   1      -1.961  -1.696   1.578  0.00  0.00    -0.047 A 
ATOM      6  C4  UNL d   1      -1.093  -2.289   0.686  0.00  0.00    -0.004 A 
ENDROOT
TORSDOF 0
ENDMDL
