MODEL 1
REMARK minimizedAffinity -4.18029022
REMARK minimizedRMSD -1
REMARK  0 active torsions:
REMARK  status: ('A' for Active; 'I' for Inactive)
ROOT
ATOM      1  C   UNL d   1       0.180   0.893   0.009  0.00  0.00     0.172 C 
ATOM      2  N   UNL d   1      -0.332  -0.410   0.366  0.00  0.00    -0.070 N 
ATOM      3  C1  UNL d   1       0.190  -1.610  -0.037  0.00  0.00    -0.004 A 
ATOM      4  C2  UNL d   1      -0.579  -2.611   0.514  0.00  0.00    -0.047 A 
ATOM      5  C3  UNL d   1      -1.599  -1.992   1.274  0.00  0.00    -0.047 A 
ATOM      6  C4  UNL d   1      -1.422  -0.629   1.165  0.00  0.00    -0.004 A 
ENDROOT
TORSDOF 0
ENDMDL
