MODEL 1
REMARK minimizedAffinity -3.65886354
REMARK minimizedRMSD -1
REMARK  0 active torsions:
REMARK  status: ('A' for Active; 'I' for Inactive)
ROOT
ATOM      1  C   UNL d   1       0.332   0.054  -1.622  0.00  0.00     0.172 C 
ATOM      2  N   UNL d   1       0.186  -1.031  -0.680  0.00  0.00    -0.070 N 
ATOM      3  C1  UNL d   1      -0.663  -1.045   0.395  0.00  0.00    -0.004 A 
ATOM      4  C2  UNL d   1      -0.506  -2.252   1.040  0.00  0.00    -0.047 A 
ATOM      5  C3  UNL d   1       0.473  -2.988   0.330  0.00  0.00    -0.047 A 
ATOM      6  C4  UNL d   1       0.884  -2.208  -0.730  0.00  0.00    -0.004 A 
ENDROOT
TORSDOF 0
ENDMDL
