MODEL 1
REMARK minimizedAffinity -2.37335968
REMARK minimizedRMSD -1
REMARK  0 active torsions:
REMARK  status: ('A' for Active; 'I' for Inactive)
ROOT
ATOM      1  C   UNL d   1      -1.295  -0.227   1.450  0.00  0.00     0.172 C 
ATOM      2  N   UNL d   1      -0.656   0.450   0.346  0.00  0.00    -0.070 N 
ATOM      3  C1  UNL d   1      -0.046   1.674   0.406  0.00  0.00    -0.004 A 
ATOM      4  C2  UNL d   1       0.438   1.966  -0.852  0.00  0.00    -0.047 A 
ATOM      5  C3  UNL d   1       0.105   0.880  -1.696  0.00  0.00    -0.047 A 
ATOM      6  C4  UNL d   1      -0.572  -0.044  -0.929  0.00  0.00    -0.004 A 
ENDROOT
TORSDOF 0
ENDMDL
