MODEL 1
REMARK minimizedAffinity 0.418516278
REMARK minimizedRMSD -1
REMARK  0 active torsions:
REMARK  status: ('A' for Active; 'I' for Inactive)
ROOT
ATOM      1  N1  IND d   1       0.001  -0.000  -2.411  0.00  0.00    -0.196 N 
ATOM      2  C2  IND d   1      -1.278   0.420  -2.644  0.00  0.00     0.054 A 
ATOM      3  C3  IND d   1      -2.022   0.310  -1.521  0.00  0.00    -0.031 A 
ATOM      4  C4  IND d   1      -1.318  -0.438   0.840  0.00  0.00     0.051 A 
ATOM      5  C5  IND d   1      -0.260  -0.952   1.536  0.00  0.00    -0.031 A 
ATOM      6  C6  IND d   1       0.964  -1.176   0.942  0.00  0.00     0.015 A 
ATOM      7  C7  IND d   1       1.181  -0.883  -0.375  0.00  0.00    -0.016 A 
ATOM      8  C8  IND d   1       0.107  -0.369  -1.088  0.00  0.00    -0.047 A 
ATOM      9  C9  IND d   1      -1.150  -0.179  -0.500  0.00  0.00    -0.096 A 
ATOM     10  HN1 IND d   1       0.634  -0.030  -2.992  0.00  0.00     0.298 HD
ENDROOT
TORSDOF 0
ENDMDL
