MODEL 1
REMARK minimizedAffinity -2.55081105
REMARK minimizedRMSD -1
REMARK  0 active torsions:
REMARK  status: ('A' for Active; 'I' for Inactive)
ROOT
ATOM      1  N1  IND d   1       0.044   2.513  -2.769  0.00  0.00    -0.196 N 
ATOM      2  C2  IND d   1      -0.157   3.692  -3.431  0.00  0.00     0.054 A 
ATOM      3  C3  IND d   1      -1.331   3.661  -4.101  0.00  0.00    -0.031 A 
ATOM      4  C4  IND d   1      -3.126   1.817  -4.171  0.00  0.00     0.051 A 
ATOM      5  C5  IND d   1      -3.374   0.539  -3.754  0.00  0.00    -0.031 A 
ATOM      6  C6  IND d   1      -2.479  -0.159  -2.970  0.00  0.00     0.015 A 
ATOM      7  C7  IND d   1      -1.302   0.401  -2.561  0.00  0.00    -0.016 A 
ATOM      8  C8  IND d   1      -1.043   1.696  -2.988  0.00  0.00    -0.047 A 
ATOM      9  C9  IND d   1      -1.928   2.394  -3.820  0.00  0.00    -0.096 A 
ATOM     10  HN1 IND d   1       0.734   2.315  -2.295  0.00  0.00     0.298 HD
ENDROOT
TORSDOF 0
ENDMDL
