MODEL 1
REMARK minimizedAffinity -5.28537321
REMARK minimizedRMSD -1
REMARK  0 active torsions:
REMARK  status: ('A' for Active; 'I' for Inactive)
ROOT
ATOM      1  N1  IND d   1      -1.097   1.421  -0.533  0.00  0.00    -0.196 N 
ATOM      2  C2  IND d   1      -1.090   0.121  -0.957  0.00  0.00     0.054 A 
ATOM      3  C3  IND d   1       0.173  -0.360  -0.978  0.00  0.00    -0.031 A 
ATOM      4  C4  IND d   1       2.368   0.777  -0.261  0.00  0.00     0.051 A 
ATOM      5  C5  IND d   1       2.873   1.974   0.162  0.00  0.00    -0.031 A 
ATOM      6  C6  IND d   1       2.064   3.070   0.382  0.00  0.00     0.015 A 
ATOM      7  C7  IND d   1       0.711   3.005   0.198  0.00  0.00    -0.016 A 
ATOM      8  C8  IND d   1       0.196   1.793  -0.239  0.00  0.00    -0.047 A 
ATOM      9  C9  IND d   1       1.018   0.690  -0.505  0.00  0.00    -0.096 A 
ATOM     10  HN1 IND d   1      -1.792   1.922  -0.461  0.00  0.00     0.298 HD
ENDROOT
TORSDOF 0
ENDMDL
