MODEL 1
REMARK minimizedAffinity -4.04652739
REMARK minimizedRMSD -1
REMARK  0 active torsions:
REMARK  status: ('A' for Active; 'I' for Inactive)
ROOT
ATOM      1  N1  IND d   1       2.845   2.442   0.364  0.00  0.00    -0.196 N 
ATOM      2  C2  IND d   1       2.245   3.667   0.458  0.00  0.00     0.054 A 
ATOM      3  C3  IND d   1       0.920   3.562   0.208  0.00  0.00    -0.031 A 
ATOM      4  C4  IND d   1      -0.491   1.465  -0.278  0.00  0.00     0.051 A 
ATOM      5  C5  IND d   1      -0.382   0.121  -0.500  0.00  0.00    -0.031 A 
ATOM      6  C6  IND d   1       0.832  -0.532  -0.443  0.00  0.00     0.015 A 
ATOM      7  C7  IND d   1       1.987   0.137  -0.147  0.00  0.00    -0.016 A 
ATOM      8  C8  IND d   1       1.881   1.503   0.073  0.00  0.00    -0.047 A 
ATOM      9  C9  IND d   1       0.657   2.178  -0.027  0.00  0.00    -0.096 A 
ATOM     10  HN1 IND d   1       3.684   2.285   0.469  0.00  0.00     0.298 HD
ENDROOT
TORSDOF 0
ENDMDL
