MODEL 1
REMARK minimizedAffinity -5.00033092
REMARK minimizedRMSD -1
REMARK  0 active torsions:
REMARK  status: ('A' for Active; 'I' for Inactive)
ROOT
ATOM      1  N1  IND d   1       0.375   3.978   0.465  0.00  0.00    -0.196 N 
ATOM      2  C2  IND d   1       1.711   4.252   0.565  0.00  0.00     0.054 A 
ATOM      3  C3  IND d   1       2.437   3.128   0.375  0.00  0.00    -0.031 A 
ATOM      4  C4  IND d   1       1.646   0.750  -0.214  0.00  0.00     0.051 A 
ATOM      5  C5  IND d   1       0.515  -0.000  -0.375  0.00  0.00    -0.031 A 
ATOM      6  C6  IND d   1      -0.746   0.550  -0.265  0.00  0.00     0.015 A 
ATOM      7  C7  IND d   1      -0.924   1.878   0.000  0.00  0.00    -0.016 A 
ATOM      8  C8  IND d   1       0.223   2.641   0.172  0.00  0.00    -0.047 A 
ATOM      9  C9  IND d   1       1.505   2.080   0.103  0.00  0.00    -0.096 A 
ATOM     10  HN1 IND d   1      -0.263   4.546   0.568  0.00  0.00     0.298 HD
ENDROOT
TORSDOF 0
ENDMDL
