MODEL 1
REMARK minimizedAffinity 3.36254096
REMARK minimizedRMSD -1
REMARK  0 active torsions:
REMARK  status: ('A' for Active; 'I' for Inactive)
ROOT
ATOM      1  N1  IND d   1      -2.159   0.269  -0.185  0.00  0.00    -0.196 N 
ATOM      2  C2  IND d   1      -0.829   0.309   0.127  0.00  0.00     0.054 A 
ATOM      3  C3  IND d   1      -0.105   0.692  -0.948  0.00  0.00    -0.031 A 
ATOM      4  C4  IND d   1      -0.905   1.401  -3.290  0.00  0.00     0.051 A 
ATOM      5  C5  IND d   1      -2.028   1.492  -4.063  0.00  0.00    -0.031 A 
ATOM      6  C6  IND d   1      -3.279   1.176  -3.572  0.00  0.00     0.015 A 
ATOM      7  C7  IND d   1      -3.454   0.767  -2.280  0.00  0.00    -0.016 A 
ATOM      8  C8  IND d   1      -2.315   0.666  -1.495  0.00  0.00    -0.047 A 
ATOM      9  C9  IND d   1      -1.038   0.945  -2.000  0.00  0.00    -0.096 A 
ATOM     10  HN1 IND d   1      -2.793   0.035   0.347  0.00  0.00     0.298 HD
ENDROOT
TORSDOF 0
ENDMDL
