MODEL 1
REMARK minimizedAffinity -4.37609053
REMARK minimizedRMSD -1
REMARK  0 active torsions:
REMARK  status: ('A' for Active; 'I' for Inactive)
ROOT
ATOM      1  N1  IND d   1      -0.753   3.178  -4.617  0.00  0.00    -0.196 N 
ATOM      2  C2  IND d   1       0.080   4.036  -3.955  0.00  0.00     0.054 A 
ATOM      3  C3  IND d   1       0.080   3.764  -2.631  0.00  0.00    -0.031 A 
ATOM      4  C4  IND d   1      -1.132   1.892  -1.345  0.00  0.00     0.051 A 
ATOM      5  C5  IND d   1      -2.037   0.881  -1.513  0.00  0.00    -0.031 A 
ATOM      6  C6  IND d   1      -2.569   0.576  -2.750  0.00  0.00     0.015 A 
ATOM      7  C7  IND d   1      -2.205   1.267  -3.871  0.00  0.00    -0.016 A 
ATOM      8  C8  IND d   1      -1.292   2.298  -3.703  0.00  0.00    -0.047 A 
ATOM      9  C9  IND d   1      -0.782   2.640  -2.444  0.00  0.00    -0.096 A 
ATOM     10  HN1 IND d   1      -0.914   3.185  -5.461  0.00  0.00     0.298 HD
ENDROOT
TORSDOF 0
ENDMDL
