MODEL 1
REMARK minimizedAffinity -2.14112139
REMARK minimizedRMSD -1
REMARK  0 active torsions:
REMARK  status: ('A' for Active; 'I' for Inactive)
ROOT
ATOM      1  N1  IND d   1      -1.070   3.237  -1.973  0.00  0.00    -0.196 N 
ATOM      2  C2  IND d   1      -0.947   2.710  -0.718  0.00  0.00     0.054 A 
ATOM      3  C3  IND d   1      -1.523   1.488  -0.662  0.00  0.00    -0.031 A 
ATOM      4  C4  IND d   1      -2.634   0.117  -2.537  0.00  0.00     0.051 A 
ATOM      5  C5  IND d   1      -3.017   0.196  -3.847  0.00  0.00    -0.031 A 
ATOM      6  C6  IND d   1      -2.762   1.313  -4.615  0.00  0.00     0.015 A 
ATOM      7  C7  IND d   1      -2.103   2.395  -4.103  0.00  0.00    -0.016 A 
ATOM      8  C8  IND d   1      -1.719   2.322  -2.771  0.00  0.00    -0.047 A 
ATOM      9  C9  IND d   1      -2.012   1.207  -1.975  0.00  0.00    -0.096 A 
ATOM     10  HN1 IND d   1      -0.789   4.011  -2.221  0.00  0.00     0.298 HD
ENDROOT
TORSDOF 0
ENDMDL
