MODEL 1
REMARK minimizedAffinity 0.109683357
REMARK minimizedRMSD -1
REMARK  0 active torsions:
REMARK  status: ('A' for Active; 'I' for Inactive)
ROOT
ATOM      1  N1  IND d   1       2.583  -0.385   0.700  0.00  0.00    -0.196 N 
ATOM      2  C2  IND d   1       3.048  -1.395   1.495  0.00  0.00     0.054 A 
ATOM      3  C3  IND d   1       2.025  -2.178   1.907  0.00  0.00    -0.031 A 
ATOM      4  C4  IND d   1      -0.476  -2.048   1.313  0.00  0.00     0.051 A 
ATOM      5  C5  IND d   1      -1.387  -1.275   0.649  0.00  0.00    -0.031 A 
ATOM      6  C6  IND d   1      -1.013  -0.145  -0.049  0.00  0.00     0.015 A 
ATOM      7  C7  IND d   1       0.293   0.250  -0.118  0.00  0.00    -0.016 A 
ATOM      8  C8  IND d   1       1.220  -0.528   0.561  0.00  0.00    -0.047 A 
ATOM      9  C9  IND d   1       0.841  -1.652   1.306  0.00  0.00    -0.096 A 
ATOM     10  HN1 IND d   1       3.061   0.235   0.345  0.00  0.00     0.298 HD
ENDROOT
TORSDOF 0
ENDMDL
