MODEL 1
REMARK minimizedAffinity -3.21519613
REMARK minimizedRMSD -1
REMARK  0 active torsions:
REMARK  status: ('A' for Active; 'I' for Inactive)
ROOT
ATOM      1  N1  IND d   1      -0.675   1.368   0.016  0.00  0.00    -0.196 N 
ATOM      2  C2  IND d   1      -0.054   0.196  -0.315  0.00  0.00     0.054 A 
ATOM      3  C3  IND d   1       1.285   0.375  -0.375  0.00  0.00    -0.031 A 
ATOM      4  C4  IND d   1       2.679   2.479   0.131  0.00  0.00     0.051 A 
ATOM      5  C5  IND d   1       2.555   3.805   0.439  0.00  0.00    -0.031 A 
ATOM      6  C6  IND d   1       1.324   4.398   0.628  0.00  0.00     0.015 A 
ATOM      7  C7  IND d   1       0.165   3.681   0.527  0.00  0.00    -0.016 A 
ATOM      8  C8  IND d   1       0.287   2.336   0.208  0.00  0.00    -0.047 A 
ATOM      9  C9  IND d   1       1.532   1.738  -0.027  0.00  0.00    -0.096 A 
ATOM     10  HN1 IND d   1      -1.524   1.482   0.092  0.00  0.00     0.298 HD
ENDROOT
TORSDOF 0
ENDMDL
