MODEL 1
REMARK minimizedAffinity -2.74915671
REMARK minimizedRMSD -1
REMARK  0 active torsions:
REMARK  status: ('A' for Active; 'I' for Inactive)
ROOT
ATOM      1  N1  IND d   1      -2.677  -0.389  -3.065  0.00  0.00    -0.196 N 
ATOM      2  C2  IND d   1      -3.045   0.914  -3.253  0.00  0.00     0.054 A 
ATOM      3  C3  IND d   1      -2.478   1.703  -2.313  0.00  0.00    -0.031 A 
ATOM      4  C4  IND d   1      -0.831   1.084  -0.434  0.00  0.00     0.051 A 
ATOM      5  C5  IND d   1      -0.227   0.011   0.159  0.00  0.00    -0.031 A 
ATOM      6  C6  IND d   1      -0.410  -1.276  -0.304  0.00  0.00     0.015 A 
ATOM      7  C7  IND d   1      -1.199  -1.538  -1.389  0.00  0.00    -0.016 A 
ATOM      8  C8  IND d   1      -1.819  -0.451  -1.988  0.00  0.00    -0.047 A 
ATOM      9  C9  IND d   1      -1.671   0.852  -1.497  0.00  0.00    -0.096 A 
ATOM     10  HN1 IND d   1      -2.937  -1.057  -3.539  0.00  0.00     0.298 HD
ENDROOT
TORSDOF 0
ENDMDL
