MODEL 1
REMARK minimizedAffinity -4.25365639
REMARK minimizedRMSD -1
REMARK  0 active torsions:
REMARK  status: ('A' for Active; 'I' for Inactive)
ROOT
ATOM      1  N1  IND d   1       0.351   1.416   0.236  0.00  0.00    -0.196 N 
ATOM      2  C2  IND d   1       1.031   0.287  -0.128  0.00  0.00     0.054 A 
ATOM      3  C3  IND d   1       2.310   0.588  -0.443  0.00  0.00    -0.031 A 
ATOM      4  C4  IND d   1       3.531   2.852  -0.333  0.00  0.00     0.051 A 
ATOM      5  C5  IND d   1       3.317   4.181  -0.093  0.00  0.00    -0.031 A 
ATOM      6  C6  IND d   1       2.080   4.665   0.278  0.00  0.00     0.015 A 
ATOM      7  C7  IND d   1       1.008   3.833   0.436  0.00  0.00    -0.016 A 
ATOM      8  C8  IND d   1       1.219   2.484   0.187  0.00  0.00    -0.047 A 
ATOM      9  C9  IND d   1       2.462   1.993  -0.232  0.00  0.00    -0.096 A 
ATOM     10  HN1 IND d   1      -0.479   1.452   0.458  0.00  0.00     0.298 HD
ENDROOT
TORSDOF 0
ENDMDL
