MODEL 1
REMARK minimizedAffinity -3.81723523
REMARK minimizedRMSD -1
REMARK  0 active torsions:
REMARK  status: ('A' for Active; 'I' for Inactive)
ROOT
ATOM      1  N1  IND d   1      -0.443   1.320   0.123  0.00  0.00    -0.196 N 
ATOM      2  C2  IND d   1      -0.266   0.019  -0.258  0.00  0.00     0.054 A 
ATOM      3  C3  IND d   1       0.995  -0.173  -0.705  0.00  0.00    -0.031 A 
ATOM      4  C4  IND d   1       2.965   1.482  -0.805  0.00  0.00     0.051 A 
ATOM      5  C5  IND d   1       3.279   2.797  -0.600  0.00  0.00    -0.031 A 
ATOM      6  C6  IND d   1       2.350   3.704  -0.132  0.00  0.00     0.015 A 
ATOM      7  C7  IND d   1       1.071   3.326   0.162  0.00  0.00    -0.016 A 
ATOM      8  C8  IND d   1       0.746   1.994  -0.052  0.00  0.00    -0.047 A 
ATOM      9  C9  IND d   1       1.672   1.078  -0.567  0.00  0.00    -0.096 A 
ATOM     10  HN1 IND d   1      -1.174   1.661   0.422  0.00  0.00     0.298 HD
ENDROOT
TORSDOF 0
ENDMDL
