MODEL 1
REMARK minimizedAffinity -3.07454491
REMARK minimizedRMSD -1
REMARK  0 active torsions:
REMARK  status: ('A' for Active; 'I' for Inactive)
ROOT
ATOM      1  N1  IND d   1      -0.006   0.313  -0.542  0.00  0.00    -0.196 N 
ATOM      2  C2  IND d   1       1.040   1.176  -0.716  0.00  0.00     0.054 A 
ATOM      3  C3  IND d   1       2.188   0.622  -0.266  0.00  0.00    -0.031 A 
ATOM      4  C4  IND d   1       2.599  -1.728   0.701  0.00  0.00     0.051 A 
ATOM      5  C5  IND d   1       1.945  -2.864   1.089  0.00  0.00    -0.031 A 
ATOM      6  C6  IND d   1       0.579  -3.002   0.947  0.00  0.00     0.015 A 
ATOM      7  C7  IND d   1      -0.185  -2.010   0.400  0.00  0.00    -0.016 A 
ATOM      8  C8  IND d   1       0.476  -0.853   0.012  0.00  0.00    -0.047 A 
ATOM      9  C9  IND d   1       1.856  -0.690   0.192  0.00  0.00    -0.096 A 
ATOM     10  HN1 IND d   1      -0.826   0.472  -0.744  0.00  0.00     0.298 HD
ENDROOT
TORSDOF 0
ENDMDL
