MODEL 1
REMARK minimizedAffinity -3.28607416
REMARK minimizedRMSD -1
REMARK  0 active torsions:
REMARK  status: ('A' for Active; 'I' for Inactive)
ROOT
ATOM      1  N1  IND d   1      -0.426   0.580   0.104  0.00  0.00    -0.196 N 
ATOM      2  C2  IND d   1      -1.380   0.389   1.064  0.00  0.00     0.054 A 
ATOM      3  C3  IND d   1      -1.156  -0.768   1.726  0.00  0.00    -0.031 A 
ATOM      4  C4  IND d   1       0.773  -2.453   1.469  0.00  0.00     0.051 A 
ATOM      5  C5  IND d   1       1.867  -2.728   0.698  0.00  0.00    -0.031 A 
ATOM      6  C6  IND d   1       2.263  -1.896  -0.330  0.00  0.00     0.015 A 
ATOM      7  C7  IND d   1       1.582  -0.747  -0.618  0.00  0.00    -0.016 A 
ATOM      8  C8  IND d   1       0.466  -0.469   0.158  0.00  0.00    -0.047 A 
ATOM      9  C9  IND d   1       0.035  -1.331   1.174  0.00  0.00    -0.096 A 
ATOM     10  HN1 IND d   1      -0.389   1.243  -0.442  0.00  0.00     0.298 HD
ENDROOT
TORSDOF 0
ENDMDL
