MODEL 1
REMARK minimizedAffinity -2.00079536
REMARK minimizedRMSD -1
REMARK  0 active torsions:
REMARK  status: ('A' for Active; 'I' for Inactive)
ROOT
ATOM      1  N1  IND d   1      -1.686   0.938   0.156  0.00  0.00    -0.196 N 
ATOM      2  C2  IND d   1      -0.902   1.301  -0.904  0.00  0.00     0.054 A 
ATOM      3  C3  IND d   1       0.164   0.475  -1.004  0.00  0.00    -0.031 A 
ATOM      4  C4  IND d   1       0.766  -1.597   0.399  0.00  0.00     0.051 A 
ATOM      5  C5  IND d   1       0.372  -2.303   1.501  0.00  0.00    -0.031 A 
ATOM      6  C6  IND d   1      -0.752  -1.960   2.224  0.00  0.00     0.015 A 
ATOM      7  C7  IND d   1      -1.535  -0.900   1.863  0.00  0.00    -0.016 A 
ATOM      8  C8  IND d   1      -1.134  -0.176   0.749  0.00  0.00    -0.047 A 
ATOM      9  C9  IND d   1       0.030  -0.494   0.037  0.00  0.00    -0.096 A 
ATOM     10  HN1 IND d   1      -2.404   1.338   0.409  0.00  0.00     0.298 HD
ENDROOT
TORSDOF 0
ENDMDL
