MODEL 1
REMARK minimizedAffinity -4.04303265
REMARK minimizedRMSD -1
REMARK  0 active torsions:
REMARK  status: ('A' for Active; 'I' for Inactive)
ROOT
ATOM      1  N1  IND d   1       0.005   1.112   0.013  0.00  0.00    -0.196 N 
ATOM      2  C2  IND d   1      -1.217   0.846  -0.537  0.00  0.00     0.054 A 
ATOM      3  C3  IND d   1      -1.358  -0.481  -0.751  0.00  0.00    -0.031 A 
ATOM      4  C4  IND d   1       0.249  -2.409  -0.179  0.00  0.00     0.051 A 
ATOM      5  C5  IND d   1       1.504  -2.659   0.301  0.00  0.00    -0.031 A 
ATOM      6  C6  IND d   1       2.339  -1.644   0.721  0.00  0.00     0.015 A 
ATOM      7  C7  IND d   1       1.945  -0.337   0.687  0.00  0.00    -0.016 A 
ATOM      8  C8  IND d   1       0.674  -0.079   0.193  0.00  0.00    -0.047 A 
ATOM      9  C9  IND d   1      -0.162  -1.101  -0.274  0.00  0.00    -0.096 A 
ATOM     10  HN1 IND d   1       0.306   1.892   0.213  0.00  0.00     0.298 HD
ENDROOT
TORSDOF 0
ENDMDL
