MODEL 1
REMARK minimizedAffinity -2.49030542
REMARK minimizedRMSD -1
REMARK  0 active torsions:
REMARK  status: ('A' for Active; 'I' for Inactive)
ROOT
ATOM      1  C4' PXY d   1      -0.466  -3.431  -0.788  0.00  0.00     0.077 C 
ATOM      2  C1' PXY d   1      -0.039   2.080   0.905  0.00  0.00     0.077 C 
ATOM      3  C1  PXY d   1      -0.140   0.636   0.455  0.00  0.00    -0.082 A 
ATOM      4  C2  PXY d   1      -1.324   0.048   0.402  0.00  0.00     0.003 A 
ATOM      5  C3  PXY d   1      -1.430  -1.266   0.028  0.00  0.00     0.003 A 
ATOM      6  C4  PXY d   1      -0.318  -1.972  -0.348  0.00  0.00    -0.082 A 
ATOM      7  C5  PXY d   1       0.893  -1.376  -0.307  0.00  0.00     0.003 A 
ATOM      8  C6  PXY d   1       0.984  -0.053   0.115  0.00  0.00     0.003 A 
ENDROOT
TORSDOF 0
ENDMDL
