MODEL 1
REMARK minimizedAffinity -4.84164858
REMARK minimizedRMSD -1
REMARK  0 active torsions:
REMARK  status: ('A' for Active; 'I' for Inactive)
ROOT
ATOM      1  C4' PXY d   1      -2.849   1.683  -0.136  0.00  0.00     0.077 C 
ATOM      2  C1' PXY d   1       2.884   1.700   0.601  0.00  0.00     0.077 C 
ATOM      3  C1  PXY d   1       1.381   1.683   0.403  0.00  0.00    -0.082 A 
ATOM      4  C2  PXY d   1       0.726   2.825   0.273  0.00  0.00     0.003 A 
ATOM      5  C3  PXY d   1      -0.637   2.830   0.125  0.00  0.00     0.003 A 
ATOM      6  C4  PXY d   1      -1.330   1.652   0.056  0.00  0.00    -0.082 A 
ATOM      7  C5  PXY d   1      -0.668   0.482   0.177  0.00  0.00     0.003 A 
ATOM      8  C6  PXY d   1       0.711   0.500   0.368  0.00  0.00     0.003 A 
ENDROOT
TORSDOF 0
ENDMDL
