MODEL 1
REMARK minimizedAffinity -3.65433669
REMARK minimizedRMSD -1
REMARK  0 active torsions:
REMARK  status: ('A' for Active; 'I' for Inactive)
ROOT
ATOM      1  C4' PXY d   1       3.336   2.214   0.382  0.00  0.00     0.077 C 
ATOM      2  C1' PXY d   1      -2.255   0.746   0.355  0.00  0.00     0.077 C 
ATOM      3  C1  PXY d   1      -0.792   1.143   0.358  0.00  0.00    -0.082 A 
ATOM      4  C2  PXY d   1       0.139   0.215   0.205  0.00  0.00     0.003 A 
ATOM      5  C3  PXY d   1       1.467   0.552   0.238  0.00  0.00     0.003 A 
ATOM      6  C4  PXY d   1       1.847   1.860   0.375  0.00  0.00    -0.082 A 
ATOM      7  C5  PXY d   1       0.904   2.815   0.521  0.00  0.00     0.003 A 
ATOM      8  C6  PXY d   1      -0.439   2.446   0.527  0.00  0.00     0.003 A 
ENDROOT
TORSDOF 0
ENDMDL
