MODEL 1
REMARK minimizedAffinity -4.70238304
REMARK minimizedRMSD -1
REMARK  0 active torsions:
REMARK  status: ('A' for Active; 'I' for Inactive)
ROOT
ATOM      1  C4' PXY d   1      -2.888   0.534   0.832  0.00  0.00     0.077 C 
ATOM      2  C1' PXY d   1       2.693   1.473  -0.346  0.00  0.00     0.077 C 
ATOM      3  C1  PXY d   1       1.230   1.215  -0.042  0.00  0.00    -0.082 A 
ATOM      4  C2  PXY d   1       0.402   2.236   0.102  0.00  0.00     0.003 A 
ATOM      5  C3  PXY d   1      -0.918   2.022   0.409  0.00  0.00     0.003 A 
ATOM      6  C4  PXY d   1      -1.405   0.747   0.516  0.00  0.00    -0.082 A 
ATOM      7  C5  PXY d   1      -0.569  -0.301   0.360  0.00  0.00     0.003 A 
ATOM      8  C6  PXY d   1       0.775  -0.061   0.090  0.00  0.00     0.003 A 
ENDROOT
TORSDOF 0
ENDMDL
