MODEL 1
REMARK minimizedAffinity -3.8222692
REMARK minimizedRMSD -1
REMARK  0 active torsions:
REMARK  status: ('A' for Active; 'I' for Inactive)
ROOT
ATOM      1  C4' PXY d   1      -0.012  -1.753  -0.095  0.00  0.00     0.077 C 
ATOM      2  C1' PXY d   1       0.345   4.017  -0.095  0.00  0.00     0.077 C 
ATOM      3  C1  PXY d   1       0.241   2.505  -0.087  0.00  0.00    -0.082 A 
ATOM      4  C2  PXY d   1       1.315   1.774  -0.338  0.00  0.00     0.003 A 
ATOM      5  C3  PXY d   1       1.232   0.405  -0.367  0.00  0.00     0.003 A 
ATOM      6  C4  PXY d   1       0.049  -0.223  -0.083  0.00  0.00    -0.082 A 
ATOM      7  C5  PXY d   1      -1.049   0.516   0.185  0.00  0.00     0.003 A 
ATOM      8  C6  PXY d   1      -0.953   1.904   0.168  0.00  0.00     0.003 A 
ENDROOT
TORSDOF 0
ENDMDL
