MODEL 1
REMARK minimizedAffinity -2.06646895
REMARK minimizedRMSD -1
REMARK  0 active torsions:
REMARK  status: ('A' for Active; 'I' for Inactive)
ROOT
ATOM      1  C4' PXY d   1      -0.084  -2.321  -0.059  0.00  0.00     0.077 C 
ATOM      2  C1' PXY d   1       0.130   3.454   0.081  0.00  0.00     0.077 C 
ATOM      3  C1  PXY d   1       0.064   1.939   0.053  0.00  0.00    -0.082 A 
ATOM      4  C2  PXY d   1       1.109   1.247  -0.371  0.00  0.00     0.003 A 
ATOM      5  C3  PXY d   1       1.056  -0.122  -0.433  0.00  0.00     0.003 A 
ATOM      6  C4  PXY d   1      -0.060  -0.791  -0.005  0.00  0.00    -0.082 A 
ATOM      7  C5  PXY d   1      -1.126  -0.093   0.439  0.00  0.00     0.003 A 
ATOM      8  C6  PXY d   1      -1.066   1.298   0.455  0.00  0.00     0.003 A 
ENDROOT
TORSDOF 0
ENDMDL
