MODEL 1
REMARK minimizedAffinity -4.53424549
REMARK minimizedRMSD -1
REMARK  0 active torsions:
REMARK  status: ('A' for Active; 'I' for Inactive)
ROOT
ATOM      1  C4' PXY d   1      -0.755  -1.894  -0.125  0.00  0.00     0.077 C 
ATOM      2  C1' PXY d   1       0.789   3.673   0.049  0.00  0.00     0.077 C 
ATOM      3  C1  PXY d   1       0.374   2.216   0.011  0.00  0.00    -0.082 A 
ATOM      4  C2  PXY d   1       1.278   1.285  -0.246  0.00  0.00     0.003 A 
ATOM      5  C3  PXY d   1       0.914  -0.035  -0.316  0.00  0.00     0.003 A 
ATOM      6  C4  PXY d   1      -0.379  -0.411  -0.067  0.00  0.00    -0.082 A 
ATOM      7  C5  PXY d   1      -1.305   0.532   0.206  0.00  0.00     0.003 A 
ATOM      8  C6  PXY d   1      -0.923   1.870   0.231  0.00  0.00     0.003 A 
ENDROOT
TORSDOF 0
ENDMDL
