MODEL 1
REMARK minimizedAffinity -5.32383537
REMARK minimizedRMSD -1
REMARK  0 active torsions:
REMARK  status: ('A' for Active; 'I' for Inactive)
ROOT
ATOM      1  C4' PXY d   1      -0.382  -2.169   0.356  0.00  0.00     0.077 C 
ATOM      2  C1' PXY d   1       0.084   3.533  -0.471  0.00  0.00     0.077 C 
ATOM      3  C1  PXY d   1      -0.049   2.040  -0.247  0.00  0.00    -0.082 A 
ATOM      4  C2  PXY d   1       1.014   1.262  -0.375  0.00  0.00     0.003 A 
ATOM      5  C3  PXY d   1       0.905  -0.095  -0.207  0.00  0.00     0.003 A 
ATOM      6  C4  PXY d   1      -0.293  -0.655   0.148  0.00  0.00    -0.082 A 
ATOM      7  C5  PXY d   1      -1.380   0.134   0.291  0.00  0.00     0.003 A 
ATOM      8  C6  PXY d   1      -1.257   1.503   0.076  0.00  0.00     0.003 A 
ENDROOT
TORSDOF 0
ENDMDL
