MODEL 1
REMARK minimizedAffinity -5.03448391
REMARK minimizedRMSD -1
REMARK  0 active torsions:
REMARK  status: ('A' for Active; 'I' for Inactive)
ROOT
ATOM      1  C4' PXY d   1      -0.277  -2.196  -0.563  0.00  0.00     0.077 C 
ATOM      2  C1' PXY d   1       0.025   3.563  -0.155  0.00  0.00     0.077 C 
ATOM      3  C1  PXY d   1      -0.066   2.053  -0.256  0.00  0.00    -0.082 A 
ATOM      4  C2  PXY d   1       1.040   1.339  -0.398  0.00  0.00     0.003 A 
ATOM      5  C3  PXY d   1       0.973  -0.025  -0.522  0.00  0.00     0.003 A 
ATOM      6  C4  PXY d   1      -0.232  -0.669  -0.448  0.00  0.00    -0.082 A 
ATOM      7  C5  PXY d   1      -1.363   0.051  -0.292  0.00  0.00     0.003 A 
ATOM      8  C6  PXY d   1      -1.278   1.437  -0.209  0.00  0.00     0.003 A 
ENDROOT
TORSDOF 0
ENDMDL
