MODEL 1
REMARK minimizedAffinity -2.88352537
REMARK minimizedRMSD -1
REMARK  0 active torsions:
REMARK  status: ('A' for Active; 'I' for Inactive)
ROOT
ATOM      1  C4' PXY d   1      -0.160  -1.533  -0.406  0.00  0.00     0.077 C 
ATOM      2  C1' PXY d   1       0.878   4.121   0.204  0.00  0.00     0.077 C 
ATOM      3  C1  PXY d   1       0.597   2.639   0.054  0.00  0.00    -0.082 A 
ATOM      4  C2  PXY d   1       1.534   1.841  -0.431  0.00  0.00     0.003 A 
ATOM      5  C3  PXY d   1       1.286   0.504  -0.604  0.00  0.00     0.003 A 
ATOM      6  C4  PXY d   1       0.083  -0.031  -0.227  0.00  0.00    -0.082 A 
ATOM      7  C5  PXY d   1      -0.875   0.774   0.278  0.00  0.00     0.003 A 
ATOM      8  C6  PXY d   1      -0.617   2.136   0.407  0.00  0.00     0.003 A 
ENDROOT
TORSDOF 0
ENDMDL
