MODEL 1
REMARK minimizedAffinity -5.61980677
REMARK minimizedRMSD -1
REMARK  0 active torsions:
REMARK  status: ('A' for Active; 'I' for Inactive)
ROOT
ATOM      1  C4' PXY d   1       2.984   0.742   0.351  0.00  0.00     0.077 C 
ATOM      2  C1' PXY d   1      -2.770   1.278   0.233  0.00  0.00     0.077 C 
ATOM      3  C1  PXY d   1      -1.260   1.150   0.260  0.00  0.00    -0.082 A 
ATOM      4  C2  PXY d   1      -0.702  -0.039   0.106  0.00  0.00     0.003 A 
ATOM      5  C3  PXY d   1       0.662  -0.178   0.160  0.00  0.00     0.003 A 
ATOM      6  C4  PXY d   1       1.464   0.920   0.321  0.00  0.00    -0.082 A 
ATOM      7  C5  PXY d   1       0.902   2.139   0.468  0.00  0.00     0.003 A 
ATOM      8  C6  PXY d   1      -0.485   2.252   0.451  0.00  0.00     0.003 A 
ENDROOT
TORSDOF 0
ENDMDL
