MODEL 1
REMARK minimizedAffinity -2.83701539
REMARK minimizedRMSD -1
REMARK  0 active torsions:
REMARK  status: ('A' for Active; 'I' for Inactive)
ROOT
ATOM      1  C4' PXY d   1       2.927   0.530   0.241  0.00  0.00     0.077 C 
ATOM      2  C1' PXY d   1      -2.828   0.455   0.771  0.00  0.00     0.077 C 
ATOM      3  C1  PXY d   1      -1.318   0.463   0.637  0.00  0.00    -0.082 A 
ATOM      4  C2  PXY d   1      -0.674   1.616   0.562  0.00  0.00     0.003 A 
ATOM      5  C3  PXY d   1       0.688   1.641   0.409  0.00  0.00     0.003 A 
ATOM      6  C4  PXY d   1       1.404   0.475   0.386  0.00  0.00    -0.082 A 
ATOM      7  C5  PXY d   1       0.756  -0.706   0.473  0.00  0.00     0.003 A 
ATOM      8  C6  PXY d   1      -0.632  -0.711   0.586  0.00  0.00     0.003 A 
ENDROOT
TORSDOF 0
ENDMDL
