MODEL 1
REMARK minimizedAffinity 0.873698235
REMARK minimizedRMSD -1
REMARK  0 active torsions:
REMARK  status: ('A' for Active; 'I' for Inactive)
ROOT
ATOM      1  C4' PXY d   1      -0.844   1.842   0.439  0.00  0.00     0.077 C 
ATOM      2  C1' PXY d   1      -0.702  -3.653  -1.352  0.00  0.00     0.077 C 
ATOM      3  C1  PXY d   1      -0.744  -2.208  -0.894  0.00  0.00    -0.082 A 
ATOM      4  C2  PXY d   1       0.060  -1.806   0.076  0.00  0.00     0.003 A 
ATOM      5  C3  PXY d   1       0.013  -0.511   0.525  0.00  0.00     0.003 A 
ATOM      6  C4  PXY d   1      -0.829   0.395  -0.062  0.00  0.00    -0.082 A 
ATOM      7  C5  PXY d   1      -1.645  -0.005  -1.060  0.00  0.00     0.003 A 
ATOM      8  C6  PXY d   1      -1.611  -1.334  -1.473  0.00  0.00     0.003 A 
ENDROOT
TORSDOF 0
ENDMDL
