MODEL 1
REMARK minimizedAffinity -3.74435997
REMARK minimizedRMSD -1
REMARK  0 active torsions:
REMARK  status: ('A' for Active; 'I' for Inactive)
ROOT
ATOM      1  C4' PXY d   1      -0.416  -2.340  -0.145  0.00  0.00     0.077 C 
ATOM      2  C1' PXY d   1       0.617   3.343   0.101  0.00  0.00     0.077 C 
ATOM      3  C1  PXY d   1       0.336   1.854   0.045  0.00  0.00    -0.082 A 
ATOM      4  C2  PXY d   1       1.301   1.019  -0.304  0.00  0.00     0.003 A 
ATOM      5  C3  PXY d   1       1.056  -0.327  -0.391  0.00  0.00     0.003 A 
ATOM      6  C4  PXY d   1      -0.175  -0.830  -0.066  0.00  0.00    -0.082 A 
ATOM      7  C5  PXY d   1      -1.162   0.015   0.302  0.00  0.00     0.003 A 
ATOM      8  C6  PXY d   1      -0.904   1.382   0.344  0.00  0.00     0.003 A 
ENDROOT
TORSDOF 0
ENDMDL
