MODEL 1
REMARK minimizedAffinity -2.56065965
REMARK minimizedRMSD -1
REMARK  0 active torsions:
REMARK  status: ('A' for Active; 'I' for Inactive)
ROOT
ATOM      1  C4' PXY d   1       0.252   3.393   0.100  0.00  0.00     0.077 C 
ATOM      2  C1' PXY d   1      -0.575  -2.314  -0.290  0.00  0.00     0.077 C 
ATOM      3  C1  PXY d   1      -0.371  -0.816  -0.190  0.00  0.00    -0.082 A 
ATOM      4  C2  PXY d   1       0.824  -0.301  -0.432  0.00  0.00     0.003 A 
ATOM      5  C3  PXY d   1       1.034   1.049  -0.315  0.00  0.00     0.003 A 
ATOM      6  C4  PXY d   1      -0.002   1.887   0.002  0.00  0.00    -0.082 A 
ATOM      7  C5  PXY d   1      -1.226   1.370   0.240  0.00  0.00     0.003 A 
ATOM      8  C6  PXY d   1      -1.409  -0.007   0.157  0.00  0.00     0.003 A 
ENDROOT
TORSDOF 0
ENDMDL
