MODEL 1
REMARK minimizedAffinity -4.13708162
REMARK minimizedRMSD -1
REMARK  0 active torsions:
REMARK  status: ('A' for Active; 'I' for Inactive)
ROOT
ATOM      1  C4' PXY d   1      -0.169  -2.330  -0.293  0.00  0.00     0.077 C 
ATOM      2  C1' PXY d   1       0.258   3.417   0.159  0.00  0.00     0.077 C 
ATOM      3  C1  PXY d   1       0.157   1.909   0.034  0.00  0.00    -0.082 A 
ATOM      4  C2  PXY d   1      -1.026   1.323   0.121  0.00  0.00     0.003 A 
ATOM      5  C3  PXY d   1      -1.132  -0.042   0.042  0.00  0.00     0.003 A 
ATOM      6  C4  PXY d   1      -0.021  -0.811  -0.182  0.00  0.00    -0.082 A 
ATOM      7  C5  PXY d   1       1.188  -0.219  -0.283  0.00  0.00     0.003 A 
ATOM      8  C6  PXY d   1       1.279   1.164  -0.158  0.00  0.00     0.003 A 
ENDROOT
TORSDOF 0
ENDMDL
