MODEL 1
REMARK minimizedAffinity -1.89002585
REMARK minimizedRMSD -1
REMARK  0 active torsions:
REMARK  status: ('A' for Active; 'I' for Inactive)
ROOT
ATOM      1  C4' PXY d   1      -0.034   3.483   1.334  0.00  0.00     0.077 C 
ATOM      2  C1' PXY d   1      -0.106  -1.597  -1.424  0.00  0.00     0.077 C 
ATOM      3  C1  PXY d   1      -0.076  -0.261  -0.707  0.00  0.00    -0.082 A 
ATOM      4  C2  PXY d   1      -0.708  -0.125   0.447  0.00  0.00     0.003 A 
ATOM      5  C3  PXY d   1      -0.718   1.085   1.094  0.00  0.00     0.003 A 
ATOM      6  C4  PXY d   1      -0.029   2.151   0.580  0.00  0.00    -0.082 A 
ATOM      7  C5  PXY d   1       0.627   2.016  -0.592  0.00  0.00     0.003 A 
ATOM      8  C6  PXY d   1       0.591   0.792  -1.253  0.00  0.00     0.003 A 
ENDROOT
TORSDOF 0
ENDMDL
