MODEL 1
REMARK minimizedAffinity 14.3463421
REMARK minimizedRMSD -1
REMARK  0 active torsions:
REMARK  status: ('A' for Active; 'I' for Inactive)
ROOT
ATOM      1  C4' PXY d   1       4.800  -2.460  -1.511  0.00  0.00     0.077 C 
ATOM      2  C1' PXY d   1      -0.103  -5.114  -3.037  0.00  0.00     0.077 C 
ATOM      3  C1  PXY d   1       1.180  -4.419  -2.624  0.00  0.00    -0.082 A 
ATOM      4  C2  PXY d   1       1.805  -3.634  -3.487  0.00  0.00     0.003 A 
ATOM      5  C3  PXY d   1       2.982  -3.023  -3.141  0.00  0.00     0.003 A 
ATOM      6  C4  PXY d   1       3.498  -3.175  -1.882  0.00  0.00    -0.082 A 
ATOM      7  C5  PXY d   1       2.860  -3.965  -0.993  0.00  0.00     0.003 A 
ATOM      8  C6  PXY d   1       1.688  -4.610  -1.377  0.00  0.00     0.003 A 
ENDROOT
TORSDOF 0
ENDMDL
