MODEL 1
REMARK minimizedAffinity -4.24225616
REMARK minimizedRMSD -1
REMARK  0 active torsions:
REMARK  status: ('A' for Active; 'I' for Inactive)
ROOT
ATOM      1  C4' PXY d   1       0.155   3.734  -0.445  0.00  0.00     0.077 C 
ATOM      2  C1' PXY d   1      -0.302  -1.967   0.391  0.00  0.00     0.077 C 
ATOM      3  C1  PXY d   1      -0.195  -0.471   0.172  0.00  0.00    -0.082 A 
ATOM      4  C2  PXY d   1       0.895   0.033  -0.385  0.00  0.00     0.003 A 
ATOM      5  C3  PXY d   1       1.021   1.386  -0.561  0.00  0.00     0.003 A 
ATOM      6  C4  PXY d   1      -0.000   2.229  -0.213  0.00  0.00    -0.082 A 
ATOM      7  C5  PXY d   1      -1.120   1.722   0.346  0.00  0.00     0.003 A 
ATOM      8  C6  PXY d   1      -1.212   0.349   0.554  0.00  0.00     0.003 A 
ENDROOT
TORSDOF 0
ENDMDL
