MODEL 1
REMARK minimizedAffinity -0.475979924
REMARK minimizedRMSD -1
REMARK  3 active torsions:
REMARK  status: ('A' for Active; 'I' for Inactive)
REMARK    1  A    between atoms: C3'_2  and  C2'_3 
REMARK    2  A    between atoms: C2'_3  and  C1'_4 
REMARK    3  A    between atoms: C1'_4  and  C1_5 
ROOT
ATOM      1  C1  N4B d   1       0.612   2.365  -0.126  0.00  0.00    -0.075 A 
ATOM      2  C2  N4B d   1       0.555   2.536   1.274  0.00  0.00     0.002 A 
ATOM      3  C3  N4B d   1       0.719   1.455   2.106  0.00  0.00     0.002 A 
ATOM      4  C4  N4B d   1       0.922   0.196   1.561  0.00  0.00    -0.004 A 
ATOM      5  C5  N4B d   1       1.001   0.043   0.208  0.00  0.00     0.002 A 
ATOM      6  C6  N4B d   1       0.842   1.121  -0.639  0.00  0.00     0.002 A 
ENDROOT
BRANCH   1   7
ATOM      7  C1' N4B d   1       0.353   3.501  -1.077  0.00  0.00     0.057 C 
BRANCH   7   8
ATOM      8  C2' N4B d   1       0.955   4.781  -0.503  0.00  0.00     0.009 C 
BRANCH   8   9
ATOM      9  C3' N4B d   1       0.086   5.994  -0.785  0.00  0.00     0.004 C 
ATOM     10  C4' N4B d   1      -0.470   5.999  -2.178  0.00  0.00     0.003 C 
ENDBRANCH   8   9
ENDBRANCH   7   8
ENDBRANCH   1   7
TORSDOF 3
ENDMDL
