MODEL 1
REMARK minimizedAffinity -2.09604979
REMARK minimizedRMSD -1
REMARK  3 active torsions:
REMARK  status: ('A' for Active; 'I' for Inactive)
REMARK    1  A    between atoms: C3'_2  and  C2'_3 
REMARK    2  A    between atoms: C2'_3  and  C1'_4 
REMARK    3  A    between atoms: C1'_4  and  C1_5 
ROOT
ATOM      1  C1  N4B d   1       1.563   0.462   2.433  0.00  0.00    -0.075 A 
ATOM      2  C2  N4B d   1       1.335   1.837   2.660  0.00  0.00     0.002 A 
ATOM      3  C3  N4B d   1       2.079   2.510   3.599  0.00  0.00     0.002 A 
ATOM      4  C4  N4B d   1       3.038   1.828   4.332  0.00  0.00    -0.004 A 
ATOM      5  C5  N4B d   1       3.270   0.506   4.088  0.00  0.00     0.002 A 
ATOM      6  C6  N4B d   1       2.533  -0.182   3.145  0.00  0.00     0.002 A 
ENDROOT
BRANCH   1   7
ATOM      7  C1' N4B d   1       0.717  -0.336   1.479  0.00  0.00     0.057 C 
BRANCH   7   8
ATOM      8  C2' N4B d   1       1.579  -0.787   0.303  0.00  0.00     0.009 C 
BRANCH   8   9
ATOM      9  C3' N4B d   1       1.256  -0.017  -0.966  0.00  0.00     0.004 C 
ATOM     10  C4' N4B d   1       0.000   0.794  -0.850  0.00  0.00     0.003 C 
ENDBRANCH   8   9
ENDBRANCH   7   8
ENDBRANCH   1   7
TORSDOF 3
ENDMDL
