MODEL 1
REMARK minimizedAffinity 1.4489342
REMARK minimizedRMSD -1
REMARK  3 active torsions:
REMARK  status: ('A' for Active; 'I' for Inactive)
REMARK    1  A    between atoms: C3'_2  and  C2'_3 
REMARK    2  A    between atoms: C2'_3  and  C1'_4 
REMARK    3  A    between atoms: C1'_4  and  C1_5 
ROOT
ATOM      1  C1  N4B d   1       0.363   2.375   0.059  0.00  0.00    -0.075 A 
ATOM      2  C2  N4B d   1       0.268   2.605   1.449  0.00  0.00     0.002 A 
ATOM      3  C3  N4B d   1       0.260   1.544   2.322  0.00  0.00     0.002 A 
ATOM      4  C4  N4B d   1       0.327   0.250   1.829  0.00  0.00    -0.004 A 
ATOM      5  C5  N4B d   1       0.445   0.037   0.487  0.00  0.00     0.002 A 
ATOM      6  C6  N4B d   1       0.458   1.093  -0.402  0.00  0.00     0.002 A 
ENDROOT
BRANCH   1   7
ATOM      7  C1' N4B d   1       0.290   3.498  -0.939  0.00  0.00     0.057 C 
BRANCH   7   8
ATOM      8  C2' N4B d   1       0.720   4.797  -0.263  0.00  0.00     0.009 C 
BRANCH   8   9
ATOM      9  C3' N4B d   1       0.757   5.960  -1.240  0.00  0.00     0.004 C 
ATOM     10  C4' N4B d   1      -0.441   6.000  -2.141  0.00  0.00     0.003 C 
ENDBRANCH   8   9
ENDBRANCH   7   8
ENDBRANCH   1   7
TORSDOF 3
ENDMDL
