MODEL 1
REMARK minimizedAffinity -4.19814014
REMARK minimizedRMSD -1
REMARK  3 active torsions:
REMARK  status: ('A' for Active; 'I' for Inactive)
REMARK    1  A    between atoms: C3'_2  and  C2'_3 
REMARK    2  A    between atoms: C2'_3  and  C1'_4 
REMARK    3  A    between atoms: C1'_4  and  C1_5 
ROOT
ATOM      1  C1  N4B d   1      -0.543   2.682  -1.336  0.00  0.00    -0.075 A 
ATOM      2  C2  N4B d   1      -1.637   2.876  -2.207  0.00  0.00     0.002 A 
ATOM      3  C3  N4B d   1      -1.838   4.100  -2.796  0.00  0.00     0.002 A 
ATOM      4  C4  N4B d   1      -0.972   5.146  -2.515  0.00  0.00    -0.004 A 
ATOM      5  C5  N4B d   1       0.098   4.944  -1.692  0.00  0.00     0.002 A 
ATOM      6  C6  N4B d   1       0.314   3.717  -1.097  0.00  0.00     0.002 A 
ENDROOT
BRANCH   1   7
ATOM      7  C1' N4B d   1      -0.331   1.386  -0.602  0.00  0.00     0.057 C 
BRANCH   7   8
ATOM      8  C2' N4B d   1      -0.039   1.683   0.866  0.00  0.00     0.009 C 
BRANCH   8   9
ATOM      9  C3' N4B d   1      -0.045   0.423   1.713  0.00  0.00     0.004 C 
ATOM     10  C4' N4B d   1       1.097  -0.496   1.396  0.00  0.00     0.003 C 
ENDBRANCH   8   9
ENDBRANCH   7   8
ENDBRANCH   1   7
TORSDOF 3
ENDMDL
