MODEL 1
REMARK minimizedAffinity 6.19647837
REMARK minimizedRMSD -1
REMARK  3 active torsions:
REMARK  status: ('A' for Active; 'I' for Inactive)
REMARK    1  A    between atoms: C3'_2  and  C2'_3 
REMARK    2  A    between atoms: C2'_3  and  C1'_4 
REMARK    3  A    between atoms: C1'_4  and  C1_5 
ROOT
ATOM      1  C1  N4B d   1       0.810   2.371   1.915  0.00  0.00    -0.075 A 
ATOM      2  C2  N4B d   1       0.441   3.090   0.757  0.00  0.00     0.002 A 
ATOM      3  C3  N4B d   1       1.055   4.283   0.465  0.00  0.00     0.002 A 
ATOM      4  C4  N4B d   1       2.023   4.784   1.322  0.00  0.00    -0.004 A 
ATOM      5  C5  N4B d   1       2.392   4.071   2.425  0.00  0.00     0.002 A 
ATOM      6  C6  N4B d   1       1.786   2.868   2.729  0.00  0.00     0.002 A 
ENDROOT
BRANCH   1   7
ATOM      7  C1' N4B d   1       0.106   1.105   2.322  0.00  0.00     0.057 C 
BRANCH   7   8
ATOM      8  C2' N4B d   1       1.085  -0.062   2.235  0.00  0.00     0.009 C 
BRANCH   8   9
ATOM      9  C3' N4B d   1       1.556  -0.304   0.811  0.00  0.00     0.004 C 
ATOM     10  C4' N4B d   1       1.513  -1.753   0.424  0.00  0.00     0.003 C 
ENDBRANCH   8   9
ENDBRANCH   7   8
ENDBRANCH   1   7
TORSDOF 3
ENDMDL
