MODEL 1
REMARK minimizedAffinity -0.339672029
REMARK minimizedRMSD -1
REMARK  3 active torsions:
REMARK  status: ('A' for Active; 'I' for Inactive)
REMARK    1  A    between atoms: C3'_2  and  C2'_3 
REMARK    2  A    between atoms: C2'_3  and  C1'_4 
REMARK    3  A    between atoms: C1'_4  and  C1_5 
ROOT
ATOM      1  C1  N4B d   1       0.385   2.074   0.152  0.00  0.00    -0.075 A 
ATOM      2  C2  N4B d   1       0.403   2.344   1.538  0.00  0.00     0.002 A 
ATOM      3  C3  N4B d   1       0.544   1.315   2.436  0.00  0.00     0.002 A 
ATOM      4  C4  N4B d   1       0.649   0.011   1.975  0.00  0.00    -0.004 A 
ATOM      5  C5  N4B d   1       0.656  -0.239   0.634  0.00  0.00     0.002 A 
ATOM      6  C6  N4B d   1       0.519   0.786  -0.281  0.00  0.00     0.002 A 
ENDROOT
BRANCH   1   7
ATOM      7  C1' N4B d   1       0.146   3.156  -0.865  0.00  0.00     0.057 C 
BRANCH   7   8
ATOM      8  C2' N4B d   1       0.402   4.515  -0.219  0.00  0.00     0.009 C 
BRANCH   8   9
ATOM      9  C3' N4B d   1       1.121   5.465  -1.161  0.00  0.00     0.004 C 
ATOM     10  C4' N4B d   1       0.364   5.708  -2.432  0.00  0.00     0.003 C 
ENDBRANCH   8   9
ENDBRANCH   7   8
ENDBRANCH   1   7
TORSDOF 3
ENDMDL
