MODEL 1
REMARK minimizedAffinity -1.64582193
REMARK minimizedRMSD -1
REMARK  0 active torsions:
REMARK  status: ('A' for Active; 'I' for Inactive)
ROOT
ATOM      1  C   UNL d   1       0.306   0.660   1.495  0.00  0.00     0.124 A 
ATOM      2  C1  UNL d   1      -0.484   1.212   0.496  0.00  0.00     0.062 A 
ATOM      3  C2  UNL d   1      -0.310   0.822  -0.829  0.00  0.00     0.162 A 
ATOM      4  C3  UNL d   1       0.658  -0.125  -1.162  0.00  0.00    -0.034 A 
ATOM      5  C4  UNL d   1       1.450  -0.674  -0.152  0.00  0.00     0.162 A 
ATOM      6  C5  UNL d   1       1.272  -0.282   1.171  0.00  0.00     0.062 A 
ATOM      7  F   UNL d   1       2.036  -0.815   2.135  0.00  0.00    -0.097 F 
ATOM      8  F1  UNL d   1       2.390  -1.587  -0.438  0.00  0.00    -0.096 F 
ATOM      9  I   UNL d   1       0.922  -0.709  -3.142  0.00  0.00    -0.060 I 
ATOM     10  F2  UNL d   1      -1.088   1.371  -1.774  0.00  0.00    -0.096 F 
ATOM     11  F3  UNL d   1      -1.418   2.122   0.807  0.00  0.00    -0.097 F 
ATOM     12  F4  UNL d   1       0.137   1.037   2.769  0.00  0.00    -0.092 F 
ENDROOT
TORSDOF 0
ENDMDL
