MODEL 1
REMARK minimizedAffinity -2.49704981
REMARK minimizedRMSD -1
REMARK  0 active torsions:
REMARK  status: ('A' for Active; 'I' for Inactive)
ROOT
ATOM      1  C   UNL d   1      -0.236   0.766   2.043  0.00  0.00     0.124 A 
ATOM      2  C1  UNL d   1       0.996   0.624   1.419  0.00  0.00     0.062 A 
ATOM      3  C2  UNL d   1       1.067   0.186   0.100  0.00  0.00     0.162 A 
ATOM      4  C3  UNL d   1      -0.099  -0.113  -0.606  0.00  0.00    -0.034 A 
ATOM      5  C4  UNL d   1      -1.334   0.032   0.028  0.00  0.00     0.162 A 
ATOM      6  C5  UNL d   1      -1.399   0.470   1.347  0.00  0.00     0.062 A 
ATOM      7  F   UNL d   1      -2.591   0.607   1.947  0.00  0.00    -0.097 F 
ATOM      8  F1  UNL d   1      -2.474  -0.246  -0.621  0.00  0.00    -0.096 F 
ATOM      9  I   UNL d   1       0.003  -0.768  -2.578  0.00  0.00    -0.060 I 
ATOM     10  F2  UNL d   1       2.271   0.057  -0.477  0.00  0.00    -0.096 F 
ATOM     11  F3  UNL d   1       2.122   0.908   2.090  0.00  0.00    -0.097 F 
ATOM     12  F4  UNL d   1      -0.301   1.187   3.312  0.00  0.00    -0.092 F 
ENDROOT
TORSDOF 0
ENDMDL
