MODEL 1
REMARK minimizedAffinity -2.27922297
REMARK minimizedRMSD -1
REMARK  0 active torsions:
REMARK  status: ('A' for Active; 'I' for Inactive)
ROOT
ATOM      1  C   UNL d   1       1.080   0.740   2.158  0.00  0.00     0.124 A 
ATOM      2  C1  UNL d   1      -0.177   0.982   2.695  0.00  0.00     0.062 A 
ATOM      3  C2  UNL d   1      -1.321   0.624   1.988  0.00  0.00     0.162 A 
ATOM      4  C3  UNL d   1      -1.214   0.019   0.736  0.00  0.00    -0.034 A 
ATOM      5  C4  UNL d   1       0.054  -0.220   0.202  0.00  0.00     0.162 A 
ATOM      6  C5  UNL d   1       1.194   0.140   0.913  0.00  0.00     0.062 A 
ATOM      7  F   UNL d   1       2.408  -0.095   0.392  0.00  0.00    -0.097 F 
ATOM      8  F1  UNL d   1       0.193  -0.800  -0.999  0.00  0.00    -0.096 F 
ATOM      9  I   UNL d   1      -2.922  -0.518  -0.325  0.00  0.00    -0.060 I 
ATOM     10  F2  UNL d   1      -2.523   0.870   2.531  0.00  0.00    -0.096 F 
ATOM     11  F3  UNL d   1      -0.290   1.563   3.898  0.00  0.00    -0.097 F 
ATOM     12  F4  UNL d   1       2.179   1.087   2.841  0.00  0.00    -0.092 F 
ENDROOT
TORSDOF 0
ENDMDL
