MODEL 1
REMARK minimizedAffinity 0.686422467
REMARK minimizedRMSD -1
REMARK  0 active torsions:
REMARK  status: ('A' for Active; 'I' for Inactive)
ROOT
ATOM      1  C   UNL d   1      -1.892   0.731   1.368  0.00  0.00     0.124 A 
ATOM      2  C1  UNL d   1      -0.756   1.124   2.061  0.00  0.00     0.062 A 
ATOM      3  C2  UNL d   1       0.499   0.670   1.665  0.00  0.00     0.162 A 
ATOM      4  C3  UNL d   1       0.624  -0.182   0.567  0.00  0.00    -0.034 A 
ATOM      5  C4  UNL d   1      -0.523  -0.573  -0.125  0.00  0.00     0.162 A 
ATOM      6  C5  UNL d   1      -1.775  -0.117   0.275  0.00  0.00     0.062 A 
ATOM      7  F   UNL d   1      -2.871  -0.498  -0.396  0.00  0.00    -0.097 F 
ATOM      8  F1  UNL d   1      -0.438  -1.391  -1.185  0.00  0.00    -0.096 F 
ATOM      9  I   UNL d   1       2.498  -0.862  -0.030  0.00  0.00    -0.060 I 
ATOM     10  F2  UNL d   1       1.579   1.066   2.353  0.00  0.00    -0.096 F 
ATOM     11  F3  UNL d   1      -0.867   1.942   3.118  0.00  0.00    -0.097 F 
ATOM     12  F4  UNL d   1      -3.098   1.168   1.752  0.00  0.00    -0.092 F 
ENDROOT
TORSDOF 0
ENDMDL
