MODEL 1
REMARK minimizedAffinity -1.07331347
REMARK minimizedRMSD -1
REMARK  0 active torsions:
REMARK  status: ('A' for Active; 'I' for Inactive)
ROOT
ATOM      1  C   UNL d   1      -0.595   0.526   1.909  0.00  0.00     0.124 A 
ATOM      2  C1  UNL d   1       0.658   0.167   1.432  0.00  0.00     0.062 A 
ATOM      3  C2  UNL d   1       0.815  -0.232   0.107  0.00  0.00     0.162 A 
ATOM      4  C3  UNL d   1      -0.284  -0.274  -0.750  0.00  0.00    -0.034 A 
ATOM      5  C4  UNL d   1      -1.542   0.088  -0.263  0.00  0.00     0.162 A 
ATOM      6  C5  UNL d   1      -1.693   0.486   1.062  0.00  0.00     0.062 A 
ATOM      7  F   UNL d   1      -2.904   0.832   1.521  0.00  0.00    -0.097 F 
ATOM      8  F1  UNL d   1      -2.620   0.059  -1.060  0.00  0.00    -0.096 F 
ATOM      9  I   UNL d   1      -0.054  -0.870  -2.731  0.00  0.00    -0.060 I 
ATOM     10  F2  UNL d   1       2.038  -0.573  -0.327  0.00  0.00    -0.096 F 
ATOM     11  F3  UNL d   1       1.721   0.204   2.248  0.00  0.00    -0.097 F 
ATOM     12  F4  UNL d   1      -0.743   0.909   3.184  0.00  0.00    -0.092 F 
ENDROOT
TORSDOF 0
ENDMDL
