MODEL 1
REMARK minimizedAffinity 1.27501583
REMARK minimizedRMSD -1
REMARK  0 active torsions:
REMARK  status: ('A' for Active; 'I' for Inactive)
ROOT
ATOM      1  C   UNL d   1      -0.236   0.323   1.737  0.00  0.00     0.124 A 
ATOM      2  C1  UNL d   1      -1.401   0.387   0.985  0.00  0.00     0.062 A 
ATOM      3  C2  UNL d   1      -1.360   0.167  -0.388  0.00  0.00     0.162 A 
ATOM      4  C3  UNL d   1      -0.149  -0.118  -1.020  0.00  0.00    -0.034 A 
ATOM      5  C4  UNL d   1       1.018  -0.179  -0.257  0.00  0.00     0.162 A 
ATOM      6  C5  UNL d   1       0.972   0.041   1.116  0.00  0.00     0.062 A 
ATOM      7  F   UNL d   1       2.099  -0.020   1.841  0.00  0.00    -0.097 F 
ATOM      8  F1  UNL d   1       2.199  -0.451  -0.832  0.00  0.00    -0.096 F 
ATOM      9  I   UNL d   1      -0.084  -0.446  -3.074  0.00  0.00    -0.060 I 
ATOM     10  F2  UNL d   1      -2.501   0.235  -1.090  0.00  0.00    -0.096 F 
ATOM     11  F3  UNL d   1      -2.569   0.660   1.584  0.00  0.00    -0.097 F 
ATOM     12  F4  UNL d   1      -0.278   0.536   3.059  0.00  0.00    -0.092 F 
ENDROOT
TORSDOF 0
ENDMDL
