MODEL 1
REMARK minimizedAffinity 0.302863449
REMARK minimizedRMSD -1
REMARK  0 active torsions:
REMARK  status: ('A' for Active; 'I' for Inactive)
ROOT
ATOM      1  C   UNL d   1      -0.402   0.836   2.107  0.00  0.00     0.124 A 
ATOM      2  C1  UNL d   1       0.795   0.377   1.575  0.00  0.00     0.062 A 
ATOM      3  C2  UNL d   1       0.857  -0.039   0.248  0.00  0.00     0.162 A 
ATOM      4  C3  UNL d   1      -0.282   0.001  -0.556  0.00  0.00    -0.034 A 
ATOM      5  C4  UNL d   1      -1.483   0.463  -0.013  0.00  0.00     0.162 A 
ATOM      6  C5  UNL d   1      -1.539   0.878   1.313  0.00  0.00     0.062 A 
ATOM      7  F   UNL d   1      -2.697   1.321   1.826  0.00  0.00    -0.097 F 
ATOM      8  F1  UNL d   1      -2.597   0.515  -0.758  0.00  0.00    -0.096 F 
ATOM      9  I   UNL d   1      -0.194  -0.621  -2.540  0.00  0.00    -0.060 I 
ATOM     10  F2  UNL d   1       2.027  -0.478  -0.240  0.00  0.00    -0.096 F 
ATOM     11  F3  UNL d   1       1.895   0.335   2.340  0.00  0.00    -0.097 F 
ATOM     12  F4  UNL d   1      -0.459   1.235   3.384  0.00  0.00    -0.092 F 
ENDROOT
TORSDOF 0
ENDMDL
