MODEL 1
REMARK minimizedAffinity 1.94085014
REMARK minimizedRMSD -1
REMARK  0 active torsions:
REMARK  status: ('A' for Active; 'I' for Inactive)
ROOT
ATOM      1  C   UNL d   1      -0.959  -0.421   0.663  0.00  0.00     0.124 A 
ATOM      2  C1  UNL d   1       0.229   0.289   0.775  0.00  0.00     0.062 A 
ATOM      3  C2  UNL d   1       0.999   0.547  -0.355  0.00  0.00     0.162 A 
ATOM      4  C3  UNL d   1       0.584   0.098  -1.608  0.00  0.00    -0.034 A 
ATOM      5  C4  UNL d   1      -0.612  -0.616  -1.713  0.00  0.00     0.162 A 
ATOM      6  C5  UNL d   1      -1.378  -0.872  -0.581  0.00  0.00     0.062 A 
ATOM      7  F   UNL d   1      -2.525  -1.557  -0.691  0.00  0.00    -0.097 F 
ATOM      8  F1  UNL d   1      -1.041  -1.063  -2.903  0.00  0.00    -0.096 F 
ATOM      9  I   UNL d   1       1.733   0.482  -3.300  0.00  0.00    -0.060 I 
ATOM     10  F2  UNL d   1       2.143   1.235  -0.216  0.00  0.00    -0.096 F 
ATOM     11  F3  UNL d   1       0.636   0.725   1.976  0.00  0.00    -0.097 F 
ATOM     12  F4  UNL d   1      -1.698  -0.669   1.752  0.00  0.00    -0.092 F 
ENDROOT
TORSDOF 0
ENDMDL
