MODEL 1
REMARK minimizedAffinity -0.186272919
REMARK minimizedRMSD -1
REMARK  0 active torsions:
REMARK  status: ('A' for Active; 'I' for Inactive)
ROOT
ATOM      1  C   UNL d   1      -0.725   1.169   3.134  0.00  0.00     0.124 A 
ATOM      2  C1  UNL d   1      -1.678   0.741   2.220  0.00  0.00     0.062 A 
ATOM      3  C2  UNL d   1      -1.284   0.204   0.998  0.00  0.00     0.162 A 
ATOM      4  C3  UNL d   1       0.070   0.092   0.682  0.00  0.00    -0.034 A 
ATOM      5  C4  UNL d   1       1.023   0.526   1.606  0.00  0.00     0.162 A 
ATOM      6  C5  UNL d   1       0.624   1.062   2.826  0.00  0.00     0.062 A 
ATOM      7  F   UNL d   1       1.546   1.475   3.708  0.00  0.00    -0.097 F 
ATOM      8  F1  UNL d   1       2.333   0.433   1.334  0.00  0.00    -0.096 F 
ATOM      9  I   UNL d   1       0.663  -0.710  -1.145  0.00  0.00    -0.060 I 
ATOM     10  F2  UNL d   1      -2.226  -0.202   0.134  0.00  0.00    -0.096 F 
ATOM     11  F3  UNL d   1      -2.982   0.844   2.514  0.00  0.00    -0.097 F 
ATOM     12  F4  UNL d   1      -1.107   1.686   4.309  0.00  0.00    -0.092 F 
ENDROOT
TORSDOF 0
ENDMDL
