MODEL 1
REMARK minimizedAffinity 10.0851984
REMARK minimizedRMSD -1
REMARK  1 active torsions:
REMARK  status: ('A' for Active; 'I' for Inactive)
REMARK    1  A    between atoms: C1_2  and  C2_3 
ROOT
ATOM      1  C2  UNL d   1      -3.310   4.935  -0.530  0.00  0.00    -0.077 A 
ATOM      2  C3  UNL d   1      -4.176   5.656   0.304  0.00  0.00     0.002 A 
ATOM      3  C4  UNL d   1      -5.458   5.997  -0.133  0.00  0.00     0.002 A 
ATOM      4  C5  UNL d   1      -5.886   5.618  -1.404  0.00  0.00    -0.004 A 
ATOM      5  C6  UNL d   1      -5.031   4.902  -2.241  0.00  0.00     0.002 A 
ATOM      6  C7  UNL d   1      -3.749   4.562  -1.806  0.00  0.00     0.002 A 
ENDROOT
BRANCH   1   7
ATOM      7  C1  UNL d   1      -1.946   4.525  -0.041  0.00  0.00     0.055 C 
ATOM      8  C   UNL d   1      -1.911   3.048   0.327  0.00  0.00     0.019 C 
ENDBRANCH   1   7
TORSDOF 1
ENDMDL
