MODEL 1
REMARK minimizedAffinity 8.9711504
REMARK minimizedRMSD -1
REMARK  1 active torsions:
REMARK  status: ('A' for Active; 'I' for Inactive)
REMARK    1  A    between atoms: C1_2  and  C2_3 
ROOT
ATOM      1  C2  UNL d   1      -2.485   0.575  -1.660  0.00  0.00    -0.077 A 
ATOM      2  C3  UNL d   1      -2.495   0.916  -3.019  0.00  0.00     0.002 A 
ATOM      3  C4  UNL d   1      -1.739   0.184  -3.937  0.00  0.00     0.002 A 
ATOM      4  C5  UNL d   1      -0.972  -0.897  -3.505  0.00  0.00    -0.004 A 
ATOM      5  C6  UNL d   1      -0.955  -1.243  -2.155  0.00  0.00     0.002 A 
ATOM      6  C7  UNL d   1      -1.708  -0.511  -1.236  0.00  0.00     0.002 A 
ENDROOT
BRANCH   1   7
ATOM      7  C1  UNL d   1      -3.338   1.333  -0.676  0.00  0.00     0.055 C 
ATOM      8  C   UNL d   1      -3.403   0.619   0.666  0.00  0.00     0.019 C 
ENDBRANCH   1   7
TORSDOF 1
ENDMDL
