MODEL 1
REMARK minimizedAffinity 11.7566528
REMARK minimizedRMSD -1
REMARK  1 active torsions:
REMARK  status: ('A' for Active; 'I' for Inactive)
REMARK    1  A    between atoms: C1_2  and  C2_3 
ROOT
ATOM      1  C2  UNL d   1       1.485   4.118   1.104  0.00  0.00    -0.077 A 
ATOM      2  C3  UNL d   1       1.068   5.204   0.322  0.00  0.00     0.002 A 
ATOM      3  C4  UNL d   1      -0.118   5.132  -0.412  0.00  0.00     0.002 A 
ATOM      4  C5  UNL d   1      -0.897   3.978  -0.368  0.00  0.00    -0.004 A 
ATOM      5  C6  UNL d   1      -0.490   2.892   0.404  0.00  0.00     0.002 A 
ATOM      6  C7  UNL d   1       0.696   2.961   1.138  0.00  0.00     0.002 A 
ENDROOT
BRANCH   1   7
ATOM      7  C1  UNL d   1       2.738   4.212   1.935  0.00  0.00     0.055 C 
ATOM      8  C   UNL d   1       3.242   5.645   2.017  0.00  0.00     0.019 C 
ENDBRANCH   1   7
TORSDOF 1
ENDMDL
