MODEL 1
REMARK minimizedAffinity 2.94255257
REMARK minimizedRMSD -1
REMARK  1 active torsions:
REMARK  status: ('A' for Active; 'I' for Inactive)
REMARK    1  A    between atoms: C1_2  and  C2_3 
ROOT
ATOM      1  C2  UNL d   1       0.902   0.509   2.672  0.00  0.00    -0.077 A 
ATOM      2  C3  UNL d   1      -0.228   1.095   3.259  0.00  0.00     0.002 A 
ATOM      3  C4  UNL d   1      -0.851   2.189   2.656  0.00  0.00     0.002 A 
ATOM      4  C5  UNL d   1      -0.353   2.704   1.461  0.00  0.00    -0.004 A 
ATOM      5  C6  UNL d   1       0.771   2.130   0.870  0.00  0.00     0.002 A 
ATOM      6  C7  UNL d   1       1.396   1.037   1.472  0.00  0.00     0.002 A 
ENDROOT
BRANCH   1   7
ATOM      7  C1  UNL d   1       1.546  -0.702   3.295  0.00  0.00     0.055 C 
ATOM      8  C   UNL d   1       1.243  -0.786   4.784  0.00  0.00     0.019 C 
ENDBRANCH   1   7
TORSDOF 1
ENDMDL
