MODEL 1
REMARK minimizedAffinity 8.35102558
REMARK minimizedRMSD -1
REMARK  1 active torsions:
REMARK  status: ('A' for Active; 'I' for Inactive)
REMARK    1  A    between atoms: C1_2  and  C2_3 
ROOT
ATOM      1  C2  UNL d   1       0.566   0.315   3.550  0.00  0.00    -0.077 A 
ATOM      2  C3  UNL d   1       1.490   0.885   2.662  0.00  0.00     0.002 A 
ATOM      3  C4  UNL d   1       1.072   1.821   1.713  0.00  0.00     0.002 A 
ATOM      4  C5  UNL d   1      -0.267   2.198   1.647  0.00  0.00    -0.004 A 
ATOM      5  C6  UNL d   1      -1.194   1.635   2.524  0.00  0.00     0.002 A 
ATOM      6  C7  UNL d   1      -0.778   0.699   3.472  0.00  0.00     0.002 A 
ENDROOT
BRANCH   1   7
ATOM      7  C1  UNL d   1       1.023  -0.657   4.606  0.00  0.00     0.055 C 
ATOM      8  C   UNL d   1       1.889  -1.757   4.008  0.00  0.00     0.019 C 
ENDBRANCH   1   7
TORSDOF 1
ENDMDL
