MODEL 1
REMARK minimizedAffinity 9.13183117
REMARK minimizedRMSD -1
REMARK  1 active torsions:
REMARK  status: ('A' for Active; 'I' for Inactive)
REMARK    1  A    between atoms: C1_2  and  C2_3 
ROOT
ATOM      1  C2  UNL d   1      -0.045   1.869   0.029  0.00  0.00    -0.077 A 
ATOM      2  C3  UNL d   1       1.000   1.035  -0.389  0.00  0.00     0.002 A 
ATOM      3  C4  UNL d   1       0.727  -0.149  -1.077  0.00  0.00     0.002 A 
ATOM      4  C5  UNL d   1      -0.590  -0.507  -1.355  0.00  0.00    -0.004 A 
ATOM      5  C6  UNL d   1      -1.637   0.315  -0.941  0.00  0.00     0.002 A 
ATOM      6  C7  UNL d   1      -1.366   1.498  -0.253  0.00  0.00     0.002 A 
ENDROOT
BRANCH   1   7
ATOM      7  C1  UNL d   1       0.249   3.171   0.728  0.00  0.00     0.055 C 
ATOM      8  C   UNL d   1       0.331   4.324  -0.262  0.00  0.00     0.019 C 
ENDBRANCH   1   7
TORSDOF 1
ENDMDL
