MODEL 1
REMARK minimizedAffinity 3.91699171
REMARK minimizedRMSD -1
REMARK  1 active torsions:
REMARK  status: ('A' for Active; 'I' for Inactive)
REMARK    1  A    between atoms: C1_2  and  C2_3 
ROOT
ATOM      1  C2  UNL d   1       1.496  -1.041   4.595  0.00  0.00    -0.077 A 
ATOM      2  C3  UNL d   1       0.143  -0.724   4.782  0.00  0.00     0.002 A 
ATOM      3  C4  UNL d   1      -0.414   0.393   4.157  0.00  0.00     0.002 A 
ATOM      4  C5  UNL d   1       0.373   1.200   3.338  0.00  0.00    -0.004 A 
ATOM      5  C6  UNL d   1       1.720   0.895   3.147  0.00  0.00     0.002 A 
ATOM      6  C7  UNL d   1       2.279  -0.221   3.772  0.00  0.00     0.002 A 
ENDROOT
BRANCH   1   7
ATOM      7  C1  UNL d   1       2.087  -2.273   5.228  0.00  0.00     0.055 C 
ATOM      8  C   UNL d   1       3.362  -1.945   5.993  0.00  0.00     0.019 C 
ENDBRANCH   1   7
TORSDOF 1
ENDMDL
