MODEL 1
REMARK minimizedAffinity 6.86585999
REMARK minimizedRMSD -1
REMARK  1 active torsions:
REMARK  status: ('A' for Active; 'I' for Inactive)
REMARK    1  A    between atoms: C1_2  and  C2_3 
ROOT
ATOM      1  C2  UNL d   1       4.048  -5.477  -2.166  0.00  0.00    -0.077 A 
ATOM      2  C3  UNL d   1       2.824  -5.997  -1.722  0.00  0.00     0.002 A 
ATOM      3  C4  UNL d   1       1.710  -5.998  -2.564  0.00  0.00     0.002 A 
ATOM      4  C5  UNL d   1       1.810  -5.485  -3.855  0.00  0.00    -0.004 A 
ATOM      5  C6  UNL d   1       3.023  -4.965  -4.305  0.00  0.00     0.002 A 
ATOM      6  C7  UNL d   1       4.137  -4.962  -3.465  0.00  0.00     0.002 A 
ENDROOT
BRANCH   1   7
ATOM      7  C1  UNL d   1       5.263  -5.520  -1.276  0.00  0.00     0.055 C 
ATOM      8  C   UNL d   1       5.895  -4.143  -1.136  0.00  0.00     0.019 C 
ENDBRANCH   1   7
TORSDOF 1
ENDMDL
