MODEL 1
REMARK minimizedAffinity -3.75217128
REMARK minimizedRMSD -1
REMARK  0 active torsions:
REMARK  status: ('A' for Active; 'I' for Inactive)
ROOT
ATOM      1  C   UNL d   1      -1.487   0.913   0.034  0.00  0.00     0.020 A 
ATOM      2  C1  UNL d   1      -0.435   0.140  -0.458  0.00  0.00     0.020 A 
ATOM      3  C2  UNL d   1       0.562  -0.313   0.408  0.00  0.00     0.034 A 
ATOM      4  C3  UNL d   1       0.511   0.006   1.770  0.00  0.00     0.017 A 
ATOM      5  C4  UNL d   1      -0.545   0.782   2.262  0.00  0.00     0.017 A 
ATOM      6  C5  UNL d   1      -1.541   1.233   1.391  0.00  0.00     0.034 A 
ATOM      7 Cl   UNL d   1      -0.676   1.217   3.930  0.00  0.00    -0.070 Cl
ATOM      8 Cl1  UNL d   1       1.778  -0.588   2.783  0.00  0.00    -0.070 Cl
ENDROOT
TORSDOF 0
ENDMDL
