MODEL 1
REMARK minimizedAffinity -3.19227958
REMARK minimizedRMSD -1
REMARK  0 active torsions:
REMARK  status: ('A' for Active; 'I' for Inactive)
ROOT
ATOM      1  C   UNL d   1      -0.266   0.108  -1.356  0.00  0.00     0.020 A 
ATOM      2  C1  UNL d   1      -1.461   0.646  -0.880  0.00  0.00     0.020 A 
ATOM      3  C2  UNL d   1      -1.629   0.873   0.488  0.00  0.00     0.034 A 
ATOM      4  C3  UNL d   1      -0.601   0.562   1.384  0.00  0.00     0.017 A 
ATOM      5  C4  UNL d   1       0.598   0.022   0.906  0.00  0.00     0.017 A 
ATOM      6  C5  UNL d   1       0.761  -0.204  -0.464  0.00  0.00     0.034 A 
ATOM      7 Cl   UNL d   1       1.912  -0.388   1.951  0.00  0.00    -0.070 Cl
ATOM      8 Cl1  UNL d   1      -0.878   0.869   3.062  0.00  0.00    -0.070 Cl
ENDROOT
TORSDOF 0
ENDMDL
