MODEL 1
REMARK minimizedAffinity -3.86111856
REMARK minimizedRMSD -1
REMARK  0 active torsions:
REMARK  status: ('A' for Active; 'I' for Inactive)
ROOT
ATOM      1  C   UNL d   1      -1.961   0.412   1.266  0.00  0.00     0.020 A 
ATOM      2  C1  UNL d   1      -1.673   0.079  -0.057  0.00  0.00     0.020 A 
ATOM      3  C2  UNL d   1      -0.425  -0.454  -0.387  0.00  0.00     0.034 A 
ATOM      4  C3  UNL d   1       0.539  -0.655   0.607  0.00  0.00     0.017 A 
ATOM      5  C4  UNL d   1       0.249  -0.320   1.935  0.00  0.00     0.017 A 
ATOM      6  C5  UNL d   1      -1.002   0.213   2.259  0.00  0.00     0.034 A 
ATOM      7 Cl   UNL d   1       1.388  -0.539   3.216  0.00  0.00    -0.070 Cl
ATOM      8 Cl1  UNL d   1       2.061  -1.318   0.128  0.00  0.00    -0.070 Cl
ENDROOT
TORSDOF 0
ENDMDL
