MODEL 1
REMARK minimizedAffinity 0.601180077
REMARK minimizedRMSD -1
REMARK  0 active torsions:
REMARK  status: ('A' for Active; 'I' for Inactive)
ROOT
ATOM      1  C   UNL d   1       0.070  -0.264  -4.262  0.00  0.00     0.020 A 
ATOM      2  C1  UNL d   1       1.399   0.149  -4.180  0.00  0.00     0.020 A 
ATOM      3  C2  UNL d   1       1.977   0.399  -2.934  0.00  0.00     0.034 A 
ATOM      4  C3  UNL d   1       1.225   0.236  -1.764  0.00  0.00     0.017 A 
ATOM      5  C4  UNL d   1      -0.109  -0.178  -1.847  0.00  0.00     0.017 A 
ATOM      6  C5  UNL d   1      -0.682  -0.427  -3.098  0.00  0.00     0.034 A 
ATOM      7 Cl   UNL d   1      -1.099  -0.401  -0.448  0.00  0.00    -0.070 Cl
ATOM      8 Cl1  UNL d   1       2.004   0.563  -0.257  0.00  0.00    -0.070 Cl
ENDROOT
TORSDOF 0
ENDMDL
