MODEL 1
REMARK minimizedAffinity -2.35634089
REMARK minimizedRMSD -1
REMARK  2 active torsions:
REMARK  status: ('A' for Active; 'I' for Inactive)
REMARK    1  A    between atoms: C1_2  and  C2_3 
REMARK    2  A    between atoms: C2_3  and  C3_4 
ROOT
ATOM      1  C3  UNL d   1       0.238  -1.576   1.010  0.00  0.00    -0.075 A 
ATOM      2  C4  UNL d   1       0.742  -0.667   0.069  0.00  0.00     0.002 A 
ATOM      3  C5  UNL d   1       0.137   0.578  -0.108  0.00  0.00     0.002 A 
ATOM      4  C6  UNL d   1      -0.983   0.925   0.644  0.00  0.00    -0.004 A 
ATOM      5  C7  UNL d   1      -1.502   0.023   1.571  0.00  0.00     0.002 A 
ATOM      6  C8  UNL d   1      -0.896  -1.221   1.753  0.00  0.00     0.002 A 
ENDROOT
BRANCH   1   7
ATOM      7  C2  UNL d   1       0.905  -2.913   1.228  0.00  0.00     0.056 C 
BRANCH   7   8
ATOM      8  C1  UNL d   1       2.260  -2.826   1.937  0.00  0.00     0.007 C 
ATOM      9  C   UNL d   1       3.131  -1.684   1.430  0.00  0.00     0.009 C 
ENDBRANCH   7   8
ENDBRANCH   1   7
TORSDOF 2
ENDMDL
