MODEL 1
REMARK minimizedAffinity -4.3285923
REMARK minimizedRMSD -1
REMARK  2 active torsions:
REMARK  status: ('A' for Active; 'I' for Inactive)
REMARK    1  A    between atoms: C1_2  and  C2_3 
REMARK    2  A    between atoms: C2_3  and  C3_4 
ROOT
ATOM      1  C3  UNL d   1       0.147   1.629  -0.126  0.00  0.00    -0.075 A 
ATOM      2  C4  UNL d   1       1.357   0.932  -0.262  0.00  0.00     0.002 A 
ATOM      3  C5  UNL d   1       1.497  -0.353   0.264  0.00  0.00     0.002 A 
ATOM      4  C6  UNL d   1       0.436  -0.952   0.940  0.00  0.00    -0.004 A 
ATOM      5  C7  UNL d   1      -0.765  -0.262   1.095  0.00  0.00     0.002 A 
ATOM      6  C8  UNL d   1      -0.909   1.022   0.566  0.00  0.00     0.002 A 
ENDROOT
BRANCH   1   7
ATOM      7  C2  UNL d   1      -0.020   3.007  -0.719  0.00  0.00     0.056 C 
BRANCH   7   8
ATOM      8  C1  UNL d   1      -0.853   3.036  -2.006  0.00  0.00     0.007 C 
ATOM      9  C   UNL d   1      -0.437   4.143  -2.965  0.00  0.00     0.009 C 
ENDBRANCH   7   8
ENDBRANCH   1   7
TORSDOF 2
ENDMDL
