MODEL 1
REMARK minimizedAffinity -4.85320902
REMARK minimizedRMSD -1
REMARK  2 active torsions:
REMARK  status: ('A' for Active; 'I' for Inactive)
REMARK    1  A    between atoms: C1_2  and  C2_3 
REMARK    2  A    between atoms: C2_3  and  C3_4 
ROOT
ATOM      1  C3  UNL d   1      -0.941   0.948  -1.164  0.00  0.00    -0.075 A 
ATOM      2  C4  UNL d   1      -0.720   2.312  -1.401  0.00  0.00     0.002 A 
ATOM      3  C5  UNL d   1      -1.493   3.004  -2.334  0.00  0.00     0.002 A 
ATOM      4  C6  UNL d   1      -2.488   2.339  -3.048  0.00  0.00    -0.004 A 
ATOM      5  C7  UNL d   1      -2.705   0.980  -2.833  0.00  0.00     0.002 A 
ATOM      6  C8  UNL d   1      -1.936   0.287  -1.897  0.00  0.00     0.002 A 
ENDROOT
BRANCH   1   7
ATOM      7  C2  UNL d   1      -0.128   0.201  -0.134  0.00  0.00     0.056 C 
BRANCH   7   8
ATOM      8  C1  UNL d   1       1.387   0.304  -0.341  0.00  0.00     0.007 C 
ATOM      9  C   UNL d   1       2.124  -0.992  -0.032  0.00  0.00     0.009 C 
ENDBRANCH   7   8
ENDBRANCH   1   7
TORSDOF 2
ENDMDL
