MODEL 1
REMARK minimizedAffinity -5.80651855
REMARK minimizedRMSD -1
REMARK  2 active torsions:
REMARK  status: ('A' for Active; 'I' for Inactive)
REMARK    1  A    between atoms: C1_2  and  C2_3 
REMARK    2  A    between atoms: C2_3  and  C3_4 
ROOT
ATOM      1  C3  UNL d   1      -0.463  -0.568   0.444  0.00  0.00    -0.075 A 
ATOM      2  C4  UNL d   1       0.732  -1.236   0.141  0.00  0.00     0.002 A 
ATOM      3  C5  UNL d   1       1.218  -2.236   0.984  0.00  0.00     0.002 A 
ATOM      4  C6  UNL d   1       0.522  -2.573   2.143  0.00  0.00    -0.004 A 
ATOM      5  C7  UNL d   1      -0.657  -1.904   2.463  0.00  0.00     0.002 A 
ATOM      6  C8  UNL d   1      -1.148  -0.907   1.619  0.00  0.00     0.002 A 
ENDROOT
BRANCH   1   7
ATOM      7  C2  UNL d   1      -1.010   0.494  -0.479  0.00  0.00     0.056 C 
BRANCH   7   8
ATOM      8  C1  UNL d   1      -1.002   0.099  -1.959  0.00  0.00     0.007 C 
ATOM      9  C   UNL d   1      -1.979   0.908  -2.802  0.00  0.00     0.009 C 
ENDBRANCH   7   8
ENDBRANCH   1   7
TORSDOF 2
ENDMDL
