MODEL 1
REMARK minimizedAffinity -5.2192235
REMARK minimizedRMSD -1
REMARK  2 active torsions:
REMARK  status: ('A' for Active; 'I' for Inactive)
REMARK    1  A    between atoms: C1_2  and  C2_3 
REMARK    2  A    between atoms: C2_3  and  C3_4 
ROOT
ATOM      1  C3  UNL d   1       0.552  -0.652   0.360  0.00  0.00    -0.075 A 
ATOM      2  C4  UNL d   1      -0.700  -0.141   0.732  0.00  0.00     0.002 A 
ATOM      3  C5  UNL d   1      -1.351  -0.622   1.869  0.00  0.00     0.002 A 
ATOM      4  C6  UNL d   1      -0.766  -1.623   2.640  0.00  0.00    -0.004 A 
ATOM      5  C7  UNL d   1       0.470  -2.150   2.270  0.00  0.00     0.002 A 
ATOM      6  C8  UNL d   1       1.126  -1.668   1.136  0.00  0.00     0.002 A 
ENDROOT
BRANCH   1   7
ATOM      7  C2  UNL d   1       1.276  -0.115  -0.852  0.00  0.00     0.056 C 
BRANCH   7   8
ATOM      8  C1  UNL d   1       2.436   0.829  -0.518  0.00  0.00     0.007 C 
ATOM      9  C   UNL d   1       3.712   0.507  -1.285  0.00  0.00     0.009 C 
ENDBRANCH   7   8
ENDBRANCH   1   7
TORSDOF 2
ENDMDL
