MODEL 1
REMARK minimizedAffinity -3.61861372
REMARK minimizedRMSD -1
REMARK  2 active torsions:
REMARK  status: ('A' for Active; 'I' for Inactive)
REMARK    1  A    between atoms: C1_2  and  C2_3 
REMARK    2  A    between atoms: C2_3  and  C3_4 
ROOT
ATOM      1  C3  UNL d   1      -0.211   0.675   0.030  0.00  0.00    -0.075 A 
ATOM      2  C4  UNL d   1       1.151   0.815  -0.277  0.00  0.00     0.002 A 
ATOM      3  C5  UNL d   1       2.049  -0.217  -0.004  0.00  0.00     0.002 A 
ATOM      4  C6  UNL d   1       1.601  -1.396   0.587  0.00  0.00    -0.004 A 
ATOM      5  C7  UNL d   1       0.254  -1.540   0.912  0.00  0.00     0.002 A 
ATOM      6  C8  UNL d   1      -0.648  -0.510   0.636  0.00  0.00     0.002 A 
ENDROOT
BRANCH   1   7
ATOM      7  C2  UNL d   1      -1.193   1.776  -0.290  0.00  0.00     0.056 C 
BRANCH   7   8
ATOM      8  C1  UNL d   1      -1.247   2.152  -1.775  0.00  0.00     0.007 C 
ATOM      9  C   UNL d   1      -2.579   1.813  -2.431  0.00  0.00     0.009 C 
ENDBRANCH   7   8
ENDBRANCH   1   7
TORSDOF 2
ENDMDL
