MODEL 1
REMARK minimizedAffinity -2.8340714
REMARK minimizedRMSD -1
REMARK  2 active torsions:
REMARK  status: ('A' for Active; 'I' for Inactive)
REMARK    1  A    between atoms: C1_2  and  C2_3 
REMARK    2  A    between atoms: C2_3  and  C3_4 
ROOT
ATOM      1  C3  UNL d   1      -1.744   1.503  -1.368  0.00  0.00    -0.075 A 
ATOM      2  C4  UNL d   1      -2.744   0.787  -2.043  0.00  0.00     0.002 A 
ATOM      3  C5  UNL d   1      -3.112   1.138  -3.342  0.00  0.00     0.002 A 
ATOM      4  C6  UNL d   1      -2.495   2.213  -3.978  0.00  0.00    -0.004 A 
ATOM      5  C7  UNL d   1      -1.513   2.942  -3.311  0.00  0.00     0.002 A 
ATOM      6  C8  UNL d   1      -1.139   2.590  -2.013  0.00  0.00     0.002 A 
ENDROOT
BRANCH   1   7
ATOM      7  C2  UNL d   1      -1.320   1.111   0.027  0.00  0.00     0.056 C 
BRANCH   7   8
ATOM      8  C1  UNL d   1      -0.388  -0.105   0.076  0.00  0.00     0.007 C 
ATOM      9  C   UNL d   1       1.041   0.217  -0.343  0.00  0.00     0.009 C 
ENDBRANCH   7   8
ENDBRANCH   1   7
TORSDOF 2
ENDMDL
