MODEL 1
REMARK minimizedAffinity -5.55985212
REMARK minimizedRMSD -1
REMARK  2 active torsions:
REMARK  status: ('A' for Active; 'I' for Inactive)
REMARK    1  A    between atoms: C1_2  and  C2_3 
REMARK    2  A    between atoms: C2_3  and  C3_4 
ROOT
ATOM      1  C3  UNL d   1      -0.071   0.471   0.066  0.00  0.00    -0.075 A 
ATOM      2  C4  UNL d   1      -0.356  -0.690   0.798  0.00  0.00     0.002 A 
ATOM      3  C5  UNL d   1       0.646  -1.625   1.061  0.00  0.00     0.002 A 
ATOM      4  C6  UNL d   1       1.940  -1.416   0.588  0.00  0.00    -0.004 A 
ATOM      5  C7  UNL d   1       2.230  -0.274  -0.155  0.00  0.00     0.002 A 
ATOM      6  C8  UNL d   1       1.230   0.665  -0.416  0.00  0.00     0.002 A 
ENDROOT
BRANCH   1   7
ATOM      7  C2  UNL d   1      -1.144   1.501  -0.196  0.00  0.00     0.056 C 
BRANCH   7   8
ATOM      8  C1  UNL d   1      -1.230   1.954  -1.657  0.00  0.00     0.007 C 
ATOM      9  C   UNL d   1      -2.589   1.688  -2.290  0.00  0.00     0.009 C 
ENDBRANCH   7   8
ENDBRANCH   1   7
TORSDOF 2
ENDMDL
