MODEL 1
REMARK minimizedAffinity 1.7797333
REMARK minimizedRMSD -1
REMARK  2 active torsions:
REMARK  status: ('A' for Active; 'I' for Inactive)
REMARK    1  A    between atoms: C1_2  and  C2_3 
REMARK    2  A    between atoms: C2_3  and  C3_4 
ROOT
ATOM      1  C3  UNL d   1      -1.227   1.363  -1.282  0.00  0.00    -0.075 A 
ATOM      2  C4  UNL d   1      -2.419   0.708  -1.626  0.00  0.00     0.002 A 
ATOM      3  C5  UNL d   1      -3.172   1.135  -2.720  0.00  0.00     0.002 A 
ATOM      4  C6  UNL d   1      -2.750   2.227  -3.475  0.00  0.00    -0.004 A 
ATOM      5  C7  UNL d   1      -1.577   2.896  -3.133  0.00  0.00     0.002 A 
ATOM      6  C8  UNL d   1      -0.820   2.468  -2.041  0.00  0.00     0.002 A 
ENDROOT
BRANCH   1   7
ATOM      7  C2  UNL d   1      -0.392   0.888  -0.117  0.00  0.00     0.056 C 
BRANCH   7   8
ATOM      8  C1  UNL d   1      -0.638  -0.574   0.270  0.00  0.00     0.007 C 
ATOM      9  C   UNL d   1      -1.373  -0.729   1.595  0.00  0.00     0.009 C 
ENDBRANCH   7   8
ENDBRANCH   1   7
TORSDOF 2
ENDMDL
