MODEL 1
REMARK minimizedAffinity -5.31543922
REMARK minimizedRMSD -1
REMARK  2 active torsions:
REMARK  status: ('A' for Active; 'I' for Inactive)
REMARK    1  A    between atoms: C1_2  and  C2_3 
REMARK    2  A    between atoms: C2_3  and  C3_4 
ROOT
ATOM      1  C3  UNL d   1      -0.330   0.609  -0.369  0.00  0.00    -0.075 A 
ATOM      2  C4  UNL d   1       0.903   0.888  -0.975  0.00  0.00     0.002 A 
ATOM      3  C5  UNL d   1       1.985   0.023  -0.810  0.00  0.00     0.002 A 
ATOM      4  C6  UNL d   1       1.851  -1.124  -0.031  0.00  0.00    -0.004 A 
ATOM      5  C7  UNL d   1       0.636  -1.402   0.590  0.00  0.00     0.002 A 
ATOM      6  C8  UNL d   1      -0.450  -0.541   0.424  0.00  0.00     0.002 A 
ENDROOT
BRANCH   1   7
ATOM      7  C2  UNL d   1      -1.514   1.526  -0.567  0.00  0.00     0.056 C 
BRANCH   7   8
ATOM      8  C1  UNL d   1      -1.490   2.298  -1.891  0.00  0.00     0.007 C 
ATOM      9  C   UNL d   1      -2.082   1.513  -3.054  0.00  0.00     0.009 C 
ENDBRANCH   7   8
ENDBRANCH   1   7
TORSDOF 2
ENDMDL
