MODEL 1
REMARK minimizedAffinity -5.29824305
REMARK minimizedRMSD -1
REMARK  2 active torsions:
REMARK  status: ('A' for Active; 'I' for Inactive)
REMARK    1  A    between atoms: C1_2  and  C2_3 
REMARK    2  A    between atoms: C2_3  and  C3_4 
ROOT
ATOM      1  C3  UNL d   1       0.121  -0.002   0.085  0.00  0.00    -0.075 A 
ATOM      2  C4  UNL d   1       0.153  -1.177   0.850  0.00  0.00     0.002 A 
ATOM      3  C5  UNL d   1       1.343  -1.887   1.007  0.00  0.00     0.002 A 
ATOM      4  C6  UNL d   1       2.512  -1.439   0.395  0.00  0.00    -0.004 A 
ATOM      5  C7  UNL d   1       2.488  -0.282  -0.381  0.00  0.00     0.002 A 
ATOM      6  C8  UNL d   1       1.299   0.433  -0.536  0.00  0.00     0.002 A 
ENDROOT
BRANCH   1   7
ATOM      7  C2  UNL d   1      -1.157   0.788  -0.065  0.00  0.00     0.056 C 
BRANCH   7   8
ATOM      8  C1  UNL d   1      -1.364   1.381  -1.463  0.00  0.00     0.007 C 
ATOM      9  C   UNL d   1      -2.597   0.834  -2.170  0.00  0.00     0.009 C 
ENDBRANCH   7   8
ENDBRANCH   1   7
TORSDOF 2
ENDMDL
