MODEL 1
REMARK minimizedAffinity -5.16063738
REMARK minimizedRMSD -1
REMARK  2 active torsions:
REMARK  status: ('A' for Active; 'I' for Inactive)
REMARK    1  A    between atoms: C1_2  and  C2_3 
REMARK    2  A    between atoms: C2_3  and  C3_4 
ROOT
ATOM      1  C3  UNL d   1      -0.857   3.304  -3.743  0.00  0.00    -0.075 A 
ATOM      2  C4  UNL d   1      -0.881   3.849  -2.451  0.00  0.00     0.002 A 
ATOM      3  C5  UNL d   1      -0.543   5.186  -2.240  0.00  0.00     0.002 A 
ATOM      4  C6  UNL d   1      -0.169   5.991  -3.314  0.00  0.00    -0.004 A 
ATOM      5  C7  UNL d   1      -0.126   5.456  -4.600  0.00  0.00     0.002 A 
ATOM      6  C8  UNL d   1      -0.467   4.119  -4.814  0.00  0.00     0.002 A 
ENDROOT
BRANCH   1   7
ATOM      7  C2  UNL d   1      -1.249   1.866  -3.982  0.00  0.00     0.056 C 
BRANCH   7   8
ATOM      8  C1  UNL d   1      -2.760   1.615  -3.932  0.00  0.00     0.007 C 
ATOM      9  C   UNL d   1      -3.240   1.105  -2.580  0.00  0.00     0.009 C 
ENDBRANCH   7   8
ENDBRANCH   1   7
TORSDOF 2
ENDMDL
