MODEL 1
REMARK minimizedAffinity -2.24927878
REMARK minimizedRMSD -1
REMARK  0 active torsions:
REMARK  status: ('A' for Active; 'I' for Inactive)
ROOT
ATOM      1  N1  IND d   1       1.072   0.129   1.601  0.00  0.00    -0.196 N 
ATOM      2  C2  IND d   1       0.967  -0.612   0.457  0.00  0.00     0.054 A 
ATOM      3  C3  IND d   1       1.662  -0.030  -0.546  0.00  0.00    -0.031 A 
ATOM      4  C4  IND d   1       3.128   2.086  -0.507  0.00  0.00     0.051 A 
ATOM      5  C5  IND d   1       3.502   3.122   0.301  0.00  0.00    -0.031 A 
ATOM      6  C6  IND d   1       3.080   3.214   1.612  0.00  0.00     0.015 A 
ATOM      7  C7  IND d   1       2.272   2.263   2.168  0.00  0.00    -0.016 A 
ATOM      8  C8  IND d   1       1.884   1.213   1.348  0.00  0.00    -0.047 A 
ATOM      9  C9  IND d   1       2.275   1.137   0.005  0.00  0.00    -0.096 A 
ATOM     10  HN1 IND d   1       0.695  -0.051   2.352  0.00  0.00     0.298 HD
ENDROOT
TORSDOF 0
ENDMDL
