MODEL 1
REMARK minimizedAffinity -2.96043038
REMARK minimizedRMSD -1
REMARK  0 active torsions:
REMARK  status: ('A' for Active; 'I' for Inactive)
ROOT
ATOM      1  N1  IND d   1       1.596   1.796   1.958  0.00  0.00    -0.196 N 
ATOM      2  C2  IND d   1       2.952   1.852   1.792  0.00  0.00     0.054 A 
ATOM      3  C3  IND d   1       3.311   1.240   0.641  0.00  0.00    -0.031 A 
ATOM      4  C4  IND d   1       1.831   0.169  -1.172  0.00  0.00     0.051 A 
ATOM      5  C5  IND d   1       0.533  -0.157  -1.449  0.00  0.00    -0.031 A 
ATOM      6  C6  IND d   1      -0.498   0.160  -0.589  0.00  0.00     0.015 A 
ATOM      7  C7  IND d   1      -0.270   0.828   0.581  0.00  0.00    -0.016 A 
ATOM      8  C8  IND d   1       1.048   1.155   0.869  0.00  0.00    -0.047 A 
ATOM      9  C9  IND d   1       2.103   0.798   0.020  0.00  0.00    -0.096 A 
ATOM     10  HN1 IND d   1       1.160   2.109   2.629  0.00  0.00     0.298 HD
ENDROOT
TORSDOF 0
ENDMDL
