MODEL 1
REMARK minimizedAffinity -2.6996491
REMARK minimizedRMSD -1
REMARK  0 active torsions:
REMARK  status: ('A' for Active; 'I' for Inactive)
ROOT
ATOM      1  N1  IND d   1       0.975  -0.355   0.625  0.00  0.00    -0.196 N 
ATOM      2  C2  IND d   1       0.955   0.558  -0.393  0.00  0.00     0.054 A 
ATOM      3  C3  IND d   1      -0.122   0.355  -1.185  0.00  0.00    -0.031 A 
ATOM      4  C4  IND d   1      -2.035  -1.350  -0.939  0.00  0.00     0.051 A 
ATOM      5  C5  IND d   1      -2.436  -2.418  -0.186  0.00  0.00    -0.031 A 
ATOM      6  C6  IND d   1      -1.707  -2.860   0.899  0.00  0.00     0.015 A 
ATOM      7  C7  IND d   1      -0.551  -2.240   1.280  0.00  0.00    -0.016 A 
ATOM      8  C8  IND d   1      -0.137  -1.160   0.514  0.00  0.00    -0.047 A 
ATOM      9  C9  IND d   1      -0.850  -0.734  -0.614  0.00  0.00    -0.096 A 
ATOM     10  HN1 IND d   1       1.581  -0.415   1.232  0.00  0.00     0.298 HD
ENDROOT
TORSDOF 0
ENDMDL
