MODEL 1
REMARK minimizedAffinity -1.65606308
REMARK minimizedRMSD -1
REMARK  0 active torsions:
REMARK  status: ('A' for Active; 'I' for Inactive)
ROOT
ATOM      1  N1  IND d   1       0.761  -0.573  -0.547  0.00  0.00    -0.196 N 
ATOM      2  C2  IND d   1      -0.430  -0.024  -0.933  0.00  0.00     0.054 A 
ATOM      3  C3  IND d   1      -0.520   1.255  -0.505  0.00  0.00    -0.031 A 
ATOM      4  C4  IND d   1       1.212   2.683   0.756  0.00  0.00     0.051 A 
ATOM      5  C5  IND d   1       2.436   2.608   1.359  0.00  0.00    -0.031 A 
ATOM      6  C6  IND d   1       3.181   1.446   1.355  0.00  0.00     0.015 A 
ATOM      7  C7  IND d   1       2.732   0.314   0.735  0.00  0.00    -0.016 A 
ATOM      8  C8  IND d   1       1.486   0.385   0.128  0.00  0.00    -0.047 A 
ATOM      9  C9  IND d   1       0.707   1.548   0.166  0.00  0.00    -0.096 A 
ATOM     10  HN1 IND d   1       1.015  -1.380  -0.700  0.00  0.00     0.298 HD
ENDROOT
TORSDOF 0
ENDMDL
