MODEL 1
REMARK minimizedAffinity 0.679290891
REMARK minimizedRMSD -1
REMARK  0 active torsions:
REMARK  status: ('A' for Active; 'I' for Inactive)
ROOT
ATOM      1  N1  IND d   1      -0.715  -2.376   1.559  0.00  0.00    -0.196 N 
ATOM      2  C2  IND d   1      -1.760  -3.237   1.371  0.00  0.00     0.054 A 
ATOM      3  C3  IND d   1      -2.530  -2.824   0.339  0.00  0.00    -0.031 A 
ATOM      4  C4  IND d   1      -2.204  -0.820  -1.244  0.00  0.00     0.051 A 
ATOM      5  C5  IND d   1      -1.413   0.276  -1.446  0.00  0.00    -0.031 A 
ATOM      6  C6  IND d   1      -0.325   0.548  -0.642  0.00  0.00     0.015 A 
ATOM      7  C7  IND d   1       0.020  -0.275   0.392  0.00  0.00    -0.016 A 
ATOM      8  C8  IND d   1      -0.785  -1.386   0.604  0.00  0.00    -0.047 A 
ATOM      9  C9  IND d   1      -1.915  -1.644  -0.182  0.00  0.00    -0.096 A 
ATOM     10  HN1 IND d   1      -0.115  -2.442   2.172  0.00  0.00     0.298 HD
ENDROOT
TORSDOF 0
ENDMDL
