MODEL 1
REMARK minimizedAffinity -0.405077994
REMARK minimizedRMSD -1
REMARK  0 active torsions:
REMARK  status: ('A' for Active; 'I' for Inactive)
ROOT
ATOM      1  N1  IND d   1      -1.417  -2.285  -0.021  0.00  0.00    -0.196 N 
ATOM      2  C2  IND d   1      -2.275  -1.833  -0.985  0.00  0.00     0.054 A 
ATOM      3  C3  IND d   1      -1.849  -0.648  -1.476  0.00  0.00    -0.031 A 
ATOM      4  C4  IND d   1       0.284   0.681  -0.919  0.00  0.00     0.051 A 
ATOM      5  C5  IND d   1       1.359   0.688  -0.075  0.00  0.00    -0.031 A 
ATOM      6  C6  IND d   1       1.570  -0.317   0.846  0.00  0.00     0.015 A 
ATOM      7  C7  IND d   1       0.715  -1.378   0.951  0.00  0.00    -0.016 A 
ATOM      8  C8  IND d   1      -0.382  -1.385   0.101  0.00  0.00    -0.047 A 
ATOM      9  C9  IND d   1      -0.623  -0.345  -0.807  0.00  0.00    -0.096 A 
ATOM     10  HN1 IND d   1      -1.508  -3.010   0.432  0.00  0.00     0.298 HD
ENDROOT
TORSDOF 0
ENDMDL
