MODEL 1
REMARK minimizedAffinity -2.10123014
REMARK minimizedRMSD -1
REMARK  0 active torsions:
REMARK  status: ('A' for Active; 'I' for Inactive)
ROOT
ATOM      1  N1  IND d   1       1.033  -0.803   0.598  0.00  0.00    -0.196 N 
ATOM      2  C2  IND d   1       2.025   0.054   0.209  0.00  0.00     0.054 A 
ATOM      3  C3  IND d   1       1.592   0.851  -0.793  0.00  0.00    -0.031 A 
ATOM      4  C4  IND d   1      -0.737   0.991  -1.882  0.00  0.00     0.051 A 
ATOM      5  C5  IND d   1      -1.962   0.385  -1.887  0.00  0.00    -0.031 A 
ATOM      6  C6  IND d   1      -2.258  -0.668  -1.045  0.00  0.00     0.015 A 
ATOM      7  C7  IND d   1      -1.340  -1.148  -0.155  0.00  0.00    -0.016 A 
ATOM      8  C8  IND d   1      -0.093  -0.539  -0.152  0.00  0.00    -0.047 A 
ATOM      9  C9  IND d   1       0.227   0.501  -1.033  0.00  0.00    -0.096 A 
ATOM     10  HN1 IND d   1       1.101  -1.405   1.208  0.00  0.00     0.298 HD
ENDROOT
TORSDOF 0
ENDMDL
