MODEL 1
REMARK minimizedAffinity -3.92125177
REMARK minimizedRMSD -1
REMARK  0 active torsions:
REMARK  status: ('A' for Active; 'I' for Inactive)
ROOT
ATOM      1  N1  IND d   1       0.804  -0.727   0.901  0.00  0.00    -0.196 N 
ATOM      2  C2  IND d   1       1.000   0.366   0.103  0.00  0.00     0.054 A 
ATOM      3  C3  IND d   1      -0.061   0.545  -0.716  0.00  0.00    -0.031 A 
ATOM      4  C4  IND d   1      -2.268  -0.772  -0.847  0.00  0.00     0.051 A 
ATOM      5  C5  IND d   1      -2.895  -1.877  -0.342  0.00  0.00    -0.031 A 
ATOM      6  C6  IND d   1      -2.310  -2.669   0.625  0.00  0.00     0.015 A 
ATOM      7  C7  IND d   1      -1.076  -2.378   1.133  0.00  0.00    -0.016 A 
ATOM      8  C8  IND d   1      -0.434  -1.261   0.618  0.00  0.00    -0.047 A 
ATOM      9  C9  IND d   1      -1.004  -0.478  -0.394  0.00  0.00    -0.096 A 
ATOM     10  HN1 IND d   1       1.360  -1.029   1.483  0.00  0.00     0.298 HD
ENDROOT
TORSDOF 0
ENDMDL
