MODEL 1
REMARK minimizedAffinity -2.16042662
REMARK minimizedRMSD -1
REMARK  0 active torsions:
REMARK  status: ('A' for Active; 'I' for Inactive)
ROOT
ATOM      1  N1  IND d   1      -1.015  -2.476   0.685  0.00  0.00    -0.196 N 
ATOM      2  C2  IND d   1      -2.240  -2.890   0.243  0.00  0.00     0.054 A 
ATOM      3  C3  IND d   1      -2.753  -1.994  -0.629  0.00  0.00    -0.031 A 
ATOM      4  C4  IND d   1      -1.712   0.173  -1.551  0.00  0.00     0.051 A 
ATOM      5  C5  IND d   1      -0.623   0.987  -1.414  0.00  0.00    -0.031 A 
ATOM      6  C6  IND d   1       0.413   0.681  -0.556  0.00  0.00     0.015 A 
ATOM      7  C7  IND d   1       0.404  -0.461   0.193  0.00  0.00    -0.016 A 
ATOM      8  C8  IND d   1      -0.703  -1.287   0.062  0.00  0.00    -0.047 A 
ATOM      9  C9  IND d   1      -1.777  -0.961  -0.775  0.00  0.00    -0.096 A 
ATOM     10  HN1 IND d   1      -0.522  -2.888   1.256  0.00  0.00     0.298 HD
ENDROOT
TORSDOF 0
ENDMDL
