MODEL 1
REMARK minimizedAffinity -0.0681375638
REMARK minimizedRMSD -1
REMARK  0 active torsions:
REMARK  status: ('A' for Active; 'I' for Inactive)
ROOT
ATOM      1  N1  IND d   1      -0.256  -2.406   1.366  0.00  0.00    -0.196 N 
ATOM      2  C2  IND d   1      -1.089  -3.484   1.257  0.00  0.00     0.054 A 
ATOM      3  C3  IND d   1      -1.924  -3.328   0.205  0.00  0.00    -0.031 A 
ATOM      4  C4  IND d   1      -2.029  -1.431  -1.533  0.00  0.00     0.051 A 
ATOM      5  C5  IND d   1      -1.492  -0.209  -1.827  0.00  0.00    -0.031 A 
ATOM      6  C6  IND d   1      -0.493   0.353  -1.059  0.00  0.00     0.015 A 
ATOM      7  C7  IND d   1       0.016  -0.294   0.032  0.00  0.00    -0.016 A 
ATOM      8  C8  IND d   1      -0.532  -1.532   0.338  0.00  0.00    -0.047 A 
ATOM      9  C9  IND d   1      -1.575  -2.088  -0.413  0.00  0.00    -0.096 A 
ATOM     10  HN1 IND d   1       0.341  -2.293   1.975  0.00  0.00     0.298 HD
ENDROOT
TORSDOF 0
ENDMDL
