MODEL 1
REMARK minimizedAffinity -2.8885088
REMARK minimizedRMSD -1
REMARK  0 active torsions:
REMARK  status: ('A' for Active; 'I' for Inactive)
ROOT
ATOM      1  N1  IND d   1      -1.127  -0.974  -0.422  0.00  0.00    -0.196 N 
ATOM      2  C2  IND d   1      -1.567  -0.203  -1.462  0.00  0.00     0.054 A 
ATOM      3  C3  IND d   1      -0.759   0.868  -1.627  0.00  0.00    -0.031 A 
ATOM      4  C4  IND d   1       1.397   1.501  -0.372  0.00  0.00     0.051 A 
ATOM      5  C5  IND d   1       2.179   1.124   0.683  0.00  0.00    -0.031 A 
ATOM      6  C6  IND d   1       1.895   0.004   1.438  0.00  0.00     0.015 A 
ATOM      7  C7  IND d   1       0.820  -0.790   1.157  0.00  0.00    -0.016 A 
ATOM      8  C8  IND d   1       0.020  -0.406   0.090  0.00  0.00    -0.047 A 
ATOM      9  C9  IND d   1       0.279   0.753  -0.653  0.00  0.00    -0.096 A 
ATOM     10  HN1 IND d   1      -1.502  -1.692  -0.135  0.00  0.00     0.298 HD
ENDROOT
TORSDOF 0
ENDMDL
