MODEL 1
REMARK minimizedAffinity -0.0757420883
REMARK minimizedRMSD -1
REMARK  0 active torsions:
REMARK  status: ('A' for Active; 'I' for Inactive)
ROOT
ATOM      1  N1  IND d   1      -0.667  -0.096  -1.858  0.00  0.00    -0.196 N 
ATOM      2  C2  IND d   1      -1.537   0.675  -2.577  0.00  0.00     0.054 A 
ATOM      3  C3  IND d   1      -2.793   0.541  -2.095  0.00  0.00    -0.031 A 
ATOM      4  C4  IND d   1      -3.633  -0.810  -0.071  0.00  0.00     0.051 A 
ATOM      5  C5  IND d   1      -3.216  -1.703   0.876  0.00  0.00    -0.031 A 
ATOM      6  C6  IND d   1      -1.901  -2.112   0.964  0.00  0.00     0.015 A 
ATOM      7  C7  IND d   1      -0.948  -1.632   0.111  0.00  0.00    -0.016 A 
ATOM      8  C8  IND d   1      -1.369  -0.731  -0.856  0.00  0.00    -0.047 A 
ATOM      9  C9  IND d   1      -2.710  -0.345  -0.977  0.00  0.00    -0.096 A 
ATOM     10  HN1 IND d   1       0.176  -0.172  -2.006  0.00  0.00     0.298 HD
ENDROOT
TORSDOF 0
ENDMDL
