MODEL 1
REMARK minimizedAffinity 0.995096147
REMARK minimizedRMSD -1
REMARK  0 active torsions:
REMARK  status: ('A' for Active; 'I' for Inactive)
ROOT
ATOM      1  N1  IND d   1       1.117  -1.775   1.912  0.00  0.00    -0.196 N 
ATOM      2  C2  IND d   1      -0.171  -2.222   1.806  0.00  0.00     0.054 A 
ATOM      3  C3  IND d   1      -0.865  -1.453   0.938  0.00  0.00    -0.031 A 
ATOM      4  C4  IND d   1      -0.062   0.527  -0.498  0.00  0.00     0.051 A 
ATOM      5  C5  IND d   1       1.024   1.326  -0.719  0.00  0.00    -0.031 A 
ATOM      6  C6  IND d   1       2.222   1.128  -0.062  0.00  0.00     0.015 A 
ATOM      7  C7  IND d   1       2.382   0.110   0.835  0.00  0.00    -0.016 A 
ATOM      8  C8  IND d   1       1.279  -0.700   1.066  0.00  0.00    -0.047 A 
ATOM      9  C9  IND d   1       0.049  -0.477   0.435  0.00  0.00    -0.096 A 
ATOM     10  HN1 IND d   1       1.723  -2.110   2.422  0.00  0.00     0.298 HD
ENDROOT
TORSDOF 0
ENDMDL
