MODEL 1
REMARK minimizedAffinity -4.45228672
REMARK minimizedRMSD -1
REMARK  0 active torsions:
REMARK  status: ('A' for Active; 'I' for Inactive)
ROOT
ATOM      1  N1  IND d   1       2.781   1.741   0.831  0.00  0.00    -0.196 N 
ATOM      2  C2  IND d   1       2.570   3.019   1.269  0.00  0.00     0.054 A 
ATOM      3  C3  IND d   1       1.300   3.403   1.005  0.00  0.00    -0.031 A 
ATOM      4  C4  IND d   1      -0.629   2.061  -0.046  0.00  0.00     0.051 A 
ATOM      5  C5  IND d   1      -0.909   0.862  -0.639  0.00  0.00    -0.031 A 
ATOM      6  C6  IND d   1       0.044  -0.126  -0.773  0.00  0.00     0.015 A 
ATOM      7  C7  IND d   1       1.317   0.045  -0.306  0.00  0.00    -0.016 A 
ATOM      8  C8  IND d   1       1.607   1.263   0.290  0.00  0.00    -0.047 A 
ATOM      9  C9  IND d   1       0.655   2.286   0.391  0.00  0.00    -0.096 A 
ATOM     10  HN1 IND d   1       3.522   1.309   0.883  0.00  0.00     0.298 HD
ENDROOT
TORSDOF 0
ENDMDL
