MODEL 1
REMARK minimizedAffinity 0.787249267
REMARK minimizedRMSD -1
REMARK  0 active torsions:
REMARK  status: ('A' for Active; 'I' for Inactive)
ROOT
ATOM      1  N1  IND d   1       1.152   0.054   1.080  0.00  0.00    -0.196 N 
ATOM      2  C2  IND d   1       1.845   1.001   0.379  0.00  0.00     0.054 A 
ATOM      3  C3  IND d   1       1.204   1.294  -0.775  0.00  0.00    -0.031 A 
ATOM      4  C4  IND d   1      -1.046   0.416  -1.665  0.00  0.00     0.051 A 
ATOM      5  C5  IND d   1      -2.032  -0.490  -1.393  0.00  0.00    -0.031 A 
ATOM      6  C6  IND d   1      -2.008  -1.276  -0.259  0.00  0.00     0.015 A 
ATOM      7  C7  IND d   1      -0.999  -1.175   0.656  0.00  0.00    -0.016 A 
ATOM      8  C8  IND d   1       0.008  -0.261   0.380  0.00  0.00    -0.047 A 
ATOM      9  C9  IND d   1       0.011   0.509  -0.791  0.00  0.00    -0.096 A 
ATOM     10  HN1 IND d   1       1.390  -0.287   1.833  0.00  0.00     0.298 HD
ENDROOT
TORSDOF 0
ENDMDL
