MODEL 1
REMARK minimizedAffinity 0.519547403
REMARK minimizedRMSD -1
REMARK  1 active torsions:
REMARK  status: ('A' for Active; 'I' for Inactive)
REMARK    1  A    between atoms: C1_2  and  C2_3 
ROOT
ATOM      1  C2  UNL d   1      -4.608   1.656  -5.977  0.00  0.00    -0.077 A 
ATOM      2  C3  UNL d   1      -3.220   1.852  -6.000  0.00  0.00     0.002 A 
ATOM      3  C4  UNL d   1      -2.687   3.140  -5.932  0.00  0.00     0.002 A 
ATOM      4  C5  UNL d   1      -3.534   4.242  -5.837  0.00  0.00    -0.004 A 
ATOM      5  C6  UNL d   1      -4.916   4.058  -5.816  0.00  0.00     0.002 A 
ATOM      6  C7  UNL d   1      -5.451   2.771  -5.884  0.00  0.00     0.002 A 
ENDROOT
BRANCH   1   7
ATOM      7  C1  UNL d   1      -5.184   0.264  -6.000  0.00  0.00     0.055 C 
ATOM      8  C   UNL d   1      -4.085  -0.789  -5.993  0.00  0.00     0.019 C 
ENDBRANCH   1   7
TORSDOF 1
ENDMDL
