MODEL 1
REMARK minimizedAffinity 3.10653996
REMARK minimizedRMSD -1
REMARK  1 active torsions:
REMARK  status: ('A' for Active; 'I' for Inactive)
REMARK    1  A    between atoms: C1_2  and  C2_3 
ROOT
ATOM      1  C2  UNL d   1      -5.242  -0.539  -5.967  0.00  0.00    -0.077 A 
ATOM      2  C3  UNL d   1      -5.941  -1.754  -5.999  0.00  0.00     0.002 A 
ATOM      3  C4  UNL d   1      -5.252  -2.967  -5.960  0.00  0.00     0.002 A 
ATOM      4  C5  UNL d   1      -3.861  -2.978  -5.883  0.00  0.00    -0.004 A 
ATOM      5  C6  UNL d   1      -3.156  -1.775  -5.852  0.00  0.00     0.002 A 
ATOM      6  C7  UNL d   1      -3.843  -0.561  -5.893  0.00  0.00     0.002 A 
ENDROOT
BRANCH   1   7
ATOM      7  C1  UNL d   1      -5.986   0.771  -5.960  0.00  0.00     0.055 C 
ATOM      8  C   UNL d   1      -5.028   1.952  -5.999  0.00  0.00     0.019 C 
ENDBRANCH   1   7
TORSDOF 1
ENDMDL
