MODEL 1
REMARK minimizedAffinity 5.5201292
REMARK minimizedRMSD -1
REMARK  1 active torsions:
REMARK  status: ('A' for Active; 'I' for Inactive)
REMARK    1  A    between atoms: C1_2  and  C2_3 
ROOT
ATOM      1  C2  UNL d   1      -3.178   2.049  -5.966  0.00  0.00    -0.077 A 
ATOM      2  C3  UNL d   1      -4.553   1.778  -5.980  0.00  0.00     0.002 A 
ATOM      3  C4  UNL d   1      -5.479   2.823  -5.994  0.00  0.00     0.002 A 
ATOM      4  C5  UNL d   1      -5.040   4.145  -5.999  0.00  0.00    -0.004 A 
ATOM      5  C6  UNL d   1      -3.674   4.425  -5.983  0.00  0.00     0.002 A 
ATOM      6  C7  UNL d   1      -2.747   3.381  -5.967  0.00  0.00     0.002 A 
ENDROOT
BRANCH   1   7
ATOM      7  C1  UNL d   1      -2.178   0.923  -6.000  0.00  0.00     0.055 C 
ATOM      8  C   UNL d   1      -0.780   1.413  -5.653  0.00  0.00     0.019 C 
ENDBRANCH   1   7
TORSDOF 1
ENDMDL
