MODEL 1
REMARK minimizedAffinity -1.26129329
REMARK minimizedRMSD -1
REMARK  1 active torsions:
REMARK  status: ('A' for Active; 'I' for Inactive)
REMARK    1  A    between atoms: C1_2  and  C2_3 
ROOT
ATOM      1  C2  UNL d   1      -3.929   3.498  -6.000  0.00  0.00    -0.077 A 
ATOM      2  C3  UNL d   1      -4.455   2.198  -5.999  0.00  0.00     0.002 A 
ATOM      3  C4  UNL d   1      -3.604   1.091  -5.998  0.00  0.00     0.002 A 
ATOM      4  C5  UNL d   1      -2.223   1.273  -5.992  0.00  0.00    -0.004 A 
ATOM      5  C6  UNL d   1      -1.689   2.561  -5.995  0.00  0.00     0.002 A 
ATOM      6  C7  UNL d   1      -2.538   3.668  -5.997  0.00  0.00     0.002 A 
ENDROOT
BRANCH   1   7
ATOM      7  C1  UNL d   1      -4.845   4.693  -5.952  0.00  0.00     0.055 C 
ATOM      8  C   UNL d   1      -4.057   5.995  -5.957  0.00  0.00     0.019 C 
ENDBRANCH   1   7
TORSDOF 1
ENDMDL
