MODEL 1
REMARK minimizedAffinity 0.121185027
REMARK minimizedRMSD -1
REMARK  1 active torsions:
REMARK  status: ('A' for Active; 'I' for Inactive)
REMARK    1  A    between atoms: C1_2  and  C2_3 
ROOT
ATOM      1  C2  UNL d   1      -4.138   2.633  -5.954  0.00  0.00    -0.077 A 
ATOM      2  C3  UNL d   1      -5.408   2.038  -5.970  0.00  0.00     0.002 A 
ATOM      3  C4  UNL d   1      -5.536   0.648  -5.995  0.00  0.00     0.002 A 
ATOM      4  C5  UNL d   1      -4.399  -0.158  -6.000  0.00  0.00    -0.004 A 
ATOM      5  C6  UNL d   1      -3.132   0.424  -5.986  0.00  0.00     0.002 A 
ATOM      6  C7  UNL d   1      -3.003   1.813  -5.963  0.00  0.00     0.002 A 
ENDROOT
BRANCH   1   7
ATOM      7  C1  UNL d   1      -3.999   4.131  -5.878  0.00  0.00     0.055 C 
ATOM      8  C   UNL d   1      -2.547   4.542  -5.675  0.00  0.00     0.019 C 
ENDBRANCH   1   7
TORSDOF 1
ENDMDL
