MODEL 1
REMARK minimizedAffinity -3.20547509
REMARK minimizedRMSD -1
REMARK  1 active torsions:
REMARK  status: ('A' for Active; 'I' for Inactive)
REMARK    1  A    between atoms: C1_2  and  C2_3 
ROOT
ATOM      1  C2  UNL d   1      -4.188   0.748  -5.914  0.00  0.00    -0.077 A 
ATOM      2  C3  UNL d   1      -2.863   1.206  -5.905  0.00  0.00     0.002 A 
ATOM      3  C4  UNL d   1      -2.588   2.571  -5.799  0.00  0.00     0.002 A 
ATOM      4  C5  UNL d   1      -3.632   3.487  -5.696  0.00  0.00    -0.004 A 
ATOM      5  C6  UNL d   1      -4.954   3.042  -5.706  0.00  0.00     0.002 A 
ATOM      6  C7  UNL d   1      -5.230   1.678  -5.813  0.00  0.00     0.002 A 
ENDROOT
BRANCH   1   7
ATOM      7  C1  UNL d   1      -4.486  -0.727  -5.979  0.00  0.00     0.055 C 
ATOM      8  C   UNL d   1      -3.205  -1.550  -5.995  0.00  0.00     0.019 C 
ENDBRANCH   1   7
TORSDOF 1
ENDMDL
