MODEL 1
REMARK minimizedAffinity -3.32094789
REMARK minimizedRMSD -1
REMARK  1 active torsions:
REMARK  status: ('A' for Active; 'I' for Inactive)
REMARK    1  A    between atoms: C1_2  and  C2_3 
ROOT
ATOM      1  C2  UNL d   1      -3.462   1.419  -5.999  0.00  0.00    -0.077 A 
ATOM      2  C3  UNL d   1      -2.540   2.476  -5.989  0.00  0.00     0.002 A 
ATOM      3  C4  UNL d   1      -2.983   3.799  -5.943  0.00  0.00     0.002 A 
ATOM      4  C5  UNL d   1      -4.348   4.078  -5.902  0.00  0.00    -0.004 A 
ATOM      5  C6  UNL d   1      -5.272   3.034  -5.913  0.00  0.00     0.002 A 
ATOM      6  C7  UNL d   1      -4.831   1.711  -5.961  0.00  0.00     0.002 A 
ENDROOT
BRANCH   1   7
ATOM      7  C1  UNL d   1      -2.985  -0.010  -5.999  0.00  0.00     0.055 C 
ATOM      8  C   UNL d   1      -4.154  -0.983  -5.995  0.00  0.00     0.019 C 
ENDBRANCH   1   7
TORSDOF 1
ENDMDL
