MODEL 1
REMARK minimizedAffinity 0.811142981
REMARK minimizedRMSD -1
REMARK  1 active torsions:
REMARK  status: ('A' for Active; 'I' for Inactive)
REMARK    1  A    between atoms: C1_2  and  C2_3 
ROOT
ATOM      1  C2  UNL d   1      -3.715   2.917  -5.842  0.00  0.00    -0.077 A 
ATOM      2  C3  UNL d   1      -2.388   2.468  -5.787  0.00  0.00     0.002 A 
ATOM      3  C4  UNL d   1      -2.101   1.102  -5.828  0.00  0.00     0.002 A 
ATOM      4  C5  UNL d   1      -3.136   0.175  -5.930  0.00  0.00    -0.004 A 
ATOM      5  C6  UNL d   1      -4.459   0.611  -5.983  0.00  0.00     0.002 A 
ATOM      6  C7  UNL d   1      -4.747   1.976  -5.940  0.00  0.00     0.002 A 
ENDROOT
BRANCH   1   7
ATOM      7  C1  UNL d   1      -4.023   4.391  -5.847  0.00  0.00     0.055 C 
ATOM      8  C   UNL d   1      -2.766   5.220  -5.624  0.00  0.00     0.019 C 
ENDBRANCH   1   7
TORSDOF 1
ENDMDL
