MODEL 1
REMARK minimizedAffinity -0.995249927
REMARK minimizedRMSD -1
REMARK  1 active torsions:
REMARK  status: ('A' for Active; 'I' for Inactive)
REMARK    1  A    between atoms: C1_2  and  C2_3 
ROOT
ATOM      1  C2  UNL d   1       1.049   0.977   0.050  0.00  0.00    -0.077 A 
ATOM      2  C3  UNL d   1       2.215   0.897  -0.724  0.00  0.00     0.002 A 
ATOM      3  C4  UNL d   1       2.225   0.166  -1.914  0.00  0.00     0.002 A 
ATOM      4  C5  UNL d   1       1.071  -0.487  -2.342  0.00  0.00    -0.004 A 
ATOM      5  C6  UNL d   1      -0.093  -0.416  -1.578  0.00  0.00     0.002 A 
ATOM      6  C7  UNL d   1      -0.105   0.314  -0.388  0.00  0.00     0.002 A 
ENDROOT
BRANCH   1   7
ATOM      7  C1  UNL d   1       1.022   1.806   1.307  0.00  0.00     0.055 C 
ATOM      8  C   UNL d   1       1.780   3.113   1.125  0.00  0.00     0.019 C 
ENDBRANCH   1   7
TORSDOF 1
ENDMDL
