MODEL 1
REMARK minimizedAffinity 10.4236565
REMARK minimizedRMSD -1
REMARK  0 active torsions:
REMARK  status: ('A' for Active; 'I' for Inactive)
ROOT
ATOM      1  C   UNL d   1      -0.275   1.919   2.992  0.00  0.00     0.020 A 
ATOM      2  C1  UNL d   1      -0.403   0.903   2.046  0.00  0.00     0.020 A 
ATOM      3  C2  UNL d   1      -1.651   0.325   1.805  0.00  0.00     0.034 A 
ATOM      4  C3  UNL d   1      -2.777   0.763   2.512  0.00  0.00     0.017 A 
ATOM      5  C4  UNL d   1      -2.648   1.783   3.461  0.00  0.00     0.017 A 
ATOM      6  C5  UNL d   1      -1.396   2.358   3.698  0.00  0.00     0.034 A 
ATOM      7 Cl   UNL d   1      -3.992   2.377   4.372  0.00  0.00    -0.070 Cl
ATOM      8 Cl1  UNL d   1      -4.290   0.004   2.163  0.00  0.00    -0.070 Cl
ENDROOT
TORSDOF 0
ENDMDL
