MODEL 1
REMARK minimizedAffinity 11.8128109
REMARK minimizedRMSD -1
REMARK  0 active torsions:
REMARK  status: ('A' for Active; 'I' for Inactive)
ROOT
ATOM      1  C   UNL d   1       1.818  -1.574  -0.195  0.00  0.00     0.020 A 
ATOM      2  C1  UNL d   1       2.822  -0.616  -0.067  0.00  0.00     0.020 A 
ATOM      3  C2  UNL d   1       4.104  -0.997   0.337  0.00  0.00     0.034 A 
ATOM      4  C3  UNL d   1       4.384  -2.340   0.614  0.00  0.00     0.017 A 
ATOM      5  C4  UNL d   1       3.375  -3.301   0.485  0.00  0.00     0.017 A 
ATOM      6  C5  UNL d   1       2.094  -2.914   0.080  0.00  0.00     0.034 A 
ATOM      7 Cl   UNL d   1       3.645  -4.978   0.809  0.00  0.00    -0.070 Cl
ATOM      8 Cl1  UNL d   1       5.990  -2.740   1.108  0.00  0.00    -0.070 Cl
ENDROOT
TORSDOF 0
ENDMDL
