MODEL 1
REMARK minimizedAffinity 13.227088
REMARK minimizedRMSD -1
REMARK  0 active torsions:
REMARK  status: ('A' for Active; 'I' for Inactive)
ROOT
ATOM      1  C   UNL d   1      -0.803   2.164   2.464  0.00  0.00     0.020 A 
ATOM      2  C1  UNL d   1      -0.345   0.847   2.515  0.00  0.00     0.020 A 
ATOM      3  C2  UNL d   1      -1.217  -0.181   2.878  0.00  0.00     0.034 A 
ATOM      4  C3  UNL d   1      -2.551   0.104   3.192  0.00  0.00     0.017 A 
ATOM      5  C4  UNL d   1      -3.009   1.426   3.141  0.00  0.00     0.017 A 
ATOM      6  C5  UNL d   1      -2.132   2.452   2.776  0.00  0.00     0.034 A 
ATOM      7 Cl   UNL d   1      -4.641   1.856   3.514  0.00  0.00    -0.070 Cl
ATOM      8 Cl1  UNL d   1      -3.573  -1.217   3.633  0.00  0.00    -0.070 Cl
ENDROOT
TORSDOF 0
ENDMDL
