MODEL 1
REMARK minimizedAffinity 9.72319031
REMARK minimizedRMSD -1
REMARK  0 active torsions:
REMARK  status: ('A' for Active; 'I' for Inactive)
ROOT
ATOM      1  C   UNL d   1       2.329   0.719  -2.215  0.00  0.00     0.020 A 
ATOM      2  C1  UNL d   1       2.974   0.637  -0.982  0.00  0.00     0.020 A 
ATOM      3  C2  UNL d   1       2.907  -0.541  -0.236  0.00  0.00     0.034 A 
ATOM      4  C3  UNL d   1       2.193  -1.642  -0.722  0.00  0.00     0.017 A 
ATOM      5  C4  UNL d   1       1.546  -1.559  -1.960  0.00  0.00     0.017 A 
ATOM      6  C5  UNL d   1       1.617  -0.377  -2.703  0.00  0.00     0.034 A 
ATOM      7 Cl   UNL d   1       0.646  -2.876  -2.625  0.00  0.00    -0.070 Cl
ATOM      8 Cl1  UNL d   1       2.152  -3.067   0.254  0.00  0.00    -0.070 Cl
ENDROOT
TORSDOF 0
ENDMDL
