MODEL 1
REMARK minimizedAffinity 7.46312284
REMARK minimizedRMSD -1
REMARK  0 active torsions:
REMARK  status: ('A' for Active; 'I' for Inactive)
ROOT
ATOM      1  C   UNL d   1      -0.715   1.258   2.021  0.00  0.00     0.020 A 
ATOM      2  C1  UNL d   1       0.237   1.752   2.912  0.00  0.00     0.020 A 
ATOM      3  C2  UNL d   1       1.594   1.692   2.587  0.00  0.00     0.034 A 
ATOM      4  C3  UNL d   1       2.002   1.136   1.369  0.00  0.00     0.017 A 
ATOM      5  C4  UNL d   1       1.046   0.641   0.476  0.00  0.00     0.017 A 
ATOM      6  C5  UNL d   1      -0.312   0.704   0.806  0.00  0.00     0.034 A 
ATOM      7 Cl   UNL d   1       1.472  -0.059  -1.046  0.00  0.00    -0.070 Cl
ATOM      8 Cl1  UNL d   1       3.697   1.094   1.033  0.00  0.00    -0.070 Cl
ENDROOT
TORSDOF 0
ENDMDL
