MODEL 1
REMARK minimizedAffinity 14.1618958
REMARK minimizedRMSD -1
REMARK  0 active torsions:
REMARK  status: ('A' for Active; 'I' for Inactive)
ROOT
ATOM      1  C   UNL d   1       1.444  -0.017  -1.947  0.00  0.00     0.020 A 
ATOM      2  C1  UNL d   1       1.669  -1.377  -2.154  0.00  0.00     0.020 A 
ATOM      3  C2  UNL d   1       2.583  -2.064  -1.352  0.00  0.00     0.034 A 
ATOM      4  C3  UNL d   1       3.274  -1.391  -0.338  0.00  0.00     0.017 A 
ATOM      5  C4  UNL d   1       3.047  -0.026  -0.131  0.00  0.00     0.017 A 
ATOM      6  C5  UNL d   1       2.131   0.657  -0.937  0.00  0.00     0.034 A 
ATOM      7 Cl   UNL d   1       3.862   0.873   1.100  0.00  0.00    -0.070 Cl
ATOM      8 Cl1  UNL d   1       4.389  -2.303   0.616  0.00  0.00    -0.070 Cl
ENDROOT
TORSDOF 0
ENDMDL
