MODEL 1
REMARK minimizedAffinity 15.1729746
REMARK minimizedRMSD -1
REMARK  0 active torsions:
REMARK  status: ('A' for Active; 'I' for Inactive)
ROOT
ATOM      1  C   UNL d   1       1.863   0.152  -0.439  0.00  0.00     0.020 A 
ATOM      2  C1  UNL d   1       1.124   0.171  -1.622  0.00  0.00     0.020 A 
ATOM      3  C2  UNL d   1       0.860  -1.020  -2.300  0.00  0.00     0.034 A 
ATOM      4  C3  UNL d   1       1.335  -2.237  -1.797  0.00  0.00     0.017 A 
ATOM      5  C4  UNL d   1       2.077  -2.255  -0.610  0.00  0.00     0.017 A 
ATOM      6  C5  UNL d   1       2.339  -1.059   0.065  0.00  0.00     0.034 A 
ATOM      7 Cl   UNL d   1       2.697  -3.717   0.073  0.00  0.00    -0.070 Cl
ATOM      8 Cl1  UNL d   1       0.971  -3.672  -2.687  0.00  0.00    -0.070 Cl
ENDROOT
TORSDOF 0
ENDMDL
