MODEL 1
REMARK minimizedAffinity 10.650032
REMARK minimizedRMSD -1
REMARK  0 active torsions:
REMARK  status: ('A' for Active; 'I' for Inactive)
ROOT
ATOM      1  C   UNL d   1      -0.144   1.749   2.264  0.00  0.00     0.020 A 
ATOM      2  C1  UNL d   1      -0.200   0.659   1.396  0.00  0.00     0.020 A 
ATOM      3  C2  UNL d   1      -1.394  -0.047   1.239  0.00  0.00     0.034 A 
ATOM      4  C3  UNL d   1      -2.537   0.335   1.951  0.00  0.00     0.017 A 
ATOM      5  C4  UNL d   1      -2.480   1.430   2.821  0.00  0.00     0.017 A 
ATOM      6  C5  UNL d   1      -1.282   2.134   2.975  0.00  0.00     0.034 A 
ATOM      7 Cl   UNL d   1      -3.849   1.961   3.733  0.00  0.00    -0.070 Cl
ATOM      8 Cl1  UNL d   1      -3.980  -0.584   1.707  0.00  0.00    -0.070 Cl
ENDROOT
TORSDOF 0
ENDMDL
