MODEL 1
REMARK minimizedAffinity 6.81411695
REMARK minimizedRMSD -1
REMARK  0 active torsions:
REMARK  status: ('A' for Active; 'I' for Inactive)
ROOT
ATOM      1  C   UNL d   1       4.587  -0.458   0.082  0.00  0.00     0.020 A 
ATOM      2  C1  UNL d   1       3.611  -1.450   0.178  0.00  0.00     0.020 A 
ATOM      3  C2  UNL d   1       2.383  -1.285  -0.466  0.00  0.00     0.034 A 
ATOM      4  C3  UNL d   1       2.127  -0.126  -1.208  0.00  0.00     0.017 A 
ATOM      5  C4  UNL d   1       3.107   0.869  -1.303  0.00  0.00     0.017 A 
ATOM      6  C5  UNL d   1       4.335   0.698  -0.656  0.00  0.00     0.034 A 
ATOM      7 Cl   UNL d   1       2.864   2.326  -2.199  0.00  0.00    -0.070 Cl
ATOM      8 Cl1  UNL d   1       0.586   0.011  -1.978  0.00  0.00    -0.070 Cl
ENDROOT
TORSDOF 0
ENDMDL
