MODEL 1
REMARK minimizedAffinity 17.0897408
REMARK minimizedRMSD -1
REMARK  0 active torsions:
REMARK  status: ('A' for Active; 'I' for Inactive)
ROOT
ATOM      1  C   UNL d   1       1.747   1.104   1.978  0.00  0.00     0.020 A 
ATOM      2  C1  UNL d   1       2.384   1.376   3.188  0.00  0.00     0.020 A 
ATOM      3  C2  UNL d   1       1.635   1.777   4.297  0.00  0.00     0.034 A 
ATOM      4  C3  UNL d   1       0.245   1.907   4.198  0.00  0.00     0.017 A 
ATOM      5  C4  UNL d   1      -0.393   1.634   2.983  0.00  0.00     0.017 A 
ATOM      6  C5  UNL d   1       0.361   1.233   1.876  0.00  0.00     0.034 A 
ATOM      7 Cl   UNL d   1      -2.105   1.773   2.784  0.00  0.00    -0.070 Cl
ATOM      8 Cl1  UNL d   1      -0.617   2.407   5.609  0.00  0.00    -0.070 Cl
ENDROOT
TORSDOF 0
ENDMDL
