MODEL 1
REMARK minimizedAffinity 12.7009697
REMARK minimizedRMSD -1
REMARK  0 active torsions:
REMARK  status: ('A' for Active; 'I' for Inactive)
ROOT
ATOM      1  C   UNL d   1       4.287   1.160  -0.158  0.00  0.00     0.020 A 
ATOM      2  C1  UNL d   1       3.584   1.673  -1.248  0.00  0.00     0.020 A 
ATOM      3  C2  UNL d   1       2.715   0.851  -1.968  0.00  0.00     0.034 A 
ATOM      4  C3  UNL d   1       2.546  -0.489  -1.600  0.00  0.00     0.017 A 
ATOM      5  C4  UNL d   1       3.251  -1.003  -0.506  0.00  0.00     0.017 A 
ATOM      6  C5  UNL d   1       4.120  -0.176   0.212  0.00  0.00     0.034 A 
ATOM      7 Cl   UNL d   1       3.095  -2.646   0.008  0.00  0.00    -0.070 Cl
ATOM      8 Cl1  UNL d   1       1.455  -1.447  -2.536  0.00  0.00    -0.070 Cl
ENDROOT
TORSDOF 0
ENDMDL
