MODEL 1
REMARK minimizedAffinity 12.7874651
REMARK minimizedRMSD -1
REMARK  0 active torsions:
REMARK  status: ('A' for Active; 'I' for Inactive)
ROOT
ATOM      1  C   UNL d   1       4.149  -1.925   0.945  0.00  0.00     0.020 A 
ATOM      2  C1  UNL d   1       3.344  -2.767   0.178  0.00  0.00     0.020 A 
ATOM      3  C2  UNL d   1       2.501  -2.230  -0.797  0.00  0.00     0.034 A 
ATOM      4  C3  UNL d   1       2.462  -0.847  -1.010  0.00  0.00     0.017 A 
ATOM      5  C4  UNL d   1       3.271  -0.003  -0.240  0.00  0.00     0.017 A 
ATOM      6  C5  UNL d   1       4.112  -0.546   0.736  0.00  0.00     0.034 A 
ATOM      7 Cl   UNL d   1       3.277   1.714  -0.444  0.00  0.00    -0.070 Cl
ATOM      8 Cl1  UNL d   1       1.398  -0.252  -2.234  0.00  0.00    -0.070 Cl
ENDROOT
TORSDOF 0
ENDMDL
