MODEL 1
REMARK minimizedAffinity 8.45397472
REMARK minimizedRMSD -1
REMARK  0 active torsions:
REMARK  status: ('A' for Active; 'I' for Inactive)
ROOT
ATOM      1  C   UNL d   1       1.650   0.435  -1.839  0.00  0.00     0.020 A 
ATOM      2  C1  UNL d   1       1.679  -0.918  -2.171  0.00  0.00     0.020 A 
ATOM      3  C2  UNL d   1       2.427  -1.810  -1.399  0.00  0.00     0.034 A 
ATOM      4  C3  UNL d   1       3.148  -1.350  -0.291  0.00  0.00     0.017 A 
ATOM      5  C4  UNL d   1       3.117   0.010   0.041  0.00  0.00     0.017 A 
ATOM      6  C5  UNL d   1       2.367   0.898  -0.735  0.00  0.00     0.034 A 
ATOM      7 Cl   UNL d   1       3.981   0.653   1.393  0.00  0.00    -0.070 Cl
ATOM      8 Cl1  UNL d   1       4.050  -2.509   0.619  0.00  0.00    -0.070 Cl
ENDROOT
TORSDOF 0
ENDMDL
