MODEL 1
REMARK minimizedAffinity 8.99484825
REMARK minimizedRMSD -1
REMARK  0 active torsions:
REMARK  status: ('A' for Active; 'I' for Inactive)
ROOT
ATOM      1  C   UNL d   1      -4.044  -3.133  -4.754  0.00  0.00     0.020 A 
ATOM      2  C1  UNL d   1      -3.009  -2.297  -5.170  0.00  0.00     0.020 A 
ATOM      3  C2  UNL d   1      -1.772  -2.342  -4.523  0.00  0.00     0.034 A 
ATOM      4  C3  UNL d   1      -1.567  -3.226  -3.456  0.00  0.00     0.017 A 
ATOM      5  C4  UNL d   1      -2.607  -4.065  -3.040  0.00  0.00     0.017 A 
ATOM      6  C5  UNL d   1      -3.844  -4.015  -3.691  0.00  0.00     0.034 A 
ATOM      7 Cl   UNL d   1      -2.430  -5.180  -1.732  0.00  0.00    -0.070 Cl
ATOM      8 Cl1  UNL d   1      -0.013  -3.229  -2.703  0.00  0.00    -0.070 Cl
ENDROOT
TORSDOF 0
ENDMDL
