MODEL 1
REMARK minimizedAffinity 15.115984
REMARK minimizedRMSD -1
REMARK  0 active torsions:
REMARK  status: ('A' for Active; 'I' for Inactive)
ROOT
ATOM      1  C   UNL d   1       2.038  -1.724  -1.508  0.00  0.00     0.020 A 
ATOM      2  C1  UNL d   1       2.476  -2.018  -0.218  0.00  0.00     0.020 A 
ATOM      3  C2  UNL d   1       3.701  -2.661  -0.026  0.00  0.00     0.034 A 
ATOM      4  C3  UNL d   1       4.492  -3.011  -1.126  0.00  0.00     0.017 A 
ATOM      5  C4  UNL d   1       4.052  -2.716  -2.421  0.00  0.00     0.017 A 
ATOM      6  C5  UNL d   1       2.825  -2.072  -2.607  0.00  0.00     0.034 A 
ATOM      7 Cl   UNL d   1       4.973  -3.118  -3.827  0.00  0.00    -0.070 Cl
ATOM      8 Cl1  UNL d   1       5.996  -3.804  -0.814  0.00  0.00    -0.070 Cl
ENDROOT
TORSDOF 0
ENDMDL
