MODEL 1
REMARK minimizedAffinity 12.6160488
REMARK minimizedRMSD -1
REMARK  0 active torsions:
REMARK  status: ('A' for Active; 'I' for Inactive)
ROOT
ATOM      1  C   UNL d   1      -3.714  -2.456  -6.000  0.00  0.00     0.020 A 
ATOM      2  C1  UNL d   1      -4.742  -3.208  -5.432  0.00  0.00     0.020 A 
ATOM      3  C2  UNL d   1      -4.484  -4.020  -4.326  0.00  0.00     0.034 A 
ATOM      4  C3  UNL d   1      -3.196  -4.082  -3.783  0.00  0.00     0.017 A 
ATOM      5  C4  UNL d   1      -2.165  -3.327  -4.353  0.00  0.00     0.017 A 
ATOM      6  C5  UNL d   1      -2.428  -2.515  -5.461  0.00  0.00     0.034 A 
ATOM      7 Cl   UNL d   1      -0.549  -3.351  -3.739  0.00  0.00    -0.070 Cl
ATOM      8 Cl1  UNL d   1      -2.949  -5.107  -2.414  0.00  0.00    -0.070 Cl
ENDROOT
TORSDOF 0
ENDMDL
