MODEL 1
REMARK minimizedAffinity 17.4401722
REMARK minimizedRMSD -1
REMARK  0 active torsions:
REMARK  status: ('A' for Active; 'I' for Inactive)
ROOT
ATOM      1  C   UNL d   1      -0.849   2.354   2.699  0.00  0.00     0.020 A 
ATOM      2  C1  UNL d   1      -0.742   1.055   2.202  0.00  0.00     0.020 A 
ATOM      3  C2  UNL d   1      -1.852   0.207   2.221  0.00  0.00     0.034 A 
ATOM      4  C3  UNL d   1      -3.073   0.656   2.737  0.00  0.00     0.017 A 
ATOM      5  C4  UNL d   1      -3.179   1.960   3.236  0.00  0.00     0.017 A 
ATOM      6  C5  UNL d   1      -2.065   2.805   3.215  0.00  0.00     0.034 A 
ATOM      7 Cl   UNL d   1      -4.652   2.585   3.889  0.00  0.00    -0.070 Cl
ATOM      8 Cl1  UNL d   1      -4.403  -0.446   2.728  0.00  0.00    -0.070 Cl
ENDROOT
TORSDOF 0
ENDMDL
