MODEL 1
REMARK minimizedAffinity 14.4571743
REMARK minimizedRMSD -1
REMARK  0 active torsions:
REMARK  status: ('A' for Active; 'I' for Inactive)
ROOT
ATOM      1  C   UNL d   1       1.280   1.736   3.073  0.00  0.00     0.020 A 
ATOM      2  C1  UNL d   1       0.203   1.193   2.373  0.00  0.00     0.020 A 
ATOM      3  C2  UNL d   1       0.406   0.617   1.117  0.00  0.00     0.034 A 
ATOM      4  C3  UNL d   1       1.688   0.583   0.557  0.00  0.00     0.017 A 
ATOM      5  C4  UNL d   1       2.769   1.128   1.260  0.00  0.00     0.017 A 
ATOM      6  C5  UNL d   1       2.560   1.703   2.517  0.00  0.00     0.034 A 
ATOM      7 Cl   UNL d   1       4.380   1.122   0.635  0.00  0.00    -0.070 Cl
ATOM      8 Cl1  UNL d   1       1.866  -0.146  -1.000  0.00  0.00    -0.070 Cl
ENDROOT
TORSDOF 0
ENDMDL
