MODEL 1
REMARK minimizedAffinity 5.84790039
REMARK minimizedRMSD -1
REMARK  2 active torsions:
REMARK  status: ('A' for Active; 'I' for Inactive)
REMARK    1  A    between atoms: C2'_3  and  C1'_4 
REMARK    2  A    between atoms: C1'_4  and  C1_5 
ROOT
ATOM      1  C1  I4B d   1       3.664   0.360  -0.945  0.00  0.00    -0.075 A 
ATOM      2  C2  I4B d   1       4.343   0.654   0.211  0.00  0.00     0.003 A 
ATOM      3  C3  I4B d   1       5.516   1.446   0.166  0.00  0.00     0.002 A 
ATOM      4  C4  I4B d   1       5.998   1.879  -1.052  0.00  0.00    -0.004 A 
ATOM      5  C5  I4B d   1       5.295   1.600  -2.221  0.00  0.00     0.002 A 
ATOM      6  C6  I4B d   1       4.114   0.846  -2.166  0.00  0.00     0.003 A 
ENDROOT
BRANCH   1   7
ATOM      7  C1' I4B d   1       2.447  -0.507  -0.866  0.00  0.00     0.060 C 
BRANCH   7   8
ATOM      8  C2' I4B d   1       2.885  -1.883  -0.408  0.00  0.00    -0.013 C 
ATOM      9  C4' I4B d   1       2.999  -1.948   1.092  0.00  0.00     0.013 C 
ATOM     10  C3' I4B d   1       1.887  -2.880  -0.919  0.00  0.00     0.013 C 
ENDBRANCH   7   8
ENDBRANCH   1   7
TORSDOF 2
ENDMDL
