MODEL 1
REMARK minimizedAffinity -4.60702038
REMARK minimizedRMSD -1
REMARK  0 active torsions:
REMARK  status: ('A' for Active; 'I' for Inactive)
ROOT
ATOM      1  C2' OXE d   1      -2.231  -1.470   0.847  0.00  0.00     0.078 C 
ATOM      2  C1' OXE d   1      -0.673  -0.016  -0.980  0.00  0.00     0.078 C 
ATOM      3  C1  OXE d   1      -0.071  -0.324   0.368  0.00  0.00    -0.078 A 
ATOM      4  C2  OXE d   1      -0.858  -0.996   1.272  0.00  0.00    -0.078 A 
ATOM      5  C3  OXE d   1      -0.333  -1.353   2.511  0.00  0.00     0.003 A 
ATOM      6  C4  OXE d   1       0.934  -0.902   2.900  0.00  0.00    -0.002 A 
ATOM      7  C5  OXE d   1       1.737  -0.182   2.009  0.00  0.00    -0.002 A 
ATOM      8  C6  OXE d   1       1.266   0.078   0.726  0.00  0.00     0.003 A 
ENDROOT
TORSDOF 0
ENDMDL
