MODEL 1
REMARK minimizedAffinity -4.44314098
REMARK minimizedRMSD -1
REMARK  0 active torsions:
REMARK  status: ('A' for Active; 'I' for Inactive)
ROOT
ATOM      1  C2' OXE d   1      -0.004   0.476  -0.726  0.00  0.00     0.078 C 
ATOM      2  C1' OXE d   1       2.001  -1.395  -1.325  0.00  0.00     0.078 C 
ATOM      3  C1  OXE d   1       1.610  -1.222   0.121  0.00  0.00    -0.078 A 
ATOM      4  C2  OXE d   1       0.661  -0.271   0.410  0.00  0.00    -0.078 A 
ATOM      5  C3  OXE d   1       0.225  -0.108   1.722  0.00  0.00     0.003 A 
ATOM      6  C4  OXE d   1       0.852  -0.796   2.768  0.00  0.00    -0.002 A 
ATOM      7  C5  OXE d   1       1.849  -1.740   2.500  0.00  0.00    -0.002 A 
ATOM      8  C6  OXE d   1       2.209  -1.995   1.181  0.00  0.00     0.003 A 
ENDROOT
TORSDOF 0
ENDMDL
