MODEL 1
REMARK minimizedAffinity -5.72350073
REMARK minimizedRMSD -1
REMARK  0 active torsions:
REMARK  status: ('A' for Active; 'I' for Inactive)
ROOT
ATOM      1  C2' OXE d   1       2.624  -1.612   0.181  0.00  0.00     0.078 C 
ATOM      2  C1' OXE d   1       1.766  -1.589   2.854  0.00  0.00     0.078 C 
ATOM      3  C1  OXE d   1       0.843  -1.005   1.814  0.00  0.00    -0.078 A 
ATOM      4  C2  OXE d   1       1.291  -0.978   0.515  0.00  0.00    -0.078 A 
ATOM      5  C3  OXE d   1       0.457  -0.500  -0.492  0.00  0.00     0.003 A 
ATOM      6  C4  OXE d   1      -0.770   0.094  -0.174  0.00  0.00    -0.002 A 
ATOM      7  C5  OXE d   1      -1.228   0.113   1.148  0.00  0.00    -0.002 A 
ATOM      8  C6  OXE d   1      -0.454  -0.469   2.146  0.00  0.00     0.003 A 
ENDROOT
TORSDOF 0
ENDMDL
