MODEL 1
REMARK minimizedAffinity -4.90993357
REMARK minimizedRMSD -1
REMARK  0 active torsions:
REMARK  status: ('A' for Active; 'I' for Inactive)
ROOT
ATOM      1  C2' OXE d   1      -0.099  -0.437  -1.497  0.00  0.00     0.078 C 
ATOM      2  C1' OXE d   1       2.334  -1.323  -0.411  0.00  0.00     0.078 C 
ATOM      3  C1  OXE d   1       1.226  -0.961   0.546  0.00  0.00    -0.078 A 
ATOM      4  C2  OXE d   1       0.055  -0.484   0.008  0.00  0.00    -0.078 A 
ATOM      5  C3  OXE d   1      -1.017  -0.188   0.844  0.00  0.00     0.003 A 
ATOM      6  C4  OXE d   1      -0.863  -0.225   2.235  0.00  0.00    -0.002 A 
ATOM      7  C5  OXE d   1       0.335  -0.671   2.805  0.00  0.00    -0.002 A 
ATOM      8  C6  OXE d   1       1.372  -1.082   1.976  0.00  0.00     0.003 A 
ENDROOT
TORSDOF 0
ENDMDL
