MODEL 1
REMARK minimizedAffinity -4.71159077
REMARK minimizedRMSD -1
REMARK  0 active torsions:
REMARK  status: ('A' for Active; 'I' for Inactive)
ROOT
ATOM      1  C2' OXE d   1      -0.041   0.673  -1.257  0.00  0.00     0.078 C 
ATOM      2  C1' OXE d   1      -1.850  -0.095   0.747  0.00  0.00     0.078 C 
ATOM      3  C1  OXE d   1      -0.381  -0.319   1.002  0.00  0.00    -0.078 A 
ATOM      4  C2  OXE d   1       0.494   0.016  -0.003  0.00  0.00    -0.078 A 
ATOM      5  C3  OXE d   1       1.864  -0.120   0.202  0.00  0.00     0.003 A 
ATOM      6  C4  OXE d   1       2.350  -0.737   1.361  0.00  0.00    -0.002 A 
ATOM      7  C5  OXE d   1       1.474  -1.123   2.380  0.00  0.00    -0.002 A 
ATOM      8  C6  OXE d   1       0.112  -0.882   2.235  0.00  0.00     0.003 A 
ENDROOT
TORSDOF 0
ENDMDL
