MODEL 1
REMARK minimizedAffinity -4.8566885
REMARK minimizedRMSD -1
REMARK  0 active torsions:
REMARK  status: ('A' for Active; 'I' for Inactive)
ROOT
ATOM      1  C2' OXE d   1      -1.798  -0.135   1.591  0.00  0.00     0.078 C 
ATOM      2  C1' OXE d   1       0.565  -1.037   2.809  0.00  0.00     0.078 C 
ATOM      3  C1  OXE d   1       0.583  -0.813   1.317  0.00  0.00    -0.078 A 
ATOM      4  C2  OXE d   1      -0.590  -0.416   0.723  0.00  0.00    -0.078 A 
ATOM      5  C3  OXE d   1      -0.614  -0.141  -0.641  0.00  0.00     0.003 A 
ATOM      6  C4  OXE d   1       0.504  -0.413  -1.439  0.00  0.00    -0.002 A 
ATOM      7  C5  OXE d   1       1.698  -0.856  -0.859  0.00  0.00    -0.002 A 
ATOM      8  C6  OXE d   1       1.767  -1.020   0.520  0.00  0.00     0.003 A 
ENDROOT
TORSDOF 0
ENDMDL
