MODEL 1
REMARK minimizedAffinity -6.01709604
REMARK minimizedRMSD -1
REMARK  0 active torsions:
REMARK  status: ('A' for Active; 'I' for Inactive)
ROOT
ATOM      1  C2' OXE d   1      -1.524  -0.336   0.733  0.00  0.00     0.078 C 
ATOM      2  C1' OXE d   1       0.204  -0.504  -1.473  0.00  0.00     0.078 C 
ATOM      3  C1  OXE d   1       0.776  -0.793  -0.107  0.00  0.00    -0.078 A 
ATOM      4  C2  OXE d   1      -0.065  -0.663   0.971  0.00  0.00    -0.078 A 
ATOM      5  C3  OXE d   1       0.397  -0.970   2.248  0.00  0.00     0.003 A 
ATOM      6  C4  OXE d   1       1.750  -1.262   2.460  0.00  0.00    -0.002 A 
ATOM      7  C5  OXE d   1       2.633  -1.360   1.380  0.00  0.00    -0.002 A 
ATOM      8  C6  OXE d   1       2.154  -1.171   0.088  0.00  0.00     0.003 A 
ENDROOT
TORSDOF 0
ENDMDL
