MODEL 1
REMARK minimizedAffinity -5.63554382
REMARK minimizedRMSD -1
REMARK  0 active torsions:
REMARK  status: ('A' for Active; 'I' for Inactive)
ROOT
ATOM      1  C2' OXE d   1       2.652  -2.055   0.454  0.00  0.00     0.078 C 
ATOM      2  C1' OXE d   1       0.659  -1.357  -1.395  0.00  0.00     0.078 C 
ATOM      3  C1  OXE d   1       0.494  -0.886   0.028  0.00  0.00    -0.078 A 
ATOM      4  C2  OXE d   1       1.450  -1.271   0.936  0.00  0.00    -0.078 A 
ATOM      5  C3  OXE d   1       1.375  -0.819   2.251  0.00  0.00     0.003 A 
ATOM      6  C4  OXE d   1       0.255  -0.103   2.691  0.00  0.00    -0.002 A 
ATOM      7  C5  OXE d   1      -0.750   0.266   1.790  0.00  0.00    -0.002 A 
ATOM      8  C6  OXE d   1      -0.625  -0.080   0.450  0.00  0.00     0.003 A 
ENDROOT
TORSDOF 0
ENDMDL
