MODEL 1
REMARK minimizedAffinity -6.4417448
REMARK minimizedRMSD -1
REMARK  0 active torsions:
REMARK  status: ('A' for Active; 'I' for Inactive)
ROOT
ATOM      1  C2' OXE d   1       2.602  -2.041   0.951  0.00  0.00     0.078 C 
ATOM      2  C1' OXE d   1       1.308  -0.840   3.132  0.00  0.00     0.078 C 
ATOM      3  C1  OXE d   1       0.758  -0.573   1.754  0.00  0.00    -0.078 A 
ATOM      4  C2  OXE d   1       1.425  -1.127   0.688  0.00  0.00    -0.078 A 
ATOM      5  C3  OXE d   1       0.928  -0.957  -0.601  0.00  0.00     0.003 A 
ATOM      6  C4  OXE d   1      -0.155  -0.102  -0.835  0.00  0.00    -0.002 A 
ATOM      7  C5  OXE d   1      -0.826   0.505   0.232  0.00  0.00    -0.002 A 
ATOM      8  C6  OXE d   1      -0.409   0.246   1.533  0.00  0.00     0.003 A 
ENDROOT
TORSDOF 0
ENDMDL
