MODEL 1
REMARK minimizedAffinity -6.00690365
REMARK minimizedRMSD -1
REMARK  0 active torsions:
REMARK  status: ('A' for Active; 'I' for Inactive)
ROOT
ATOM      1  N1  IND d   1      -0.632   1.133  -1.253  0.00  0.00    -0.196 N 
ATOM      2  C2  IND d   1      -0.889   0.173  -0.315  0.00  0.00     0.054 A 
ATOM      3  C3  IND d   1       0.059  -0.790  -0.354  0.00  0.00    -0.031 A 
ATOM      4  C4  IND d   1       2.178  -0.939  -1.809  0.00  0.00     0.051 A 
ATOM      5  C5  IND d   1       2.823  -0.315  -2.839  0.00  0.00    -0.031 A 
ATOM      6  C6  IND d   1       2.342   0.848  -3.404  0.00  0.00     0.015 A 
ATOM      7  C7  IND d   1       1.197   1.440  -2.948  0.00  0.00    -0.016 A 
ATOM      8  C8  IND d   1       0.536   0.806  -1.906  0.00  0.00    -0.047 A 
ATOM      9  C9  IND d   1       0.997  -0.398  -1.358  0.00  0.00    -0.096 A 
ATOM     10  HN1 IND d   1      -1.117   1.826  -1.409  0.00  0.00     0.298 HD
ENDROOT
TORSDOF 0
ENDMDL
