MODEL 1
REMARK minimizedAffinity -2.4323616
REMARK minimizedRMSD -1
REMARK  0 active torsions:
REMARK  status: ('A' for Active; 'I' for Inactive)
ROOT
ATOM      1  N1  IND d   1       1.229   1.534  -2.027  0.00  0.00    -0.196 N 
ATOM      2  C2  IND d   1       0.383   2.598  -1.879  0.00  0.00     0.054 A 
ATOM      3  C3  IND d   1      -0.692   2.244  -1.139  0.00  0.00    -0.031 A 
ATOM      4  C4  IND d   1      -1.217   0.004   0.016  0.00  0.00     0.051 A 
ATOM      5  C5  IND d   1      -0.760  -1.278   0.139  0.00  0.00    -0.031 A 
ATOM      6  C6  IND d   1       0.409  -1.696  -0.464  0.00  0.00     0.015 A 
ATOM      7  C7  IND d   1       1.173  -0.840  -1.206  0.00  0.00    -0.016 A 
ATOM      8  C8  IND d   1       0.708   0.460  -1.339  0.00  0.00    -0.047 A 
ATOM      9  C9  IND d   1      -0.499   0.879  -0.765  0.00  0.00    -0.096 A 
ATOM     10  HN1 IND d   1       1.963   1.535  -2.475  0.00  0.00     0.298 HD
ENDROOT
TORSDOF 0
ENDMDL
