MODEL 1
REMARK minimizedAffinity -5.26796007
REMARK minimizedRMSD -1
REMARK  0 active torsions:
REMARK  status: ('A' for Active; 'I' for Inactive)
ROOT
ATOM      1  N1  IND d   1      -0.647   0.724  -0.494  0.00  0.00    -0.196 N 
ATOM      2  C2  IND d   1      -0.695  -0.430   0.237  0.00  0.00     0.054 A 
ATOM      3  C3  IND d   1       0.465  -1.114   0.113  0.00  0.00    -0.031 A 
ATOM      4  C4  IND d   1       2.612  -0.477  -1.156  0.00  0.00     0.051 A 
ATOM      5  C5  IND d   1       3.123   0.466  -2.003  0.00  0.00    -0.031 A 
ATOM      6  C6  IND d   1       2.389   1.567  -2.396  0.00  0.00     0.015 A 
ATOM      7  C7  IND d   1       1.116   1.772  -1.946  0.00  0.00    -0.016 A 
ATOM      8  C8  IND d   1       0.591   0.813  -1.091  0.00  0.00    -0.047 A 
ATOM      9  C9  IND d   1       1.315  -0.328  -0.723  0.00  0.00    -0.096 A 
ATOM     10  HN1 IND d   1      -1.283   1.297  -0.569  0.00  0.00     0.298 HD
ENDROOT
TORSDOF 0
ENDMDL
