MODEL 1
REMARK minimizedAffinity -3.80212426
REMARK minimizedRMSD -1
REMARK  0 active torsions:
REMARK  status: ('A' for Active; 'I' for Inactive)
ROOT
ATOM      1  N1  IND d   1      -2.613   0.826   2.102  0.00  0.00    -0.196 N 
ATOM      2  C2  IND d   1      -2.048   1.211   3.286  0.00  0.00     0.054 A 
ATOM      3  C3  IND d   1      -0.733   0.900   3.303  0.00  0.00    -0.031 A 
ATOM      4  C4  IND d   1       0.724  -0.150   1.459  0.00  0.00     0.051 A 
ATOM      5  C5  IND d   1       0.649  -0.706   0.212  0.00  0.00    -0.031 A 
ATOM      6  C6  IND d   1      -0.541  -0.778  -0.483  0.00  0.00     0.015 A 
ATOM      7  C7  IND d   1      -1.703  -0.285   0.040  0.00  0.00    -0.016 A 
ATOM      8  C8  IND d   1      -1.632   0.273   1.308  0.00  0.00    -0.047 A 
ATOM      9  C9  IND d   1      -0.435   0.311   2.036  0.00  0.00    -0.096 A 
ATOM     10  HN1 IND d   1      -3.441   0.914   1.889  0.00  0.00     0.298 HD
ENDROOT
TORSDOF 0
ENDMDL
