MODEL 1
REMARK minimizedAffinity -0.613425016
REMARK minimizedRMSD -1
REMARK  0 active torsions:
REMARK  status: ('A' for Active; 'I' for Inactive)
ROOT
ATOM      1  N1  IND d   1      -0.044   1.851   0.842  0.00  0.00    -0.196 N 
ATOM      2  C2  IND d   1      -0.095   0.736   0.053  0.00  0.00     0.054 A 
ATOM      3  C3  IND d   1      -0.894  -0.200   0.614  0.00  0.00    -0.031 A 
ATOM      4  C4  IND d   1      -2.296  -0.075   2.770  0.00  0.00     0.051 A 
ATOM      5  C5  IND d   1      -2.546   0.727   3.847  0.00  0.00    -0.031 A 
ATOM      6  C6  IND d   1      -1.965   1.972   3.979  0.00  0.00     0.015 A 
ATOM      7  C7  IND d   1      -1.118   2.468   3.028  0.00  0.00    -0.016 A 
ATOM      8  C8  IND d   1      -0.856   1.652   1.937  0.00  0.00    -0.047 A 
ATOM      9  C9  IND d   1      -1.409   0.370   1.818  0.00  0.00    -0.096 A 
ATOM     10  HN1 IND d   1       0.418   2.559   0.681  0.00  0.00     0.298 HD
ENDROOT
TORSDOF 0
ENDMDL
