MODEL 1
REMARK minimizedAffinity -2.68178368
REMARK minimizedRMSD -1
REMARK  0 active torsions:
REMARK  status: ('A' for Active; 'I' for Inactive)
ROOT
ATOM      1  N1  IND d   1      -0.970   0.531   3.786  0.00  0.00    -0.196 N 
ATOM      2  C2  IND d   1      -2.266   0.964   3.839  0.00  0.00     0.054 A 
ATOM      3  C3  IND d   1      -2.797   1.014   2.597  0.00  0.00    -0.031 A 
ATOM      4  C4  IND d   1      -1.754   0.332   0.344  0.00  0.00     0.051 A 
ATOM      5  C5  IND d   1      -0.580  -0.089  -0.216  0.00  0.00    -0.031 A 
ATOM      6  C6  IND d   1       0.545  -0.332   0.545  0.00  0.00     0.015 A 
ATOM      7  C7  IND d   1       0.535  -0.174   1.902  0.00  0.00    -0.016 A 
ATOM      8  C8  IND d   1      -0.652   0.260   2.473  0.00  0.00    -0.047 A 
ATOM      9  C9  IND d   1      -1.785   0.550   1.702  0.00  0.00    -0.096 A 
ATOM     10  HN1 IND d   1      -0.443   0.443   4.459  0.00  0.00     0.298 HD
ENDROOT
TORSDOF 0
ENDMDL
