MODEL 1
REMARK minimizedAffinity -6.49880075
REMARK minimizedRMSD -1
REMARK  0 active torsions:
REMARK  status: ('A' for Active; 'I' for Inactive)
ROOT
ATOM      1  N1  IND d   1      -0.657   0.737  -0.492  0.00  0.00    -0.196 N 
ATOM      2  C2  IND d   1      -0.624  -0.352   0.334  0.00  0.00     0.054 A 
ATOM      3  C3  IND d   1       0.552  -1.007   0.202  0.00  0.00    -0.031 A 
ATOM      4  C4  IND d   1       2.604  -0.411  -1.234  0.00  0.00     0.051 A 
ATOM      5  C5  IND d   1       3.034   0.473  -2.184  0.00  0.00    -0.031 A 
ATOM      6  C6  IND d   1       2.241   1.513  -2.624  0.00  0.00     0.015 A 
ATOM      7  C7  IND d   1       0.987   1.715  -2.122  0.00  0.00    -0.016 A 
ATOM      8  C8  IND d   1       0.544   0.815  -1.163  0.00  0.00    -0.047 A 
ATOM      9  C9  IND d   1       1.328  -0.267  -0.742  0.00  0.00    -0.096 A 
ATOM     10  HN1 IND d   1      -1.317   1.281  -0.578  0.00  0.00     0.298 HD
ENDROOT
TORSDOF 0
ENDMDL
