MODEL 1
REMARK minimizedAffinity -5.93464375
REMARK minimizedRMSD -1
REMARK  0 active torsions:
REMARK  status: ('A' for Active; 'I' for Inactive)
ROOT
ATOM      1  N1  IND d   1      -0.599   0.539  -0.518  0.00  0.00    -0.196 N 
ATOM      2  C2  IND d   1      -0.523  -0.375   0.496  0.00  0.00     0.054 A 
ATOM      3  C3  IND d   1       0.739  -0.848   0.609  0.00  0.00    -0.031 A 
ATOM      4  C4  IND d   1       2.857  -0.186  -0.697  0.00  0.00     0.051 A 
ATOM      5  C5  IND d   1       3.280   0.581  -1.745  0.00  0.00    -0.031 A 
ATOM      6  C6  IND d   1       2.415   1.392  -2.451  0.00  0.00     0.015 A 
ATOM      7  C7  IND d   1       1.091   1.475  -2.125  0.00  0.00    -0.016 A 
ATOM      8  C8  IND d   1       0.656   0.692  -1.066  0.00  0.00    -0.047 A 
ATOM      9  C9  IND d   1       1.521  -0.165  -0.373  0.00  0.00    -0.096 A 
ATOM     10  HN1 IND d   1      -1.311   0.950  -0.771  0.00  0.00     0.298 HD
ENDROOT
TORSDOF 0
ENDMDL
