MODEL 1
REMARK minimizedAffinity -4.9212966
REMARK minimizedRMSD -1
REMARK  0 active torsions:
REMARK  status: ('A' for Active; 'I' for Inactive)
ROOT
ATOM      1  N1  IND d   1       0.887   2.026  -2.389  0.00  0.00    -0.196 N 
ATOM      2  C2  IND d   1       1.547   2.213  -3.572  0.00  0.00     0.054 A 
ATOM      3  C3  IND d   1       2.483   1.253  -3.745  0.00  0.00    -0.031 A 
ATOM      4  C4  IND d   1       3.034  -0.780  -2.265  0.00  0.00     0.051 A 
ATOM      5  C5  IND d   1       2.724  -1.354  -1.064  0.00  0.00    -0.031 A 
ATOM      6  C6  IND d   1       1.764  -0.822  -0.228  0.00  0.00     0.015 A 
ATOM      7  C7  IND d   1       1.068   0.304  -0.568  0.00  0.00    -0.016 A 
ATOM      8  C8  IND d   1       1.386   0.893  -1.784  0.00  0.00    -0.047 A 
ATOM      9  C9  IND d   1       2.388   0.381  -2.617  0.00  0.00    -0.096 A 
ATOM     10  HN1 IND d   1       0.266   2.531  -2.076  0.00  0.00     0.298 HD
ENDROOT
TORSDOF 0
ENDMDL
