MODEL 1
REMARK minimizedAffinity -5.38949776
REMARK minimizedRMSD -1
REMARK  0 active torsions:
REMARK  status: ('A' for Active; 'I' for Inactive)
ROOT
ATOM      1  N1  IND d   1       0.311   1.760  -2.356  0.00  0.00    -0.196 N 
ATOM      2  C2  IND d   1       1.241   1.643  -3.351  0.00  0.00     0.054 A 
ATOM      3  C3  IND d   1       1.925   0.484  -3.222  0.00  0.00    -0.031 A 
ATOM      4  C4  IND d   1       1.616  -1.415  -1.511  0.00  0.00     0.051 A 
ATOM      5  C5  IND d   1       0.916  -1.747  -0.385  0.00  0.00    -0.031 A 
ATOM      6  C6  IND d   1      -0.043  -0.912   0.151  0.00  0.00     0.015 A 
ATOM      7  C7  IND d   1      -0.347   0.287  -0.429  0.00  0.00    -0.016 A 
ATOM      8  C8  IND d   1       0.367   0.631  -1.568  0.00  0.00    -0.047 A 
ATOM      9  C9  IND d   1       1.371  -0.193  -2.092  0.00  0.00    -0.096 A 
ATOM     10  HN1 IND d   1      -0.220   2.427  -2.241  0.00  0.00     0.298 HD
ENDROOT
TORSDOF 0
ENDMDL
