MODEL 1
REMARK minimizedAffinity -4.66807938
REMARK minimizedRMSD -1
REMARK  0 active torsions:
REMARK  status: ('A' for Active; 'I' for Inactive)
ROOT
ATOM      1  N1  IND d   1      -0.976   0.570  -0.194  0.00  0.00    -0.196 N 
ATOM      2  C2  IND d   1      -1.043  -0.552   0.585  0.00  0.00     0.054 A 
ATOM      3  C3  IND d   1      -0.058  -1.416   0.251  0.00  0.00    -0.031 A 
ATOM      4  C4  IND d   1       1.836  -1.150  -1.472  0.00  0.00     0.051 A 
ATOM      5  C5  IND d   1       2.292  -0.313  -2.451  0.00  0.00    -0.031 A 
ATOM      6  C6  IND d   1       1.671   0.887  -2.732  0.00  0.00     0.015 A 
ATOM      7  C7  IND d   1       0.572   1.301  -2.033  0.00  0.00    -0.016 A 
ATOM      8  C8  IND d   1       0.103   0.450  -1.042  0.00  0.00    -0.047 A 
ATOM      9  C9  IND d   1       0.703  -0.788  -0.782  0.00  0.00    -0.096 A 
ATOM     10  HN1 IND d   1      -1.517   1.238  -0.159  0.00  0.00     0.298 HD
ENDROOT
TORSDOF 0
ENDMDL
