MODEL 1
REMARK minimizedAffinity -4.96622467
REMARK minimizedRMSD -1
REMARK  0 active torsions:
REMARK  status: ('A' for Active; 'I' for Inactive)
ROOT
ATOM      1  N1  IND d   1      -0.601   0.731  -0.414  0.00  0.00    -0.196 N 
ATOM      2  C2  IND d   1      -0.716  -0.247   0.534  0.00  0.00     0.054 A 
ATOM      3  C3  IND d   1       0.367  -1.056   0.509  0.00  0.00    -0.031 A 
ATOM      4  C4  IND d   1       2.492  -0.899  -0.935  0.00  0.00     0.051 A 
ATOM      5  C5  IND d   1       3.042  -0.196  -1.970  0.00  0.00    -0.031 A 
ATOM      6  C6  IND d   1       2.394   0.876  -2.549  0.00  0.00     0.015 A 
ATOM      7  C7  IND d   1       1.171   1.293  -2.105  0.00  0.00    -0.016 A 
ATOM      8  C8  IND d   1       0.606   0.577  -1.059  0.00  0.00    -0.047 A 
ATOM      9  C9  IND d   1       1.240  -0.538  -0.495  0.00  0.00    -0.096 A 
ATOM     10  HN1 IND d   1      -1.185   1.341  -0.579  0.00  0.00     0.298 HD
ENDROOT
TORSDOF 0
ENDMDL
