MODEL 1
REMARK minimizedAffinity -3.49171495
REMARK minimizedRMSD -1
REMARK  0 active torsions:
REMARK  status: ('A' for Active; 'I' for Inactive)
ROOT
ATOM      1  N1  IND d   1      -0.252   1.159   0.260  0.00  0.00    -0.196 N 
ATOM      2  C2  IND d   1      -0.309  -0.055  -0.366  0.00  0.00     0.054 A 
ATOM      3  C3  IND d   1      -1.253  -0.836   0.206  0.00  0.00    -0.031 A 
ATOM      4  C4  IND d   1      -2.892  -0.287   2.115  0.00  0.00     0.051 A 
ATOM      5  C5  IND d   1      -3.197   0.684   3.027  0.00  0.00    -0.031 A 
ATOM      6  C6  IND d   1      -2.524   1.888   3.062  0.00  0.00     0.015 A 
ATOM      7  C7  IND d   1      -1.524   2.172   2.175  0.00  0.00    -0.016 A 
ATOM      8  C8  IND d   1      -1.207   1.185   1.252  0.00  0.00    -0.047 A 
ATOM      9  C9  IND d   1      -1.858  -0.055   1.239  0.00  0.00    -0.096 A 
ATOM     10  HN1 IND d   1       0.289   1.798   0.066  0.00  0.00     0.298 HD
ENDROOT
TORSDOF 0
ENDMDL
