MODEL 1
REMARK minimizedAffinity -1.87303317
REMARK minimizedRMSD -1
REMARK  0 active torsions:
REMARK  status: ('A' for Active; 'I' for Inactive)
ROOT
ATOM      1  N1  IND d   1      -0.819   1.437  -0.194  0.00  0.00    -0.196 N 
ATOM      2  C2  IND d   1      -1.095   0.434   0.692  0.00  0.00     0.054 A 
ATOM      3  C3  IND d   1      -0.268  -0.615   0.488  0.00  0.00    -0.031 A 
ATOM      4  C4  IND d   1       1.681  -0.861  -1.177  0.00  0.00     0.051 A 
ATOM      5  C5  IND d   1       2.296  -0.224  -2.218  0.00  0.00    -0.031 A 
ATOM      6  C6  IND d   1       1.897   1.027  -2.644  0.00  0.00     0.015 A 
ATOM      7  C7  IND d   1       0.872   1.694  -2.035  0.00  0.00    -0.016 A 
ATOM      8  C8  IND d   1       0.241   1.046  -0.982  0.00  0.00    -0.047 A 
ATOM      9  C9  IND d   1       0.613  -0.241  -0.573  0.00  0.00    -0.096 A 
ATOM     10  HN1 IND d   1      -1.236   2.187  -0.249  0.00  0.00     0.298 HD
ENDROOT
TORSDOF 0
ENDMDL
