MODEL 1
REMARK minimizedAffinity -5.14362717
REMARK minimizedRMSD -1
REMARK  0 active torsions:
REMARK  status: ('A' for Active; 'I' for Inactive)
ROOT
ATOM      1  N1  IND d   1       0.245   1.592  -1.922  0.00  0.00    -0.196 N 
ATOM      2  C2  IND d   1       1.326   1.336  -2.720  0.00  0.00     0.054 A 
ATOM      3  C3  IND d   1       1.784   0.083  -2.504  0.00  0.00    -0.031 A 
ATOM      4  C4  IND d   1       0.850  -1.756  -0.963  0.00  0.00     0.051 A 
ATOM      5  C5  IND d   1      -0.103  -1.982  -0.010  0.00  0.00    -0.031 A 
ATOM      6  C6  IND d   1      -1.009  -1.009   0.359  0.00  0.00     0.015 A 
ATOM      7  C7  IND d   1      -1.003   0.228  -0.221  0.00  0.00    -0.016 A 
ATOM      8  C8  IND d   1      -0.031   0.463  -1.184  0.00  0.00    -0.047 A 
ATOM      9  C9  IND d   1       0.918  -0.507  -1.533  0.00  0.00    -0.096 A 
ATOM     10  HN1 IND d   1      -0.188   2.334  -1.888  0.00  0.00     0.298 HD
ENDROOT
TORSDOF 0
ENDMDL
