MODEL 1
REMARK minimizedAffinity -6.27152967
REMARK minimizedRMSD -1
REMARK  0 active torsions:
REMARK  status: ('A' for Active; 'I' for Inactive)
ROOT
ATOM      1  N1  IND d   1      -0.814   0.727  -0.759  0.00  0.00    -0.196 N 
ATOM      2  C2  IND d   1      -0.861  -0.348   0.084  0.00  0.00     0.054 A 
ATOM      3  C3  IND d   1       0.328  -0.992   0.091  0.00  0.00    -0.031 A 
ATOM      4  C4  IND d   1       2.517  -0.399  -1.127  0.00  0.00     0.051 A 
ATOM      5  C5  IND d   1       3.039   0.473  -2.040  0.00  0.00    -0.031 A 
ATOM      6  C6  IND d   1       2.290   1.498  -2.581  0.00  0.00     0.015 A 
ATOM      7  C7  IND d   1       0.987   1.695  -2.220  0.00  0.00    -0.016 A 
ATOM      8  C8  IND d   1       0.451   0.807  -1.298  0.00  0.00    -0.047 A 
ATOM      9  C9  IND d   1       1.194  -0.260  -0.777  0.00  0.00    -0.096 A 
ATOM     10  HN1 IND d   1      -1.465   1.264  -0.925  0.00  0.00     0.298 HD
ENDROOT
TORSDOF 0
ENDMDL
