MODEL 1
REMARK minimizedAffinity -6.65798378
REMARK minimizedRMSD -1
REMARK  0 active torsions:
REMARK  status: ('A' for Active; 'I' for Inactive)
ROOT
ATOM      1  N1  IND d   1      -0.481   0.730  -0.601  0.00  0.00    -0.196 N 
ATOM      2  C2  IND d   1      -0.600  -0.186   0.406  0.00  0.00     0.054 A 
ATOM      3  C3  IND d   1       0.536  -0.910   0.520  0.00  0.00    -0.031 A 
ATOM      4  C4  IND d   1       2.751  -0.692  -0.773  0.00  0.00     0.051 A 
ATOM      5  C5  IND d   1       3.329  -0.022  -1.815  0.00  0.00    -0.031 A 
ATOM      6  C6  IND d   1       2.654   0.955  -2.518  0.00  0.00     0.015 A 
ATOM      7  C7  IND d   1       1.373   1.307  -2.196  0.00  0.00    -0.016 A 
ATOM      8  C8  IND d   1       0.781   0.624  -1.143  0.00  0.00    -0.047 A 
ATOM      9  C9  IND d   1       1.447  -0.398  -0.454  0.00  0.00    -0.096 A 
ATOM     10  HN1 IND d   1      -1.091   1.281  -0.853  0.00  0.00     0.298 HD
ENDROOT
TORSDOF 0
ENDMDL
