MODEL 1
REMARK minimizedAffinity 9.04353046
REMARK minimizedRMSD -1
REMARK  0 active torsions:
REMARK  status: ('A' for Active; 'I' for Inactive)
ROOT
ATOM      1  C   UNL d   1      -3.498   2.385  -4.143  0.00  0.00     0.078 C 
ATOM      2  C1  UNL d   1      -2.927   1.616  -2.990  0.00  0.00    -0.077 A 
ATOM      3  C2  UNL d   1      -2.823   2.194  -1.718  0.00  0.00    -0.001 A 
ATOM      4  C3  UNL d   1      -2.280   1.470  -0.656  0.00  0.00     0.003 A 
ATOM      5  C4  UNL d   1      -1.835   0.164  -0.854  0.00  0.00    -0.005 A 
ATOM      6  C5  UNL d   1      -1.932  -0.418  -2.116  0.00  0.00     0.003 A 
ATOM      7  C6  UNL d   1      -2.475   0.304  -3.180  0.00  0.00    -0.001 A 
ENDROOT
TORSDOF 0
ENDMDL
