MODEL 1
REMARK minimizedAffinity 5.34288359
REMARK minimizedRMSD -1
REMARK  0 active torsions:
REMARK  status: ('A' for Active; 'I' for Inactive)
ROOT
ATOM      1  C   UNL d   1      -0.703  -5.999  -0.658  0.00  0.00     0.078 C 
ATOM      2  C1  UNL d   1       0.796  -5.989  -0.606  0.00  0.00    -0.077 A 
ATOM      3  C2  UNL d   1       1.558  -5.990  -1.780  0.00  0.00    -0.001 A 
ATOM      4  C3  UNL d   1       2.952  -5.990  -1.717  0.00  0.00     0.003 A 
ATOM      5  C4  UNL d   1       3.596  -5.992  -0.481  0.00  0.00    -0.005 A 
ATOM      6  C5  UNL d   1       2.846  -5.994   0.693  0.00  0.00     0.003 A 
ATOM      7  C6  UNL d   1       1.452  -5.993   0.632  0.00  0.00    -0.001 A 
ENDROOT
TORSDOF 0
ENDMDL
