MODEL 1
REMARK minimizedAffinity 0.334031045
REMARK minimizedRMSD -1
REMARK  0 active torsions:
REMARK  status: ('A' for Active; 'I' for Inactive)
ROOT
ATOM      1  C   UNL d   1       3.137  -2.626   4.121  0.00  0.00     0.078 C 
ATOM      2  C1  UNL d   1       3.994  -3.468   3.223  0.00  0.00    -0.077 A 
ATOM      3  C2  UNL d   1       3.625  -4.778   2.895  0.00  0.00    -0.001 A 
ATOM      4  C3  UNL d   1       4.437  -5.553   2.066  0.00  0.00     0.003 A 
ATOM      5  C4  UNL d   1       5.624  -5.027   1.558  0.00  0.00    -0.005 A 
ATOM      6  C5  UNL d   1       6.000  -3.725   1.881  0.00  0.00     0.003 A 
ATOM      7  C6  UNL d   1       5.189  -2.949   2.710  0.00  0.00    -0.001 A 
ENDROOT
TORSDOF 0
ENDMDL
