MODEL 1
REMARK minimizedAffinity 3.61204505
REMARK minimizedRMSD -1
REMARK  0 active torsions:
REMARK  status: ('A' for Active; 'I' for Inactive)
ROOT
ATOM      1  C   UNL d   1       1.832  -5.971  -5.766  0.00  0.00     0.078 C 
ATOM      2  C1  UNL d   1       3.094  -5.964  -4.957  0.00  0.00    -0.077 A 
ATOM      3  C2  UNL d   1       4.349  -5.994  -5.577  0.00  0.00    -0.001 A 
ATOM      4  C3  UNL d   1       5.516  -5.997  -4.811  0.00  0.00     0.003 A 
ATOM      5  C4  UNL d   1       5.440  -5.971  -3.420  0.00  0.00    -0.005 A 
ATOM      6  C5  UNL d   1       4.196  -5.944  -2.794  0.00  0.00     0.003 A 
ATOM      7  C6  UNL d   1       3.028  -5.941  -3.558  0.00  0.00    -0.001 A 
ENDROOT
TORSDOF 0
ENDMDL
