MODEL 1
REMARK minimizedAffinity 6.38755322
REMARK minimizedRMSD -1
REMARK  0 active torsions:
REMARK  status: ('A' for Active; 'I' for Inactive)
ROOT
ATOM      1  C   UNL d   1       1.753  -5.645  -0.787  0.00  0.00     0.078 C 
ATOM      2  C1  UNL d   1       3.068  -5.723  -1.504  0.00  0.00    -0.077 A 
ATOM      3  C2  UNL d   1       4.260  -5.940  -0.803  0.00  0.00    -0.001 A 
ATOM      4  C3  UNL d   1       5.478  -6.000  -1.482  0.00  0.00     0.003 A 
ATOM      5  C4  UNL d   1       5.515  -5.843  -2.867  0.00  0.00    -0.005 A 
ATOM      6  C5  UNL d   1       4.334  -5.625  -3.573  0.00  0.00     0.003 A 
ATOM      7  C6  UNL d   1       3.115  -5.564  -2.895  0.00  0.00    -0.001 A 
ENDROOT
TORSDOF 0
ENDMDL
