MODEL 1
REMARK minimizedAffinity 0.0997078642
REMARK minimizedRMSD -1
REMARK  0 active torsions:
REMARK  status: ('A' for Active; 'I' for Inactive)
ROOT
ATOM      1  C   UNL d   1       1.681  -6.000   0.656  0.00  0.00     0.078 C 
ATOM      2  C1  UNL d   1       2.654  -5.990  -0.485  0.00  0.00    -0.077 A 
ATOM      3  C2  UNL d   1       2.209  -5.985  -1.813  0.00  0.00    -0.001 A 
ATOM      4  C3  UNL d   1       3.127  -5.986  -2.865  0.00  0.00     0.003 A 
ATOM      5  C4  UNL d   1       4.495  -5.993  -2.600  0.00  0.00    -0.005 A 
ATOM      6  C5  UNL d   1       4.947  -6.000  -1.282  0.00  0.00     0.003 A 
ATOM      7  C6  UNL d   1       4.031  -5.999  -0.229  0.00  0.00    -0.001 A 
ENDROOT
TORSDOF 0
ENDMDL
