MODEL 1
REMARK minimizedAffinity 1.09274745
REMARK minimizedRMSD -1
REMARK  0 active torsions:
REMARK  status: ('A' for Active; 'I' for Inactive)
ROOT
ATOM      1  C   UNL d   1       3.795  -5.961  -5.202  0.00  0.00     0.078 C 
ATOM      2  C1  UNL d   1       4.233  -5.962  -3.768  0.00  0.00    -0.077 A 
ATOM      3  C2  UNL d   1       5.591  -5.984  -3.428  0.00  0.00    -0.001 A 
ATOM      4  C3  UNL d   1       5.984  -5.994  -2.089  0.00  0.00     0.003 A 
ATOM      5  C4  UNL d   1       5.025  -5.984  -1.078  0.00  0.00    -0.005 A 
ATOM      6  C5  UNL d   1       3.671  -5.964  -1.406  0.00  0.00     0.003 A 
ATOM      7  C6  UNL d   1       3.276  -5.954  -2.745  0.00  0.00    -0.001 A 
ENDROOT
TORSDOF 0
ENDMDL
