MODEL 1
REMARK minimizedAffinity 4.28870773
REMARK minimizedRMSD -1
REMARK  0 active torsions:
REMARK  status: ('A' for Active; 'I' for Inactive)
ROOT
ATOM      1  C   UNL d   1       0.046  -0.764  -0.713  0.00  0.00     0.078 C 
ATOM      2  C1  UNL d   1       0.395   0.483   0.042  0.00  0.00    -0.077 A 
ATOM      3  C2  UNL d   1      -0.585   1.207   0.732  0.00  0.00    -0.001 A 
ATOM      4  C3  UNL d   1      -0.247   2.372   1.422  0.00  0.00     0.003 A 
ATOM      5  C4  UNL d   1       1.071   2.824   1.430  0.00  0.00    -0.005 A 
ATOM      6  C5  UNL d   1       2.053   2.111   0.745  0.00  0.00     0.003 A 
ATOM      7  C6  UNL d   1       1.717   0.946   0.053  0.00  0.00    -0.001 A 
ENDROOT
TORSDOF 0
ENDMDL
