MODEL 1
REMARK minimizedAffinity -4.41628122
REMARK minimizedRMSD -1
REMARK  0 active torsions:
REMARK  status: ('A' for Active; 'I' for Inactive)
ROOT
ATOM      1  O1  BZF d   1      -0.608  -0.847   0.326  0.00  0.00    -0.204 OA
ATOM      2  C2  BZF d   1      -1.614  -0.124  -0.285  0.00  0.00     0.174 A 
ATOM      3  C3  BZF d   1      -1.167   1.091  -0.665  0.00  0.00    -0.012 A 
ATOM      4  C3A BZF d   1       0.229   1.094  -0.349  0.00  0.00    -0.107 A 
ATOM      5  C4  BZF d   1       1.224   2.016  -0.505  0.00  0.00     0.055 A 
ATOM      6  C5  BZF d   1       2.464   1.736  -0.025  0.00  0.00    -0.016 A 
ATOM      7  C6  BZF d   1       2.742   0.549   0.620  0.00  0.00     0.022 A 
ATOM      8  C7  BZF d   1       1.789  -0.398   0.793  0.00  0.00     0.029 A 
ATOM      9  C7A BZF d   1       0.543  -0.132   0.280  0.00  0.00     0.058 A 
ENDROOT
TORSDOF 0
ENDMDL
