MODEL 1
REMARK minimizedAffinity -0.980185568
REMARK minimizedRMSD -1
REMARK  0 active torsions:
REMARK  status: ('A' for Active; 'I' for Inactive)
ROOT
ATOM      1  O1  BZF d   1      -1.386   0.383  -0.010  0.00  0.00    -0.204 OA
ATOM      2  C2  BZF d   1      -0.018   0.575  -0.026  0.00  0.00     0.174 A 
ATOM      3  C3  BZF d   1       0.471   0.432  -1.274  0.00  0.00    -0.012 A 
ATOM      4  C3A BZF d   1      -0.675   0.224  -2.106  0.00  0.00    -0.107 A 
ATOM      5  C4  BZF d   1      -0.838   0.032  -3.448  0.00  0.00     0.055 A 
ATOM      6  C5  BZF d   1      -2.084  -0.215  -3.932  0.00  0.00    -0.016 A 
ATOM      7  C6  BZF d   1      -3.185  -0.283  -3.104  0.00  0.00     0.022 A 
ATOM      8  C7  BZF d   1      -3.073  -0.094  -1.767  0.00  0.00     0.029 A 
ATOM      9  C7A BZF d   1      -1.821   0.188  -1.278  0.00  0.00     0.058 A 
ENDROOT
TORSDOF 0
ENDMDL
