MODEL 1
REMARK minimizedAffinity -0.104072139
REMARK minimizedRMSD -1
REMARK  0 active torsions:
REMARK  status: ('A' for Active; 'I' for Inactive)
ROOT
ATOM      1  O1  BZF d   1      -2.940   0.433  -1.603  0.00  0.00    -0.204 OA
ATOM      2  C2  BZF d   1      -2.908   0.327  -2.980  0.00  0.00     0.174 A 
ATOM      3  C3  BZF d   1      -1.652   0.491  -3.444  0.00  0.00    -0.012 A 
ATOM      4  C3A BZF d   1      -0.835   0.622  -2.277  0.00  0.00    -0.107 A 
ATOM      5  C4  BZF d   1       0.506   0.794  -2.085  0.00  0.00     0.055 A 
ATOM      6  C5  BZF d   1       0.977   0.960  -0.820  0.00  0.00    -0.016 A 
ATOM      7  C6  BZF d   1       0.135   0.964   0.272  0.00  0.00     0.022 A 
ATOM      8  C7  BZF d   1      -1.202   0.792   0.132  0.00  0.00     0.029 A 
ATOM      9  C7A BZF d   1      -1.676   0.592  -1.141  0.00  0.00     0.058 A 
ENDROOT
TORSDOF 0
ENDMDL
