MODEL 1
REMARK minimizedAffinity -3.75032616
REMARK minimizedRMSD -1
REMARK  0 active torsions:
REMARK  status: ('A' for Active; 'I' for Inactive)
ROOT
ATOM      1  O1  BZF d   1       1.174   0.993   0.003  0.00  0.00    -0.204 OA
ATOM      2  C2  BZF d   1       0.029   0.641  -0.685  0.00  0.00     0.174 A 
ATOM      3  C3  BZF d   1      -0.466  -0.526  -0.224  0.00  0.00    -0.012 A 
ATOM      4  C3A BZF d   1       0.373  -0.881   0.879  0.00  0.00    -0.107 A 
ATOM      5  C4  BZF d   1       0.379  -1.929   1.755  0.00  0.00     0.055 A 
ATOM      6  C5  BZF d   1       1.379  -2.019   2.671  0.00  0.00    -0.016 A 
ATOM      7  C6  BZF d   1       2.390  -1.083   2.736  0.00  0.00     0.022 A 
ATOM      8  C7  BZF d   1       2.424  -0.023   1.892  0.00  0.00     0.029 A 
ATOM      9  C7A BZF d   1       1.397   0.088   0.986  0.00  0.00     0.058 A 
ENDROOT
TORSDOF 0
ENDMDL
