MODEL 1
REMARK minimizedAffinity -5.16114426
REMARK minimizedRMSD -1
REMARK  0 active torsions:
REMARK  status: ('A' for Active; 'I' for Inactive)
ROOT
ATOM      1  O1  BZF d   1      -0.426   1.225   0.370  0.00  0.00    -0.204 OA
ATOM      2  C2  BZF d   1      -1.250   0.585  -0.536  0.00  0.00     0.174 A 
ATOM      3  C3  BZF d   1      -0.577  -0.382  -1.194  0.00  0.00    -0.012 A 
ATOM      4  C3A BZF d   1       0.725  -0.405  -0.601  0.00  0.00    -0.107 A 
ATOM      5  C4  BZF d   1       1.841  -1.162  -0.816  0.00  0.00     0.055 A 
ATOM      6  C5  BZF d   1       2.972  -0.883  -0.117  0.00  0.00    -0.016 A 
ATOM      7  C6  BZF d   1       3.025   0.147   0.798  0.00  0.00     0.022 A 
ATOM      8  C7  BZF d   1       1.942   0.923   1.049  0.00  0.00     0.029 A 
ATOM      9  C7A BZF d   1       0.787   0.622   0.369  0.00  0.00     0.058 A 
ENDROOT
TORSDOF 0
ENDMDL
