MODEL 1
REMARK minimizedAffinity -4.00136662
REMARK minimizedRMSD -1
REMARK  0 active torsions:
REMARK  status: ('A' for Active; 'I' for Inactive)
ROOT
ATOM      1  O1  BZF d   1      -1.079  -1.037   1.130  0.00  0.00    -0.204 OA
ATOM      2  C2  BZF d   1      -1.342  -0.009   0.246  0.00  0.00     0.174 A 
ATOM      3  C3  BZF d   1      -0.208   0.644  -0.079  0.00  0.00    -0.012 A 
ATOM      4  C3A BZF d   1       0.842  -0.075   0.576  0.00  0.00    -0.107 A 
ATOM      5  C4  BZF d   1       2.198   0.078   0.622  0.00  0.00     0.055 A 
ATOM      6  C5  BZF d   1       2.929  -0.751   1.413  0.00  0.00    -0.016 A 
ATOM      7  C6  BZF d   1       2.338  -1.738   2.173  0.00  0.00     0.022 A 
ATOM      8  C7  BZF d   1       0.996  -1.931   2.156  0.00  0.00     0.029 A 
ATOM      9  C7A BZF d   1       0.258  -1.117   1.333  0.00  0.00     0.058 A 
ENDROOT
TORSDOF 0
ENDMDL
