MODEL 1
REMARK minimizedAffinity -4.69648027
REMARK minimizedRMSD -1
REMARK  0 active torsions:
REMARK  status: ('A' for Active; 'I' for Inactive)
ROOT
ATOM      1  O1  BZF d   1      -0.077   1.526   0.753  0.00  0.00    -0.204 OA
ATOM      2  C2  BZF d   1      -1.178   0.785   0.370  0.00  0.00     0.174 A 
ATOM      3  C3  BZF d   1      -0.850  -0.514   0.213  0.00  0.00    -0.012 A 
ATOM      4  C3A BZF d   1       0.523  -0.605   0.607  0.00  0.00    -0.107 A 
ATOM      5  C4  BZF d   1       1.410  -1.640   0.685  0.00  0.00     0.055 A 
ATOM      6  C5  BZF d   1       2.697  -1.381   1.037  0.00  0.00    -0.016 A 
ATOM      7  C6  BZF d   1       3.132  -0.101   1.311  0.00  0.00     0.022 A 
ATOM      8  C7  BZF d   1       2.287   0.957   1.252  0.00  0.00     0.029 A 
ATOM      9  C7A BZF d   1       0.978   0.695   0.929  0.00  0.00     0.058 A 
ENDROOT
TORSDOF 0
ENDMDL
