MODEL 1
REMARK minimizedAffinity 4.67239571
REMARK minimizedRMSD -1
REMARK  0 active torsions:
REMARK  status: ('A' for Active; 'I' for Inactive)
ROOT
ATOM      1  C1  BNZ d   1      -2.849  -0.272  -1.360  0.00  0.00     0.000 A 
ATOM      2  C2  BNZ d   1      -2.312   0.413  -0.303  0.00  0.00     0.000 A 
ATOM      3  C3  BNZ d   1      -1.223   1.222  -0.472  0.00  0.00     0.000 A 
ATOM      4  C4  BNZ d   1      -0.648   1.312  -1.689  0.00  0.00     0.000 A 
ATOM      5  C5  BNZ d   1      -1.171   0.620  -2.763  0.00  0.00     0.000 A 
ATOM      6  C6  BNZ d   1      -2.291  -0.162  -2.597  0.00  0.00     0.000 A 
ENDROOT
TORSDOF 0
ENDMDL
