MODEL 1
REMARK minimizedAffinity -3.33896708
REMARK minimizedRMSD -1
REMARK  0 active torsions:
REMARK  status: ('A' for Active; 'I' for Inactive)
ROOT
ATOM      1  C1  BNZ d   1      -5.640  -2.687   3.656  0.00  0.00     0.000 A 
ATOM      2  C2  BNZ d   1      -5.760  -1.331   3.506  0.00  0.00     0.000 A 
ATOM      3  C3  BNZ d   1      -5.723  -0.501   4.591  0.00  0.00     0.000 A 
ATOM      4  C4  BNZ d   1      -5.609  -1.029   5.827  0.00  0.00     0.000 A 
ATOM      5  C5  BNZ d   1      -5.497  -2.395   5.995  0.00  0.00     0.000 A 
ATOM      6  C6  BNZ d   1      -5.494  -3.225   4.897  0.00  0.00     0.000 A 
ENDROOT
TORSDOF 0
ENDMDL
