MODEL 1
REMARK minimizedAffinity 2.47344398
REMARK minimizedRMSD -1
REMARK  0 active torsions:
REMARK  status: ('A' for Active; 'I' for Inactive)
ROOT
ATOM      1  C1  BNZ d   1      -4.885   0.912  -1.255  0.00  0.00     0.000 A 
ATOM      2  C2  BNZ d   1      -5.631   2.034  -1.500  0.00  0.00     0.000 A 
ATOM      3  C3  BNZ d   1      -5.123   3.065  -2.240  0.00  0.00     0.000 A 
ATOM      4  C4  BNZ d   1      -3.858   2.990  -2.700  0.00  0.00     0.000 A 
ATOM      5  C5  BNZ d   1      -3.089   1.870  -2.454  0.00  0.00     0.000 A 
ATOM      6  C6  BNZ d   1      -3.617   0.818  -1.742  0.00  0.00     0.000 A 
ENDROOT
TORSDOF 0
ENDMDL
