MODEL 1
REMARK minimizedAffinity -2.55029297
REMARK minimizedRMSD -1
REMARK  0 active torsions:
REMARK  status: ('A' for Active; 'I' for Inactive)
ROOT
ATOM      1  C1  BNZ d   1       2.588   5.078   2.222  0.00  0.00     0.000 A 
ATOM      2  C2  BNZ d   1       1.640   4.979   1.238  0.00  0.00     0.000 A 
ATOM      3  C3  BNZ d   1       0.824   3.886   1.160  0.00  0.00     0.000 A 
ATOM      4  C4  BNZ d   1       0.983   2.876   2.040  0.00  0.00     0.000 A 
ATOM      5  C5  BNZ d   1       1.940   2.956   3.031  0.00  0.00     0.000 A 
ATOM      6  C6  BNZ d   1       2.734   4.076   3.131  0.00  0.00     0.000 A 
ENDROOT
TORSDOF 0
ENDMDL
