MODEL 1
REMARK minimizedAffinity -3.79747748
REMARK minimizedRMSD -1
REMARK  0 active torsions:
REMARK  status: ('A' for Active; 'I' for Inactive)
ROOT
ATOM      1  C1  BNZ d   1       0.378   1.349   0.485  0.00  0.00     0.000 A 
ATOM      2  C2  BNZ d   1       0.110   2.592  -0.023  0.00  0.00     0.000 A 
ATOM      3  C3  BNZ d   1       0.175   3.702   0.772  0.00  0.00     0.000 A 
ATOM      4  C4  BNZ d   1       0.467   3.563   2.081  0.00  0.00     0.000 A 
ATOM      5  C5  BNZ d   1       0.730   2.316   2.611  0.00  0.00     0.000 A 
ATOM      6  C6  BNZ d   1       0.703   1.205   1.799  0.00  0.00     0.000 A 
ENDROOT
TORSDOF 0
ENDMDL
