MODEL 1
REMARK minimizedAffinity -0.827134907
REMARK minimizedRMSD -1
REMARK  0 active torsions:
REMARK  status: ('A' for Active; 'I' for Inactive)
ROOT
ATOM      1  C1  BNZ d   1       0.725   1.006   1.411  0.00  0.00     0.000 A 
ATOM      2  C2  BNZ d   1       1.738   0.181   1.820  0.00  0.00     0.000 A 
ATOM      3  C3  BNZ d   1       2.351  -0.665   0.939  0.00  0.00     0.000 A 
ATOM      4  C4  BNZ d   1       1.925  -0.714  -0.339  0.00  0.00     0.000 A 
ATOM      5  C5  BNZ d   1       0.898   0.105  -0.766  0.00  0.00     0.000 A 
ATOM      6  C6  BNZ d   1       0.309   0.983   0.115  0.00  0.00     0.000 A 
ENDROOT
TORSDOF 0
ENDMDL
