MODEL 1
REMARK minimizedAffinity -2.17807961
REMARK minimizedRMSD -1
REMARK  0 active torsions:
REMARK  status: ('A' for Active; 'I' for Inactive)
ROOT
ATOM      1  C1  BNZ d   1       2.313  -0.615   2.268  0.00  0.00     0.000 A 
ATOM      2  C2  BNZ d   1       2.389  -0.544   0.902  0.00  0.00     0.000 A 
ATOM      3  C3  BNZ d   1       1.366  -0.007   0.171  0.00  0.00     0.000 A 
ATOM      4  C4  BNZ d   1       0.253   0.419   0.803  0.00  0.00     0.000 A 
ATOM      5  C5  BNZ d   1       0.157   0.345   2.178  0.00  0.00     0.000 A 
ATOM      6  C6  BNZ d   1       1.205  -0.160   2.913  0.00  0.00     0.000 A 
ENDROOT
TORSDOF 0
ENDMDL
