MODEL 1
REMARK minimizedAffinity -4.16590405
REMARK minimizedRMSD -1
REMARK  0 active torsions:
REMARK  status: ('A' for Active; 'I' for Inactive)
ROOT
ATOM      1  C   UNL d   1      -0.650  -1.004  -1.390  0.00  0.00     0.078 C 
ATOM      2  C1  UNL d   1      -0.414   0.421  -0.988  0.00  0.00    -0.077 A 
ATOM      3  C2  UNL d   1      -0.507   0.817   0.352  0.00  0.00    -0.001 A 
ATOM      4  C3  UNL d   1      -0.294   2.149   0.711  0.00  0.00     0.003 A 
ATOM      5  C4  UNL d   1       0.012   3.096  -0.265  0.00  0.00    -0.005 A 
ATOM      6  C5  UNL d   1       0.105   2.712  -1.601  0.00  0.00     0.003 A 
ATOM      7  C6  UNL d   1      -0.107   1.380  -1.961  0.00  0.00    -0.001 A 
ENDROOT
TORSDOF 0
ENDMDL
