MODEL 1
REMARK minimizedAffinity -5.28573132
REMARK minimizedRMSD -1
REMARK  0 active torsions:
REMARK  status: ('A' for Active; 'I' for Inactive)
ROOT
ATOM      1  C   UNL d   1       0.243  -0.988  -0.266  0.00  0.00     0.078 C 
ATOM      2  C1  UNL d   1       0.333   0.494  -0.053  0.00  0.00    -0.077 A 
ATOM      3  C2  UNL d   1       1.573   1.143  -0.011  0.00  0.00    -0.001 A 
ATOM      4  C3  UNL d   1       1.642   2.521   0.198  0.00  0.00     0.003 A 
ATOM      5  C4  UNL d   1       0.474   3.262   0.369  0.00  0.00    -0.005 A 
ATOM      6  C5  UNL d   1      -0.764   2.625   0.331  0.00  0.00     0.003 A 
ATOM      7  C6  UNL d   1      -0.835   1.246   0.122  0.00  0.00    -0.001 A 
ENDROOT
TORSDOF 0
ENDMDL
