MODEL 1
REMARK minimizedAffinity -3.98443747
REMARK minimizedRMSD -1
REMARK  0 active torsions:
REMARK  status: ('A' for Active; 'I' for Inactive)
ROOT
ATOM      1  C   UNL d   1      -0.060   3.623  -0.506  0.00  0.00     0.078 C 
ATOM      2  C1  UNL d   1      -0.332   2.194  -0.144  0.00  0.00    -0.077 A 
ATOM      3  C2  UNL d   1      -1.404   1.852   0.689  0.00  0.00    -0.001 A 
ATOM      4  C3  UNL d   1      -1.640   0.518   1.025  0.00  0.00     0.003 A 
ATOM      5  C4  UNL d   1      -0.808  -0.485   0.533  0.00  0.00    -0.005 A 
ATOM      6  C5  UNL d   1       0.263  -0.155  -0.296  0.00  0.00     0.003 A 
ATOM      7  C6  UNL d   1       0.500   1.179  -0.633  0.00  0.00    -0.001 A 
ENDROOT
TORSDOF 0
ENDMDL
