MODEL 1
REMARK minimizedAffinity -5.45946789
REMARK minimizedRMSD -1
REMARK  0 active torsions:
REMARK  status: ('A' for Active; 'I' for Inactive)
ROOT
ATOM      1  C   UNL d   1       0.052  -1.304   0.597  0.00  0.00     0.078 C 
ATOM      2  C1  UNL d   1      -0.006   0.184   0.426  0.00  0.00    -0.077 A 
ATOM      3  C2  UNL d   1      -1.168   0.901   0.736  0.00  0.00    -0.001 A 
ATOM      4  C3  UNL d   1      -1.211   2.285   0.563  0.00  0.00     0.003 A 
ATOM      5  C4  UNL d   1      -0.095   2.965   0.077  0.00  0.00    -0.005 A 
ATOM      6  C5  UNL d   1       1.065   2.260  -0.236  0.00  0.00     0.003 A 
ATOM      7  C6  UNL d   1       1.110   0.875  -0.063  0.00  0.00    -0.001 A 
ENDROOT
TORSDOF 0
ENDMDL
