MODEL 1
REMARK minimizedAffinity -3.59812236
REMARK minimizedRMSD -1
REMARK  0 active torsions:
REMARK  status: ('A' for Active; 'I' for Inactive)
ROOT
ATOM      1  C   UNL d   1      -0.017  -2.890  -2.312  0.00  0.00     0.078 C 
ATOM      2  C1  UNL d   1      -0.115  -1.779  -1.310  0.00  0.00    -0.077 A 
ATOM      3  C2  UNL d   1      -0.345  -0.459  -1.716  0.00  0.00    -0.001 A 
ATOM      4  C3  UNL d   1      -0.425   0.566  -0.772  0.00  0.00     0.003 A 
ATOM      5  C4  UNL d   1      -0.275   0.282   0.584  0.00  0.00    -0.005 A 
ATOM      6  C5  UNL d   1      -0.044  -1.028   0.997  0.00  0.00     0.003 A 
ATOM      7  C6  UNL d   1       0.037  -2.055   0.055  0.00  0.00    -0.001 A 
ENDROOT
TORSDOF 0
ENDMDL
