MODEL 1
REMARK minimizedAffinity -4.19420099
REMARK minimizedRMSD -1
REMARK  0 active torsions:
REMARK  status: ('A' for Active; 'I' for Inactive)
ROOT
ATOM      1  C   UNL d   1       0.842   3.003  -0.390  0.00  0.00     0.078 C 
ATOM      2  C1  UNL d   1       0.449   1.598  -0.042  0.00  0.00    -0.077 A 
ATOM      3  C2  UNL d   1       1.387   0.559  -0.072  0.00  0.00    -0.001 A 
ATOM      4  C3  UNL d   1       1.005  -0.746   0.245  0.00  0.00     0.003 A 
ATOM      5  C4  UNL d   1      -0.315  -1.023   0.593  0.00  0.00    -0.005 A 
ATOM      6  C5  UNL d   1      -1.256   0.004   0.624  0.00  0.00     0.003 A 
ATOM      7  C6  UNL d   1      -0.876   1.309   0.307  0.00  0.00    -0.001 A 
ENDROOT
TORSDOF 0
ENDMDL
