MODEL 1
REMARK minimizedAffinity -4.20184469
REMARK minimizedRMSD -1
REMARK  0 active torsions:
REMARK  status: ('A' for Active; 'I' for Inactive)
ROOT
ATOM      1  C   UNL d   1       0.252  -1.117   0.227  0.00  0.00     0.078 C 
ATOM      2  C1  UNL d   1      -0.208  -1.854  -0.995  0.00  0.00    -0.077 A 
ATOM      3  C2  UNL d   1      -0.825  -3.107  -0.893  0.00  0.00    -0.001 A 
ATOM      4  C3  UNL d   1      -1.239  -3.785  -2.040  0.00  0.00     0.003 A 
ATOM      5  C4  UNL d   1      -1.040  -3.220  -3.298  0.00  0.00    -0.005 A 
ATOM      6  C5  UNL d   1      -0.425  -1.975  -3.410  0.00  0.00     0.003 A 
ATOM      7  C6  UNL d   1      -0.010  -1.294  -2.264  0.00  0.00    -0.001 A 
ENDROOT
TORSDOF 0
ENDMDL
