MODEL 1
REMARK minimizedAffinity 0.573539972
REMARK minimizedRMSD -1
REMARK  0 active torsions:
REMARK  status: ('A' for Active; 'I' for Inactive)
ROOT
ATOM      1  C   UNL d   1      -0.098  -1.825  -0.009  0.00  0.00     0.078 C 
ATOM      2  C1  UNL d   1      -0.439  -0.394   0.282  0.00  0.00    -0.077 A 
ATOM      3  C2  UNL d   1      -1.697  -0.040   0.785  0.00  0.00    -0.001 A 
ATOM      4  C3  UNL d   1      -2.004   1.297   1.042  0.00  0.00     0.003 A 
ATOM      5  C4  UNL d   1      -1.059   2.291   0.796  0.00  0.00    -0.005 A 
ATOM      6  C5  UNL d   1       0.194   1.949   0.293  0.00  0.00     0.003 A 
ATOM      7  C6  UNL d   1       0.503   0.613   0.036  0.00  0.00    -0.001 A 
ENDROOT
TORSDOF 0
ENDMDL
