MODEL 1
REMARK minimizedAffinity -5.20332241
REMARK minimizedRMSD -1
REMARK  0 active torsions:
REMARK  status: ('A' for Active; 'I' for Inactive)
ROOT
ATOM      1  C   UNL d   1       0.004  -0.938   0.702  0.00  0.00     0.078 C 
ATOM      2  C1  UNL d   1      -0.050   0.426   0.083  0.00  0.00    -0.077 A 
ATOM      3  C2  UNL d   1      -0.420   0.596  -1.257  0.00  0.00    -0.001 A 
ATOM      4  C3  UNL d   1      -0.457   1.872  -1.822  0.00  0.00     0.003 A 
ATOM      5  C4  UNL d   1      -0.124   2.987  -1.056  0.00  0.00    -0.005 A 
ATOM      6  C5  UNL d   1       0.248   2.828   0.277  0.00  0.00     0.003 A 
ATOM      7  C6  UNL d   1       0.285   1.553   0.845  0.00  0.00    -0.001 A 
ENDROOT
TORSDOF 0
ENDMDL
