MODEL 1
REMARK minimizedAffinity -1.85216117
REMARK minimizedRMSD -1
REMARK  1 active torsions:
REMARK  status: ('A' for Active; 'I' for Inactive)
REMARK    1  A    between atoms: C3_4  and  O_7 
ROOT
ATOM      1  C   UNL d   1       0.931   0.243  -0.008  0.00  0.00    -0.033 A 
ATOM      2  C1  UNL d   1       0.051  -0.492   0.789  0.00  0.00     0.039 A 
ATOM      3  C2  UNL d   1      -1.223  -0.812   0.313  0.00  0.00    -0.080 A 
ATOM      4  C3  UNL d   1      -1.602  -0.393  -0.958  0.00  0.00     0.150 A 
ATOM      5  C4  UNL d   1      -0.729   0.336  -1.759  0.00  0.00    -0.007 A 
ATOM      6  C5  UNL d   1       0.541   0.656  -1.282  0.00  0.00     0.039 A 
ENDROOT
BRANCH   4   7
ATOM      7  O   UNL d   1      -2.836  -0.677  -1.463  0.00  0.00    -0.526 OA
ATOM      8  H5  UNL d   1      -3.341  -1.161  -0.789  0.00  0.00     0.418 HD
ENDBRANCH   4   7
TORSDOF 1
ENDMDL
