MODEL 1
REMARK minimizedAffinity -4.23432779
REMARK minimizedRMSD -1
REMARK  1 active torsions:
REMARK  status: ('A' for Active; 'I' for Inactive)
REMARK    1  A    between atoms: C3_4  and  O_7 
ROOT
ATOM      1  C   UNL d   1      -1.039   0.747  -1.753  0.00  0.00    -0.033 A 
ATOM      2  C1  UNL d   1      -2.103  -0.068  -1.360  0.00  0.00     0.039 A 
ATOM      3  C2  UNL d   1      -1.919  -1.024  -0.359  0.00  0.00    -0.080 A 
ATOM      4  C3  UNL d   1      -0.669  -1.155   0.240  0.00  0.00     0.150 A 
ATOM      5  C4  UNL d   1       0.394  -0.344  -0.145  0.00  0.00    -0.007 A 
ATOM      6  C5  UNL d   1       0.209   0.609  -1.145  0.00  0.00     0.039 A 
ENDROOT
BRANCH   4   7
ATOM      7  O   UNL d   1      -0.440  -2.078   1.217  0.00  0.00    -0.526 OA
ATOM      8  H5  UNL d   1      -1.257  -2.585   1.358  0.00  0.00     0.418 HD
ENDBRANCH   4   7
TORSDOF 1
ENDMDL
