MODEL 1
REMARK minimizedAffinity -2.12372279
REMARK minimizedRMSD -1
REMARK  1 active torsions:
REMARK  status: ('A' for Active; 'I' for Inactive)
REMARK    1  A    between atoms: C3_4  and  O_7 
ROOT
ATOM      1  C   UNL d   1      -1.134   0.227  -1.480  0.00  0.00    -0.033 A 
ATOM      2  C1  UNL d   1       0.050   0.268  -0.741  0.00  0.00     0.039 A 
ATOM      3  C2  UNL d   1       0.253  -0.633   0.307  0.00  0.00    -0.080 A 
ATOM      4  C3  UNL d   1      -0.734  -1.568   0.605  0.00  0.00     0.150 A 
ATOM      5  C4  UNL d   1      -1.914  -1.617  -0.129  0.00  0.00    -0.007 A 
ATOM      6  C5  UNL d   1      -2.116  -0.716  -1.175  0.00  0.00     0.039 A 
ENDROOT
BRANCH   4   7
ATOM      7  O   UNL d   1      -0.583  -2.464   1.621  0.00  0.00    -0.526 OA
ATOM      8  H5  UNL d   1       0.268  -2.293   2.058  0.00  0.00     0.418 HD
ENDBRANCH   4   7
TORSDOF 1
ENDMDL
