MODEL 1
REMARK minimizedAffinity -3.57483649
REMARK minimizedRMSD -1
REMARK  1 active torsions:
REMARK  status: ('A' for Active; 'I' for Inactive)
REMARK    1  A    between atoms: C3_4  and  O_7 
ROOT
ATOM      1  C   UNL d   1       3.004   2.440   0.987  0.00  0.00    -0.033 A 
ATOM      2  C1  UNL d   1       2.998   1.586  -0.117  0.00  0.00     0.039 A 
ATOM      3  C2  UNL d   1       1.928   0.713  -0.321  0.00  0.00    -0.080 A 
ATOM      4  C3  UNL d   1       0.871   0.704   0.586  0.00  0.00     0.150 A 
ATOM      5  C4  UNL d   1       0.869   1.554   1.687  0.00  0.00    -0.007 A 
ATOM      6  C5  UNL d   1       1.939   2.425   1.889  0.00  0.00     0.039 A 
ENDROOT
BRANCH   4   7
ATOM      7  O   UNL d   1      -0.193  -0.134   0.432  0.00  0.00    -0.526 OA
ATOM      8  H5  UNL d   1      -0.041  -0.683  -0.356  0.00  0.00     0.418 HD
ENDBRANCH   4   7
TORSDOF 1
ENDMDL
