MODEL 1
REMARK minimizedAffinity -3.10687661
REMARK minimizedRMSD -1
REMARK  1 active torsions:
REMARK  status: ('A' for Active; 'I' for Inactive)
REMARK    1  A    between atoms: C3_4  and  O_7 
ROOT
ATOM      1  C   UNL d   1      -1.169  -1.279   0.645  0.00  0.00    -0.033 A 
ATOM      2  C1  UNL d   1      -2.134  -1.130  -0.353  0.00  0.00     0.039 A 
ATOM      3  C2  UNL d   1      -1.857  -0.361  -1.486  0.00  0.00    -0.080 A 
ATOM      4  C3  UNL d   1      -0.612   0.251  -1.608  0.00  0.00     0.150 A 
ATOM      5  C4  UNL d   1       0.355   0.103  -0.620  0.00  0.00    -0.007 A 
ATOM      6  C5  UNL d   1       0.076  -0.664   0.511  0.00  0.00     0.039 A 
ENDROOT
BRANCH   4   7
ATOM      7  O   UNL d   1      -0.297   1.014  -2.693  0.00  0.00    -0.526 OA
ATOM      8  H5  UNL d   1      -1.072   1.050  -3.279  0.00  0.00     0.418 HD
ENDBRANCH   4   7
TORSDOF 1
ENDMDL
