MODEL 1
REMARK minimizedAffinity -1.55544269
REMARK minimizedRMSD -1
REMARK  1 active torsions:
REMARK  status: ('A' for Active; 'I' for Inactive)
REMARK    1  A    between atoms: C3_4  and  O_7 
ROOT
ATOM      1  C   UNL d   1       0.025   0.770  -0.862  0.00  0.00    -0.033 A 
ATOM      2  C1  UNL d   1      -1.115  -0.027  -0.984  0.00  0.00     0.039 A 
ATOM      3  C2  UNL d   1      -1.266  -1.160  -0.182  0.00  0.00    -0.080 A 
ATOM      4  C3  UNL d   1      -0.272  -1.484   0.737  0.00  0.00     0.150 A 
ATOM      5  C4  UNL d   1       0.865  -0.692   0.867  0.00  0.00    -0.007 A 
ATOM      6  C5  UNL d   1       1.014   0.438   0.065  0.00  0.00     0.039 A 
ENDROOT
BRANCH   4   7
ATOM      7  O   UNL d   1      -0.372  -2.582   1.538  0.00  0.00    -0.526 OA
ATOM      8  H5  UNL d   1      -1.195  -3.050   1.318  0.00  0.00     0.418 HD
ENDBRANCH   4   7
TORSDOF 1
ENDMDL
