MODEL 1
REMARK minimizedAffinity -3.30092812
REMARK minimizedRMSD -1
REMARK  1 active torsions:
REMARK  status: ('A' for Active; 'I' for Inactive)
REMARK    1  A    between atoms: C3_4  and  O_7 
ROOT
ATOM      1  C   UNL d   1       1.845   1.080   0.143  0.00  0.00    -0.033 A 
ATOM      2  C1  UNL d   1       2.274   2.278   0.717  0.00  0.00     0.039 A 
ATOM      3  C2  UNL d   1       2.610   2.325   2.071  0.00  0.00    -0.080 A 
ATOM      4  C3  UNL d   1       2.516   1.167   2.839  0.00  0.00     0.150 A 
ATOM      5  C4  UNL d   1       2.093  -0.031   2.273  0.00  0.00    -0.007 A 
ATOM      6  C5  UNL d   1       1.756  -0.075   0.921  0.00  0.00     0.039 A 
ENDROOT
BRANCH   4   7
ATOM      7  O   UNL d   1       2.829   1.165   4.165  0.00  0.00    -0.526 OA
ATOM      8  H5  UNL d   1       3.077   2.068   4.425  0.00  0.00     0.418 HD
ENDBRANCH   4   7
TORSDOF 1
ENDMDL
