MODEL 1
REMARK minimizedAffinity -2.40163708
REMARK minimizedRMSD -1
REMARK  1 active torsions:
REMARK  status: ('A' for Active; 'I' for Inactive)
REMARK    1  A    between atoms: C3_4  and  O_7 
ROOT
ATOM      1  C   UNL d   1       3.332   2.855   0.984  0.00  0.00    -0.033 A 
ATOM      2  C1  UNL d   1       2.287   2.709   1.898  0.00  0.00     0.039 A 
ATOM      3  C2  UNL d   1       1.395   1.641   1.777  0.00  0.00    -0.080 A 
ATOM      4  C3  UNL d   1       1.560   0.727   0.740  0.00  0.00     0.150 A 
ATOM      5  C4  UNL d   1       2.602   0.864  -0.172  0.00  0.00    -0.007 A 
ATOM      6  C5  UNL d   1       3.491   1.932  -0.050  0.00  0.00     0.039 A 
ENDROOT
BRANCH   4   7
ATOM      7  O   UNL d   1       0.713  -0.328   0.578  0.00  0.00    -0.526 OA
ATOM      8  H5  UNL d   1       0.026  -0.278   1.264  0.00  0.00     0.418 HD
ENDBRANCH   4   7
TORSDOF 1
ENDMDL
