MODEL 1
REMARK minimizedAffinity 7.87411118
REMARK minimizedRMSD -1
REMARK  1 active torsions:
REMARK  status: ('A' for Active; 'I' for Inactive)
REMARK    1  A    between atoms: C3_4  and  O_7 
ROOT
ATOM      1  C   UNL d   1      -1.962  -1.457  -0.592  0.00  0.00    -0.033 A 
ATOM      2  C1  UNL d   1      -1.080  -1.414  -1.673  0.00  0.00     0.039 A 
ATOM      3  C2  UNL d   1      -1.129  -0.348  -2.574  0.00  0.00    -0.080 A 
ATOM      4  C3  UNL d   1      -2.064   0.666  -2.383  0.00  0.00     0.150 A 
ATOM      5  C4  UNL d   1      -2.943   0.631  -1.306  0.00  0.00    -0.007 A 
ATOM      6  C5  UNL d   1      -2.893  -0.434  -0.408  0.00  0.00     0.039 A 
ENDROOT
BRANCH   4   7
ATOM      7  O   UNL d   1      -2.153   1.723  -3.239  0.00  0.00    -0.526 OA
ATOM      8  H5  UNL d   1      -1.503   1.599  -3.951  0.00  0.00     0.418 HD
ENDBRANCH   4   7
TORSDOF 1
ENDMDL
