MODEL 1
REMARK minimizedAffinity 1.07339227
REMARK minimizedRMSD -1
REMARK  1 active torsions:
REMARK  status: ('A' for Active; 'I' for Inactive)
REMARK    1  A    between atoms: C3_4  and  O_7 
ROOT
ATOM      1  C   UNL d   1      -2.065  -0.261  -1.661  0.00  0.00    -0.033 A 
ATOM      2  C1  UNL d   1      -0.799  -0.244  -1.071  0.00  0.00     0.039 A 
ATOM      3  C2  UNL d   1      -0.575  -0.930   0.124  0.00  0.00    -0.080 A 
ATOM      4  C3  UNL d   1      -1.622  -1.629   0.718  0.00  0.00     0.150 A 
ATOM      5  C4  UNL d   1      -2.885  -1.653   0.134  0.00  0.00    -0.007 A 
ATOM      6  C5  UNL d   1      -3.107  -0.967  -1.059  0.00  0.00     0.039 A 
ENDROOT
BRANCH   4   7
ATOM      7  O   UNL d   1      -1.452  -2.310   1.887  0.00  0.00    -0.526 OA
ATOM      8  H5  UNL d   1      -0.538  -2.180   2.188  0.00  0.00     0.418 HD
ENDBRANCH   4   7
TORSDOF 1
ENDMDL
