MODEL 1
REMARK minimizedAffinity -3.61126661
REMARK minimizedRMSD -1
REMARK  1 active torsions:
REMARK  status: ('A' for Active; 'I' for Inactive)
REMARK    1  A    between atoms: C3_4  and  O_7 
ROOT
ATOM      1  C   UNL d   1      -1.361   0.502  -1.580  0.00  0.00    -0.033 A 
ATOM      2  C1  UNL d   1      -2.021  -0.711  -1.375  0.00  0.00     0.039 A 
ATOM      3  C2  UNL d   1      -1.549  -1.612  -0.419  0.00  0.00    -0.080 A 
ATOM      4  C3  UNL d   1      -0.417  -1.288   0.325  0.00  0.00     0.150 A 
ATOM      5  C4  UNL d   1       0.243  -0.080   0.128  0.00  0.00    -0.007 A 
ATOM      6  C5  UNL d   1      -0.229   0.818  -0.828  0.00  0.00     0.039 A 
ENDROOT
BRANCH   4   7
ATOM      7  O   UNL d   1       0.084  -2.137   1.266  0.00  0.00    -0.526 OA
ATOM      8  H5  UNL d   1      -0.458  -2.944   1.272  0.00  0.00     0.418 HD
ENDBRANCH   4   7
TORSDOF 1
ENDMDL
