MODEL 1
REMARK minimizedAffinity -2.40077424
REMARK minimizedRMSD -1
REMARK  1 active torsions:
REMARK  status: ('A' for Active; 'I' for Inactive)
REMARK    1  A    between atoms: C3_4  and  O_7 
ROOT
ATOM      1  C   UNL d   1      -1.844  -0.050  -1.430  0.00  0.00    -0.033 A 
ATOM      2  C1  UNL d   1      -2.407  -1.268  -1.043  0.00  0.00     0.039 A 
ATOM      3  C2  UNL d   1      -1.776  -2.055  -0.077  0.00  0.00    -0.080 A 
ATOM      4  C3  UNL d   1      -0.585  -1.613   0.493  0.00  0.00     0.150 A 
ATOM      5  C4  UNL d   1      -0.021  -0.400   0.115  0.00  0.00    -0.007 A 
ATOM      6  C5  UNL d   1      -0.652   0.384  -0.850  0.00  0.00     0.039 A 
ENDROOT
BRANCH   4   7
ATOM      7  O   UNL d   1       0.069  -2.349   1.436  0.00  0.00    -0.526 OA
ATOM      8  H5  UNL d   1      -0.422  -3.176   1.577  0.00  0.00     0.418 HD
ENDBRANCH   4   7
TORSDOF 1
ENDMDL
