MODEL 1
REMARK minimizedAffinity -4.03089333
REMARK minimizedRMSD -1
REMARK  1 active torsions:
REMARK  status: ('A' for Active; 'I' for Inactive)
REMARK    1  A    between atoms: C3_4  and  O_7 
ROOT
ATOM      1  C   UNL d   1       2.213   3.807   1.101  0.00  0.00    -0.033 A 
ATOM      2  C1  UNL d   1       2.978   3.167   0.123  0.00  0.00     0.039 A 
ATOM      3  C2  UNL d   1       2.780   1.811  -0.143  0.00  0.00    -0.080 A 
ATOM      4  C3  UNL d   1       1.815   1.108   0.572  0.00  0.00     0.150 A 
ATOM      5  C4  UNL d   1       1.046   1.740   1.544  0.00  0.00    -0.007 A 
ATOM      6  C5  UNL d   1       1.246   3.094   1.810  0.00  0.00     0.039 A 
ENDROOT
BRANCH   4   7
ATOM      7  O   UNL d   1       1.589  -0.218   0.350  0.00  0.00    -0.526 OA
ATOM      8  H5  UNL d   1       2.212  -0.528  -0.328  0.00  0.00     0.418 HD
ENDBRANCH   4   7
TORSDOF 1
ENDMDL
