MODEL 1
REMARK minimizedAffinity -2.93825412
REMARK minimizedRMSD -1
REMARK  1 active torsions:
REMARK  status: ('A' for Active; 'I' for Inactive)
REMARK    1  A    between atoms: C3_4  and  O_7 
ROOT
ATOM      1  C   UNL d   1       3.086   1.555  -1.017  0.00  0.00    -0.033 A 
ATOM      2  C1  UNL d   1       2.176   0.706  -0.384  0.00  0.00     0.039 A 
ATOM      3  C2  UNL d   1       1.518   1.125   0.774  0.00  0.00    -0.080 A 
ATOM      4  C3  UNL d   1       1.778   2.392   1.288  0.00  0.00     0.150 A 
ATOM      5  C4  UNL d   1       2.681   3.244   0.660  0.00  0.00    -0.007 A 
ATOM      6  C5  UNL d   1       3.337   2.825  -0.496  0.00  0.00     0.039 A 
ENDROOT
BRANCH   4   7
ATOM      7  O   UNL d   1       1.164   2.843   2.418  0.00  0.00    -0.526 OA
ATOM      8  H5  UNL d   1       0.589   2.137   2.759  0.00  0.00     0.418 HD
ENDBRANCH   4   7
TORSDOF 1
ENDMDL
