MODEL 1
REMARK minimizedAffinity -3.58942366
REMARK minimizedRMSD -1
REMARK  1 active torsions:
REMARK  status: ('A' for Active; 'I' for Inactive)
REMARK    1  A    between atoms: C3_4  and  O_7 
ROOT
ATOM      1  C   UNL d   1      -2.657  -0.840  -1.225  0.00  0.00    -0.033 A 
ATOM      2  C1  UNL d   1      -2.107  -1.642  -0.222  0.00  0.00     0.039 A 
ATOM      3  C2  UNL d   1      -0.902  -1.279   0.382  0.00  0.00    -0.080 A 
ATOM      4  C3  UNL d   1      -0.258  -0.114  -0.024  0.00  0.00     0.150 A 
ATOM      5  C4  UNL d   1      -0.801   0.691  -1.020  0.00  0.00    -0.007 A 
ATOM      6  C5  UNL d   1      -2.004   0.327  -1.623  0.00  0.00     0.039 A 
ENDROOT
BRANCH   4   7
ATOM      7  O   UNL d   1       0.923   0.279   0.533  0.00  0.00    -0.526 OA
ATOM      8  H5  UNL d   1       1.192  -0.389   1.186  0.00  0.00     0.418 HD
ENDBRANCH   4   7
TORSDOF 1
ENDMDL
