MODEL 1
REMARK minimizedAffinity -0.947757185
REMARK minimizedRMSD -1
REMARK  1 active torsions:
REMARK  status: ('A' for Active; 'I' for Inactive)
REMARK    1  A    between atoms: C3_4  and  O_7 
ROOT
ATOM      1  C   UNL d   1       3.182   3.170   1.535  0.00  0.00    -0.033 A 
ATOM      2  C1  UNL d   1       1.920   3.092   2.127  0.00  0.00     0.039 A 
ATOM      3  C2  UNL d   1       0.976   2.183   1.644  0.00  0.00    -0.080 A 
ATOM      4  C3  UNL d   1       1.307   1.358   0.573  0.00  0.00     0.150 A 
ATOM      5  C4  UNL d   1       2.564   1.428  -0.019  0.00  0.00    -0.007 A 
ATOM      6  C5  UNL d   1       3.504   2.337   0.463  0.00  0.00     0.039 A 
ENDROOT
BRANCH   4   7
ATOM      7  O   UNL d   1       0.417   0.459   0.064  0.00  0.00    -0.526 OA
ATOM      8  H5  UNL d   1      -0.418   0.542   0.554  0.00  0.00     0.418 HD
ENDBRANCH   4   7
TORSDOF 1
ENDMDL
