MODEL 1
REMARK minimizedAffinity 14.4099302
REMARK minimizedRMSD -1
REMARK  0 active torsions:
REMARK  status: ('A' for Active; 'I' for Inactive)
ROOT
ATOM      1  C   UNL d   1       5.968  -5.984  -4.625  0.00  0.00    -0.002 A 
ATOM      2  C1  UNL d   1       5.294  -6.000  -3.411  0.00  0.00     0.010 A 
ATOM      3  C2  UNL d   1       4.421  -4.964  -3.071  0.00  0.00     0.041 A 
ATOM      4  C3  UNL d   1       4.233  -3.904  -3.980  0.00  0.00    -0.075 A 
ATOM      5  S   UNL d   1       3.213  -2.530  -3.777  0.00  0.00     0.015 SA
ATOM      6  C4  UNL d   1       3.647  -1.890  -5.296  0.00  0.00     0.022 A 
ATOM      7  C5  UNL d   1       4.547  -2.693  -5.955  0.00  0.00     0.026 A 
ATOM      8  C6  UNL d   1       4.900  -3.867  -5.208  0.00  0.00    -0.082 A 
ATOM      9  C7  UNL d   1       5.779  -4.931  -5.523  0.00  0.00     0.045 A 
ENDROOT
TORSDOF 0
ENDMDL
