MODEL 1
REMARK minimizedAffinity 7.97639418
REMARK minimizedRMSD -1
REMARK  0 active torsions:
REMARK  status: ('A' for Active; 'I' for Inactive)
ROOT
ATOM      1  C   UNL d   1      -0.379  -0.767   1.943  0.00  0.00    -0.002 A 
ATOM      2  C1  UNL d   1       0.846  -1.341   1.635  0.00  0.00     0.010 A 
ATOM      3  C2  UNL d   1       1.536  -0.966   0.480  0.00  0.00     0.041 A 
ATOM      4  C3  UNL d   1       0.968   0.005  -0.367  0.00  0.00    -0.075 A 
ATOM      5  S   UNL d   1       1.633   0.620  -1.835  0.00  0.00     0.015 SA
ATOM      6  C4  UNL d   1       0.306   1.659  -2.088  0.00  0.00     0.022 A 
ATOM      7  C5  UNL d   1      -0.631   1.553  -1.087  0.00  0.00     0.026 A 
ATOM      8  C6  UNL d   1      -0.264   0.598  -0.078  0.00  0.00    -0.082 A 
ATOM      9  C7  UNL d   1      -0.939   0.196   1.099  0.00  0.00     0.045 A 
ENDROOT
TORSDOF 0
ENDMDL
