MODEL 1
REMARK minimizedAffinity 10.9189205
REMARK minimizedRMSD -1
REMARK  0 active torsions:
REMARK  status: ('A' for Active; 'I' for Inactive)
ROOT
ATOM      1  C   UNL d   1       3.505  -1.877  -3.915  0.00  0.00    -0.002 A 
ATOM      2  C1  UNL d   1       3.731  -1.712  -5.274  0.00  0.00     0.010 A 
ATOM      3  C2  UNL d   1       4.462  -2.660  -5.993  0.00  0.00     0.041 A 
ATOM      4  C3  UNL d   1       4.965  -3.789  -5.317  0.00  0.00    -0.075 A 
ATOM      5  S   UNL d   1       5.886  -5.080  -5.993  0.00  0.00     0.015 SA
ATOM      6  C4  UNL d   1       6.000  -5.882  -4.493  0.00  0.00     0.022 A 
ATOM      7  C5  UNL d   1       5.357  -5.196  -3.491  0.00  0.00     0.026 A 
ATOM      8  C6  UNL d   1       4.749  -3.978  -3.949  0.00  0.00    -0.082 A 
ATOM      9  C7  UNL d   1       4.005  -2.999  -3.248  0.00  0.00     0.045 A 
ENDROOT
TORSDOF 0
ENDMDL
