MODEL 1
REMARK minimizedAffinity 8.30137634
REMARK minimizedRMSD -1
REMARK  0 active torsions:
REMARK  status: ('A' for Active; 'I' for Inactive)
ROOT
ATOM      1  C   UNL d   1       5.477  -2.732  -2.138  0.00  0.00    -0.002 A 
ATOM      2  C1  UNL d   1       4.559  -2.067  -2.938  0.00  0.00     0.010 A 
ATOM      3  C2  UNL d   1       4.146  -2.617  -4.153  0.00  0.00     0.041 A 
ATOM      4  C3  UNL d   1       4.674  -3.860  -4.553  0.00  0.00    -0.075 A 
ATOM      5  S   UNL d   1       4.313  -4.726  -5.999  0.00  0.00     0.015 SA
ATOM      6  C4  UNL d   1       5.369  -6.000  -5.589  0.00  0.00     0.022 A 
ATOM      7  C5  UNL d   1       5.990  -5.786  -4.382  0.00  0.00     0.026 A 
ATOM      8  C6  UNL d   1       5.600  -4.549  -3.764  0.00  0.00    -0.082 A 
ATOM      9  C7  UNL d   1       6.000  -3.965  -2.538  0.00  0.00     0.045 A 
ENDROOT
TORSDOF 0
ENDMDL
