MODEL 1
REMARK minimizedAffinity 15.028204
REMARK minimizedRMSD -1
REMARK  0 active torsions:
REMARK  status: ('A' for Active; 'I' for Inactive)
ROOT
ATOM      1  C   UNL d   1       5.943  -2.284  -0.705  0.00  0.00    -0.002 A 
ATOM      2  C1  UNL d   1       5.954  -0.904  -0.851  0.00  0.00     0.010 A 
ATOM      3  C2  UNL d   1       5.971  -0.071   0.269  0.00  0.00     0.041 A 
ATOM      4  C3  UNL d   1       5.978  -0.654   1.552  0.00  0.00    -0.075 A 
ATOM      5  S   UNL d   1       6.000   0.168   3.067  0.00  0.00     0.015 SA
ATOM      6  C4  UNL d   1       5.996  -1.293   3.944  0.00  0.00     0.022 A 
ATOM      7  C5  UNL d   1       5.978  -2.391   3.117  0.00  0.00     0.026 A 
ATOM      8  C6  UNL d   1       5.968  -2.041   1.725  0.00  0.00    -0.082 A 
ATOM      9  C7  UNL d   1       5.950  -2.858   0.569  0.00  0.00     0.045 A 
ENDROOT
TORSDOF 0
ENDMDL
