MODEL 1
REMARK minimizedAffinity 6.91516256
REMARK minimizedRMSD -1
REMARK  0 active torsions:
REMARK  status: ('A' for Active; 'I' for Inactive)
ROOT
ATOM      1  C   UNL d   1       3.639  -1.860  -4.917  0.00  0.00    -0.002 A 
ATOM      2  C1  UNL d   1       3.417  -2.703  -5.997  0.00  0.00     0.010 A 
ATOM      3  C2  UNL d   1       3.925  -4.003  -5.998  0.00  0.00     0.041 A 
ATOM      4  C3  UNL d   1       4.665  -4.448  -4.885  0.00  0.00    -0.075 A 
ATOM      5  S   UNL d   1       5.382  -6.000  -4.666  0.00  0.00     0.015 SA
ATOM      6  C4  UNL d   1       5.999  -5.581  -3.134  0.00  0.00     0.022 A 
ATOM      7  C5  UNL d   1       5.676  -4.292  -2.782  0.00  0.00     0.026 A 
ATOM      8  C6  UNL d   1       4.901  -3.618  -3.785  0.00  0.00    -0.082 A 
ATOM      9  C7  UNL d   1       4.373  -2.304  -3.814  0.00  0.00     0.045 A 
ENDROOT
TORSDOF 0
ENDMDL
