MODEL 1
REMARK minimizedAffinity 10.9541273
REMARK minimizedRMSD -1
REMARK  0 active torsions:
REMARK  status: ('A' for Active; 'I' for Inactive)
ROOT
ATOM      1  C   UNL d   1       5.542  -3.105  -2.315  0.00  0.00    -0.002 A 
ATOM      2  C1  UNL d   1       4.430  -2.424  -2.791  0.00  0.00     0.010 A 
ATOM      3  C2  UNL d   1       3.755  -2.872  -3.928  0.00  0.00     0.041 A 
ATOM      4  C3  UNL d   1       4.220  -4.029  -4.585  0.00  0.00    -0.075 A 
ATOM      5  S   UNL d   1       3.552  -4.763  -5.995  0.00  0.00     0.015 SA
ATOM      6  C4  UNL d   1       4.726  -5.998  -5.998  0.00  0.00     0.022 A 
ATOM      7  C5  UNL d   1       5.614  -5.869  -4.957  0.00  0.00     0.026 A 
ATOM      8  C6  UNL d   1       5.337  -4.732  -4.124  0.00  0.00    -0.082 A 
ATOM      9  C7  UNL d   1       6.000  -4.252  -2.969  0.00  0.00     0.045 A 
ENDROOT
TORSDOF 0
ENDMDL
