MODEL 1
REMARK minimizedAffinity 7.15298319
REMARK minimizedRMSD -1
REMARK  0 active torsions:
REMARK  status: ('A' for Active; 'I' for Inactive)
ROOT
ATOM      1  C   UNL d   1       5.788  -3.022  -2.249  0.00  0.00    -0.002 A 
ATOM      2  C1  UNL d   1       4.868  -2.108  -2.743  0.00  0.00     0.010 A 
ATOM      3  C2  UNL d   1       4.143  -2.387  -3.903  0.00  0.00     0.041 A 
ATOM      4  C3  UNL d   1       4.359  -3.613  -4.564  0.00  0.00    -0.075 A 
ATOM      5  S   UNL d   1       3.585  -4.169  -6.000  0.00  0.00     0.015 SA
ATOM      6  C4  UNL d   1       4.456  -5.634  -5.991  0.00  0.00     0.022 A 
ATOM      7  C5  UNL d   1       5.321  -5.713  -4.925  0.00  0.00     0.026 A 
ATOM      8  C6  UNL d   1       5.279  -4.549  -4.085  0.00  0.00    -0.082 A 
ATOM      9  C7  UNL d   1       5.999  -4.237  -2.907  0.00  0.00     0.045 A 
ENDROOT
TORSDOF 0
ENDMDL
