MODEL 1
REMARK minimizedAffinity 11.0665779
REMARK minimizedRMSD -1
REMARK  0 active torsions:
REMARK  status: ('A' for Active; 'I' for Inactive)
ROOT
ATOM      1  C   UNL d   1       2.534  -3.610  -6.000  0.00  0.00    -0.002 A 
ATOM      2  C1  UNL d   1       1.705  -4.057  -4.981  0.00  0.00     0.010 A 
ATOM      3  C2  UNL d   1       2.236  -4.718  -3.872  0.00  0.00     0.041 A 
ATOM      4  C3  UNL d   1       3.628  -4.923  -3.803  0.00  0.00    -0.075 A 
ATOM      5  S   UNL d   1       4.502  -5.707  -2.540  0.00  0.00     0.015 SA
ATOM      6  C4  UNL d   1       5.997  -5.466  -3.323  0.00  0.00     0.022 A 
ATOM      7  C5  UNL d   1       5.851  -4.805  -4.520  0.00  0.00     0.026 A 
ATOM      8  C6  UNL d   1       4.484  -4.481  -4.816  0.00  0.00    -0.082 A 
ATOM      9  C7  UNL d   1       3.914  -3.814  -5.928  0.00  0.00     0.045 A 
ENDROOT
TORSDOF 0
ENDMDL
