MODEL 1
REMARK minimizedAffinity 6.17149401
REMARK minimizedRMSD -1
REMARK  0 active torsions:
REMARK  status: ('A' for Active; 'I' for Inactive)
ROOT
ATOM      1  C   UNL d   1      -4.711  -4.687  -0.713  0.00  0.00    -0.002 A 
ATOM      2  C1  UNL d   1      -4.008  -5.766  -1.228  0.00  0.00     0.010 A 
ATOM      3  C2  UNL d   1      -2.699  -5.607  -1.688  0.00  0.00     0.041 A 
ATOM      4  C3  UNL d   1      -2.103  -4.332  -1.618  0.00  0.00    -0.075 A 
ATOM      5  S   UNL d   1      -0.511  -3.900  -2.121  0.00  0.00     0.015 SA
ATOM      6  C4  UNL d   1      -0.728  -2.273  -1.662  0.00  0.00     0.022 A 
ATOM      7  C5  UNL d   1      -1.978  -2.047  -1.136  0.00  0.00     0.026 A 
ATOM      8  C6  UNL d   1      -2.791  -3.230  -1.102  0.00  0.00    -0.082 A 
ATOM      9  C7  UNL d   1      -4.117  -3.424  -0.645  0.00  0.00     0.045 A 
ENDROOT
TORSDOF 0
ENDMDL
