MODEL 1
REMARK minimizedAffinity -1.89309061
REMARK minimizedRMSD -1
REMARK  0 active torsions:
REMARK  status: ('A' for Active; 'I' for Inactive)
ROOT
ATOM      1  N1  IND d   1       0.903   2.381  -0.174  0.00  0.00    -0.196 N 
ATOM      2  C2  IND d   1       2.058   2.922   0.319  0.00  0.00     0.054 A 
ATOM      3  C3  IND d   1       2.833   1.957   0.864  0.00  0.00    -0.031 A 
ATOM      4  C4  IND d   1       2.450  -0.586   0.966  0.00  0.00     0.051 A 
ATOM      5  C5  IND d   1       1.522  -1.548   0.680  0.00  0.00    -0.031 A 
ATOM      6  C6  IND d   1       0.318  -1.244   0.080  0.00  0.00     0.015 A 
ATOM      7  C7  IND d   1      -0.001   0.038  -0.268  0.00  0.00    -0.016 A 
ATOM      8  C8  IND d   1       0.936   1.019   0.027  0.00  0.00    -0.047 A 
ATOM      9  C9  IND d   1       2.142   0.721   0.675  0.00  0.00    -0.096 A 
ATOM     10  HN1 IND d   1       0.264   2.819  -0.547  0.00  0.00     0.298 HD
ENDROOT
TORSDOF 0
ENDMDL
