MODEL 1
REMARK minimizedAffinity -2.11438346
REMARK minimizedRMSD -1
REMARK  0 active torsions:
REMARK  status: ('A' for Active; 'I' for Inactive)
ROOT
ATOM      1  N1  IND d   1      -0.859   1.258  -1.218  0.00  0.00    -0.196 N 
ATOM      2  C2  IND d   1      -1.269   0.055  -1.722  0.00  0.00     0.054 A 
ATOM      3  C3  IND d   1      -0.479  -0.941  -1.262  0.00  0.00    -0.031 A 
ATOM      4  C4  IND d   1       1.478  -0.839   0.406  0.00  0.00     0.051 A 
ATOM      5  C5  IND d   1       2.247   0.043   1.112  0.00  0.00    -0.031 A 
ATOM      6  C6  IND d   1       2.013   1.403   1.079  0.00  0.00     0.015 A 
ATOM      7  C7  IND d   1       0.990   1.932   0.345  0.00  0.00    -0.016 A 
ATOM      8  C8  IND d   1       0.212   1.040  -0.379  0.00  0.00    -0.047 A 
ATOM      9  C9  IND d   1       0.471  -0.337  -0.383  0.00  0.00    -0.096 A 
ATOM     10  HN1 IND d   1      -1.211   2.022  -1.394  0.00  0.00     0.298 HD
ENDROOT
TORSDOF 0
ENDMDL
