MODEL 1
REMARK minimizedAffinity 1.26494503
REMARK minimizedRMSD -1
REMARK  0 active torsions:
REMARK  status: ('A' for Active; 'I' for Inactive)
ROOT
ATOM      1  N1  IND d   1      -0.188   1.002   0.998  0.00  0.00    -0.196 N 
ATOM      2  C2  IND d   1       0.152  -0.028   0.166  0.00  0.00     0.054 A 
ATOM      3  C3  IND d   1      -0.939  -0.764  -0.142  0.00  0.00    -0.031 A 
ATOM      4  C4  IND d   1      -3.399  -0.400   0.525  0.00  0.00     0.051 A 
ATOM      5  C5  IND d   1      -4.198   0.388   1.306  0.00  0.00    -0.031 A 
ATOM      6  C6  IND d   1      -3.691   1.443   2.036  0.00  0.00     0.015 A 
ATOM      7  C7  IND d   1      -2.362   1.759   2.004  0.00  0.00    -0.016 A 
ATOM      8  C8  IND d   1      -1.547   0.957   1.218  0.00  0.00    -0.047 A 
ATOM      9  C9  IND d   1      -2.048  -0.142   0.509  0.00  0.00    -0.096 A 
ATOM     10  HN1 IND d   1       0.356   1.580   1.329  0.00  0.00     0.298 HD
ENDROOT
TORSDOF 0
ENDMDL
