MODEL 1
REMARK minimizedAffinity -0.542028606
REMARK minimizedRMSD -1
REMARK  0 active torsions:
REMARK  status: ('A' for Active; 'I' for Inactive)
ROOT
ATOM      1  N1  IND d   1      -4.018  -0.415  -0.684  0.00  0.00    -0.196 N 
ATOM      2  C2  IND d   1      -5.368  -0.606  -0.790  0.00  0.00     0.054 A 
ATOM      3  C3  IND d   1      -5.998  -0.129   0.307  0.00  0.00    -0.031 A 
ATOM      4  C4  IND d   1      -5.023   1.094   2.351  0.00  0.00     0.051 A 
ATOM      5  C5  IND d   1      -3.837   1.471   2.917  0.00  0.00    -0.031 A 
ATOM      6  C6  IND d   1      -2.627   1.236   2.297  0.00  0.00     0.015 A 
ATOM      7  C7  IND d   1      -2.558   0.623   1.078  0.00  0.00    -0.016 A 
ATOM      8  C8  IND d   1      -3.759   0.233   0.504  0.00  0.00    -0.047 A 
ATOM      9  C9  IND d   1      -4.988   0.431   1.148  0.00  0.00    -0.096 A 
ATOM     10  HN1 IND d   1      -3.430  -0.658  -1.262  0.00  0.00     0.298 HD
ENDROOT
TORSDOF 0
ENDMDL
