MODEL 1
REMARK minimizedAffinity -3.01512504
REMARK minimizedRMSD -1
REMARK  0 active torsions:
REMARK  status: ('A' for Active; 'I' for Inactive)
ROOT
ATOM      1  N1  IND d   1      -0.466  -0.491  -1.562  0.00  0.00    -0.196 N 
ATOM      2  C2  IND d   1      -0.512  -1.787  -1.994  0.00  0.00     0.054 A 
ATOM      3  C3  IND d   1       0.437  -2.523  -1.374  0.00  0.00    -0.031 A 
ATOM      4  C4  IND d   1       2.106  -1.831   0.460  0.00  0.00     0.051 A 
ATOM      5  C5  IND d   1       2.552  -0.742   1.155  0.00  0.00    -0.031 A 
ATOM      6  C6  IND d   1       2.002   0.511   0.978  0.00  0.00     0.015 A 
ATOM      7  C7  IND d   1       0.973   0.721   0.104  0.00  0.00    -0.016 A 
ATOM      8  C8  IND d   1       0.522  -0.381  -0.608  0.00  0.00    -0.047 A 
ATOM      9  C9  IND d   1       1.105  -1.647  -0.465  0.00  0.00    -0.096 A 
ATOM     10  HN1 IND d   1      -0.970   0.149  -1.839  0.00  0.00     0.298 HD
ENDROOT
TORSDOF 0
ENDMDL
