MODEL 1
REMARK minimizedAffinity -0.266635776
REMARK minimizedRMSD -1
REMARK  0 active torsions:
REMARK  status: ('A' for Active; 'I' for Inactive)
ROOT
ATOM      1  N1  IND d   1      -0.801  -0.199  -0.925  0.00  0.00    -0.196 N 
ATOM      2  C2  IND d   1      -1.163   1.110  -0.772  0.00  0.00     0.054 A 
ATOM      3  C3  IND d   1      -0.315   1.738   0.073  0.00  0.00    -0.031 A 
ATOM      4  C4  IND d   1       1.795   0.836   1.240  0.00  0.00     0.051 A 
ATOM      5  C5  IND d   1       2.511  -0.311   1.435  0.00  0.00    -0.031 A 
ATOM      6  C6  IND d   1       2.154  -1.504   0.840  0.00  0.00     0.015 A 
ATOM      7  C7  IND d   1       1.069  -1.590   0.013  0.00  0.00    -0.016 A 
ATOM      8  C8  IND d   1       0.336  -0.429  -0.182  0.00  0.00    -0.047 A 
ATOM      9  C9  IND d   1       0.669   0.775   0.454  0.00  0.00    -0.096 A 
ATOM     10  HN1 IND d   1      -1.213  -0.781  -1.405  0.00  0.00     0.298 HD
ENDROOT
TORSDOF 0
ENDMDL
