MODEL 1
REMARK minimizedAffinity -1.67707419
REMARK minimizedRMSD -1
REMARK  0 active torsions:
REMARK  status: ('A' for Active; 'I' for Inactive)
ROOT
ATOM      1  N1  IND d   1      -0.018  -0.755  -1.426  0.00  0.00    -0.196 N 
ATOM      2  C2  IND d   1      -0.803   0.277  -0.995  0.00  0.00     0.054 A 
ATOM      3  C3  IND d   1      -0.324   0.781   0.164  0.00  0.00    -0.031 A 
ATOM      4  C4  IND d   1       1.792   0.131   1.479  0.00  0.00     0.051 A 
ATOM      5  C5  IND d   1       2.810  -0.780   1.499  0.00  0.00    -0.031 A 
ATOM      6  C6  IND d   1       2.942  -1.747   0.524  0.00  0.00     0.015 A 
ATOM      7  C7  IND d   1       2.063  -1.833  -0.519  0.00  0.00    -0.016 A 
ATOM      8  C8  IND d   1       1.024  -0.913  -0.539  0.00  0.00    -0.047 A 
ATOM      9  C9  IND d   1       0.860   0.044   0.471  0.00  0.00    -0.096 A 
ATOM     10  HN1 IND d   1      -0.151  -1.226  -2.133  0.00  0.00     0.298 HD
ENDROOT
TORSDOF 0
ENDMDL
