MODEL 1
REMARK minimizedAffinity -3.4264636
REMARK minimizedRMSD -1
REMARK  0 active torsions:
REMARK  status: ('A' for Active; 'I' for Inactive)
ROOT
ATOM      1  N1  IND d   1      -0.330   1.325  -0.421  0.00  0.00    -0.196 N 
ATOM      2  C2  IND d   1      -1.117   0.279  -0.027  0.00  0.00     0.054 A 
ATOM      3  C3  IND d   1      -0.480  -0.462   0.908  0.00  0.00    -0.031 A 
ATOM      4  C4  IND d   1       1.814  -0.081   2.013  0.00  0.00     0.051 A 
ATOM      5  C5  IND d   1       2.917   0.723   1.955  0.00  0.00    -0.031 A 
ATOM      6  C6  IND d   1       2.995   1.792   1.086  0.00  0.00     0.015 A 
ATOM      7  C7  IND d   1       1.963   2.105   0.248  0.00  0.00    -0.016 A 
ATOM      8  C8  IND d   1       0.844   1.287   0.299  0.00  0.00    -0.047 A 
ATOM      9  C9  IND d   1       0.776   0.175   1.148  0.00  0.00    -0.096 A 
ATOM     10  HN1 IND d   1      -0.535   1.910  -1.018  0.00  0.00     0.298 HD
ENDROOT
TORSDOF 0
ENDMDL
