MODEL 1
REMARK minimizedAffinity -3.38130307
REMARK minimizedRMSD -1
REMARK  0 active torsions:
REMARK  status: ('A' for Active; 'I' for Inactive)
ROOT
ATOM      1  N1  IND d   1      -2.592   0.973   1.293  0.00  0.00    -0.196 N 
ATOM      2  C2  IND d   1      -3.099   2.195   0.948  0.00  0.00     0.054 A 
ATOM      3  C3  IND d   1      -2.160   2.931   0.312  0.00  0.00    -0.031 A 
ATOM      4  C4  IND d   1       0.241   2.292  -0.360  0.00  0.00     0.051 A 
ATOM      5  C5  IND d   1       1.167   1.295  -0.230  0.00  0.00    -0.031 A 
ATOM      6  C6  IND d   1       0.880   0.115   0.425  0.00  0.00     0.015 A 
ATOM      7  C7  IND d   1      -0.352  -0.118   0.967  0.00  0.00    -0.016 A 
ATOM      8  C8  IND d   1      -1.292   0.895   0.843  0.00  0.00    -0.047 A 
ATOM      9  C9  IND d   1      -0.994   2.112   0.217  0.00  0.00    -0.096 A 
ATOM     10  HN1 IND d   1      -3.014   0.357   1.719  0.00  0.00     0.298 HD
ENDROOT
TORSDOF 0
ENDMDL
