MODEL 1
REMARK minimizedAffinity 5.64836025
REMARK minimizedRMSD -1
REMARK  0 active torsions:
REMARK  status: ('A' for Active; 'I' for Inactive)
ROOT
ATOM      1  C   UNL d   1      -1.416   1.980  -3.426  0.00  0.00     0.023 A 
ATOM      2  C1  UNL d   1      -0.223   2.672  -3.214  0.00  0.00     0.003 A 
ATOM      3  C2  UNL d   1       0.993   1.986  -3.211  0.00  0.00     0.048 A 
ATOM      4  C3  UNL d   1       1.010   0.608  -3.421  0.00  0.00     0.023 A 
ATOM      5  C4  UNL d   1      -0.181  -0.089  -3.634  0.00  0.00     0.048 A 
ATOM      6  C5  UNL d   1      -1.394   0.601  -3.636  0.00  0.00     0.003 A 
ATOM      7  I   UNL d   1       2.819  -0.415  -3.418  0.00  0.00    -0.146 I 
ENDROOT
TORSDOF 0
ENDMDL
