MODEL 1
REMARK minimizedAffinity 6.02358437
REMARK minimizedRMSD -1
REMARK  0 active torsions:
REMARK  status: ('A' for Active; 'I' for Inactive)
ROOT
ATOM      1  C   UNL d   1       0.774   4.692  -4.874  0.00  0.00     0.023 A 
ATOM      2  C1  UNL d   1       0.560   4.027  -3.667  0.00  0.00     0.003 A 
ATOM      3  C2  UNL d   1       1.358   2.936  -3.318  0.00  0.00     0.048 A 
ATOM      4  C3  UNL d   1       2.369   2.515  -4.180  0.00  0.00     0.023 A 
ATOM      5  C4  UNL d   1       2.588   3.177  -5.389  0.00  0.00     0.048 A 
ATOM      6  C5  UNL d   1       1.787   4.267  -5.735  0.00  0.00     0.003 A 
ATOM      7  I   UNL d   1       3.558   0.890  -3.662  0.00  0.00    -0.146 I 
ENDROOT
TORSDOF 0
ENDMDL
