MODEL 1
REMARK minimizedAffinity 13.2921133
REMARK minimizedRMSD -1
REMARK  0 active torsions:
REMARK  status: ('A' for Active; 'I' for Inactive)
ROOT
ATOM      1  C   UNL d   1       2.584  -4.440   2.023  0.00  0.00     0.023 A 
ATOM      2  C1  UNL d   1       1.487  -3.785   2.583  0.00  0.00     0.003 A 
ATOM      3  C2  UNL d   1       0.192  -4.231   2.311  0.00  0.00     0.048 A 
ATOM      4  C3  UNL d   1       0.001  -5.333   1.479  0.00  0.00     0.023 A 
ATOM      5  C4  UNL d   1       1.096  -5.992   0.917  0.00  0.00     0.048 A 
ATOM      6  C5  UNL d   1       2.388  -5.542   1.191  0.00  0.00     0.003 A 
ATOM      7  I   UNL d   1      -1.925  -5.999   1.073  0.00  0.00    -0.146 I 
ENDROOT
TORSDOF 0
ENDMDL
