MODEL 1
REMARK minimizedAffinity 3.42792654
REMARK minimizedRMSD -1
REMARK  0 active torsions:
REMARK  status: ('A' for Active; 'I' for Inactive)
ROOT
ATOM      1  C   UNL d   1      -0.713   1.031   0.512  0.00  0.00     0.023 A 
ATOM      2  C1  UNL d   1       0.051   1.444  -0.579  0.00  0.00     0.003 A 
ATOM      3  C2  UNL d   1      -0.521   1.506  -1.851  0.00  0.00     0.048 A 
ATOM      4  C3  UNL d   1      -1.860   1.154  -2.024  0.00  0.00     0.023 A 
ATOM      5  C4  UNL d   1      -2.629   0.741  -0.935  0.00  0.00     0.048 A 
ATOM      6  C5  UNL d   1      -2.052   0.680   0.334  0.00  0.00     0.003 A 
ATOM      7  I   UNL d   1      -2.714   1.246  -3.917  0.00  0.00    -0.146 I 
ENDROOT
TORSDOF 0
ENDMDL
