MODEL 1
REMARK minimizedAffinity 3.0639894
REMARK minimizedRMSD -1
REMARK  0 active torsions:
REMARK  status: ('A' for Active; 'I' for Inactive)
ROOT
ATOM      1  C   UNL d   1      -4.001   0.085   1.004  0.00  0.00     0.023 A 
ATOM      2  C1  UNL d   1      -3.919  -0.842  -0.036  0.00  0.00     0.003 A 
ATOM      3  C2  UNL d   1      -3.014  -0.642  -1.081  0.00  0.00     0.048 A 
ATOM      4  C3  UNL d   1      -2.194   0.485  -1.079  0.00  0.00     0.023 A 
ATOM      5  C4  UNL d   1      -2.272   1.414  -0.041  0.00  0.00     0.048 A 
ATOM      6  C5  UNL d   1      -3.179   1.211   1.001  0.00  0.00     0.003 A 
ATOM      7  I   UNL d   1      -0.847   0.784  -2.633  0.00  0.00    -0.146 I 
ENDROOT
TORSDOF 0
ENDMDL
