MODEL 1
REMARK minimizedAffinity 8.80097294
REMARK minimizedRMSD -1
REMARK  0 active torsions:
REMARK  status: ('A' for Active; 'I' for Inactive)
ROOT
ATOM      1  C   UNL d   1      -5.999  -0.075   3.956  0.00  0.00     0.023 A 
ATOM      2  C1  UNL d   1      -5.679   1.022   3.155  0.00  0.00     0.003 A 
ATOM      3  C2  UNL d   1      -5.219   2.204   3.740  0.00  0.00     0.048 A 
ATOM      4  C3  UNL d   1      -5.081   2.282   5.125  0.00  0.00     0.023 A 
ATOM      5  C4  UNL d   1      -5.398   1.186   5.930  0.00  0.00     0.048 A 
ATOM      6  C5  UNL d   1      -5.858   0.007   5.341  0.00  0.00     0.003 A 
ATOM      7  I   UNL d   1      -4.396   4.040   5.998  0.00  0.00    -0.146 I 
ENDROOT
TORSDOF 0
ENDMDL
