MODEL 1
REMARK minimizedAffinity 8.09146404
REMARK minimizedRMSD -1
REMARK  0 active torsions:
REMARK  status: ('A' for Active; 'I' for Inactive)
ROOT
ATOM      1  C   UNL d   1       2.503  -6.000   1.759  0.00  0.00     0.023 A 
ATOM      2  C1  UNL d   1       2.058  -6.000   0.437  0.00  0.00     0.003 A 
ATOM      3  C2  UNL d   1       0.690  -6.000   0.160  0.00  0.00     0.048 A 
ATOM      4  C3  UNL d   1      -0.229  -6.000   1.209  0.00  0.00     0.023 A 
ATOM      5  C4  UNL d   1       0.212  -5.999   2.534  0.00  0.00     0.048 A 
ATOM      6  C5  UNL d   1       1.581  -6.000   2.806  0.00  0.00     0.003 A 
ATOM      7  I   UNL d   1      -2.266  -6.000   0.799  0.00  0.00    -0.146 I 
ENDROOT
TORSDOF 0
ENDMDL
