MODEL 1
REMARK minimizedAffinity 4.51017523
REMARK minimizedRMSD -1
REMARK  0 active torsions:
REMARK  status: ('A' for Active; 'I' for Inactive)
ROOT
ATOM      1  C   UNL d   1      -2.371   1.026  -0.597  0.00  0.00     0.023 A 
ATOM      2  C1  UNL d   1      -1.355   0.986  -1.552  0.00  0.00     0.003 A 
ATOM      3  C2  UNL d   1      -0.028   1.193  -1.170  0.00  0.00     0.048 A 
ATOM      4  C3  UNL d   1       0.276   1.439   0.168  0.00  0.00     0.023 A 
ATOM      5  C4  UNL d   1      -0.737   1.479   1.127  0.00  0.00     0.048 A 
ATOM      6  C5  UNL d   1      -2.063   1.273   0.741  0.00  0.00     0.003 A 
ATOM      7  I   UNL d   1       2.251   1.747   0.739  0.00  0.00    -0.146 I 
ENDROOT
TORSDOF 0
ENDMDL
