MODEL 1
REMARK minimizedAffinity 6.77605677
REMARK minimizedRMSD -1
REMARK  0 active torsions:
REMARK  status: ('A' for Active; 'I' for Inactive)
ROOT
ATOM      1  C   UNL d   1       3.459  -0.350  -4.391  0.00  0.00     0.023 A 
ATOM      2  C1  UNL d   1       3.915   0.941  -4.124  0.00  0.00     0.003 A 
ATOM      3  C2  UNL d   1       3.441   1.633  -3.008  0.00  0.00     0.048 A 
ATOM      4  C3  UNL d   1       2.512   1.028  -2.162  0.00  0.00     0.023 A 
ATOM      5  C4  UNL d   1       2.054  -0.264  -2.425  0.00  0.00     0.048 A 
ATOM      6  C5  UNL d   1       2.530  -0.952  -3.543  0.00  0.00     0.003 A 
ATOM      7  I   UNL d   1       1.805   2.056  -0.500  0.00  0.00    -0.146 I 
ENDROOT
TORSDOF 0
ENDMDL
