MODEL 1
REMARK minimizedAffinity 6.87303305
REMARK minimizedRMSD -1
REMARK  0 active torsions:
REMARK  status: ('A' for Active; 'I' for Inactive)
ROOT
ATOM      1  C   UNL d   1       1.684  -5.996   2.002  0.00  0.00     0.023 A 
ATOM      2  C1  UNL d   1       0.714  -5.999   3.004  0.00  0.00     0.003 A 
ATOM      3  C2  UNL d   1      -0.641  -5.999   2.667  0.00  0.00     0.048 A 
ATOM      4  C3  UNL d   1      -1.019  -5.997   1.325  0.00  0.00     0.023 A 
ATOM      5  C4  UNL d   1      -0.052  -5.996   0.318  0.00  0.00     0.048 A 
ATOM      6  C5  UNL d   1       1.301  -5.995   0.660  0.00  0.00     0.003 A 
ATOM      7  I   UNL d   1      -3.035  -5.997   0.820  0.00  0.00    -0.146 I 
ENDROOT
TORSDOF 0
ENDMDL
