MODEL 1
REMARK minimizedAffinity 12.295042
REMARK minimizedRMSD -1
REMARK  0 active torsions:
REMARK  status: ('A' for Active; 'I' for Inactive)
ROOT
ATOM      1  C   UNL d   1       5.616   0.062   2.269  0.00  0.00     0.023 A 
ATOM      2  C1  UNL d   1       6.000   0.807   1.153  0.00  0.00     0.003 A 
ATOM      3  C2  UNL d   1       5.071   1.622   0.503  0.00  0.00     0.048 A 
ATOM      4  C3  UNL d   1       3.760   1.687   0.974  0.00  0.00     0.023 A 
ATOM      5  C4  UNL d   1       3.372   0.945   2.090  0.00  0.00     0.048 A 
ATOM      6  C5  UNL d   1       4.304   0.131   2.736  0.00  0.00     0.003 A 
ATOM      7  I   UNL d   1       2.375   2.899   0.007  0.00  0.00    -0.146 I 
ENDROOT
TORSDOF 0
ENDMDL
