MODEL 1
REMARK minimizedAffinity 10.3874102
REMARK minimizedRMSD -1
REMARK  0 active torsions:
REMARK  status: ('A' for Active; 'I' for Inactive)
ROOT
ATOM      1  C   UNL d   1      -2.090  -5.993   1.179  0.00  0.00     0.023 A 
ATOM      2  C1  UNL d   1      -1.024  -5.995   0.280  0.00  0.00     0.003 A 
ATOM      3  C2  UNL d   1       0.290  -5.997   0.753  0.00  0.00     0.048 A 
ATOM      4  C3  UNL d   1       0.530  -5.997   2.127  0.00  0.00     0.023 A 
ATOM      5  C4  UNL d   1      -0.535  -5.996   3.030  0.00  0.00     0.048 A 
ATOM      6  C5  UNL d   1      -1.846  -5.993   2.552  0.00  0.00     0.003 A 
ATOM      7  I   UNL d   1       2.484  -6.000   2.834  0.00  0.00    -0.146 I 
ENDROOT
TORSDOF 0
ENDMDL
