MODEL 1
REMARK minimizedAffinity 9.85192871
REMARK minimizedRMSD -1
REMARK  0 active torsions:
REMARK  status: ('A' for Active; 'I' for Inactive)
ROOT
ATOM      1  C   UNL d   1       1.942  -5.844   2.618  0.00  0.00     0.023 A 
ATOM      2  C1  UNL d   1       0.758  -6.000   3.339  0.00  0.00     0.003 A 
ATOM      3  C2  UNL d   1      -0.473  -5.943   2.682  0.00  0.00     0.048 A 
ATOM      4  C3  UNL d   1      -0.513  -5.732   1.304  0.00  0.00     0.023 A 
ATOM      5  C4  UNL d   1       0.669  -5.577   0.579  0.00  0.00     0.048 A 
ATOM      6  C5  UNL d   1       1.898  -5.633   1.240  0.00  0.00     0.003 A 
ATOM      7  I   UNL d   1      -2.344  -5.648   0.325  0.00  0.00    -0.146 I 
ENDROOT
TORSDOF 0
ENDMDL
