MODEL 1
REMARK minimizedAffinity -1.70398283
REMARK minimizedRMSD -1
REMARK  0 active torsions:
REMARK  status: ('A' for Active; 'I' for Inactive)
ROOT
ATOM      1  C   UNL d   1      -1.510   4.933  -4.020  0.00  0.00    -0.002 A 
ATOM      2  C1  UNL d   1      -1.811   5.333  -5.315  0.00  0.00     0.010 A 
ATOM      3  C2  UNL d   1      -2.888   4.767  -6.000  0.00  0.00     0.041 A 
ATOM      4  C3  UNL d   1      -3.666   3.785  -5.356  0.00  0.00    -0.075 A 
ATOM      5  S   UNL d   1      -5.033   2.955  -5.999  0.00  0.00     0.015 SA
ATOM      6  C4  UNL d   1      -5.250   2.051  -4.571  0.00  0.00     0.022 A 
ATOM      7  C5  UNL d   1      -4.311   2.362  -3.616  0.00  0.00     0.026 A 
ATOM      8  C6  UNL d   1      -3.383   3.367  -4.052  0.00  0.00    -0.082 A 
ATOM      9  C7  UNL d   1      -2.284   3.959  -3.384  0.00  0.00     0.045 A 
ENDROOT
TORSDOF 0
ENDMDL
