MODEL 1
REMARK minimizedAffinity 12.4910994
REMARK minimizedRMSD -1
REMARK  0 active torsions:
REMARK  status: ('A' for Active; 'I' for Inactive)
ROOT
ATOM      1  C   UNL d   1       1.403   5.325   2.534  0.00  0.00    -0.002 A 
ATOM      2  C1  UNL d   1       1.332   5.708   1.202  0.00  0.00     0.010 A 
ATOM      3  C2  UNL d   1       1.018   4.775   0.212  0.00  0.00     0.041 A 
ATOM      4  C3  UNL d   1       0.772   3.440   0.586  0.00  0.00    -0.075 A 
ATOM      5  S   UNL d   1       0.369   2.126  -0.455  0.00  0.00     0.015 SA
ATOM      6  C4  UNL d   1       0.280   1.026   0.844  0.00  0.00     0.022 A 
ATOM      7  C5  UNL d   1       0.549   1.630   2.050  0.00  0.00     0.026 A 
ATOM      8  C6  UNL d   1       0.836   3.031   1.921  0.00  0.00    -0.082 A 
ATOM      9  C7  UNL d   1       1.158   3.999   2.902  0.00  0.00     0.045 A 
ENDROOT
TORSDOF 0
ENDMDL
