MODEL 1
REMARK minimizedAffinity 1.7398262
REMARK minimizedRMSD -1
REMARK  0 active torsions:
REMARK  status: ('A' for Active; 'I' for Inactive)
ROOT
ATOM      1  C   UNL d   1       1.704  -2.305   4.479  0.00  0.00    -0.002 A 
ATOM      2  C1  UNL d   1       0.369  -2.015   4.722  0.00  0.00     0.010 A 
ATOM      3  C2  UNL d   1      -0.347  -1.189   3.854  0.00  0.00     0.041 A 
ATOM      4  C3  UNL d   1       0.306  -0.655   2.726  0.00  0.00    -0.075 A 
ATOM      5  S   UNL d   1      -0.371   0.380   1.525  0.00  0.00     0.015 SA
ATOM      6  C4  UNL d   1       1.095   0.461   0.660  0.00  0.00     0.022 A 
ATOM      7  C5  UNL d   1       2.088  -0.278   1.259  0.00  0.00     0.026 A 
ATOM      8  C6  UNL d   1       1.650  -0.934   2.459  0.00  0.00    -0.082 A 
ATOM      9  C7  UNL d   1       2.349  -1.774   3.358  0.00  0.00     0.045 A 
ENDROOT
TORSDOF 0
ENDMDL
