MODEL 1
REMARK minimizedAffinity 7.79839706
REMARK minimizedRMSD -1
REMARK  0 active torsions:
REMARK  status: ('A' for Active; 'I' for Inactive)
ROOT
ATOM      1  C   UNL d   1      -2.617   5.261  -4.129  0.00  0.00    -0.002 A 
ATOM      2  C1  UNL d   1      -2.232   4.199  -3.323  0.00  0.00     0.010 A 
ATOM      3  C2  UNL d   1      -2.888   2.969  -3.408  0.00  0.00     0.041 A 
ATOM      4  C3  UNL d   1      -3.946   2.823  -4.326  0.00  0.00    -0.075 A 
ATOM      5  S   UNL d   1      -4.894   1.409  -4.604  0.00  0.00     0.015 SA
ATOM      6  C4  UNL d   1      -5.830   2.182  -5.800  0.00  0.00     0.022 A 
ATOM      7  C5  UNL d   1      -5.444   3.486  -5.995  0.00  0.00     0.026 A 
ATOM      8  C6  UNL d   1      -4.351   3.877  -5.150  0.00  0.00    -0.082 A 
ATOM      9  C7  UNL d   1      -3.667   5.112  -5.039  0.00  0.00     0.045 A 
ENDROOT
TORSDOF 0
ENDMDL
