MODEL 1
REMARK minimizedAffinity 3.88823104
REMARK minimizedRMSD -1
REMARK  0 active torsions:
REMARK  status: ('A' for Active; 'I' for Inactive)
ROOT
ATOM      1  C   UNL d   1      -1.649   3.822  -4.081  0.00  0.00    -0.002 A 
ATOM      2  C1  UNL d   1      -2.026   2.623  -3.493  0.00  0.00     0.010 A 
ATOM      3  C2  UNL d   1      -3.291   2.083  -3.730  0.00  0.00     0.041 A 
ATOM      4  C3  UNL d   1      -4.179   2.773  -4.579  0.00  0.00    -0.075 A 
ATOM      5  S   UNL d   1      -5.778   2.301  -5.016  0.00  0.00     0.015 SA
ATOM      6  C4  UNL d   1      -5.998   3.679  -5.995  0.00  0.00     0.022 A 
ATOM      7  C5  UNL d   1      -4.888   4.490  -6.000  0.00  0.00     0.026 A 
ATOM      8  C6  UNL d   1      -3.821   3.981  -5.184  0.00  0.00    -0.082 A 
ATOM      9  C7  UNL d   1      -2.532   4.504  -4.923  0.00  0.00     0.045 A 
ENDROOT
TORSDOF 0
ENDMDL
