MODEL 1
REMARK minimizedAffinity 3.09634852
REMARK minimizedRMSD -1
REMARK  0 active torsions:
REMARK  status: ('A' for Active; 'I' for Inactive)
ROOT
ATOM      1  C   UNL d   1      -2.253   4.162  -4.313  0.00  0.00    -0.002 A 
ATOM      2  C1  UNL d   1      -2.826   4.782  -5.414  0.00  0.00     0.010 A 
ATOM      3  C2  UNL d   1      -3.985   4.266  -5.997  0.00  0.00     0.041 A 
ATOM      4  C3  UNL d   1      -4.565   3.105  -5.448  0.00  0.00    -0.075 A 
ATOM      5  S   UNL d   1      -5.984   2.294  -5.995  0.00  0.00     0.015 SA
ATOM      6  C4  UNL d   1      -5.864   1.106  -4.779  0.00  0.00     0.022 A 
ATOM      7  C5  UNL d   1      -4.773   1.307  -3.967  0.00  0.00     0.026 A 
ATOM      8  C6  UNL d   1      -4.006   2.463  -4.339  0.00  0.00    -0.082 A 
ATOM      9  C7  UNL d   1      -2.831   3.011  -3.771  0.00  0.00     0.045 A 
ENDROOT
TORSDOF 0
ENDMDL
