MODEL 1
REMARK minimizedAffinity 10.7233763
REMARK minimizedRMSD -1
REMARK  0 active torsions:
REMARK  status: ('A' for Active; 'I' for Inactive)
ROOT
ATOM      1  C   UNL d   1       0.281   2.757   0.008  0.00  0.00    -0.002 A 
ATOM      2  C1  UNL d   1       0.275   1.408   0.330  0.00  0.00     0.010 A 
ATOM      3  C2  UNL d   1       0.633   0.981   1.611  0.00  0.00     0.041 A 
ATOM      4  C3  UNL d   1       0.998   1.944   2.572  0.00  0.00    -0.075 A 
ATOM      5  S   UNL d   1       1.472   1.655   4.205  0.00  0.00     0.015 SA
ATOM      6  C4  UNL d   1       1.692   3.317   4.513  0.00  0.00     0.022 A 
ATOM      7  C5  UNL d   1       1.415   4.088   3.409  0.00  0.00     0.026 A 
ATOM      8  C6  UNL d   1       1.010   3.309   2.272  0.00  0.00    -0.082 A 
ATOM      9  C7  UNL d   1       0.643   3.710   0.965  0.00  0.00     0.045 A 
ENDROOT
TORSDOF 0
ENDMDL
