MODEL 1
REMARK minimizedAffinity 1.30440462
REMARK minimizedRMSD -1
REMARK  0 active torsions:
REMARK  status: ('A' for Active; 'I' for Inactive)
ROOT
ATOM      1  C   UNL d   1      -1.510   4.172  -4.568  0.00  0.00    -0.002 A 
ATOM      2  C1  UNL d   1      -1.900   5.122  -5.501  0.00  0.00     0.010 A 
ATOM      3  C2  UNL d   1      -3.205   5.137  -5.997  0.00  0.00     0.041 A 
ATOM      4  C3  UNL d   1      -4.121   4.172  -5.533  0.00  0.00    -0.075 A 
ATOM      5  S   UNL d   1      -5.772   3.998  -5.999  0.00  0.00     0.015 SA
ATOM      6  C4  UNL d   1      -5.998   2.658  -4.970  0.00  0.00     0.022 A 
ATOM      7  C5  UNL d   1      -4.853   2.338  -4.280  0.00  0.00     0.026 A 
ATOM      8  C6  UNL d   1      -3.752   3.206  -4.593  0.00  0.00    -0.082 A 
ATOM      9  C7  UNL d   1      -2.421   3.217  -4.110  0.00  0.00     0.045 A 
ENDROOT
TORSDOF 0
ENDMDL
