MODEL 1
REMARK minimizedAffinity 3.13943529
REMARK minimizedRMSD -1
REMARK  0 active torsions:
REMARK  status: ('A' for Active; 'I' for Inactive)
ROOT
ATOM      1  C   UNL d   1      -5.999   3.218  -5.454  0.00  0.00    -0.002 A 
ATOM      2  C1  UNL d   1      -5.541   2.316  -4.504  0.00  0.00     0.010 A 
ATOM      3  C2  UNL d   1      -4.211   2.343  -4.082  0.00  0.00     0.041 A 
ATOM      4  C3  UNL d   1      -3.340   3.303  -4.634  0.00  0.00    -0.075 A 
ATOM      5  S   UNL d   1      -1.670   3.524  -4.267  0.00  0.00     0.015 SA
ATOM      6  C4  UNL d   1      -1.525   4.823  -5.361  0.00  0.00     0.022 A 
ATOM      7  C5  UNL d   1      -2.712   5.094  -6.000  0.00  0.00     0.026 A 
ATOM      8  C6  UNL d   1      -3.778   4.223  -5.591  0.00  0.00    -0.082 A 
ATOM      9  C7  UNL d   1      -5.132   4.169  -5.999  0.00  0.00     0.045 A 
ENDROOT
TORSDOF 0
ENDMDL
