MODEL 1
REMARK minimizedAffinity 6.2576499
REMARK minimizedRMSD -1
REMARK  0 active torsions:
REMARK  status: ('A' for Active; 'I' for Inactive)
ROOT
ATOM      1  C   UNL d   1       1.281   4.564   3.264  0.00  0.00    -0.002 A 
ATOM      2  C1  UNL d   1       1.398   3.573   4.227  0.00  0.00     0.010 A 
ATOM      3  C2  UNL d   1       1.096   2.245   3.920  0.00  0.00     0.041 A 
ATOM      4  C3  UNL d   1       0.672   1.927   2.615  0.00  0.00    -0.075 A 
ATOM      5  S   UNL d   1       0.248   0.368   2.011  0.00  0.00     0.015 SA
ATOM      6  C4  UNL d   1      -0.097   0.982   0.459  0.00  0.00     0.022 A 
ATOM      7  C5  UNL d   1       0.100   2.340   0.386  0.00  0.00     0.026 A 
ATOM      8  C6  UNL d   1       0.547   2.907   1.627  0.00  0.00    -0.082 A 
ATOM      9  C7  UNL d   1       0.860   4.245   1.970  0.00  0.00     0.045 A 
ENDROOT
TORSDOF 0
ENDMDL
