MODEL 1
REMARK minimizedAffinity 4.69518757
REMARK minimizedRMSD -1
REMARK  0 active torsions:
REMARK  status: ('A' for Active; 'I' for Inactive)
ROOT
ATOM      1  C   UNL d   1       0.433   1.414  -0.157  0.00  0.00    -0.002 A 
ATOM      2  C1  UNL d   1       0.574   0.299   0.657  0.00  0.00     0.010 A 
ATOM      3  C2  UNL d   1       0.974   0.437   1.988  0.00  0.00     0.041 A 
ATOM      4  C3  UNL d   1       1.228   1.728   2.493  0.00  0.00    -0.075 A 
ATOM      5  S   UNL d   1       1.727   2.139   4.091  0.00  0.00     0.015 SA
ATOM      6  C4  UNL d   1       1.763   3.804   3.732  0.00  0.00     0.022 A 
ATOM      7  C5  UNL d   1       1.407   4.059   2.428  0.00  0.00     0.026 A 
ATOM      8  C6  UNL d   1       1.092   2.866   1.693  0.00  0.00    -0.082 A 
ATOM      9  C7  UNL d   1       0.686   2.693   0.348  0.00  0.00     0.045 A 
ENDROOT
TORSDOF 0
ENDMDL
