MODEL 1
REMARK minimizedAffinity -4.31750536
REMARK minimizedRMSD -1
REMARK  1 active torsions:
REMARK  status: ('A' for Active; 'I' for Inactive)
REMARK    1  A    between atoms: C1_2  and  C2_3 
ROOT
ATOM      1  C2  UNL d   1      -0.642   0.006   0.291  0.00  0.00    -0.076 A 
ATOM      2  C3  UNL d   1      -1.292   1.222   0.016  0.00  0.00     0.004 A 
ATOM      3  C4  UNL d   1      -0.576   2.414  -0.075  0.00  0.00    -0.003 A 
ATOM      4  C5  UNL d   1       0.803   2.410   0.108  0.00  0.00     0.000 A 
ATOM      5  C6  UNL d   1       1.467   1.211   0.364  0.00  0.00     0.000 A 
ATOM      6  C7  UNL d   1       0.761  -0.003   0.443  0.00  0.00    -0.073 A 
ATOM      7  C8  UNL d   1       1.527  -1.265   0.727  0.00  0.00     0.078 C 
ENDROOT
BRANCH   1   8
ATOM      8  C1  UNL d   1      -1.474  -1.251   0.404  0.00  0.00     0.053 C 
ATOM      9  C   UNL d   1      -2.841  -1.105  -0.246  0.00  0.00     0.018 C 
ENDBRANCH   1   8
TORSDOF 1
ENDMDL
