MODEL 1
REMARK minimizedAffinity 0.784162581
REMARK minimizedRMSD -1
REMARK  1 active torsions:
REMARK  status: ('A' for Active; 'I' for Inactive)
REMARK    1  A    between atoms: C1_2  and  C2_3 
ROOT
ATOM      1  C2  UNL d   1       0.943   1.451   1.095  0.00  0.00    -0.076 A 
ATOM      2  C3  UNL d   1      -0.098   1.956   1.895  0.00  0.00     0.004 A 
ATOM      3  C4  UNL d   1      -1.343   1.331   1.930  0.00  0.00    -0.003 A 
ATOM      4  C5  UNL d   1      -1.569   0.191   1.167  0.00  0.00     0.000 A 
ATOM      5  C6  UNL d   1      -0.543  -0.334   0.382  0.00  0.00     0.000 A 
ATOM      6  C7  UNL d   1       0.724   0.274   0.347  0.00  0.00    -0.073 A 
ATOM      7  C8  UNL d   1       1.792  -0.331  -0.522  0.00  0.00     0.078 C 
ENDROOT
BRANCH   1   8
ATOM      8  C1  UNL d   1       2.264   2.186   1.076  0.00  0.00     0.053 C 
ATOM      9  C   UNL d   1       2.095   3.681   0.850  0.00  0.00     0.018 C 
ENDBRANCH   1   8
TORSDOF 1
ENDMDL
