MODEL 1
REMARK minimizedAffinity 1.52432752
REMARK minimizedRMSD -1
REMARK  1 active torsions:
REMARK  status: ('A' for Active; 'I' for Inactive)
REMARK    1  A    between atoms: C1_2  and  C2_3 
ROOT
ATOM      1  C2  UNL d   1       2.547   2.085   0.647  0.00  0.00    -0.076 A 
ATOM      2  C3  UNL d   1       1.781   2.629   1.693  0.00  0.00     0.004 A 
ATOM      3  C4  UNL d   1       2.163   3.813   2.320  0.00  0.00    -0.003 A 
ATOM      4  C5  UNL d   1       3.316   4.474   1.911  0.00  0.00     0.000 A 
ATOM      5  C6  UNL d   1       4.078   3.958   0.863  0.00  0.00     0.000 A 
ATOM      6  C7  UNL d   1       3.698   2.773   0.210  0.00  0.00    -0.073 A 
ATOM      7  C8  UNL d   1       4.560   2.259  -0.911  0.00  0.00     0.078 C 
ENDROOT
BRANCH   1   8
ATOM      8  C1  UNL d   1       2.098   0.783   0.023  0.00  0.00     0.053 C 
ATOM      9  C   UNL d   1       0.646   0.457   0.334  0.00  0.00     0.018 C 
ENDBRANCH   1   8
TORSDOF 1
ENDMDL
