MODEL 1
REMARK minimizedAffinity -4.40119314
REMARK minimizedRMSD -1
REMARK  1 active torsions:
REMARK  status: ('A' for Active; 'I' for Inactive)
REMARK    1  A    between atoms: C1_2  and  C2_3 
ROOT
ATOM      1  C2  UNL d   1      -0.849  -0.823   0.233  0.00  0.00    -0.076 A 
ATOM      2  C3  UNL d   1      -1.050  -1.649   1.353  0.00  0.00     0.004 A 
ATOM      3  C4  UNL d   1      -2.151  -2.499   1.430  0.00  0.00    -0.003 A 
ATOM      4  C5  UNL d   1      -3.070  -2.539   0.387  0.00  0.00     0.000 A 
ATOM      5  C6  UNL d   1      -2.877  -1.740  -0.740  0.00  0.00     0.000 A 
ATOM      6  C7  UNL d   1      -1.764  -0.889  -0.840  0.00  0.00    -0.073 A 
ATOM      7  C8  UNL d   1      -1.609  -0.045  -2.075  0.00  0.00     0.078 C 
ENDROOT
BRANCH   1   8
ATOM      8  C1  UNL d   1       0.349   0.099   0.218  0.00  0.00     0.053 C 
ATOM      9  C   UNL d   1       1.647  -0.627   0.535  0.00  0.00     0.018 C 
ENDBRANCH   1   8
TORSDOF 1
ENDMDL
