MODEL 1
REMARK minimizedAffinity -5.86503696
REMARK minimizedRMSD -1
REMARK  1 active torsions:
REMARK  status: ('A' for Active; 'I' for Inactive)
REMARK    1  A    between atoms: C1_2  and  C2_3 
ROOT
ATOM      1  C2  UNL d   1      -0.978  -0.751   0.365  0.00  0.00    -0.076 A 
ATOM      2  C3  UNL d   1      -0.839  -1.817   1.272  0.00  0.00     0.004 A 
ATOM      3  C4  UNL d   1      -1.837  -2.780   1.404  0.00  0.00    -0.003 A 
ATOM      4  C5  UNL d   1      -2.990  -2.695   0.632  0.00  0.00     0.000 A 
ATOM      5  C6  UNL d   1      -3.137  -1.655  -0.285  0.00  0.00     0.000 A 
ATOM      6  C7  UNL d   1      -2.133  -0.684  -0.443  0.00  0.00    -0.073 A 
ATOM      7  C8  UNL d   1      -2.346   0.420  -1.442  0.00  0.00     0.078 C 
ENDROOT
BRANCH   1   8
ATOM      8  C1  UNL d   1       0.126   0.279   0.284  0.00  0.00     0.053 C 
ATOM      9  C   UNL d   1       1.451  -0.320  -0.161  0.00  0.00     0.018 C 
ENDBRANCH   1   8
TORSDOF 1
ENDMDL
