MODEL 1
REMARK minimizedAffinity -2.28286433
REMARK minimizedRMSD -1
REMARK  1 active torsions:
REMARK  status: ('A' for Active; 'I' for Inactive)
REMARK    1  A    between atoms: C1_2  and  C2_3 
ROOT
ATOM      1  C2  UNL d   1      -0.912  -0.969  -0.593  0.00  0.00    -0.076 A 
ATOM      2  C3  UNL d   1      -0.828  -1.596   0.663  0.00  0.00     0.004 A 
ATOM      3  C4  UNL d   1       0.364  -1.596   1.385  0.00  0.00    -0.003 A 
ATOM      4  C5  UNL d   1       1.491  -0.969   0.865  0.00  0.00     0.000 A 
ATOM      5  C6  UNL d   1       1.420  -0.327  -0.371  0.00  0.00     0.000 A 
ATOM      6  C7  UNL d   1       0.222  -0.303  -1.105  0.00  0.00    -0.073 A 
ATOM      7  C8  UNL d   1       0.204   0.399  -2.435  0.00  0.00     0.078 C 
ENDROOT
BRANCH   1   8
ATOM      8  C1  UNL d   1      -2.224  -1.024  -1.343  0.00  0.00     0.053 C 
ATOM      9  C   UNL d   1      -3.425  -1.097  -0.413  0.00  0.00     0.018 C 
ENDBRANCH   1   8
TORSDOF 1
ENDMDL
