MODEL 1
REMARK minimizedAffinity -2.40387273
REMARK minimizedRMSD -1
REMARK  1 active torsions:
REMARK  status: ('A' for Active; 'I' for Inactive)
REMARK    1  A    between atoms: C1_2  and  C2_3 
ROOT
ATOM      1  C2  UNL d   1       0.634   0.267  -0.060  0.00  0.00    -0.076 A 
ATOM      2  C3  UNL d   1       0.353   1.152  -1.115  0.00  0.00     0.004 A 
ATOM      3  C4  UNL d   1      -0.859   1.090  -1.801  0.00  0.00    -0.003 A 
ATOM      4  C5  UNL d   1      -1.810   0.141  -1.442  0.00  0.00     0.000 A 
ATOM      5  C6  UNL d   1      -1.556  -0.734  -0.386  0.00  0.00     0.000 A 
ATOM      6  C7  UNL d   1      -0.346  -0.673   0.326  0.00  0.00    -0.073 A 
ATOM      7  C8  UNL d   1      -0.122  -1.645   1.452  0.00  0.00     0.078 C 
ENDROOT
BRANCH   1   8
ATOM      8  C1  UNL d   1       1.976   0.363   0.629  0.00  0.00     0.053 C 
ATOM      9  C   UNL d   1       2.704   1.660   0.308  0.00  0.00     0.018 C 
ENDBRANCH   1   8
TORSDOF 1
ENDMDL
