MODEL 1
REMARK minimizedAffinity -4.56105328
REMARK minimizedRMSD -1
REMARK  1 active torsions:
REMARK  status: ('A' for Active; 'I' for Inactive)
REMARK    1  A    between atoms: C1_2  and  C2_3 
ROOT
ATOM      1  C2  UNL d   1       1.452   1.046   0.659  0.00  0.00    -0.076 A 
ATOM      2  C3  UNL d   1       0.355   1.885   0.392  0.00  0.00     0.004 A 
ATOM      3  C4  UNL d   1      -0.794   1.389  -0.220  0.00  0.00    -0.003 A 
ATOM      4  C5  UNL d   1      -0.867   0.047  -0.575  0.00  0.00     0.000 A 
ATOM      5  C6  UNL d   1       0.205  -0.803  -0.302  0.00  0.00     0.000 A 
ATOM      6  C7  UNL d   1       1.365  -0.323   0.329  0.00  0.00    -0.073 A 
ATOM      7  C8  UNL d   1       2.492  -1.283   0.594  0.00  0.00     0.078 C 
ENDROOT
BRANCH   1   8
ATOM      8  C1  UNL d   1       2.683   1.646   1.300  0.00  0.00     0.053 C 
ATOM      9  C   UNL d   1       2.657   3.167   1.302  0.00  0.00     0.018 C 
ENDBRANCH   1   8
TORSDOF 1
ENDMDL
