MODEL 1
REMARK minimizedAffinity 7.78798771
REMARK minimizedRMSD -1
REMARK  1 active torsions:
REMARK  status: ('A' for Active; 'I' for Inactive)
REMARK    1  A    between atoms: C1_2  and  C2_3 
ROOT
ATOM      1  C2  UNL d   1      -0.565  -1.019   1.614  0.00  0.00    -0.076 A 
ATOM      2  C3  UNL d   1       0.339  -2.093   1.560  0.00  0.00     0.004 A 
ATOM      3  C4  UNL d   1       1.483  -2.110   2.356  0.00  0.00    -0.003 A 
ATOM      4  C5  UNL d   1       1.741  -1.052   3.221  0.00  0.00     0.000 A 
ATOM      5  C6  UNL d   1       0.845   0.015   3.301  0.00  0.00     0.000 A 
ATOM      6  C7  UNL d   1      -0.321   0.039   2.516  0.00  0.00    -0.073 A 
ATOM      7  C8  UNL d   1      -1.248   1.217   2.638  0.00  0.00     0.078 C 
ENDROOT
BRANCH   1   8
ATOM      8  C1  UNL d   1      -1.774  -1.043   0.707  0.00  0.00     0.053 C 
ATOM      9  C   UNL d   1      -1.420  -1.404  -0.728  0.00  0.00     0.018 C 
ENDBRANCH   1   8
TORSDOF 1
ENDMDL
