MODEL 1
REMARK minimizedAffinity 0.188291118
REMARK minimizedRMSD -1
REMARK  1 active torsions:
REMARK  status: ('A' for Active; 'I' for Inactive)
REMARK    1  A    between atoms: C1_2  and  C2_3 
ROOT
ATOM      1  C2  UNL d   1       1.360   0.846   2.053  0.00  0.00    -0.076 A 
ATOM      2  C3  UNL d   1       1.714  -0.108   1.082  0.00  0.00     0.004 A 
ATOM      3  C4  UNL d   1       0.865  -1.171   0.778  0.00  0.00    -0.003 A 
ATOM      4  C5  UNL d   1      -0.351  -1.297   1.439  0.00  0.00     0.000 A 
ATOM      5  C6  UNL d   1      -0.726  -0.351   2.392  0.00  0.00     0.000 A 
ATOM      6  C7  UNL d   1       0.110   0.736   2.699  0.00  0.00    -0.073 A 
ATOM      7  C8  UNL d   1      -0.342   1.723   3.740  0.00  0.00     0.078 C 
ENDROOT
BRANCH   1   8
ATOM      8  C1  UNL d   1       2.333   1.962   2.360  0.00  0.00     0.053 C 
ATOM      9  C   UNL d   1       3.053   2.466   1.119  0.00  0.00     0.018 C 
ENDBRANCH   1   8
TORSDOF 1
ENDMDL
