MODEL 1
REMARK minimizedAffinity -2.77199149
REMARK minimizedRMSD -1
REMARK  1 active torsions:
REMARK  status: ('A' for Active; 'I' for Inactive)
REMARK    1  A    between atoms: C1_2  and  C2_3 
ROOT
ATOM      1  C2  UNL d   1      -0.557  -0.046  -0.152  0.00  0.00    -0.076 A 
ATOM      2  C3  UNL d   1      -1.308  -0.715   0.829  0.00  0.00     0.004 A 
ATOM      3  C4  UNL d   1      -2.395  -1.515   0.480  0.00  0.00    -0.003 A 
ATOM      4  C5  UNL d   1      -2.747  -1.659  -0.858  0.00  0.00     0.000 A 
ATOM      5  C6  UNL d   1      -2.002  -1.016  -1.846  0.00  0.00     0.000 A 
ATOM      6  C7  UNL d   1      -0.894  -0.220  -1.512  0.00  0.00    -0.073 A 
ATOM      7  C8  UNL d   1      -0.130   0.455  -2.618  0.00  0.00     0.078 C 
ENDROOT
BRANCH   1   8
ATOM      8  C1  UNL d   1       0.595   0.830   0.289  0.00  0.00     0.053 C 
ATOM      9  C   UNL d   1       1.936   0.117   0.199  0.00  0.00     0.018 C 
ENDBRANCH   1   8
TORSDOF 1
ENDMDL
