MODEL 1
REMARK minimizedAffinity -0.921557963
REMARK minimizedRMSD -1
REMARK  1 active torsions:
REMARK  status: ('A' for Active; 'I' for Inactive)
REMARK    1  A    between atoms: C1_2  and  C2_3 
ROOT
ATOM      1  C2  UNL d   1       2.364   1.446   0.403  0.00  0.00    -0.076 A 
ATOM      2  C3  UNL d   1       2.970   1.726  -0.833  0.00  0.00     0.004 A 
ATOM      3  C4  UNL d   1       3.641   2.929  -1.047  0.00  0.00    -0.003 A 
ATOM      4  C5  UNL d   1       3.718   3.871  -0.028  0.00  0.00     0.000 A 
ATOM      5  C6  UNL d   1       3.137   3.602   1.212  0.00  0.00     0.000 A 
ATOM      6  C7  UNL d   1       2.471   2.388   1.449  0.00  0.00    -0.073 A 
ATOM      7  C8  UNL d   1       1.858   2.153   2.803  0.00  0.00     0.078 C 
ENDROOT
BRANCH   1   8
ATOM      8  C1  UNL d   1       1.626   0.137   0.568  0.00  0.00     0.053 C 
ATOM      9  C   UNL d   1       0.164   0.236   0.160  0.00  0.00     0.018 C 
ENDBRANCH   1   8
TORSDOF 1
ENDMDL
