MODEL 1
REMARK minimizedAffinity -5.16220999
REMARK minimizedRMSD -1
REMARK  1 active torsions:
REMARK  status: ('A' for Active; 'I' for Inactive)
REMARK    1  A    between atoms: C1_2  and  C2_3 
ROOT
ATOM      1  C2  UNL d   1      -0.967   0.014  -0.702  0.00  0.00    -0.076 A 
ATOM      2  C3  UNL d   1      -0.603  -0.532   0.541  0.00  0.00     0.004 A 
ATOM      3  C4  UNL d   1       0.672  -0.334   1.066  0.00  0.00    -0.003 A 
ATOM      4  C5  UNL d   1       1.606   0.414   0.357  0.00  0.00     0.000 A 
ATOM      5  C6  UNL d   1       1.257   0.977  -0.870  0.00  0.00     0.000 A 
ATOM      6  C7  UNL d   1      -0.030   0.801  -1.406  0.00  0.00    -0.073 A 
ATOM      7  C8  UNL d   1      -0.350   1.426  -2.736  0.00  0.00     0.078 C 
ENDROOT
BRANCH   1   8
ATOM      8  C1  UNL d   1      -2.356  -0.257  -1.234  0.00  0.00     0.053 C 
ATOM      9  C   UNL d   1      -3.022  -1.441  -0.549  0.00  0.00     0.018 C 
ENDBRANCH   1   8
TORSDOF 1
ENDMDL
