MODEL 1
REMARK minimizedAffinity 19.7004051
REMARK minimizedRMSD -1
REMARK  0 active torsions:
REMARK  status: ('A' for Active; 'I' for Inactive)
ROOT
ATOM      1  C   UNL d   1      -2.828  -0.163  -1.925  0.00  0.00     0.124 A 
ATOM      2  C1  UNL d   1      -2.587   0.304  -3.210  0.00  0.00     0.062 A 
ATOM      3  C2  UNL d   1      -3.491   1.168  -3.821  0.00  0.00     0.162 A 
ATOM      4  C3  UNL d   1      -4.644   1.572  -3.148  0.00  0.00    -0.034 A 
ATOM      5  C4  UNL d   1      -4.879   1.097  -1.856  0.00  0.00     0.162 A 
ATOM      6  C5  UNL d   1      -3.973   0.234  -1.250  0.00  0.00     0.062 A 
ATOM      7  F   UNL d   1      -4.207  -0.217  -0.008  0.00  0.00    -0.097 F 
ATOM      8  F1  UNL d   1      -5.977   1.466  -1.180  0.00  0.00    -0.096 F 
ATOM      9  I   UNL d   1      -5.998   2.864  -4.058  0.00  0.00    -0.060 I 
ATOM     10  F2  UNL d   1      -3.233   1.603  -5.063  0.00  0.00    -0.096 F 
ATOM     11  F3  UNL d   1      -1.482  -0.079  -3.865  0.00  0.00    -0.097 F 
ATOM     12  F4  UNL d   1      -1.957  -0.996  -1.340  0.00  0.00    -0.092 F 
ENDROOT
TORSDOF 0
ENDMDL
