MODEL 1
REMARK minimizedAffinity 13.2441788
REMARK minimizedRMSD -1
REMARK  0 active torsions:
REMARK  status: ('A' for Active; 'I' for Inactive)
ROOT
ATOM      1  C   UNL d   1       5.178   1.921  -2.510  0.00  0.00     0.124 A 
ATOM      2  C1  UNL d   1       4.590   0.668  -2.609  0.00  0.00     0.062 A 
ATOM      3  C2  UNL d   1       4.238  -0.033  -1.459  0.00  0.00     0.162 A 
ATOM      4  C3  UNL d   1       4.472   0.518  -0.199  0.00  0.00    -0.034 A 
ATOM      5  C4  UNL d   1       5.065   1.779  -0.108  0.00  0.00     0.162 A 
ATOM      6  C5  UNL d   1       5.415   2.475  -1.260  0.00  0.00     0.062 A 
ATOM      7  F   UNL d   1       5.983   3.686  -1.162  0.00  0.00    -0.097 F 
ATOM      8  F1  UNL d   1       5.305   2.339   1.088  0.00  0.00    -0.096 F 
ATOM      9  I   UNL d   1       3.948  -0.526   1.523  0.00  0.00    -0.060 I 
ATOM     10  F2  UNL d   1       3.671  -1.242  -1.584  0.00  0.00    -0.096 F 
ATOM     11  F3  UNL d   1       4.361   0.129  -3.815  0.00  0.00    -0.097 F 
ATOM     12  F4  UNL d   1       5.517   2.593  -3.618  0.00  0.00    -0.092 F 
ENDROOT
TORSDOF 0
ENDMDL
