MODEL 1
REMARK minimizedAffinity 18.5122337
REMARK minimizedRMSD -1
REMARK  0 active torsions:
REMARK  status: ('A' for Active; 'I' for Inactive)
ROOT
ATOM      1  C   UNL d   1       2.724  -0.351  -0.728  0.00  0.00     0.124 A 
ATOM      2  C1  UNL d   1       3.312   0.678  -0.006  0.00  0.00     0.062 A 
ATOM      3  C2  UNL d   1       4.245   1.514  -0.612  0.00  0.00     0.162 A 
ATOM      4  C3  UNL d   1       4.596   1.325  -1.949  0.00  0.00    -0.034 A 
ATOM      5  C4  UNL d   1       4.001   0.287  -2.668  0.00  0.00     0.162 A 
ATOM      6  C5  UNL d   1       3.068  -0.546  -2.058  0.00  0.00     0.062 A 
ATOM      7  F   UNL d   1       2.501  -1.539  -2.757  0.00  0.00    -0.097 F 
ATOM      8  F1  UNL d   1       4.315   0.077  -3.955  0.00  0.00    -0.096 F 
ATOM      9  I   UNL d   1       5.991   2.572  -2.859  0.00  0.00    -0.060 I 
ATOM     10  F2  UNL d   1       4.798   2.500   0.110  0.00  0.00    -0.096 F 
ATOM     11  F3  UNL d   1       2.981   0.868   1.279  0.00  0.00    -0.097 F 
ATOM     12  F4  UNL d   1       1.826  -1.154  -0.142  0.00  0.00    -0.092 F 
ENDROOT
TORSDOF 0
ENDMDL
