MODEL 1
REMARK minimizedAffinity 26.8004627
REMARK minimizedRMSD -1
REMARK  0 active torsions:
REMARK  status: ('A' for Active; 'I' for Inactive)
ROOT
ATOM      1  C   UNL d   1      -1.076   2.610   1.294  0.00  0.00     0.124 A 
ATOM      2  C1  UNL d   1      -1.577   2.438   2.577  0.00  0.00     0.062 A 
ATOM      3  C2  UNL d   1      -0.708   2.336   3.660  0.00  0.00     0.162 A 
ATOM      4  C3  UNL d   1       0.672   2.405   3.464  0.00  0.00    -0.034 A 
ATOM      5  C4  UNL d   1       1.168   2.577   2.171  0.00  0.00     0.162 A 
ATOM      6  C5  UNL d   1       0.295   2.679   1.092  0.00  0.00     0.062 A 
ATOM      7  F   UNL d   1       0.781   2.845  -0.147  0.00  0.00    -0.097 F 
ATOM      8  F1  UNL d   1       2.488   2.648   1.947  0.00  0.00    -0.096 F 
ATOM      9  I   UNL d   1       1.974   2.252   5.080  0.00  0.00    -0.060 I 
ATOM     10  F2  UNL d   1      -1.219   2.170   4.889  0.00  0.00    -0.096 F 
ATOM     11  F3  UNL d   1      -2.901   2.370   2.775  0.00  0.00    -0.097 F 
ATOM     12  F4  UNL d   1      -1.914   2.708   0.254  0.00  0.00    -0.092 F 
ENDROOT
TORSDOF 0
ENDMDL
