MODEL 1
REMARK minimizedAffinity 13.8505554
REMARK minimizedRMSD -1
REMARK  0 active torsions:
REMARK  status: ('A' for Active; 'I' for Inactive)
ROOT
ATOM      1  C   UNL d   1       3.863   4.146   4.909  0.00  0.00     0.124 A 
ATOM      2  C1  UNL d   1       2.677   3.424   4.908  0.00  0.00     0.062 A 
ATOM      3  C2  UNL d   1       2.293   2.711   3.776  0.00  0.00     0.162 A 
ATOM      4  C3  UNL d   1       3.096   2.715   2.635  0.00  0.00    -0.034 A 
ATOM      5  C4  UNL d   1       4.286   3.445   2.644  0.00  0.00     0.162 A 
ATOM      6  C5  UNL d   1       4.666   4.155   3.777  0.00  0.00     0.062 A 
ATOM      7  F   UNL d   1       5.812   4.852   3.777  0.00  0.00    -0.097 F 
ATOM      8  F1  UNL d   1       5.082   3.471   1.564  0.00  0.00    -0.096 F 
ATOM      9  I   UNL d   1       2.525   1.651   0.941  0.00  0.00    -0.060 I 
ATOM     10  F2  UNL d   1       1.142   2.022   3.803  0.00  0.00    -0.096 F 
ATOM     11  F3  UNL d   1       1.899   3.414   6.000  0.00  0.00    -0.097 F 
ATOM     12  F4  UNL d   1       4.230   4.832   5.999  0.00  0.00    -0.092 F 
ENDROOT
TORSDOF 0
ENDMDL
