MODEL 1
REMARK minimizedAffinity 24.7713871
REMARK minimizedRMSD -1
REMARK  0 active torsions:
REMARK  status: ('A' for Active; 'I' for Inactive)
ROOT
ATOM      1  C   UNL d   1      -1.425   3.896   1.539  0.00  0.00     0.124 A 
ATOM      2  C1  UNL d   1      -0.217   3.315   1.177  0.00  0.00     0.062 A 
ATOM      3  C2  UNL d   1       0.544   2.635   2.124  0.00  0.00     0.162 A 
ATOM      4  C3  UNL d   1       0.098   2.531   3.442  0.00  0.00    -0.034 A 
ATOM      5  C4  UNL d   1      -1.117   3.119   3.798  0.00  0.00     0.162 A 
ATOM      6  C5  UNL d   1      -1.874   3.797   2.848  0.00  0.00     0.062 A 
ATOM      7  F   UNL d   1      -3.040   4.358   3.199  0.00  0.00    -0.097 F 
ATOM      8  F1  UNL d   1      -1.575   3.038   5.056  0.00  0.00    -0.096 F 
ATOM      9  I   UNL d   1       1.233   1.515   4.860  0.00  0.00    -0.060 I 
ATOM     10  F2  UNL d   1       1.707   2.084   1.747  0.00  0.00    -0.096 F 
ATOM     11  F3  UNL d   1       0.219   3.410  -0.087  0.00  0.00    -0.097 F 
ATOM     12  F4  UNL d   1      -2.154   4.551   0.626  0.00  0.00    -0.092 F 
ENDROOT
TORSDOF 0
ENDMDL
