MODEL 1
REMARK minimizedAffinity 15.4190483
REMARK minimizedRMSD -1
REMARK  0 active torsions:
REMARK  status: ('A' for Active; 'I' for Inactive)
ROOT
ATOM      1  C   UNL d   1       0.119  -1.839   0.070  0.00  0.00     0.124 A 
ATOM      2  C1  UNL d   1       0.668  -0.573   0.221  0.00  0.00     0.062 A 
ATOM      3  C2  UNL d   1       1.836  -0.232  -0.457  0.00  0.00     0.162 A 
ATOM      4  C3  UNL d   1       2.461  -1.158  -1.292  0.00  0.00    -0.034 A 
ATOM      5  C4  UNL d   1       1.902  -2.429  -1.437  0.00  0.00     0.162 A 
ATOM      6  C5  UNL d   1       0.736  -2.765  -0.758  0.00  0.00     0.062 A 
ATOM      7  F   UNL d   1       0.206  -3.988  -0.904  0.00  0.00    -0.097 F 
ATOM      8  F1  UNL d   1       2.478  -3.344  -2.232  0.00  0.00    -0.096 F 
ATOM      9  I   UNL d   1       4.206  -0.652  -2.306  0.00  0.00    -0.060 I 
ATOM     10  F2  UNL d   1       2.344   0.998  -0.293  0.00  0.00    -0.096 F 
ATOM     11  F3  UNL d   1       0.074   0.324   1.021  0.00  0.00    -0.097 F 
ATOM     12  F4  UNL d   1      -1.004  -2.164   0.724  0.00  0.00    -0.092 F 
ENDROOT
TORSDOF 0
ENDMDL
