MODEL 1
REMARK minimizedAffinity 9.94946861
REMARK minimizedRMSD -1
REMARK  0 active torsions:
REMARK  status: ('A' for Active; 'I' for Inactive)
ROOT
ATOM      1  C   UNL d   1       0.612   2.135   1.768  0.00  0.00     0.124 A 
ATOM      2  C1  UNL d   1       0.353   0.890   2.324  0.00  0.00     0.062 A 
ATOM      3  C2  UNL d   1       0.074  -0.199   1.502  0.00  0.00     0.162 A 
ATOM      4  C3  UNL d   1       0.053  -0.047   0.116  0.00  0.00    -0.034 A 
ATOM      5  C4  UNL d   1       0.314   1.209  -0.436  0.00  0.00     0.162 A 
ATOM      6  C5  UNL d   1       0.592   2.293   0.390  0.00  0.00     0.062 A 
ATOM      7  F   UNL d   1       0.842   3.496  -0.149  0.00  0.00    -0.097 F 
ATOM      8  F1  UNL d   1       0.302   1.390  -1.764  0.00  0.00    -0.096 F 
ATOM      9  I   UNL d   1      -0.363  -1.672  -1.116  0.00  0.00    -0.060 I 
ATOM     10  F2  UNL d   1      -0.173  -1.391   2.066  0.00  0.00    -0.096 F 
ATOM     11  F3  UNL d   1       0.370   0.734   3.655  0.00  0.00    -0.097 F 
ATOM     12  F4  UNL d   1       0.879   3.181   2.561  0.00  0.00    -0.092 F 
ENDROOT
TORSDOF 0
ENDMDL
