MODEL 1
REMARK minimizedAffinity 7.99816895
REMARK minimizedRMSD -1
REMARK  0 active torsions:
REMARK  status: ('A' for Active; 'I' for Inactive)
ROOT
ATOM      1  C1  DEN d   1      -0.689  -2.286  -0.302  0.00  0.00     0.130 A 
ATOM      2  C2  DEN d   1      -1.501  -2.666   0.851  0.00  0.00    -0.031 A 
ATOM      3  C3  DEN d   1      -2.789  -3.185   0.350  0.00  0.00     0.027 A 
ATOM      4  C4  DEN d   1      -3.599  -3.443  -2.085  0.00  0.00     0.027 A 
ATOM      5  C5  DEN d   1      -3.264  -3.244  -3.406  0.00  0.00    -0.003 A 
ATOM      6  C6  DEN d   1      -2.071  -2.686  -3.781  0.00  0.00     0.001 A 
ATOM      7  C7  DEN d   1      -1.150  -2.348  -2.825  0.00  0.00     0.017 A 
ATOM      8  C8  DEN d   1      -1.483  -2.538  -1.491  0.00  0.00    -0.094 A 
ATOM      9  C9  DEN d   1      -2.690  -3.115  -1.132  0.00  0.00    -0.072 A 
ENDROOT
TORSDOF 0
ENDMDL
