MODEL 1
REMARK minimizedAffinity 7.26192331
REMARK minimizedRMSD -1
REMARK  0 active torsions:
REMARK  status: ('A' for Active; 'I' for Inactive)
ROOT
ATOM      1  C1  DEN d   1       2.089   0.396   3.974  0.00  0.00     0.130 A 
ATOM      2  C2  DEN d   1       0.970   1.297   3.710  0.00  0.00    -0.031 A 
ATOM      3  C3  DEN d   1       1.058   1.734   2.303  0.00  0.00     0.027 A 
ATOM      4  C4  DEN d   1       2.808   1.105   0.515  0.00  0.00     0.027 A 
ATOM      5  C5  DEN d   1       3.953   0.380   0.272  0.00  0.00    -0.003 A 
ATOM      6  C6  DEN d   1       4.572  -0.357   1.247  0.00  0.00     0.001 A 
ATOM      7  C7  DEN d   1       4.022  -0.422   2.500  0.00  0.00     0.017 A 
ATOM      8  C8  DEN d   1       2.871   0.312   2.755  0.00  0.00    -0.094 A 
ATOM      9  C9  DEN d   1       2.254   1.041   1.752  0.00  0.00    -0.072 A 
ENDROOT
TORSDOF 0
ENDMDL
