MODEL 1
REMARK minimizedAffinity 0.371002316
REMARK minimizedRMSD -1
REMARK  0 active torsions:
REMARK  status: ('A' for Active; 'I' for Inactive)
ROOT
ATOM      1  C1  DEN d   1       0.760  -3.472  -1.497  0.00  0.00     0.130 A 
ATOM      2  C2  DEN d   1       0.682  -3.781  -2.923  0.00  0.00    -0.031 A 
ATOM      3  C3  DEN d   1      -0.732  -3.677  -3.336  0.00  0.00     0.027 A 
ATOM      4  C4  DEN d   1      -2.797  -3.068  -1.915  0.00  0.00     0.027 A 
ATOM      5  C5  DEN d   1      -3.231  -2.736  -0.651  0.00  0.00    -0.003 A 
ATOM      6  C6  DEN d   1      -2.378  -2.660   0.418  0.00  0.00     0.001 A 
ATOM      7  C7  DEN d   1      -1.038  -2.875   0.233  0.00  0.00     0.017 A 
ATOM      8  C8  DEN d   1      -0.594  -3.218  -1.037  0.00  0.00    -0.094 A 
ATOM      9  C9  DEN d   1      -1.470  -3.278  -2.107  0.00  0.00    -0.072 A 
ENDROOT
TORSDOF 0
ENDMDL
