MODEL 1
REMARK minimizedAffinity 3.10456824
REMARK minimizedRMSD -1
REMARK  0 active torsions:
REMARK  status: ('A' for Active; 'I' for Inactive)
ROOT
ATOM      1  C1  DEN d   1      -4.625  -4.377  -2.572  0.00  0.00     0.130 A 
ATOM      2  C2  DEN d   1      -4.866  -4.635  -3.989  0.00  0.00    -0.031 A 
ATOM      3  C3  DEN d   1      -3.746  -4.054  -4.756  0.00  0.00     0.027 A 
ATOM      4  C4  DEN d   1      -1.669  -2.792  -3.892  0.00  0.00     0.027 A 
ATOM      5  C5  DEN d   1      -1.031  -2.318  -2.767  0.00  0.00    -0.003 A 
ATOM      6  C6  DEN d   1      -1.559  -2.466  -1.511  0.00  0.00     0.001 A 
ATOM      7  C7  DEN d   1      -2.738  -3.143  -1.346  0.00  0.00     0.017 A 
ATOM      8  C8  DEN d   1      -3.390  -3.618  -2.476  0.00  0.00    -0.094 A 
ATOM      9  C9  DEN d   1      -2.835  -3.469  -3.736  0.00  0.00    -0.072 A 
ENDROOT
TORSDOF 0
ENDMDL
