MODEL 1
REMARK minimizedAffinity 3.15249157
REMARK minimizedRMSD -1
REMARK  0 active torsions:
REMARK  status: ('A' for Active; 'I' for Inactive)
ROOT
ATOM      1  C1  DEN d   1       1.472   1.901  -0.822  0.00  0.00     0.130 A 
ATOM      2  C2  DEN d   1       2.176   2.074  -2.090  0.00  0.00    -0.031 A 
ATOM      3  C3  DEN d   1       3.436   1.308  -2.020  0.00  0.00     0.027 A 
ATOM      4  C4  DEN d   1       4.360  -0.125  -0.085  0.00  0.00     0.027 A 
ATOM      5  C5  DEN d   1       4.123  -0.563   1.199  0.00  0.00    -0.003 A 
ATOM      6  C6  DEN d   1       3.012  -0.187   1.906  0.00  0.00     0.001 A 
ATOM      7  C7  DEN d   1       2.073   0.617   1.317  0.00  0.00     0.017 A 
ATOM      8  C8  DEN d   1       2.308   1.069   0.025  0.00  0.00    -0.094 A 
ATOM      9  C9  DEN d   1       3.431   0.667  -0.678  0.00  0.00    -0.072 A 
ENDROOT
TORSDOF 0
ENDMDL
