MODEL 1
REMARK minimizedAffinity 6.00541925
REMARK minimizedRMSD -1
REMARK  0 active torsions:
REMARK  status: ('A' for Active; 'I' for Inactive)
ROOT
ATOM      1  C1  DEN d   1      -0.766  -1.876  -4.959  0.00  0.00     0.130 A 
ATOM      2  C2  DEN d   1      -1.152  -2.826  -6.000  0.00  0.00    -0.031 A 
ATOM      3  C3  DEN d   1      -2.081  -3.806  -5.402  0.00  0.00     0.027 A 
ATOM      4  C4  DEN d   1      -2.958  -3.942  -2.980  0.00  0.00     0.027 A 
ATOM      5  C5  DEN d   1      -2.903  -3.362  -1.732  0.00  0.00    -0.003 A 
ATOM      6  C6  DEN d   1      -2.112  -2.275  -1.466  0.00  0.00     0.001 A 
ATOM      7  C7  DEN d   1      -1.378  -1.707  -2.473  0.00  0.00     0.017 A 
ATOM      8  C8  DEN d   1      -1.423  -2.291  -3.733  0.00  0.00    -0.094 A 
ATOM      9  C9  DEN d   1      -2.238  -3.381  -3.984  0.00  0.00    -0.072 A 
ENDROOT
TORSDOF 0
ENDMDL
