MODEL 1
REMARK minimizedAffinity -0.86089927
REMARK minimizedRMSD -1
REMARK  0 active torsions:
REMARK  status: ('A' for Active; 'I' for Inactive)
ROOT
ATOM      1  C1  DEN d   1       2.326   0.018   1.819  0.00  0.00     0.130 A 
ATOM      2  C2  DEN d   1       1.491   1.198   1.614  0.00  0.00    -0.031 A 
ATOM      3  C3  DEN d   1       2.343   2.272   1.066  0.00  0.00     0.027 A 
ATOM      4  C4  DEN d   1       4.862   2.221   0.514  0.00  0.00     0.027 A 
ATOM      5  C5  DEN d   1       5.999   1.444   0.529  0.00  0.00    -0.003 A 
ATOM      6  C6  DEN d   1       5.999   0.159   1.004  0.00  0.00     0.001 A 
ATOM      7  C7  DEN d   1       4.829  -0.403   1.440  0.00  0.00     0.017 A 
ATOM      8  C8  DEN d   1       3.680   0.377   1.435  0.00  0.00    -0.094 A 
ATOM      9  C9  DEN d   1       3.698   1.670   0.940  0.00  0.00    -0.072 A 
ENDROOT
TORSDOF 0
ENDMDL
