MODEL 1
REMARK minimizedAffinity -0.645635605
REMARK minimizedRMSD -1
REMARK  0 active torsions:
REMARK  status: ('A' for Active; 'I' for Inactive)
ROOT
ATOM      1  C1  DEN d   1      -3.361  -2.974  -2.331  0.00  0.00     0.130 A 
ATOM      2  C2  DEN d   1      -2.985  -2.743  -3.723  0.00  0.00    -0.031 A 
ATOM      3  C3  DEN d   1      -1.512  -2.784  -3.811  0.00  0.00     0.027 A 
ATOM      4  C4  DEN d   1       0.215  -3.186  -1.937  0.00  0.00     0.027 A 
ATOM      5  C5  DEN d   1       0.375  -3.419  -0.589  0.00  0.00    -0.003 A 
ATOM      6  C6  DEN d   1      -0.689  -3.486   0.271  0.00  0.00     0.001 A 
ATOM      7  C7  DEN d   1      -1.964  -3.363  -0.214  0.00  0.00     0.017 A 
ATOM      8  C8  DEN d   1      -2.132  -3.120  -1.571  0.00  0.00    -0.094 A 
ATOM      9  C9  DEN d   1      -1.045  -3.068  -2.427  0.00  0.00    -0.072 A 
ENDROOT
TORSDOF 0
ENDMDL
