MODEL 1
REMARK minimizedAffinity 13.2486839
REMARK minimizedRMSD -1
REMARK  0 active torsions:
REMARK  status: ('A' for Active; 'I' for Inactive)
ROOT
ATOM      1  C1  DEN d   1      -3.084  -2.329  -1.296  0.00  0.00     0.130 A 
ATOM      2  C2  DEN d   1      -3.458  -2.842  -2.611  0.00  0.00    -0.031 A 
ATOM      3  C3  DEN d   1      -2.267  -3.482  -3.206  0.00  0.00     0.027 A 
ATOM      4  C4  DEN d   1       0.104  -3.731  -2.222  0.00  0.00     0.027 A 
ATOM      5  C5  DEN d   1       0.905  -3.445  -1.139  0.00  0.00    -0.003 A 
ATOM      6  C6  DEN d   1       0.447  -2.742  -0.056  0.00  0.00     0.001 A 
ATOM      7  C7  DEN d   1      -0.863  -2.341  -0.012  0.00  0.00     0.017 A 
ATOM      8  C8  DEN d   1      -1.675  -2.620  -1.104  0.00  0.00    -0.094 A 
ATOM      9  C9  DEN d   1      -1.196  -3.342  -2.183  0.00  0.00    -0.072 A 
ENDROOT
TORSDOF 0
ENDMDL
