MODEL 1
REMARK minimizedAffinity 4.53653193
REMARK minimizedRMSD -1
REMARK  0 active torsions:
REMARK  status: ('A' for Active; 'I' for Inactive)
ROOT
ATOM      1  C1  DEN d   1      -2.070  -2.249  -2.170  0.00  0.00     0.130 A 
ATOM      2  C2  DEN d   1      -3.369  -2.621  -2.723  0.00  0.00    -0.031 A 
ATOM      3  C3  DEN d   1      -4.038  -3.514  -1.755  0.00  0.00     0.027 A 
ATOM      4  C4  DEN d   1      -3.195  -4.347   0.535  0.00  0.00     0.027 A 
ATOM      5  C5  DEN d   1      -2.145  -4.310   1.427  0.00  0.00    -0.003 A 
ATOM      6  C6  DEN d   1      -0.993  -3.616   1.168  0.00  0.00     0.001 A 
ATOM      7  C7  DEN d   1      -0.880  -2.894   0.010  0.00  0.00     0.017 A 
ATOM      8  C8  DEN d   1      -1.931  -2.933  -0.897  0.00  0.00    -0.094 A 
ATOM      9  C9  DEN d   1      -3.093  -3.630  -0.612  0.00  0.00    -0.072 A 
ENDROOT
TORSDOF 0
ENDMDL
