MODEL 1
REMARK minimizedAffinity 3.79671431
REMARK minimizedRMSD -1
REMARK  0 active torsions:
REMARK  status: ('A' for Active; 'I' for Inactive)
ROOT
ATOM      1  C1  DEN d   1       2.053   0.400   4.037  0.00  0.00     0.130 A 
ATOM      2  C2  DEN d   1       0.899   1.294   4.065  0.00  0.00    -0.031 A 
ATOM      3  C3  DEN d   1       0.750   1.890   2.723  0.00  0.00     0.027 A 
ATOM      4  C4  DEN d   1       2.184   1.515   0.612  0.00  0.00     0.027 A 
ATOM      5  C5  DEN d   1       3.280   0.854   0.103  0.00  0.00    -0.003 A 
ATOM      6  C6  DEN d   1       4.057   0.029   0.871  0.00  0.00     0.001 A 
ATOM      7  C7  DEN d   1       3.723  -0.192   2.181  0.00  0.00     0.017 A 
ATOM      8  C8  DEN d   1       2.624   0.476   2.704  0.00  0.00    -0.094 A 
ATOM      9  C9  DEN d   1       1.844   1.297   1.908  0.00  0.00    -0.072 A 
ENDROOT
TORSDOF 0
ENDMDL
