MODEL 1
REMARK minimizedAffinity -0.744558096
REMARK minimizedRMSD -1
REMARK  0 active torsions:
REMARK  status: ('A' for Active; 'I' for Inactive)
ROOT
ATOM      1  C1  DEN d   1       4.631   3.000   0.743  0.00  0.00     0.130 A 
ATOM      2  C2  DEN d   1       5.994   2.501   0.904  0.00  0.00    -0.031 A 
ATOM      3  C3  DEN d   1       5.916   1.097   1.356  0.00  0.00     0.027 A 
ATOM      4  C4  DEN d   1       3.828  -0.346   1.816  0.00  0.00     0.027 A 
ATOM      5  C5  DEN d   1       2.451  -0.354   1.830  0.00  0.00    -0.003 A 
ATOM      6  C6  DEN d   1       1.710   0.755   1.519  0.00  0.00     0.001 A 
ATOM      7  C7  DEN d   1       2.343   1.908   1.135  0.00  0.00     0.017 A 
ATOM      8  C8  DEN d   1       3.731   1.927   1.126  0.00  0.00    -0.094 A 
ATOM      9  C9  DEN d   1       4.462   0.791   1.432  0.00  0.00    -0.072 A 
ENDROOT
TORSDOF 0
ENDMDL
