MODEL 1
REMARK minimizedAffinity 9.88526917
REMARK minimizedRMSD -1
REMARK  0 active torsions:
REMARK  status: ('A' for Active; 'I' for Inactive)
ROOT
ATOM      1  C1  DEN d   1      -3.364  -2.623  -2.996  0.00  0.00     0.130 A 
ATOM      2  C2  DEN d   1      -2.338  -2.612  -1.957  0.00  0.00    -0.031 A 
ATOM      3  C3  DEN d   1      -2.571  -3.772  -1.073  0.00  0.00     0.027 A 
ATOM      4  C4  DEN d   1      -4.409  -5.576  -1.213  0.00  0.00     0.027 A 
ATOM      5  C5  DEN d   1      -5.516  -5.999  -1.916  0.00  0.00    -0.003 A 
ATOM      6  C6  DEN d   1      -5.999  -5.313  -2.999  0.00  0.00     0.001 A 
ATOM      7  C7  DEN d   1      -5.347  -4.191  -3.438  0.00  0.00     0.017 A 
ATOM      8  C8  DEN d   1      -4.235  -3.754  -2.730  0.00  0.00    -0.094 A 
ATOM      9  C9  DEN d   1      -3.755  -4.468  -1.645  0.00  0.00    -0.072 A 
ENDROOT
TORSDOF 0
ENDMDL
