MODEL 1
REMARK minimizedAffinity 8.69267654
REMARK minimizedRMSD -1
REMARK  0 active torsions:
REMARK  status: ('A' for Active; 'I' for Inactive)
ROOT
ATOM      1  C1  DEN d   1      -0.377  -3.554   0.188  0.00  0.00     0.130 A 
ATOM      2  C2  DEN d   1      -1.254  -2.788   1.071  0.00  0.00    -0.031 A 
ATOM      3  C3  DEN d   1      -2.399  -2.307   0.272  0.00  0.00     0.027 A 
ATOM      4  C4  DEN d   1      -2.900  -2.675  -2.231  0.00  0.00     0.027 A 
ATOM      5  C5  DEN d   1      -2.440  -3.250  -3.395  0.00  0.00    -0.003 A 
ATOM      6  C6  DEN d   1      -1.254  -3.932  -3.454  0.00  0.00     0.001 A 
ATOM      7  C7  DEN d   1      -0.508  -4.095  -2.317  0.00  0.00     0.017 A 
ATOM      8  C8  DEN d   1      -0.961  -3.512  -1.141  0.00  0.00    -0.094 A 
ATOM      9  C9  DEN d   1      -2.169  -2.836  -1.099  0.00  0.00    -0.072 A 
ENDROOT
TORSDOF 0
ENDMDL
