MODEL 1
REMARK minimizedAffinity 7.61491537
REMARK minimizedRMSD -1
REMARK  0 active torsions:
REMARK  status: ('A' for Active; 'I' for Inactive)
ROOT
ATOM      1  C1  DEN d   1       5.932  -0.132  -5.987  0.00  0.00     0.130 A 
ATOM      2  C2  DEN d   1       5.961  -1.592  -5.999  0.00  0.00    -0.031 A 
ATOM      3  C3  DEN d   1       5.990  -2.060  -4.599  0.00  0.00     0.027 A 
ATOM      4  C4  DEN d   1       5.988  -0.673  -2.424  0.00  0.00     0.027 A 
ATOM      5  C5  DEN d   1       5.980   0.604  -1.907  0.00  0.00    -0.003 A 
ATOM      6  C6  DEN d   1       5.990   1.716  -2.707  0.00  0.00     0.001 A 
ATOM      7  C7  DEN d   1       5.963   1.572  -4.069  0.00  0.00     0.017 A 
ATOM      8  C8  DEN d   1       5.978   0.288  -4.598  0.00  0.00    -0.094 A 
ATOM      9  C9  DEN d   1       5.955  -0.823  -3.773  0.00  0.00    -0.072 A 
ENDROOT
TORSDOF 0
ENDMDL
