MODEL 1
REMARK minimizedAffinity 7.39385319
REMARK minimizedRMSD -1
REMARK  0 active torsions:
REMARK  status: ('A' for Active; 'I' for Inactive)
ROOT
ATOM      1  C1  DEN d   1       1.475  -4.821   1.567  0.00  0.00     0.130 A 
ATOM      2  C2  DEN d   1       0.259  -5.590   1.821  0.00  0.00    -0.031 A 
ATOM      3  C3  DEN d   1      -0.877  -4.857   1.225  0.00  0.00     0.027 A 
ATOM      4  C4  DEN d   1      -0.871  -2.623  -0.063  0.00  0.00     0.027 A 
ATOM      5  C5  DEN d   1      -0.079  -1.593  -0.520  0.00  0.00    -0.003 A 
ATOM      6  C6  DEN d   1       1.270  -1.550  -0.286  0.00  0.00     0.001 A 
ATOM      7  C7  DEN d   1       1.876  -2.579   0.385  0.00  0.00     0.017 A 
ATOM      8  C8  DEN d   1       1.083  -3.617   0.856  0.00  0.00    -0.094 A 
ATOM      9  C9  DEN d   1      -0.277  -3.649   0.598  0.00  0.00    -0.072 A 
ENDROOT
TORSDOF 0
ENDMDL
