MODEL 1
REMARK minimizedAffinity 7.18343067
REMARK minimizedRMSD -1
REMARK  0 active torsions:
REMARK  status: ('A' for Active; 'I' for Inactive)
ROOT
ATOM      1  C1  DEN d   1       0.598  -0.064  -0.767  0.00  0.00     0.130 A 
ATOM      2  C2  DEN d   1       0.539   1.292  -1.305  0.00  0.00    -0.031 A 
ATOM      3  C3  DEN d   1       0.858   1.227  -2.745  0.00  0.00     0.027 A 
ATOM      4  C4  DEN d   1       1.430  -0.833  -4.188  0.00  0.00     0.027 A 
ATOM      5  C5  DEN d   1       1.614  -2.198  -4.173  0.00  0.00    -0.003 A 
ATOM      6  C6  DEN d   1       1.506  -2.937  -3.025  0.00  0.00     0.001 A 
ATOM      7  C7  DEN d   1       1.162  -2.320  -1.851  0.00  0.00     0.017 A 
ATOM      8  C8  DEN d   1       0.982  -0.943  -1.857  0.00  0.00    -0.094 A 
ATOM      9  C9  DEN d   1       1.083  -0.216  -3.030  0.00  0.00    -0.072 A 
ENDROOT
TORSDOF 0
ENDMDL
