MODEL 1
REMARK minimizedAffinity 8.26585293
REMARK minimizedRMSD -1
REMARK  0 active torsions:
REMARK  status: ('A' for Active; 'I' for Inactive)
ROOT
ATOM      1  C1  DEN d   1       4.801   2.496   2.787  0.00  0.00     0.130 A 
ATOM      2  C2  DEN d   1       3.789   2.031   1.842  0.00  0.00    -0.031 A 
ATOM      3  C3  DEN d   1       3.414   0.653   2.217  0.00  0.00     0.027 A 
ATOM      4  C4  DEN d   1       4.292  -0.796   4.162  0.00  0.00     0.027 A 
ATOM      5  C5  DEN d   1       5.165  -0.836   5.226  0.00  0.00    -0.003 A 
ATOM      6  C6  DEN d   1       5.996   0.210   5.529  0.00  0.00     0.001 A 
ATOM      7  C7  DEN d   1       5.939   1.359   4.786  0.00  0.00     0.017 A 
ATOM      8  C8  DEN d   1       5.066   1.405   3.707  0.00  0.00    -0.094 A 
ATOM      9  C9  DEN d   1       4.225   0.341   3.424  0.00  0.00    -0.072 A 
ENDROOT
TORSDOF 0
ENDMDL
