MODEL 1
REMARK minimizedAffinity 1.92873931
REMARK minimizedRMSD -1
REMARK  0 active torsions:
REMARK  status: ('A' for Active; 'I' for Inactive)
ROOT
ATOM      1  C1  DEN d   1       1.467  -1.718  -2.057  0.00  0.00     0.130 A 
ATOM      2  C2  DEN d   1       1.070  -1.724  -0.651  0.00  0.00    -0.031 A 
ATOM      3  C3  DEN d   1       0.634  -0.359  -0.295  0.00  0.00     0.027 A 
ATOM      4  C4  DEN d   1       0.532   1.751  -1.776  0.00  0.00     0.027 A 
ATOM      5  C5  DEN d   1       0.778   2.251  -3.035  0.00  0.00    -0.003 A 
ATOM      6  C6  DEN d   1       1.299   1.478  -4.039  0.00  0.00     0.001 A 
ATOM      7  C7  DEN d   1       1.548   0.150  -3.813  0.00  0.00     0.017 A 
ATOM      8  C8  DEN d   1       1.310  -0.360  -2.544  0.00  0.00    -0.094 A 
ATOM      9  C9  DEN d   1       0.772   0.435  -1.546  0.00  0.00    -0.072 A 
ENDROOT
TORSDOF 0
ENDMDL
