MODEL 1
REMARK minimizedAffinity 1.21929669
REMARK minimizedRMSD -1
REMARK  0 active torsions:
REMARK  status: ('A' for Active; 'I' for Inactive)
ROOT
ATOM      1  C1  DEN d   1       0.945  -2.505  -2.972  0.00  0.00     0.130 A 
ATOM      2  C2  DEN d   1       0.804  -2.341  -4.416  0.00  0.00    -0.031 A 
ATOM      3  C3  DEN d   1       0.687  -0.897  -4.702  0.00  0.00     0.027 A 
ATOM      4  C4  DEN d   1       0.716   1.090  -3.058  0.00  0.00     0.027 A 
ATOM      5  C5  DEN d   1       0.802   1.447  -1.731  0.00  0.00    -0.003 A 
ATOM      6  C6  DEN d   1       0.907   0.519  -0.730  0.00  0.00     0.001 A 
ATOM      7  C7  DEN d   1       0.974  -0.813  -1.044  0.00  0.00     0.017 A 
ATOM      8  C8  DEN d   1       0.880  -1.182  -2.379  0.00  0.00    -0.094 A 
ATOM      9  C9  DEN d   1       0.786  -0.227  -3.378  0.00  0.00    -0.072 A 
ENDROOT
TORSDOF 0
ENDMDL
