MODEL 1
REMARK minimizedAffinity 9.18170738
REMARK minimizedRMSD -1
REMARK  0 active torsions:
REMARK  status: ('A' for Active; 'I' for Inactive)
ROOT
ATOM      1  C1  DEN d   1      -3.874  -1.734   5.220  0.00  0.00     0.130 A 
ATOM      2  C2  DEN d   1      -2.675  -2.108   4.475  0.00  0.00    -0.031 A 
ATOM      3  C3  DEN d   1      -1.915  -0.876   4.185  0.00  0.00     0.027 A 
ATOM      4  C4  DEN d   1      -2.472   1.561   4.817  0.00  0.00     0.027 A 
ATOM      5  C5  DEN d   1      -3.389   2.378   5.441  0.00  0.00    -0.003 A 
ATOM      6  C6  DEN d   1      -4.540   1.889   6.000  0.00  0.00     0.001 A 
ATOM      7  C7  DEN d   1      -4.782   0.541   5.987  0.00  0.00     0.017 A 
ATOM      8  C8  DEN d   1      -3.865  -0.288   5.354  0.00  0.00    -0.094 A 
ATOM      9  C9  DEN d   1      -2.701   0.224   4.805  0.00  0.00    -0.072 A 
ENDROOT
TORSDOF 0
ENDMDL
