MODEL 1
REMARK minimizedAffinity 7.4406209
REMARK minimizedRMSD -1
REMARK  0 active torsions:
REMARK  status: ('A' for Active; 'I' for Inactive)
ROOT
ATOM      1  C1  DEN d   1       3.597   3.725  -5.955  0.00  0.00     0.130 A 
ATOM      2  C2  DEN d   1       3.865   4.840  -5.050  0.00  0.00    -0.031 A 
ATOM      3  C3  DEN d   1       4.826   4.378  -4.029  0.00  0.00     0.027 A 
ATOM      4  C4  DEN d   1       5.925   2.060  -3.765  0.00  0.00     0.027 A 
ATOM      5  C5  DEN d   1       5.998   0.787  -4.286  0.00  0.00    -0.003 A 
ATOM      6  C6  DEN d   1       5.257   0.397  -5.370  0.00  0.00     0.001 A 
ATOM      7  C7  DEN d   1       4.444   1.303  -5.997  0.00  0.00     0.017 A 
ATOM      8  C8  DEN d   1       4.358   2.587  -5.473  0.00  0.00    -0.094 A 
ATOM      9  C9  DEN d   1       5.125   2.965  -4.383  0.00  0.00    -0.072 A 
ENDROOT
TORSDOF 0
ENDMDL
