MODEL 1
REMARK minimizedAffinity 1.03980803
REMARK minimizedRMSD -1
REMARK  0 active torsions:
REMARK  status: ('A' for Active; 'I' for Inactive)
ROOT
ATOM      1  C1  DEN d   1       5.819  -0.091  -3.748  0.00  0.00     0.130 A 
ATOM      2  C2  DEN d   1       6.000   0.173  -5.173  0.00  0.00    -0.031 A 
ATOM      3  C3  DEN d   1       4.674   0.462  -5.756  0.00  0.00     0.027 A 
ATOM      4  C4  DEN d   1       2.371   0.530  -4.596  0.00  0.00     0.027 A 
ATOM      5  C5  DEN d   1       1.713   0.361  -3.398  0.00  0.00    -0.003 A 
ATOM      6  C6  DEN d   1       2.366   0.000  -2.250  0.00  0.00     0.001 A 
ATOM      7  C7  DEN d   1       3.726  -0.161  -2.265  0.00  0.00     0.017 A 
ATOM      8  C8  DEN d   1       4.397  -0.000  -3.470  0.00  0.00    -0.094 A 
ATOM      9  C9  DEN d   1       3.720   0.377  -4.618  0.00  0.00    -0.072 A 
ENDROOT
TORSDOF 0
ENDMDL
