MODEL 1
REMARK minimizedAffinity 1.15037274
REMARK minimizedRMSD -1
REMARK  0 active torsions:
REMARK  status: ('A' for Active; 'I' for Inactive)
ROOT
ATOM      1  C1  DEN d   1       0.698   1.278  -0.703  0.00  0.00     0.130 A 
ATOM      2  C2  DEN d   1       0.913   2.409  -1.602  0.00  0.00    -0.031 A 
ATOM      3  C3  DEN d   1       1.150   1.877  -2.958  0.00  0.00     0.027 A 
ATOM      4  C4  DEN d   1       1.202  -0.577  -3.752  0.00  0.00     0.027 A 
ATOM      5  C5  DEN d   1       1.086  -1.889  -3.350  0.00  0.00    -0.003 A 
ATOM      6  C6  DEN d   1       0.869  -2.236  -2.043  0.00  0.00     0.001 A 
ATOM      7  C7  DEN d   1       0.715  -1.257  -1.097  0.00  0.00     0.017 A 
ATOM      8  C8  DEN d   1       0.838   0.068  -1.493  0.00  0.00    -0.094 A 
ATOM      9  C9  DEN d   1       1.046   0.399  -2.822  0.00  0.00    -0.072 A 
ENDROOT
TORSDOF 0
ENDMDL
