MODEL 1
REMARK minimizedAffinity 2.18061066
REMARK minimizedRMSD -1
REMARK  0 active torsions:
REMARK  status: ('A' for Active; 'I' for Inactive)
ROOT
ATOM      1  C1  DEN d   1       1.907   0.725  -4.163  0.00  0.00     0.130 A 
ATOM      2  C2  DEN d   1       1.866   0.150  -2.821  0.00  0.00    -0.031 A 
ATOM      3  C3  DEN d   1       3.257  -0.074  -2.377  0.00  0.00     0.027 A 
ATOM      4  C4  DEN d   1       5.458   0.414  -3.630  0.00  0.00     0.027 A 
ATOM      5  C5  DEN d   1       6.000   0.892  -4.802  0.00  0.00    -0.003 A 
ATOM      6  C6  DEN d   1       5.222   1.312  -5.848  0.00  0.00     0.001 A 
ATOM      7  C7  DEN d   1       3.858   1.305  -5.725  0.00  0.00     0.017 A 
ATOM      8  C8  DEN d   1       3.304   0.818  -4.549  0.00  0.00    -0.094 A 
ATOM      9  C9  DEN d   1       4.107   0.409  -3.498  0.00  0.00    -0.072 A 
ENDROOT
TORSDOF 0
ENDMDL
