MODEL 1
REMARK minimizedAffinity 5.37334967
REMARK minimizedRMSD -1
REMARK  0 active torsions:
REMARK  status: ('A' for Active; 'I' for Inactive)
ROOT
ATOM      1  C1  DEN d   1      -2.970   2.157   3.780  0.00  0.00     0.130 A 
ATOM      2  C2  DEN d   1      -3.410   1.356   4.918  0.00  0.00    -0.031 A 
ATOM      3  C3  DEN d   1      -3.839   2.279   5.988  0.00  0.00     0.027 A 
ATOM      4  C4  DEN d   1      -3.868   4.858   5.990  0.00  0.00     0.027 A 
ATOM      5  C5  DEN d   1      -3.576   5.985   5.253  0.00  0.00    -0.003 A 
ATOM      6  C6  DEN d   1      -3.034   5.915   3.997  0.00  0.00     0.001 A 
ATOM      7  C7  DEN d   1      -2.809   4.692   3.421  0.00  0.00     0.017 A 
ATOM      8  C8  DEN d   1      -3.094   3.552   4.161  0.00  0.00    -0.094 A 
ATOM      9  C9  DEN d   1      -3.653   3.643   5.425  0.00  0.00    -0.072 A 
ENDROOT
TORSDOF 0
ENDMDL
