MODEL 1
REMARK minimizedAffinity 6.33467436
REMARK minimizedRMSD -1
REMARK  0 active torsions:
REMARK  status: ('A' for Active; 'I' for Inactive)
ROOT
ATOM      1  C1  DEN d   1       1.125  -1.002  -4.221  0.00  0.00     0.130 A 
ATOM      2  C2  DEN d   1       1.313  -2.448  -4.139  0.00  0.00    -0.031 A 
ATOM      3  C3  DEN d   1       1.231  -2.839  -2.718  0.00  0.00     0.027 A 
ATOM      4  C4  DEN d   1       0.829  -1.355  -0.647  0.00  0.00     0.027 A 
ATOM      5  C5  DEN d   1       0.625  -0.063  -0.214  0.00  0.00    -0.003 A 
ATOM      6  C6  DEN d   1       0.607   1.001  -1.076  0.00  0.00     0.001 A 
ATOM      7  C7  DEN d   1       0.752   0.788  -2.421  0.00  0.00     0.017 A 
ATOM      8  C8  DEN d   1       0.966  -0.510  -2.864  0.00  0.00    -0.094 A 
ATOM      9  C9  DEN d   1       0.968  -1.575  -1.979  0.00  0.00    -0.072 A 
ENDROOT
TORSDOF 0
ENDMDL
