MODEL 1
REMARK minimizedAffinity 4.44138575
REMARK minimizedRMSD -1
REMARK  0 active torsions:
REMARK  status: ('A' for Active; 'I' for Inactive)
ROOT
ATOM      1  C1  DEN d   1       1.043   1.129  -2.561  0.00  0.00     0.130 A 
ATOM      2  C2  DEN d   1       0.588   1.265  -1.180  0.00  0.00    -0.031 A 
ATOM      3  C3  DEN d   1       0.408  -0.091  -0.624  0.00  0.00     0.027 A 
ATOM      4  C4  DEN d   1       0.792  -2.375  -1.759  0.00  0.00     0.027 A 
ATOM      5  C5  DEN d   1       1.167  -2.998  -2.929  0.00  0.00    -0.003 A 
ATOM      6  C6  DEN d   1       1.492  -2.296  -4.059  0.00  0.00     0.001 A 
ATOM      7  C7  DEN d   1       1.491  -0.926  -4.030  0.00  0.00     0.017 A 
ATOM      8  C8  DEN d   1       1.107  -0.291  -2.857  0.00  0.00    -0.094 A 
ATOM      9  C9  DEN d   1       0.794  -1.019  -1.721  0.00  0.00    -0.072 A 
ENDROOT
TORSDOF 0
ENDMDL
