MODEL 1
REMARK minimizedAffinity -0.848464847
REMARK minimizedRMSD -1
REMARK  0 active torsions:
REMARK  status: ('A' for Active; 'I' for Inactive)
ROOT
ATOM      1  C1  DEN d   1       6.000   2.178  -4.730  0.00  0.00     0.130 A 
ATOM      2  C2  DEN d   1       5.885   0.879  -5.386  0.00  0.00    -0.031 A 
ATOM      3  C3  DEN d   1       4.544   0.793  -5.999  0.00  0.00     0.027 A 
ATOM      4  C4  DEN d   1       2.646   2.540  -6.000  0.00  0.00     0.027 A 
ATOM      5  C5  DEN d   1       2.272   3.791  -5.562  0.00  0.00    -0.003 A 
ATOM      6  C6  DEN d   1       3.094   4.572  -4.794  0.00  0.00     0.001 A 
ATOM      7  C7  DEN d   1       4.351   4.128  -4.478  0.00  0.00     0.017 A 
ATOM      8  C8  DEN d   1       4.733   2.865  -4.909  0.00  0.00    -0.094 A 
ATOM      9  C9  DEN d   1       3.892   2.095  -5.695  0.00  0.00    -0.072 A 
ENDROOT
TORSDOF 0
ENDMDL
