MODEL 1
REMARK minimizedAffinity 8.32749271
REMARK minimizedRMSD -1
REMARK  1 active torsions:
REMARK  status: ('A' for Active; 'I' for Inactive)
REMARK    1  A    between atoms: C1_2  and  C2_3 
ROOT
ATOM      1  C2  UNL d   1       2.462  -0.239  -1.139  0.00  0.00    -0.081 A 
ATOM      2  C3  UNL d   1       2.777  -0.039   0.211  0.00  0.00     0.006 A 
ATOM      3  C4  UNL d   1       3.928   0.665   0.572  0.00  0.00     0.002 A 
ATOM      4  C5  UNL d   1       4.778   1.188  -0.409  0.00  0.00    -0.080 A 
ATOM      5  C6  UNL d   1       6.000   1.973  -0.034  0.00  0.00     0.076 C 
ATOM      6  C7  UNL d   1       4.472   0.974  -1.757  0.00  0.00     0.002 A 
ATOM      7  C8  UNL d   1       3.321   0.269  -2.119  0.00  0.00     0.006 A 
ENDROOT
BRANCH   1   8
ATOM      8  C1  UNL d   1       1.188  -0.942  -1.532  0.00  0.00     0.054 C 
ATOM      9  C   UNL d   1      -0.013  -0.014  -1.423  0.00  0.00     0.018 C 
ENDBRANCH   1   8
TORSDOF 1
ENDMDL
