MODEL 1
REMARK minimizedAffinity 6.98299742
REMARK minimizedRMSD -1
REMARK  1 active torsions:
REMARK  status: ('A' for Active; 'I' for Inactive)
REMARK    1  A    between atoms: C1_2  and  C2_3 
ROOT
ATOM      1  C2  UNL d   1      -1.832   1.397  -0.850  0.00  0.00    -0.081 A 
ATOM      2  C3  UNL d   1      -2.609   2.216  -0.021  0.00  0.00     0.006 A 
ATOM      3  C4  UNL d   1      -2.020   3.264   0.692  0.00  0.00     0.002 A 
ATOM      4  C5  UNL d   1      -0.649   3.515   0.582  0.00  0.00    -0.080 A 
ATOM      5  C6  UNL d   1      -0.010   4.655   1.318  0.00  0.00     0.076 C 
ATOM      6  C7  UNL d   1       0.131   2.686  -0.232  0.00  0.00     0.002 A 
ATOM      7  C8  UNL d   1      -0.457   1.638  -0.945  0.00  0.00     0.006 A 
ENDROOT
BRANCH   1   8
ATOM      8  C1  UNL d   1      -2.474   0.308  -1.670  0.00  0.00     0.054 C 
ATOM      9  C   UNL d   1      -1.666  -0.981  -1.608  0.00  0.00     0.018 C 
ENDBRANCH   1   8
TORSDOF 1
ENDMDL
