MODEL 1
REMARK minimizedAffinity 6.11317539
REMARK minimizedRMSD -1
REMARK  1 active torsions:
REMARK  status: ('A' for Active; 'I' for Inactive)
REMARK    1  A    between atoms: C1_2  and  C2_3 
ROOT
ATOM      1  C2  UNL d   1       4.893   1.877  -1.910  0.00  0.00    -0.081 A 
ATOM      2  C3  UNL d   1       5.217   2.113  -0.568  0.00  0.00     0.006 A 
ATOM      3  C4  UNL d   1       4.515   1.469   0.453  0.00  0.00     0.002 A 
ATOM      4  C5  UNL d   1       3.483   0.573   0.150  0.00  0.00    -0.080 A 
ATOM      5  C6  UNL d   1       2.742  -0.148   1.237  0.00  0.00     0.076 C 
ATOM      6  C7  UNL d   1       3.148   0.352  -1.190  0.00  0.00     0.002 A 
ATOM      7  C8  UNL d   1       3.849   0.996  -2.211  0.00  0.00     0.006 A 
ENDROOT
BRANCH   1   8
ATOM      8  C1  UNL d   1       5.691   2.521  -3.015  0.00  0.00     0.054 C 
ATOM      9  C   UNL d   1       5.604   4.039  -2.949  0.00  0.00     0.018 C 
ENDBRANCH   1   8
TORSDOF 1
ENDMDL
