MODEL 1
REMARK minimizedAffinity 8.59594727
REMARK minimizedRMSD -1
REMARK  1 active torsions:
REMARK  status: ('A' for Active; 'I' for Inactive)
REMARK    1  A    between atoms: C1_2  and  C2_3 
ROOT
ATOM      1  C2  UNL d   1       5.065   1.814  -2.282  0.00  0.00    -0.081 A 
ATOM      2  C3  UNL d   1       5.340   2.001  -0.922  0.00  0.00     0.006 A 
ATOM      3  C4  UNL d   1       4.504   1.449   0.052  0.00  0.00     0.002 A 
ATOM      4  C5  UNL d   1       3.385   0.695  -0.318  0.00  0.00    -0.080 A 
ATOM      5  C6  UNL d   1       2.497   0.071   0.718  0.00  0.00     0.076 C 
ATOM      6  C7  UNL d   1       3.101   0.522  -1.677  0.00  0.00     0.002 A 
ATOM      7  C8  UNL d   1       3.935   1.075  -2.651  0.00  0.00     0.006 A 
ENDROOT
BRANCH   1   8
ATOM      8  C1  UNL d   1       6.000   2.354  -3.334  0.00  0.00     0.054 C 
ATOM      9  C   UNL d   1       5.939   3.873  -3.401  0.00  0.00     0.018 C 
ENDBRANCH   1   8
TORSDOF 1
ENDMDL
