MODEL 1
REMARK minimizedAffinity 1.37384892
REMARK minimizedRMSD -1
REMARK  0 active torsions:
REMARK  status: ('A' for Active; 'I' for Inactive)
ROOT
ATOM      1  C   UNL d   1      -2.451  -1.986   2.270  0.00  0.00     0.077 C 
ATOM      2  C1  UNL d   1      -1.070  -1.453   2.507  0.00  0.00    -0.074 A 
ATOM      3  C2  UNL d   1      -0.000  -2.316   2.766  0.00  0.00    -0.005 A 
ATOM      4  C3  UNL d   1       1.281  -1.806   2.974  0.00  0.00     0.006 A 
ATOM      5  C4  UNL d   1       1.506  -0.429   2.926  0.00  0.00    -0.005 A 
ATOM      6  C5  UNL d   1       0.449   0.449   2.668  0.00  0.00    -0.074 A 
ATOM      7  C6  UNL d   1       0.674   1.931   2.603  0.00  0.00     0.077 C 
ATOM      8  C7  UNL d   1      -0.835  -0.072   2.452  0.00  0.00    -0.001 A 
ENDROOT
TORSDOF 0
ENDMDL
