MODEL 1
REMARK minimizedAffinity 2.04374838
REMARK minimizedRMSD -1
REMARK  0 active torsions:
REMARK  status: ('A' for Active; 'I' for Inactive)
ROOT
ATOM      1  C   UNL d   1       3.040  -1.649  -2.499  0.00  0.00     0.077 C 
ATOM      2  C1  UNL d   1       2.300  -1.195  -3.722  0.00  0.00    -0.074 A 
ATOM      3  C2  UNL d   1       2.988  -0.734  -4.849  0.00  0.00    -0.005 A 
ATOM      4  C3  UNL d   1       2.286  -0.324  -5.982  0.00  0.00     0.006 A 
ATOM      5  C4  UNL d   1       0.892  -0.370  -6.000  0.00  0.00    -0.005 A 
ATOM      6  C5  UNL d   1       0.187  -0.829  -4.883  0.00  0.00    -0.074 A 
ATOM      7  C6  UNL d   1      -1.312  -0.894  -4.889  0.00  0.00     0.077 C 
ATOM      8  C7  UNL d   1       0.899  -1.246  -3.750  0.00  0.00    -0.001 A 
ENDROOT
TORSDOF 0
ENDMDL
