MODEL 1
REMARK minimizedAffinity 10.3056898
REMARK minimizedRMSD -1
REMARK  0 active torsions:
REMARK  status: ('A' for Active; 'I' for Inactive)
ROOT
ATOM      1  C   UNL d   1      -2.058  -2.841   2.014  0.00  0.00     0.077 C 
ATOM      2  C1  UNL d   1      -0.988  -1.905   2.493  0.00  0.00    -0.074 A 
ATOM      3  C2  UNL d   1      -1.169  -0.519   2.441  0.00  0.00    -0.005 A 
ATOM      4  C3  UNL d   1      -0.169   0.339   2.899  0.00  0.00     0.006 A 
ATOM      5  C4  UNL d   1       1.020  -0.180   3.413  0.00  0.00    -0.005 A 
ATOM      6  C5  UNL d   1       1.219  -1.562   3.474  0.00  0.00    -0.074 A 
ATOM      7  C6  UNL d   1       2.487  -2.136   4.032  0.00  0.00     0.077 C 
ATOM      8  C7  UNL d   1       0.206  -2.418   3.018  0.00  0.00    -0.001 A 
ENDROOT
TORSDOF 0
ENDMDL
