MODEL 1
REMARK minimizedAffinity 5.51621103
REMARK minimizedRMSD -1
REMARK  0 active torsions:
REMARK  status: ('A' for Active; 'I' for Inactive)
ROOT
ATOM      1  C   UNL d   1       2.137  -1.399   5.998  0.00  0.00     0.077 C 
ATOM      2  C1  UNL d   1       1.634  -1.498   4.588  0.00  0.00    -0.074 A 
ATOM      3  C2  UNL d   1       2.523  -1.559   3.510  0.00  0.00    -0.005 A 
ATOM      4  C3  UNL d   1       2.040  -1.661   2.206  0.00  0.00     0.006 A 
ATOM      5  C4  UNL d   1       0.666  -1.701   1.966  0.00  0.00    -0.005 A 
ATOM      6  C5  UNL d   1      -0.238  -1.642   3.031  0.00  0.00    -0.074 A 
ATOM      7  C6  UNL d   1      -1.717  -1.695   2.792  0.00  0.00     0.077 C 
ATOM      8  C7  UNL d   1       0.255  -1.547   4.340  0.00  0.00    -0.001 A 
ENDROOT
TORSDOF 0
ENDMDL
