MODEL 1
REMARK minimizedAffinity 4.73966503
REMARK minimizedRMSD -1
REMARK  0 active torsions:
REMARK  status: ('A' for Active; 'I' for Inactive)
ROOT
ATOM      1  C   UNL d   1       0.982  -0.155  -5.999  0.00  0.00     0.077 C 
ATOM      2  C1  UNL d   1       2.290  -0.371  -5.297  0.00  0.00    -0.074 A 
ATOM      3  C2  UNL d   1       2.335  -0.934  -4.018  0.00  0.00    -0.005 A 
ATOM      4  C3  UNL d   1       3.559  -1.138  -3.382  0.00  0.00     0.006 A 
ATOM      5  C4  UNL d   1       4.749  -0.781  -4.017  0.00  0.00    -0.005 A 
ATOM      6  C5  UNL d   1       4.724  -0.217  -5.297  0.00  0.00    -0.074 A 
ATOM      7  C6  UNL d   1       5.994   0.164  -5.998  0.00  0.00     0.077 C 
ATOM      8  C7  UNL d   1       3.490  -0.022  -5.932  0.00  0.00    -0.001 A 
ENDROOT
TORSDOF 0
ENDMDL
