MODEL 1
REMARK minimizedAffinity 4.15891981
REMARK minimizedRMSD -1
REMARK  0 active torsions:
REMARK  status: ('A' for Active; 'I' for Inactive)
ROOT
ATOM      1  C   UNL d   1      -0.865  -5.969  -6.000  0.00  0.00     0.077 C 
ATOM      2  C1  UNL d   1       0.291  -5.951  -5.045  0.00  0.00    -0.074 A 
ATOM      3  C2  UNL d   1       0.082  -5.923  -3.662  0.00  0.00    -0.005 A 
ATOM      4  C3  UNL d   1       1.167  -5.916  -2.786  0.00  0.00     0.006 A 
ATOM      5  C4  UNL d   1       2.471  -5.938  -3.283  0.00  0.00    -0.005 A 
ATOM      6  C5  UNL d   1       2.700  -5.966  -4.662  0.00  0.00    -0.074 A 
ATOM      7  C6  UNL d   1       4.095  -5.999  -5.212  0.00  0.00     0.077 C 
ATOM      8  C7  UNL d   1       1.604  -5.980  -5.536  0.00  0.00    -0.001 A 
ENDROOT
TORSDOF 0
ENDMDL
