MODEL 1
REMARK minimizedAffinity -0.699202955
REMARK minimizedRMSD -1
REMARK  0 active torsions:
REMARK  status: ('A' for Active; 'I' for Inactive)
ROOT
ATOM      1  C   UNL d   1      -1.596  -0.794  -5.434  0.00  0.00     0.077 C 
ATOM      2  C1  UNL d   1      -0.219  -1.077  -4.912  0.00  0.00    -0.074 A 
ATOM      3  C2  UNL d   1      -0.031  -1.831  -3.749  0.00  0.00    -0.005 A 
ATOM      4  C3  UNL d   1       1.256  -2.094  -3.281  0.00  0.00     0.006 A 
ATOM      5  C4  UNL d   1       2.367  -1.606  -3.970  0.00  0.00    -0.005 A 
ATOM      6  C5  UNL d   1       2.199  -0.851  -5.135  0.00  0.00    -0.074 A 
ATOM      7  C6  UNL d   1       3.383  -0.328  -5.893  0.00  0.00     0.077 C 
ATOM      8  C7  UNL d   1       0.903  -0.597  -5.603  0.00  0.00    -0.001 A 
ENDROOT
TORSDOF 0
ENDMDL
