MODEL 1
REMARK minimizedAffinity 1.39307761
REMARK minimizedRMSD -1
REMARK  1 active torsions:
REMARK  status: ('A' for Active; 'I' for Inactive)
REMARK    1  A    between atoms: C1_2  and  C2_3 
ROOT
ATOM      1  C2  UNL d   1       4.773  -3.730   3.662  0.00  0.00    -0.073 A 
ATOM      2  C3  UNL d   1       5.365  -4.816   3.008  0.00  0.00    -0.002 A 
ATOM      3  C4  UNL d   1       4.915  -5.209   1.746  0.00  0.00     0.004 A 
ATOM      4  C5  UNL d   1       3.876  -4.516   1.124  0.00  0.00    -0.004 A 
ATOM      5  C6  UNL d   1       3.281  -3.421   1.757  0.00  0.00    -0.075 A 
ATOM      6  C7  UNL d   1       2.161  -2.666   1.102  0.00  0.00     0.076 C 
ATOM      7  C8  UNL d   1       3.736  -3.034   3.025  0.00  0.00     0.001 A 
ENDROOT
BRANCH   1   8
ATOM      8  C1  UNL d   1       5.260  -3.298   5.022  0.00  0.00     0.053 C 
ATOM      9  C   UNL d   1       5.327  -4.461   5.999  0.00  0.00     0.018 C 
ENDBRANCH   1   8
TORSDOF 1
ENDMDL
