MODEL 1
REMARK minimizedAffinity 3.43457413
REMARK minimizedRMSD -1
REMARK  1 active torsions:
REMARK  status: ('A' for Active; 'I' for Inactive)
REMARK    1  A    between atoms: C1_2  and  C2_3 
ROOT
ATOM      1  C2  UNL d   1      -3.640  -0.742  -3.431  0.00  0.00    -0.073 A 
ATOM      2  C3  UNL d   1      -2.494  -1.092  -4.154  0.00  0.00    -0.002 A 
ATOM      3  C4  UNL d   1      -2.282  -0.575  -5.433  0.00  0.00     0.004 A 
ATOM      4  C5  UNL d   1      -3.208   0.302  -5.998  0.00  0.00    -0.004 A 
ATOM      5  C6  UNL d   1      -4.354   0.673  -5.286  0.00  0.00    -0.075 A 
ATOM      6  C7  UNL d   1      -5.361   1.613  -5.881  0.00  0.00     0.076 C 
ATOM      7  C8  UNL d   1      -4.561   0.147  -4.004  0.00  0.00     0.001 A 
ENDROOT
BRANCH   1   8
ATOM      8  C1  UNL d   1      -3.870  -1.293  -2.048  0.00  0.00     0.053 C 
ATOM      9  C   UNL d   1      -3.264  -0.406  -0.972  0.00  0.00     0.018 C 
ENDBRANCH   1   8
TORSDOF 1
ENDMDL
