MODEL 1
REMARK minimizedAffinity 9.01272392
REMARK minimizedRMSD -1
REMARK  1 active torsions:
REMARK  status: ('A' for Active; 'I' for Inactive)
REMARK    1  A    between atoms: C1_2  and  C2_3 
ROOT
ATOM      1  C2  UNL d   1       4.629  -1.818   0.390  0.00  0.00    -0.073 A 
ATOM      2  C3  UNL d   1       3.487  -2.620   0.498  0.00  0.00    -0.002 A 
ATOM      3  C4  UNL d   1       2.221  -2.078   0.275  0.00  0.00     0.004 A 
ATOM      4  C5  UNL d   1       2.083  -0.732  -0.064  0.00  0.00    -0.004 A 
ATOM      5  C6  UNL d   1       3.213   0.083  -0.188  0.00  0.00    -0.075 A 
ATOM      6  C7  UNL d   1       3.081   1.534  -0.550  0.00  0.00     0.076 C 
ATOM      7  C8  UNL d   1       4.481  -0.468   0.040  0.00  0.00     0.001 A 
ENDROOT
BRANCH   1   8
ATOM      8  C1  UNL d   1       5.999  -2.400   0.623  0.00  0.00     0.053 C 
ATOM      9  C   UNL d   1       5.955  -3.911   0.791  0.00  0.00     0.018 C 
ENDBRANCH   1   8
TORSDOF 1
ENDMDL
