MODEL 1
REMARK minimizedAffinity 9.87017155
REMARK minimizedRMSD -1
REMARK  1 active torsions:
REMARK  status: ('A' for Active; 'I' for Inactive)
REMARK    1  A    between atoms: C1_2  and  C2_3 
ROOT
ATOM      1  C2  UNL d   1      -3.393   1.879  -3.693  0.00  0.00    -0.073 A 
ATOM      2  C3  UNL d   1      -3.313   2.151  -5.063  0.00  0.00    -0.002 A 
ATOM      3  C4  UNL d   1      -3.652   1.170  -5.997  0.00  0.00     0.004 A 
ATOM      4  C5  UNL d   1      -4.082  -0.086  -5.570  0.00  0.00    -0.004 A 
ATOM      5  C6  UNL d   1      -4.179  -0.373  -4.205  0.00  0.00    -0.075 A 
ATOM      6  C7  UNL d   1      -4.637  -1.720  -3.730  0.00  0.00     0.076 C 
ATOM      7  C8  UNL d   1      -3.834   0.616  -3.274  0.00  0.00     0.001 A 
ENDROOT
BRANCH   1   8
ATOM      8  C1  UNL d   1      -3.033   2.937  -2.681  0.00  0.00     0.053 C 
ATOM      9  C   UNL d   1      -2.193   4.048  -3.292  0.00  0.00     0.018 C 
ENDBRANCH   1   8
TORSDOF 1
ENDMDL
