MODEL 1
REMARK minimizedAffinity 6.47202063
REMARK minimizedRMSD -1
REMARK  1 active torsions:
REMARK  status: ('A' for Active; 'I' for Inactive)
REMARK    1  A    between atoms: C1_2  and  C2_3 
ROOT
ATOM      1  C2  UNL d   1       4.289  -4.534   2.584  0.00  0.00    -0.073 A 
ATOM      2  C3  UNL d   1       4.107  -5.781   3.193  0.00  0.00    -0.002 A 
ATOM      3  C4  UNL d   1       4.541  -5.998   4.501  0.00  0.00     0.004 A 
ATOM      4  C5  UNL d   1       5.154  -4.969   5.216  0.00  0.00    -0.004 A 
ATOM      5  C6  UNL d   1       5.335  -3.712   4.630  0.00  0.00    -0.075 A 
ATOM      6  C7  UNL d   1       5.995  -2.596   5.385  0.00  0.00     0.076 C 
ATOM      7  C8  UNL d   1       4.898  -3.504   3.315  0.00  0.00     0.001 A 
ENDROOT
BRANCH   1   8
ATOM      8  C1  UNL d   1       3.816  -4.294   1.174  0.00  0.00     0.053 C 
ATOM      9  C   UNL d   1       2.525  -3.492   1.134  0.00  0.00     0.018 C 
ENDBRANCH   1   8
TORSDOF 1
ENDMDL
