MODEL 1
REMARK minimizedAffinity 2.42956519
REMARK minimizedRMSD -1
REMARK  2 active torsions:
REMARK  status: ('A' for Active; 'I' for Inactive)
REMARK    1  A    between atoms: C2'_3  and  C1'_4 
REMARK    2  A    between atoms: C1'_4  and  C1_5 
ROOT
ATOM      1  C1  I4B d   1      -0.544  -2.684  -0.981  0.00  0.00    -0.075 A 
ATOM      2  C2  I4B d   1      -0.580  -2.633  -2.352  0.00  0.00     0.003 A 
ATOM      3  C3  I4B d   1      -1.777  -2.277  -3.020  0.00  0.00     0.002 A 
ATOM      4  C4  I4B d   1      -2.918  -2.029  -2.285  0.00  0.00    -0.004 A 
ATOM      5  C5  I4B d   1      -2.873  -2.059  -0.894  0.00  0.00     0.002 A 
ATOM      6  C6  I4B d   1      -1.676  -2.376  -0.237  0.00  0.00     0.003 A 
ENDROOT
BRANCH   1   7
ATOM      7  C1' I4B d   1       0.727  -3.097  -0.308  0.00  0.00     0.060 C 
BRANCH   7   8
ATOM      8  C2' I4B d   1       0.446  -4.354   0.490  0.00  0.00    -0.013 C 
ATOM      9  C4' I4B d   1       1.133  -5.549  -0.116  0.00  0.00     0.013 C 
ATOM     10  C3' I4B d   1       0.907  -4.120   1.898  0.00  0.00     0.013 C 
ENDBRANCH   7   8
ENDBRANCH   1   7
TORSDOF 2
ENDMDL
