MODEL 1
REMARK minimizedAffinity 8.00187969
REMARK minimizedRMSD -1
REMARK  2 active torsions:
REMARK  status: ('A' for Active; 'I' for Inactive)
REMARK    1  A    between atoms: C2'_3  and  C1'_4 
REMARK    2  A    between atoms: C1'_4  and  C1_5 
ROOT
ATOM      1  C1  I4B d   1      -0.609  -1.971  -0.780  0.00  0.00    -0.075 A 
ATOM      2  C2  I4B d   1      -1.380  -2.792  -1.564  0.00  0.00     0.003 A 
ATOM      3  C3  I4B d   1      -0.955  -3.134  -2.871  0.00  0.00     0.002 A 
ATOM      4  C4  I4B d   1       0.215  -2.595  -3.368  0.00  0.00    -0.004 A 
ATOM      5  C5  I4B d   1       1.006  -1.781  -2.562  0.00  0.00     0.002 A 
ATOM      6  C6  I4B d   1       0.598  -1.477  -1.256  0.00  0.00     0.003 A 
ENDROOT
BRANCH   1   7
ATOM      7  C1' I4B d   1      -1.105  -1.603   0.583  0.00  0.00     0.060 C 
BRANCH   7   8
ATOM      8  C2' I4B d   1      -1.244  -2.879   1.389  0.00  0.00    -0.013 C 
ATOM      9  C4' I4B d   1       0.088  -3.559   1.569  0.00  0.00     0.013 C 
ATOM     10  C3' I4B d   1      -1.855  -2.527   2.712  0.00  0.00     0.013 C 
ENDBRANCH   7   8
ENDBRANCH   1   7
TORSDOF 2
ENDMDL
