MODEL 1
REMARK minimizedAffinity 3.85277128
REMARK minimizedRMSD -1
REMARK  2 active torsions:
REMARK  status: ('A' for Active; 'I' for Inactive)
REMARK    1  A    between atoms: C2'_3  and  C1'_4 
REMARK    2  A    between atoms: C1'_4  and  C1_5 
ROOT
ATOM      1  C1  I4B d   1       0.218  -2.544  -1.402  0.00  0.00    -0.075 A 
ATOM      2  C2  I4B d   1      -0.859  -2.691  -2.242  0.00  0.00     0.003 A 
ATOM      3  C3  I4B d   1      -0.752  -2.331  -3.607  0.00  0.00     0.002 A 
ATOM      4  C4  I4B d   1       0.425  -1.784  -4.076  0.00  0.00    -0.004 A 
ATOM      5  C5  I4B d   1       1.522  -1.657  -3.229  0.00  0.00     0.002 A 
ATOM      6  C6  I4B d   1       1.422  -2.051  -1.886  0.00  0.00     0.003 A 
ENDROOT
BRANCH   1   7
ATOM      7  C1' I4B d   1       0.060  -2.903   0.041  0.00  0.00     0.060 C 
BRANCH   7   8
ATOM      8  C2' I4B d   1      -1.331  -2.489   0.476  0.00  0.00    -0.013 C 
ATOM      9  C4' I4B d   1      -1.608  -2.914   1.894  0.00  0.00     0.013 C 
ATOM     10  C3' I4B d   1      -1.440  -1.001   0.326  0.00  0.00     0.013 C 
ENDBRANCH   7   8
ENDBRANCH   1   7
TORSDOF 2
ENDMDL
