MODEL 1
REMARK minimizedAffinity -1.23917484
REMARK minimizedRMSD -1
REMARK  2 active torsions:
REMARK  status: ('A' for Active; 'I' for Inactive)
REMARK    1  A    between atoms: C2'_3  and  C1'_4 
REMARK    2  A    between atoms: C1'_4  and  C1_5 
ROOT
ATOM      1  C1  I4B d   1      -1.147  -2.215  -2.041  0.00  0.00    -0.075 A 
ATOM      2  C2  I4B d   1      -0.543  -2.296  -0.811  0.00  0.00     0.003 A 
ATOM      3  C3  I4B d   1      -1.306  -2.618   0.338  0.00  0.00     0.002 A 
ATOM      4  C4  I4B d   1      -2.669  -2.799   0.220  0.00  0.00    -0.004 A 
ATOM      5  C5  I4B d   1      -3.276  -2.739  -1.031  0.00  0.00     0.002 A 
ATOM      6  C6  I4B d   1      -2.508  -2.457  -2.171  0.00  0.00     0.003 A 
ENDROOT
BRANCH   1   7
ATOM      7  C1' I4B d   1      -0.317  -1.840  -3.228  0.00  0.00     0.060 C 
BRANCH   7   8
ATOM      8  C2' I4B d   1       0.609  -3.000  -3.535  0.00  0.00    -0.013 C 
ATOM      9  C4' I4B d   1       2.014  -2.711  -3.077  0.00  0.00     0.013 C 
ATOM     10  C3' I4B d   1       0.060  -4.221  -2.860  0.00  0.00     0.013 C 
ENDBRANCH   7   8
ENDBRANCH   1   7
TORSDOF 2
ENDMDL
