MODEL 1
REMARK minimizedAffinity 2.03799438
REMARK minimizedRMSD -1
REMARK  2 active torsions:
REMARK  status: ('A' for Active; 'I' for Inactive)
REMARK    1  A    between atoms: C2'_3  and  C1'_4 
REMARK    2  A    between atoms: C1'_4  and  C1_5 
ROOT
ATOM      1  C1  I4B d   1       4.559  -3.276   4.366  0.00  0.00    -0.075 A 
ATOM      2  C2  I4B d   1       3.504  -4.154   4.389  0.00  0.00     0.003 A 
ATOM      3  C3  I4B d   1       3.540  -5.289   5.236  0.00  0.00     0.002 A 
ATOM      4  C4  I4B d   1       4.663  -5.532   6.000  0.00  0.00    -0.004 A 
ATOM      5  C5  I4B d   1       5.722  -4.628   5.992  0.00  0.00     0.002 A 
ATOM      6  C6  I4B d   1       5.665  -3.487   5.179  0.00  0.00     0.003 A 
ENDROOT
BRANCH   1   7
ATOM      7  C1' I4B d   1       4.503  -2.107   3.435  0.00  0.00     0.060 C 
BRANCH   7   8
ATOM      8  C2' I4B d   1       4.360  -2.640   2.024  0.00  0.00    -0.013 C 
ATOM      9  C4' I4B d   1       4.071  -1.529   1.048  0.00  0.00     0.013 C 
ATOM     10  C3' I4B d   1       5.628  -3.356   1.669  0.00  0.00     0.013 C 
ENDBRANCH   7   8
ENDBRANCH   1   7
TORSDOF 2
ENDMDL
