MODEL 1
REMARK minimizedAffinity 10.8242121
REMARK minimizedRMSD -1
REMARK  2 active torsions:
REMARK  status: ('A' for Active; 'I' for Inactive)
REMARK    1  A    between atoms: C2'_3  and  C1'_4 
REMARK    2  A    between atoms: C1'_4  and  C1_5 
ROOT
ATOM      1  C1  I4B d   1       2.730  -2.465  -1.964  0.00  0.00    -0.075 A 
ATOM      2  C2  I4B d   1       1.470  -2.104  -1.556  0.00  0.00     0.003 A 
ATOM      3  C3  I4B d   1       0.372  -2.229  -2.441  0.00  0.00     0.002 A 
ATOM      4  C4  I4B d   1       0.585  -2.669  -3.731  0.00  0.00    -0.004 A 
ATOM      5  C5  I4B d   1       1.859  -3.057  -4.135  0.00  0.00     0.002 A 
ATOM      6  C6  I4B d   1       2.937  -2.966  -3.242  0.00  0.00     0.003 A 
ENDROOT
BRANCH   1   7
ATOM      7  C1' I4B d   1       3.873  -2.289  -1.015  0.00  0.00     0.060 C 
BRANCH   7   8
ATOM      8  C2' I4B d   1       3.372  -2.598   0.382  0.00  0.00    -0.013 C 
ATOM      9  C4' I4B d   1       4.250  -3.614   1.063  0.00  0.00     0.013 C 
ATOM     10  C3' I4B d   1       3.331  -1.313   1.154  0.00  0.00     0.013 C 
ENDBRANCH   7   8
ENDBRANCH   1   7
TORSDOF 2
ENDMDL
