MODEL 1
REMARK minimizedAffinity 9.25969315
REMARK minimizedRMSD -1
REMARK  2 active torsions:
REMARK  status: ('A' for Active; 'I' for Inactive)
REMARK    1  A    between atoms: C2'_3  and  C1'_4 
REMARK    2  A    between atoms: C1'_4  and  C1_5 
ROOT
ATOM      1  C1  I4B d   1       4.200   5.581  -3.205  0.00  0.00    -0.075 A 
ATOM      2  C2  I4B d   1       5.509   5.899  -2.944  0.00  0.00     0.003 A 
ATOM      3  C3  I4B d   1       5.989   5.908  -1.613  0.00  0.00     0.002 A 
ATOM      4  C4  I4B d   1       5.119   5.643  -0.575  0.00  0.00    -0.004 A 
ATOM      5  C5  I4B d   1       3.798   5.298  -0.842  0.00  0.00     0.002 A 
ATOM      6  C6  I4B d   1       3.338   5.254  -2.166  0.00  0.00     0.003 A 
ENDROOT
BRANCH   1   7
ATOM      7  C1' I4B d   1       3.718   5.613  -4.620  0.00  0.00     0.060 C 
BRANCH   7   8
ATOM      8  C2' I4B d   1       4.761   4.934  -5.484  0.00  0.00    -0.013 C 
ATOM      9  C4' I4B d   1       5.981   5.801  -5.648  0.00  0.00     0.013 C 
ATOM     10  C3' I4B d   1       5.109   3.623  -4.845  0.00  0.00     0.013 C 
ENDBRANCH   7   8
ENDBRANCH   1   7
TORSDOF 2
ENDMDL
