MODEL 1
REMARK minimizedAffinity 14.3356323
REMARK minimizedRMSD -1
REMARK  2 active torsions:
REMARK  status: ('A' for Active; 'I' for Inactive)
REMARK    1  A    between atoms: C2'_3  and  C1'_4 
REMARK    2  A    between atoms: C1'_4  and  C1_5 
ROOT
ATOM      1  C1  I4B d   1       1.501  -1.185  -1.647  0.00  0.00    -0.075 A 
ATOM      2  C2  I4B d   1       2.673  -1.261  -2.359  0.00  0.00     0.003 A 
ATOM      3  C3  I4B d   1       3.909  -1.402  -1.684  0.00  0.00     0.002 A 
ATOM      4  C4  I4B d   1       3.933  -1.411  -0.304  0.00  0.00    -0.004 A 
ATOM      5  C5  I4B d   1       2.742  -1.356   0.415  0.00  0.00     0.002 A 
ATOM      6  C6  I4B d   1       1.518  -1.255  -0.260  0.00  0.00     0.003 A 
ENDROOT
BRANCH   1   7
ATOM      7  C1' I4B d   1       0.216  -1.004  -2.391  0.00  0.00     0.060 C 
BRANCH   7   8
ATOM      8  C2' I4B d   1      -0.805  -1.953  -1.797  0.00  0.00    -0.013 C 
ATOM      9  C4' I4B d   1      -1.569  -1.299  -0.677  0.00  0.00     0.013 C 
ATOM     10  C3' I4B d   1      -1.725  -2.390  -2.897  0.00  0.00     0.013 C 
ENDBRANCH   7   8
ENDBRANCH   1   7
TORSDOF 2
ENDMDL
