MODEL 1
REMARK minimizedAffinity 6.00385094
REMARK minimizedRMSD -1
REMARK  2 active torsions:
REMARK  status: ('A' for Active; 'I' for Inactive)
REMARK    1  A    between atoms: C2'_3  and  C1'_4 
REMARK    2  A    between atoms: C1'_4  and  C1_5 
ROOT
ATOM      1  C1  I4B d   1       0.676  -2.703  -2.809  0.00  0.00    -0.075 A 
ATOM      2  C2  I4B d   1       1.866  -2.056  -3.032  0.00  0.00     0.003 A 
ATOM      3  C3  I4B d   1       2.969  -2.759  -3.575  0.00  0.00     0.002 A 
ATOM      4  C4  I4B d   1       2.854  -4.111  -3.831  0.00  0.00    -0.004 A 
ATOM      5  C5  I4B d   1       1.640  -4.760  -3.625  0.00  0.00     0.002 A 
ATOM      6  C6  I4B d   1       0.540  -4.049  -3.123  0.00  0.00     0.003 A 
ENDROOT
BRANCH   1   7
ATOM      7  C1' I4B d   1      -0.457  -1.938  -2.204  0.00  0.00     0.060 C 
BRANCH   7   8
ATOM      8  C2' I4B d   1      -1.012  -2.755  -1.055  0.00  0.00    -0.013 C 
ATOM      9  C4' I4B d   1      -0.342  -2.393   0.245  0.00  0.00     0.013 C 
ATOM     10  C3' I4B d   1      -2.490  -2.515  -0.987  0.00  0.00     0.013 C 
ENDBRANCH   7   8
ENDBRANCH   1   7
TORSDOF 2
ENDMDL
