MODEL 1
REMARK minimizedAffinity 6.92723703
REMARK minimizedRMSD -1
REMARK  2 active torsions:
REMARK  status: ('A' for Active; 'I' for Inactive)
REMARK    1  A    between atoms: C2'_3  and  C1'_4 
REMARK    2  A    between atoms: C1'_4  and  C1_5 
ROOT
ATOM      1  C1  I4B d   1       4.282   4.809  -3.506  0.00  0.00    -0.075 A 
ATOM      2  C2  I4B d   1       5.372   4.064  -3.880  0.00  0.00     0.003 A 
ATOM      3  C3  I4B d   1       5.993   4.288  -5.133  0.00  0.00     0.002 A 
ATOM      4  C4  I4B d   1       5.464   5.226  -5.995  0.00  0.00    -0.004 A 
ATOM      5  C5  I4B d   1       4.373   5.997  -5.605  0.00  0.00     0.002 A 
ATOM      6  C6  I4B d   1       3.785   5.796  -4.347  0.00  0.00     0.003 A 
ENDROOT
BRANCH   1   7
ATOM      7  C1' I4B d   1       3.631   4.523  -2.190  0.00  0.00     0.060 C 
BRANCH   7   8
ATOM      8  C2' I4B d   1       4.703   4.565  -1.120  0.00  0.00    -0.013 C 
ATOM      9  C4' I4B d   1       5.981   3.930  -1.603  0.00  0.00     0.013 C 
ATOM     10  C3' I4B d   1       4.922   5.999  -0.739  0.00  0.00     0.013 C 
ENDBRANCH   7   8
ENDBRANCH   1   7
TORSDOF 2
ENDMDL
