MODEL 1
REMARK minimizedAffinity 6.94728708
REMARK minimizedRMSD -1
REMARK  2 active torsions:
REMARK  status: ('A' for Active; 'I' for Inactive)
REMARK    1  A    between atoms: C2'_3  and  C1'_4 
REMARK    2  A    between atoms: C1'_4  and  C1_5 
ROOT
ATOM      1  C1  I4B d   1       0.378  -1.594  -1.506  0.00  0.00    -0.075 A 
ATOM      2  C2  I4B d   1       0.241  -1.990  -2.813  0.00  0.00     0.003 A 
ATOM      3  C3  I4B d   1       1.384  -2.309  -3.585  0.00  0.00     0.002 A 
ATOM      4  C4  I4B d   1       2.639  -2.171  -3.029  0.00  0.00    -0.004 A 
ATOM      5  C5  I4B d   1       2.776  -1.792  -1.697  0.00  0.00     0.002 A 
ATOM      6  C6  I4B d   1       1.638  -1.513  -0.926  0.00  0.00     0.003 A 
ENDROOT
BRANCH   1   7
ATOM      7  C1' I4B d   1      -0.848  -1.232  -0.729  0.00  0.00     0.060 C 
BRANCH   7   8
ATOM      8  C2' I4B d   1      -1.632  -2.504  -0.475  0.00  0.00    -0.013 C 
ATOM      9  C4' I4B d   1      -1.752  -2.785   1.000  0.00  0.00     0.013 C 
ATOM     10  C3' I4B d   1      -2.982  -2.351  -1.109  0.00  0.00     0.013 C 
ENDBRANCH   7   8
ENDBRANCH   1   7
TORSDOF 2
ENDMDL
