MODEL 1
REMARK minimizedAffinity -1.32787716
REMARK minimizedRMSD -1
REMARK  2 active torsions:
REMARK  status: ('A' for Active; 'I' for Inactive)
REMARK    1  A    between atoms: C2'_3  and  C1'_4 
REMARK    2  A    between atoms: C1'_4  and  C1_5 
ROOT
ATOM      1  C1  I4B d   1      -0.631  -2.550  -1.259  0.00  0.00    -0.075 A 
ATOM      2  C2  I4B d   1      -0.601  -3.921  -1.324  0.00  0.00     0.003 A 
ATOM      3  C3  I4B d   1       0.121  -4.571  -2.354  0.00  0.00     0.002 A 
ATOM      4  C4  I4B d   1       0.754  -3.816  -3.321  0.00  0.00    -0.004 A 
ATOM      5  C5  I4B d   1       0.742  -2.426  -3.240  0.00  0.00     0.002 A 
ATOM      6  C6  I4B d   1       0.056  -1.789  -2.196  0.00  0.00     0.003 A 
ENDROOT
BRANCH   1   7
ATOM      7  C1' I4B d   1      -1.431  -1.897  -0.177  0.00  0.00     0.060 C 
BRANCH   7   8
ATOM      8  C2' I4B d   1      -2.021  -2.989   0.692  0.00  0.00    -0.013 C 
ATOM      9  C4' I4B d   1      -1.291  -3.095   2.005  0.00  0.00     0.013 C 
ATOM     10  C3' I4B d   1      -3.473  -2.679   0.903  0.00  0.00     0.013 C 
ENDBRANCH   7   8
ENDBRANCH   1   7
TORSDOF 2
ENDMDL
