MODEL 1
REMARK minimizedAffinity 8.68444633
REMARK minimizedRMSD -1
REMARK  2 active torsions:
REMARK  status: ('A' for Active; 'I' for Inactive)
REMARK    1  A    between atoms: C2'_3  and  C1'_4 
REMARK    2  A    between atoms: C1'_4  and  C1_5 
ROOT
ATOM      1  C1  I4B d   1      -1.116  -2.875  -0.854  0.00  0.00    -0.075 A 
ATOM      2  C2  I4B d   1      -0.217  -1.846  -0.984  0.00  0.00     0.003 A 
ATOM      3  C3  I4B d   1       0.512  -1.685  -2.187  0.00  0.00     0.002 A 
ATOM      4  C4  I4B d   1       0.349  -2.598  -3.208  0.00  0.00    -0.004 A 
ATOM      5  C5  I4B d   1      -0.579  -3.627  -3.083  0.00  0.00     0.002 A 
ATOM      6  C6  I4B d   1      -1.326  -3.760  -1.903  0.00  0.00     0.003 A 
ENDROOT
BRANCH   1   7
ATOM      7  C1' I4B d   1      -1.845  -3.036   0.443  0.00  0.00     0.060 C 
BRANCH   7   8
ATOM      8  C2' I4B d   1      -0.980  -2.450   1.540  0.00  0.00    -0.013 C 
ATOM      9  C4' I4B d   1      -1.818  -1.958   2.691  0.00  0.00     0.013 C 
ATOM     10  C3' I4B d   1      -0.017  -3.510   1.986  0.00  0.00     0.013 C 
ENDBRANCH   7   8
ENDBRANCH   1   7
TORSDOF 2
ENDMDL
