MODEL 1
REMARK minimizedAffinity -0.563553691
REMARK minimizedRMSD -1
REMARK  1 active torsions:
REMARK  status: ('A' for Active; 'I' for Inactive)
REMARK    1  A    between atoms: C3_4  and  O_7 
ROOT
ATOM      1  C   UNL d   1       2.556   1.949  -0.092  0.00  0.00    -0.033 A 
ATOM      2  C1  UNL d   1       3.524   1.708  -1.069  0.00  0.00     0.039 A 
ATOM      3  C2  UNL d   1       4.401   0.630  -0.935  0.00  0.00    -0.080 A 
ATOM      4  C3  UNL d   1       4.298  -0.199   0.179  0.00  0.00     0.150 A 
ATOM      5  C4  UNL d   1       3.334   0.032   1.154  0.00  0.00    -0.007 A 
ATOM      6  C5  UNL d   1       2.460   1.110   1.018  0.00  0.00     0.039 A 
ENDROOT
BRANCH   4   7
ATOM      7  O   UNL d   1       5.135  -1.261   0.356  0.00  0.00    -0.526 OA
ATOM      8  H5  UNL d   1       5.768  -1.281  -0.382  0.00  0.00     0.418 HD
ENDBRANCH   4   7
TORSDOF 1
ENDMDL
