MODEL 1
REMARK minimizedAffinity 5.42621326
REMARK minimizedRMSD -1
REMARK  1 active torsions:
REMARK  status: ('A' for Active; 'I' for Inactive)
REMARK    1  A    between atoms: C3_4  and  O_7 
ROOT
ATOM      1  C   UNL d   1       3.280   1.268   0.064  0.00  0.00    -0.033 A 
ATOM      2  C1  UNL d   1       4.370   0.399   0.135  0.00  0.00     0.039 A 
ATOM      3  C2  UNL d   1       4.562  -0.392   1.270  0.00  0.00    -0.080 A 
ATOM      4  C3  UNL d   1       3.658  -0.304   2.325  0.00  0.00     0.150 A 
ATOM      5  C4  UNL d   1       2.567   0.557   2.259  0.00  0.00    -0.007 A 
ATOM      6  C5  UNL d   1       2.378   1.346   1.125  0.00  0.00     0.039 A 
ENDROOT
BRANCH   4   7
ATOM      7  O   UNL d   1       3.806  -1.052   3.455  0.00  0.00    -0.526 OA
ATOM      8  H5  UNL d   1       4.619  -1.578   3.371  0.00  0.00     0.418 HD
ENDBRANCH   4   7
TORSDOF 1
ENDMDL
