MODEL 1
REMARK minimizedAffinity 12.5849257
REMARK minimizedRMSD -1
REMARK  1 active torsions:
REMARK  status: ('A' for Active; 'I' for Inactive)
REMARK    1  A    between atoms: C3_4  and  O_7 
ROOT
ATOM      1  C   UNL d   1      -5.329  -3.052  -4.947  0.00  0.00    -0.033 A 
ATOM      2  C1  UNL d   1      -4.000  -2.985  -5.371  0.00  0.00     0.039 A 
ATOM      3  C2  UNL d   1      -2.979  -2.776  -4.443  0.00  0.00    -0.080 A 
ATOM      4  C3  UNL d   1      -3.298  -2.636  -3.095  0.00  0.00     0.150 A 
ATOM      5  C4  UNL d   1      -4.619  -2.705  -2.665  0.00  0.00    -0.007 A 
ATOM      6  C5  UNL d   1      -5.638  -2.914  -3.593  0.00  0.00     0.039 A 
ENDROOT
BRANCH   4   7
ATOM      7  O   UNL d   1      -2.336  -2.425  -2.153  0.00  0.00    -0.526 OA
ATOM      8  H5  UNL d   1      -1.475  -2.371  -2.600  0.00  0.00     0.418 HD
ENDBRANCH   4   7
TORSDOF 1
ENDMDL
