MODEL 1
REMARK minimizedAffinity 8.3342247
REMARK minimizedRMSD -1
REMARK  1 active torsions:
REMARK  status: ('A' for Active; 'I' for Inactive)
REMARK    1  A    between atoms: C3_4  and  O_7 
ROOT
ATOM      1  C   UNL d   1       4.161  -0.964   0.826  0.00  0.00    -0.033 A 
ATOM      2  C1  UNL d   1       3.140  -0.938   1.778  0.00  0.00     0.039 A 
ATOM      3  C2  UNL d   1       3.451  -0.949   3.139  0.00  0.00    -0.080 A 
ATOM      4  C3  UNL d   1       4.785  -0.985   3.534  0.00  0.00     0.150 A 
ATOM      5  C4  UNL d   1       5.808  -1.007   2.592  0.00  0.00    -0.007 A 
ATOM      6  C5  UNL d   1       5.495  -0.997   1.233  0.00  0.00     0.039 A 
ENDROOT
BRANCH   4   7
ATOM      7  O   UNL d   1       5.138  -1.002   4.851  0.00  0.00    -0.526 OA
ATOM      8  H5  UNL d   1       4.327  -1.012   5.387  0.00  0.00     0.418 HD
ENDBRANCH   4   7
TORSDOF 1
ENDMDL
