MODEL 1
REMARK minimizedAffinity 4.45282984
REMARK minimizedRMSD -1
REMARK  1 active torsions:
REMARK  status: ('A' for Active; 'I' for Inactive)
REMARK    1  A    between atoms: C3_4  and  O_7 
ROOT
ATOM      1  C   UNL d   1      -4.863  -0.004   4.259  0.00  0.00    -0.033 A 
ATOM      2  C1  UNL d   1      -4.133   1.018   3.649  0.00  0.00     0.039 A 
ATOM      3  C2  UNL d   1      -4.115   2.296   4.212  0.00  0.00    -0.080 A 
ATOM      4  C3  UNL d   1      -4.827   2.538   5.383  0.00  0.00     0.150 A 
ATOM      5  C4  UNL d   1      -5.553   1.523   5.998  0.00  0.00    -0.007 A 
ATOM      6  C5  UNL d   1      -5.571   0.248   5.435  0.00  0.00     0.039 A 
ENDROOT
BRANCH   4   7
ATOM      7  O   UNL d   1      -4.843   3.770   5.966  0.00  0.00    -0.526 OA
ATOM      8  H5  UNL d   1      -4.322   4.378   5.415  0.00  0.00     0.418 HD
ENDBRANCH   4   7
TORSDOF 1
ENDMDL
