MODEL 1
REMARK minimizedAffinity 5.27190876
REMARK minimizedRMSD -1
REMARK  1 active torsions:
REMARK  status: ('A' for Active; 'I' for Inactive)
REMARK    1  A    between atoms: C3_4  and  O_7 
ROOT
ATOM      1  C   UNL d   1       2.542   1.995   0.552  0.00  0.00    -0.033 A 
ATOM      2  C1  UNL d   1       3.574   1.784  -0.364  0.00  0.00     0.039 A 
ATOM      3  C2  UNL d   1       4.409   0.672  -0.233  0.00  0.00    -0.080 A 
ATOM      4  C3  UNL d   1       4.201  -0.219   0.816  0.00  0.00     0.150 A 
ATOM      5  C4  UNL d   1       3.172  -0.016   1.730  0.00  0.00    -0.007 A 
ATOM      6  C5  UNL d   1       2.340   1.095   1.598  0.00  0.00     0.039 A 
ENDROOT
BRANCH   4   7
ATOM      7  O   UNL d   1       4.993  -1.315   0.988  0.00  0.00    -0.526 OA
ATOM      8  H5  UNL d   1       5.679  -1.310   0.299  0.00  0.00     0.418 HD
ENDBRANCH   4   7
TORSDOF 1
ENDMDL
