MODEL 1
REMARK minimizedAffinity 12.3309851
REMARK minimizedRMSD -1
REMARK  1 active torsions:
REMARK  status: ('A' for Active; 'I' for Inactive)
REMARK    1  A    between atoms: C3_4  and  O_7 
ROOT
ATOM      1  C   UNL d   1      -0.783  -1.695  -2.155  0.00  0.00    -0.033 A 
ATOM      2  C1  UNL d   1      -1.726  -1.661  -1.125  0.00  0.00     0.039 A 
ATOM      3  C2  UNL d   1      -2.978  -2.251  -1.303  0.00  0.00    -0.080 A 
ATOM      4  C3  UNL d   1      -3.276  -2.872  -2.513  0.00  0.00     0.150 A 
ATOM      5  C4  UNL d   1      -2.340  -2.913  -3.542  0.00  0.00    -0.007 A 
ATOM      6  C5  UNL d   1      -1.090  -2.323  -3.362  0.00  0.00     0.039 A 
ENDROOT
BRANCH   4   7
ATOM      7  O   UNL d   1      -4.487  -3.458  -2.735  0.00  0.00    -0.526 OA
ATOM      8  H5  UNL d   1      -5.041  -3.327  -1.947  0.00  0.00     0.418 HD
ENDBRANCH   4   7
TORSDOF 1
ENDMDL
