MODEL 1
REMARK minimizedAffinity 7.06668043
REMARK minimizedRMSD -1
REMARK  1 active torsions:
REMARK  status: ('A' for Active; 'I' for Inactive)
REMARK    1  A    between atoms: C3_4  and  O_7 
ROOT
ATOM      1  C   UNL d   1      -4.287   2.713   4.200  0.00  0.00    -0.033 A 
ATOM      2  C1  UNL d   1      -4.096   1.609   3.367  0.00  0.00     0.039 A 
ATOM      3  C2  UNL d   1      -4.667   0.378   3.694  0.00  0.00    -0.080 A 
ATOM      4  C3  UNL d   1      -5.426   0.264   4.856  0.00  0.00     0.150 A 
ATOM      5  C4  UNL d   1      -5.624   1.361   5.688  0.00  0.00    -0.007 A 
ATOM      6  C5  UNL d   1      -5.052   2.589   5.360  0.00  0.00     0.039 A 
ENDROOT
BRANCH   4   7
ATOM      7  O   UNL d   1      -5.999  -0.918   5.219  0.00  0.00    -0.526 OA
ATOM      8  H5  UNL d   1      -5.754  -1.593   4.565  0.00  0.00     0.418 HD
ENDBRANCH   4   7
TORSDOF 1
ENDMDL
