MODEL 1
REMARK minimizedAffinity 12.6720772
REMARK minimizedRMSD -1
REMARK  1 active torsions:
REMARK  status: ('A' for Active; 'I' for Inactive)
REMARK    1  A    between atoms: C3_4  and  O_7 
ROOT
ATOM      1  C   UNL d   1       1.851   1.701   0.819  0.00  0.00    -0.033 A 
ATOM      2  C1  UNL d   1       1.560   0.547   1.550  0.00  0.00     0.039 A 
ATOM      3  C2  UNL d   1       2.554  -0.407   1.776  0.00  0.00    -0.080 A 
ATOM      4  C3  UNL d   1       3.833  -0.195   1.269  0.00  0.00     0.150 A 
ATOM      5  C4  UNL d   1       4.131   0.954   0.544  0.00  0.00    -0.007 A 
ATOM      6  C5  UNL d   1       3.137   1.905   0.318  0.00  0.00     0.039 A 
ENDROOT
BRANCH   4   7
ATOM      7  O   UNL d   1       4.835  -1.099   1.460  0.00  0.00    -0.526 OA
ATOM      8  H5  UNL d   1       4.476  -1.856   1.953  0.00  0.00     0.418 HD
ENDBRANCH   4   7
TORSDOF 1
ENDMDL
