MODEL 1
REMARK minimizedAffinity -0.347532868
REMARK minimizedRMSD -1
REMARK  1 active torsions:
REMARK  status: ('A' for Active; 'I' for Inactive)
REMARK    1  A    between atoms: C3_4  and  O_7 
ROOT
ATOM      1  C   UNL d   1      -5.476   0.237   4.052  0.00  0.00    -0.033 A 
ATOM      2  C1  UNL d   1      -5.988   0.541   5.315  0.00  0.00     0.039 A 
ATOM      3  C2  UNL d   1      -5.565   1.692   5.983  0.00  0.00    -0.080 A 
ATOM      4  C3  UNL d   1      -4.633   2.530   5.377  0.00  0.00     0.150 A 
ATOM      5  C4  UNL d   1      -4.122   2.235   4.118  0.00  0.00    -0.007 A 
ATOM      6  C5  UNL d   1      -4.544   1.085   3.453  0.00  0.00     0.039 A 
ENDROOT
BRANCH   4   7
ATOM      7  O   UNL d   1      -4.186   3.662   5.992  0.00  0.00    -0.526 OA
ATOM      8  H5  UNL d   1      -4.604   3.721   6.868  0.00  0.00     0.418 HD
ENDBRANCH   4   7
TORSDOF 1
ENDMDL
