MODEL 1
REMARK minimizedAffinity -1.41952407
REMARK minimizedRMSD -1
REMARK  1 active torsions:
REMARK  status: ('A' for Active; 'I' for Inactive)
REMARK    1  A    between atoms: C3_4  and  O_7 
ROOT
ATOM      1  C   UNL d   1      -5.402   0.494   4.125  0.00  0.00    -0.033 A 
ATOM      2  C1  UNL d   1      -5.999   0.794   5.351  0.00  0.00     0.039 A 
ATOM      3  C2  UNL d   1      -5.708   1.997   5.996  0.00  0.00    -0.080 A 
ATOM      4  C3  UNL d   1      -4.820   2.892   5.406  0.00  0.00     0.150 A 
ATOM      5  C4  UNL d   1      -4.224   2.602   4.183  0.00  0.00    -0.007 A 
ATOM      6  C5  UNL d   1      -4.515   1.399   3.540  0.00  0.00     0.039 A 
ENDROOT
BRANCH   4   7
ATOM      7  O   UNL d   1      -4.501   4.076   6.000  0.00  0.00    -0.526 OA
ATOM      8  H5  UNL d   1      -4.966   4.128   6.852  0.00  0.00     0.418 HD
ENDBRANCH   4   7
TORSDOF 1
ENDMDL
