MODEL 1
REMARK minimizedAffinity 7.63964653
REMARK minimizedRMSD -1
REMARK  1 active torsions:
REMARK  status: ('A' for Active; 'I' for Inactive)
REMARK    1  A    between atoms: C3_4  and  O_7 
ROOT
ATOM      1  C   UNL d   1       0.586   1.187   2.348  0.00  0.00    -0.033 A 
ATOM      2  C1  UNL d   1       1.724   1.222   1.539  0.00  0.00     0.039 A 
ATOM      3  C2  UNL d   1       2.844   0.459   1.874  0.00  0.00    -0.080 A 
ATOM      4  C3  UNL d   1       2.813  -0.334   3.018  0.00  0.00     0.150 A 
ATOM      5  C4  UNL d   1       1.681  -0.377   3.826  0.00  0.00    -0.007 A 
ATOM      6  C5  UNL d   1       0.564   0.387   3.490  0.00  0.00     0.039 A 
ENDROOT
BRANCH   4   7
ATOM      7  O   UNL d   1       3.884  -1.093   3.389  0.00  0.00    -0.526 OA
ATOM      8  H5  UNL d   1       4.603  -0.941   2.753  0.00  0.00     0.418 HD
ENDBRANCH   4   7
TORSDOF 1
ENDMDL
