MODEL 1
REMARK minimizedAffinity 5.01684666
REMARK minimizedRMSD -1
REMARK  1 active torsions:
REMARK  status: ('A' for Active; 'I' for Inactive)
REMARK    1  A    between atoms: C3_4  and  O_7 
ROOT
ATOM      1  C   UNL d   1      -3.596  -4.280  -1.504  0.00  0.00    -0.033 A 
ATOM      2  C1  UNL d   1      -4.806  -4.870  -1.875  0.00  0.00     0.039 A 
ATOM      3  C2  UNL d   1      -5.628  -4.248  -2.817  0.00  0.00    -0.080 A 
ATOM      4  C3  UNL d   1      -5.229  -3.040  -3.381  0.00  0.00     0.150 A 
ATOM      5  C4  UNL d   1      -4.023  -2.448  -3.019  0.00  0.00    -0.007 A 
ATOM      6  C5  UNL d   1      -3.204  -3.070  -2.077  0.00  0.00     0.039 A 
ENDROOT
BRANCH   4   7
ATOM      7  O   UNL d   1      -6.000  -2.394  -4.301  0.00  0.00    -0.526 OA
ATOM      8  H5  UNL d   1      -6.816  -2.904  -4.432  0.00  0.00     0.418 HD
ENDBRANCH   4   7
TORSDOF 1
ENDMDL
