MODEL 1
REMARK minimizedAffinity 16.447134
REMARK minimizedRMSD -1
REMARK  1 active torsions:
REMARK  status: ('A' for Active; 'I' for Inactive)
REMARK    1  A    between atoms: C3_4  and  O_7 
ROOT
ATOM      1  C   UNL d   1      -2.219  -2.411  -3.224  0.00  0.00    -0.033 A 
ATOM      2  C1  UNL d   1      -1.422  -2.154  -4.341  0.00  0.00     0.039 A 
ATOM      3  C2  UNL d   1      -0.604  -3.158  -4.863  0.00  0.00    -0.080 A 
ATOM      4  C3  UNL d   1      -0.594  -4.413  -4.260  0.00  0.00     0.150 A 
ATOM      5  C4  UNL d   1      -1.388  -4.677  -3.150  0.00  0.00    -0.007 A 
ATOM      6  C5  UNL d   1      -2.204  -3.673  -2.629  0.00  0.00     0.039 A 
ENDROOT
BRANCH   4   7
ATOM      7  O   UNL d   1       0.191  -5.423  -4.731  0.00  0.00    -0.526 OA
ATOM      8  H5  UNL d   1       0.706  -5.088  -5.484  0.00  0.00     0.418 HD
ENDBRANCH   4   7
TORSDOF 1
ENDMDL
