MODEL 1
REMARK minimizedAffinity -1.38641071
REMARK minimizedRMSD -1
REMARK  1 active torsions:
REMARK  status: ('A' for Active; 'I' for Inactive)
REMARK    1  A    between atoms: C3_4  and  O_7 
ROOT
ATOM      1  C   UNL d   1      -5.394  -0.199   4.115  0.00  0.00    -0.033 A 
ATOM      2  C1  UNL d   1      -6.000   0.332   5.254  0.00  0.00     0.039 A 
ATOM      3  C2  UNL d   1      -5.708   1.636   5.659  0.00  0.00    -0.080 A 
ATOM      4  C3  UNL d   1      -4.810   2.398   4.916  0.00  0.00     0.150 A 
ATOM      5  C4  UNL d   1      -4.205   1.876   3.777  0.00  0.00    -0.007 A 
ATOM      6  C5  UNL d   1      -4.497   0.573   3.375  0.00  0.00     0.039 A 
ENDROOT
BRANCH   4   7
ATOM      7  O   UNL d   1      -4.490   3.673   5.274  0.00  0.00    -0.526 OA
ATOM      8  H5  UNL d   1      -4.962   3.889   6.096  0.00  0.00     0.418 HD
ENDBRANCH   4   7
TORSDOF 1
ENDMDL
