MODEL 1
REMARK minimizedAffinity 5.77086258
REMARK minimizedRMSD -1
REMARK  1 active torsions:
REMARK  status: ('A' for Active; 'I' for Inactive)
REMARK    1  A    between atoms: C3_4  and  O_7 
ROOT
ATOM      1  C   UNL d   1      -4.811   2.548   6.000  0.00  0.00    -0.033 A 
ATOM      2  C1  UNL d   1      -4.119   3.008   4.878  0.00  0.00     0.039 A 
ATOM      3  C2  UNL d   1      -3.984   2.189   3.755  0.00  0.00    -0.080 A 
ATOM      4  C3  UNL d   1      -4.545   0.915   3.766  0.00  0.00     0.150 A 
ATOM      5  C4  UNL d   1      -5.240   0.453   4.879  0.00  0.00    -0.007 A 
ATOM      6  C5  UNL d   1      -5.373   1.271   6.000  0.00  0.00     0.039 A 
ENDROOT
BRANCH   4   7
ATOM      7  O   UNL d   1      -4.436   0.079   2.696  0.00  0.00    -0.526 OA
ATOM      8  H5  UNL d   1      -3.906   0.521   2.012  0.00  0.00     0.418 HD
ENDBRANCH   4   7
TORSDOF 1
ENDMDL
