MODEL 1
REMARK minimizedAffinity 4.19912672
REMARK minimizedRMSD -1
REMARK  1 active torsions:
REMARK  status: ('A' for Active; 'I' for Inactive)
REMARK    1  A    between atoms: C3_4  and  O_7 
ROOT
ATOM      1  C   UNL d   1       2.337   5.665  -4.187  0.00  0.00    -0.033 A 
ATOM      2  C1  UNL d   1       2.518   4.604  -3.298  0.00  0.00     0.039 A 
ATOM      3  C2  UNL d   1       3.010   3.381  -3.760  0.00  0.00    -0.080 A 
ATOM      4  C3  UNL d   1       3.318   3.234  -5.110  0.00  0.00     0.150 A 
ATOM      5  C4  UNL d   1       3.143   4.289  -5.999  0.00  0.00    -0.007 A 
ATOM      6  C5  UNL d   1       2.651   5.508  -5.537  0.00  0.00     0.039 A 
ENDROOT
BRANCH   4   7
ATOM      7  O   UNL d   1       3.797   2.059  -5.607  0.00  0.00    -0.526 OA
ATOM      8  H5  UNL d   1       3.838   1.412  -4.883  0.00  0.00     0.418 HD
ENDBRANCH   4   7
TORSDOF 1
ENDMDL
