MODEL 1
REMARK minimizedAffinity 1.92149425
REMARK minimizedRMSD -1
REMARK  0 active torsions:
REMARK  status: ('A' for Active; 'I' for Inactive)
ROOT
ATOM      1  O1  BZF d   1       2.162   1.776  -1.236  0.00  0.00    -0.204 OA
ATOM      2  C2  BZF d   1       2.962   1.880  -2.357  0.00  0.00     0.174 A 
ATOM      3  C3  BZF d   1       4.171   1.324  -2.135  0.00  0.00    -0.012 A 
ATOM      4  C3A BZF d   1       4.092   0.762  -0.822  0.00  0.00    -0.107 A 
ATOM      5  C4  BZF d   1       4.971   0.063  -0.046  0.00  0.00     0.055 A 
ATOM      6  C5  BZF d   1       4.608  -0.279   1.219  0.00  0.00    -0.016 A 
ATOM      7  C6  BZF d   1       3.378   0.066   1.739  0.00  0.00     0.022 A 
ATOM      8  C7  BZF d   1       2.471   0.754   1.005  0.00  0.00     0.029 A 
ATOM      9  C7A BZF d   1       2.822   1.073  -0.284  0.00  0.00     0.058 A 
ENDROOT
TORSDOF 0
ENDMDL
