MODEL 1
REMARK minimizedAffinity 9.72841358
REMARK minimizedRMSD -1
REMARK  0 active torsions:
REMARK  status: ('A' for Active; 'I' for Inactive)
ROOT
ATOM      1  O1  BZF d   1      -3.554  -2.300  -3.186  0.00  0.00    -0.204 OA
ATOM      2  C2  BZF d   1      -2.294  -2.335  -2.622  0.00  0.00     0.174 A 
ATOM      3  C3  BZF d   1      -2.180  -3.375  -1.771  0.00  0.00    -0.012 A 
ATOM      4  C3A BZF d   1      -3.418  -4.084  -1.875  0.00  0.00    -0.107 A 
ATOM      5  C4  BZF d   1      -3.905  -5.216  -1.285  0.00  0.00     0.055 A 
ATOM      6  C5  BZF d   1      -5.181  -5.600  -1.547  0.00  0.00    -0.016 A 
ATOM      7  C6  BZF d   1      -6.000  -4.876  -2.388  0.00  0.00     0.022 A 
ATOM      8  C7  BZF d   1      -5.560  -3.749  -3.000  0.00  0.00     0.029 A 
ATOM      9  C7A BZF d   1      -4.260  -3.376  -2.763  0.00  0.00     0.058 A 
ENDROOT
TORSDOF 0
ENDMDL
