MODEL 1
REMARK minimizedAffinity -1.8602885
REMARK minimizedRMSD -1
REMARK  0 active torsions:
REMARK  status: ('A' for Active; 'I' for Inactive)
ROOT
ATOM      1  O1  BZF d   1       4.153  -0.474   2.675  0.00  0.00    -0.204 OA
ATOM      2  C2  BZF d   1       4.857   0.097   1.632  0.00  0.00     0.174 A 
ATOM      3  C3  BZF d   1       4.135   1.074   1.047  0.00  0.00    -0.012 A 
ATOM      4  C3A BZF d   1       2.941   1.178   1.827  0.00  0.00    -0.107 A 
ATOM      5  C4  BZF d   1       1.839   1.982   1.754  0.00  0.00     0.055 A 
ATOM      6  C5  BZF d   1       0.815   1.780   2.625  0.00  0.00    -0.016 A 
ATOM      7  C6  BZF d   1       0.857   0.782   3.576  0.00  0.00     0.022 A 
ATOM      8  C7  BZF d   1       1.931  -0.037   3.690  0.00  0.00     0.029 A 
ATOM      9  C7A BZF d   1       2.981   0.186   2.834  0.00  0.00     0.058 A 
ENDROOT
TORSDOF 0
ENDMDL
