MODEL 1
REMARK minimizedAffinity -3.16589904
REMARK minimizedRMSD -1
REMARK  0 active torsions:
REMARK  status: ('A' for Active; 'I' for Inactive)
ROOT
ATOM      1  O1  BZF d   1       4.668   1.779  -1.784  0.00  0.00    -0.204 OA
ATOM      2  C2  BZF d   1       3.493   1.131  -2.111  0.00  0.00     0.174 A 
ATOM      3  C3  BZF d   1       3.016   0.442  -1.054  0.00  0.00    -0.012 A 
ATOM      4  C3A BZF d   1       3.902   0.749   0.026  0.00  0.00    -0.107 A 
ATOM      5  C4  BZF d   1       3.945   0.379   1.340  0.00  0.00     0.055 A 
ATOM      6  C5  BZF d   1       4.984   0.795   2.110  0.00  0.00    -0.016 A 
ATOM      7  C6  BZF d   1       6.000   1.576   1.598  0.00  0.00     0.022 A 
ATOM      8  C7  BZF d   1       5.999   1.973   0.302  0.00  0.00     0.029 A 
ATOM      9  C7A BZF d   1       4.932   1.581  -0.470  0.00  0.00     0.058 A 
ENDROOT
TORSDOF 0
ENDMDL
