MODEL 1
REMARK minimizedAffinity 2.98599815
REMARK minimizedRMSD -1
REMARK  0 active torsions:
REMARK  status: ('A' for Active; 'I' for Inactive)
ROOT
ATOM      1  O1  BZF d   1       4.712  -0.771   1.505  0.00  0.00    -0.204 OA
ATOM      2  C2  BZF d   1       5.945  -0.257   1.855  0.00  0.00     0.174 A 
ATOM      3  C3  BZF d   1       5.990   1.073   1.631  0.00  0.00    -0.012 A 
ATOM      4  C3A BZF d   1       4.674   1.426   1.195  0.00  0.00    -0.107 A 
ATOM      5  C4  BZF d   1       4.089   2.606   0.835  0.00  0.00     0.055 A 
ATOM      6  C5  BZF d   1       2.806   2.598   0.388  0.00  0.00    -0.016 A 
ATOM      7  C6  BZF d   1       2.080   1.429   0.285  0.00  0.00     0.022 A 
ATOM      8  C7  BZF d   1       2.616   0.235   0.635  0.00  0.00     0.029 A 
ATOM      9  C7A BZF d   1       3.902   0.244   1.118  0.00  0.00     0.058 A 
ENDROOT
TORSDOF 0
ENDMDL
