MODEL 1
REMARK minimizedAffinity 10.3406601
REMARK minimizedRMSD -1
REMARK  0 active torsions:
REMARK  status: ('A' for Active; 'I' for Inactive)
ROOT
ATOM      1  O1  BZF d   1      -2.636  -1.869  -2.867  0.00  0.00    -0.204 OA
ATOM      2  C2  BZF d   1      -2.557  -2.624  -1.713  0.00  0.00     0.174 A 
ATOM      3  C3  BZF d   1      -1.988  -3.821  -1.962  0.00  0.00    -0.012 A 
ATOM      4  C3A BZF d   1      -1.610  -3.778  -3.342  0.00  0.00    -0.107 A 
ATOM      5  C4  BZF d   1      -0.986  -4.664  -4.172  0.00  0.00     0.055 A 
ATOM      6  C5  BZF d   1      -0.831  -4.344  -5.484  0.00  0.00    -0.016 A 
ATOM      7  C6  BZF d   1      -1.292  -3.149  -5.999  0.00  0.00     0.022 A 
ATOM      8  C7  BZF d   1      -1.912  -2.236  -5.212  0.00  0.00     0.029 A 
ATOM      9  C7A BZF d   1      -2.040  -2.543  -3.880  0.00  0.00     0.058 A 
ENDROOT
TORSDOF 0
ENDMDL
