MODEL 1
REMARK minimizedAffinity 7.21248913
REMARK minimizedRMSD -1
REMARK  0 active torsions:
REMARK  status: ('A' for Active; 'I' for Inactive)
ROOT
ATOM      1  O1  BZF d   1       4.679  -1.222   1.678  0.00  0.00    -0.204 OA
ATOM      2  C2  BZF d   1       5.901  -0.738   1.254  0.00  0.00     0.174 A 
ATOM      3  C3  BZF d   1       5.741   0.360   0.487  0.00  0.00    -0.012 A 
ATOM      4  C3A BZF d   1       4.336   0.629   0.505  0.00  0.00    -0.107 A 
ATOM      5  C4  BZF d   1       3.560   1.601  -0.059  0.00  0.00     0.055 A 
ATOM      6  C5  BZF d   1       2.210   1.537   0.090  0.00  0.00    -0.016 A 
ATOM      7  C6  BZF d   1       1.605   0.516   0.792  0.00  0.00     0.022 A 
ATOM      8  C7  BZF d   1       2.334  -0.467   1.374  0.00  0.00     0.029 A 
ATOM      9  C7A BZF d   1       3.700  -0.388   1.253  0.00  0.00     0.058 A 
ENDROOT
TORSDOF 0
ENDMDL
