MODEL 1
REMARK minimizedAffinity 4.03501558
REMARK minimizedRMSD -1
REMARK  0 active torsions:
REMARK  status: ('A' for Active; 'I' for Inactive)
ROOT
ATOM      1  O1  BZF d   1       2.260   0.306   0.758  0.00  0.00    -0.204 OA
ATOM      2  C2  BZF d   1       3.429  -0.394   0.988  0.00  0.00     0.174 A 
ATOM      3  C3  BZF d   1       4.305  -0.205  -0.019  0.00  0.00    -0.012 A 
ATOM      4  C3A BZF d   1       3.679   0.741  -0.891  0.00  0.00    -0.107 A 
ATOM      5  C4  BZF d   1       4.060   1.338  -2.059  0.00  0.00     0.055 A 
ATOM      6  C5  BZF d   1       3.185   2.159  -2.697  0.00  0.00    -0.016 A 
ATOM      7  C6  BZF d   1       1.921   2.401  -2.200  0.00  0.00     0.022 A 
ATOM      8  C7  BZF d   1       1.500   1.835  -1.043  0.00  0.00     0.029 A 
ATOM      9  C7A BZF d   1       2.393   1.031  -0.378  0.00  0.00     0.058 A 
ENDROOT
TORSDOF 0
ENDMDL
