MODEL 1
REMARK minimizedAffinity 3.48070407
REMARK minimizedRMSD -1
REMARK  0 active torsions:
REMARK  status: ('A' for Active; 'I' for Inactive)
ROOT
ATOM      1  O1  BZF d   1       1.534   1.455  -1.392  0.00  0.00    -0.204 OA
ATOM      2  C2  BZF d   1       2.410   0.715  -0.621  0.00  0.00     0.174 A 
ATOM      3  C3  BZF d   1       3.461   0.299  -1.356  0.00  0.00    -0.012 A 
ATOM      4  C3A BZF d   1       3.275   0.889  -2.646  0.00  0.00    -0.107 A 
ATOM      5  C4  BZF d   1       3.997   0.859  -3.805  0.00  0.00     0.055 A 
ATOM      6  C5  BZF d   1       3.502   1.482  -4.907  0.00  0.00    -0.016 A 
ATOM      7  C6  BZF d   1       2.288   2.137  -4.888  0.00  0.00     0.022 A 
ATOM      8  C7  BZF d   1       1.539   2.198  -3.760  0.00  0.00     0.029 A 
ATOM      9  C7A BZF d   1       2.051   1.598  -2.636  0.00  0.00     0.058 A 
ENDROOT
TORSDOF 0
ENDMDL
