MODEL 1
REMARK minimizedAffinity 16.0389519
REMARK minimizedRMSD -1
REMARK  0 active torsions:
REMARK  status: ('A' for Active; 'I' for Inactive)
ROOT
ATOM      1  O1  BZF d   1       3.366  -3.651  -4.502  0.00  0.00    -0.204 OA
ATOM      2  C2  BZF d   1       3.934  -2.643  -5.257  0.00  0.00     0.174 A 
ATOM      3  C3  BZF d   1       2.999  -2.017  -6.000  0.00  0.00    -0.012 A 
ATOM      4  C3A BZF d   1       1.755  -2.615  -5.621  0.00  0.00    -0.107 A 
ATOM      5  C4  BZF d   1       0.460  -2.407  -6.000  0.00  0.00     0.055 A 
ATOM      6  C5  BZF d   1      -0.513  -3.210  -5.494  0.00  0.00    -0.016 A 
ATOM      7  C6  BZF d   1      -0.226  -4.231  -4.613  0.00  0.00     0.022 A 
ATOM      8  C7  BZF d   1       1.043  -4.473  -4.204  0.00  0.00     0.029 A 
ATOM      9  C7A BZF d   1       2.024  -3.642  -4.688  0.00  0.00     0.058 A 
ENDROOT
TORSDOF 0
ENDMDL
