MODEL 1
REMARK minimizedAffinity 11.2549248
REMARK minimizedRMSD -1
REMARK  0 active torsions:
REMARK  status: ('A' for Active; 'I' for Inactive)
ROOT
ATOM      1  O1  BZF d   1      -2.235  -3.800   0.489  0.00  0.00    -0.204 OA
ATOM      2  C2  BZF d   1      -1.191  -3.035   0.973  0.00  0.00     0.174 A 
ATOM      3  C3  BZF d   1      -0.696  -2.235   0.007  0.00  0.00    -0.012 A 
ATOM      4  C3A BZF d   1      -1.538  -2.451  -1.129  0.00  0.00    -0.107 A 
ATOM      5  C4  BZF d   1      -1.563  -1.932  -2.392  0.00  0.00     0.055 A 
ATOM      6  C5  BZF d   1      -2.471  -2.409  -3.284  0.00  0.00    -0.016 A 
ATOM      7  C6  BZF d   1      -3.363  -3.406  -2.950  0.00  0.00     0.022 A 
ATOM      8  C7  BZF d   1      -3.380  -3.949  -1.708  0.00  0.00     0.029 A 
ATOM      9  C7A BZF d   1      -2.486  -3.446  -0.794  0.00  0.00     0.058 A 
ENDROOT
TORSDOF 0
ENDMDL
