MODEL 1
REMARK minimizedAffinity 18.9559364
REMARK minimizedRMSD -1
REMARK  0 active torsions:
REMARK  status: ('A' for Active; 'I' for Inactive)
ROOT
ATOM      1  O1  BZF d   1       2.790   5.687   1.381  0.00  0.00    -0.204 OA
ATOM      2  C2  BZF d   1       4.112   5.920   1.056  0.00  0.00     0.174 A 
ATOM      3  C3  BZF d   1       4.715   4.780   0.659  0.00  0.00    -0.012 A 
ATOM      4  C3A BZF d   1       3.682   3.791   0.653  0.00  0.00    -0.107 A 
ATOM      5  C4  BZF d   1       3.655   2.463   0.334  0.00  0.00     0.055 A 
ATOM      6  C5  BZF d   1       2.502   1.765   0.506  0.00  0.00    -0.016 A 
ATOM      7  C6  BZF d   1       1.359   2.361   0.999  0.00  0.00     0.022 A 
ATOM      8  C7  BZF d   1       1.336   3.677   1.325  0.00  0.00     0.029 A 
ATOM      9  C7A BZF d   1       2.490   4.392   1.121  0.00  0.00     0.058 A 
ENDROOT
TORSDOF 0
ENDMDL
