MODEL 1
REMARK minimizedAffinity 2.15187526
REMARK minimizedRMSD -1
REMARK  0 active torsions:
REMARK  status: ('A' for Active; 'I' for Inactive)
ROOT
ATOM      1  O1  BZF d   1      -2.672  -2.507  -2.058  0.00  0.00    -0.204 OA
ATOM      2  C2  BZF d   1      -3.524  -3.481  -2.541  0.00  0.00     0.174 A 
ATOM      3  C3  BZF d   1      -3.406  -4.618  -1.826  0.00  0.00    -0.012 A 
ATOM      4  C3A BZF d   1      -2.485  -4.308  -0.775  0.00  0.00    -0.107 A 
ATOM      5  C4  BZF d   1      -1.976  -5.025   0.269  0.00  0.00     0.055 A 
ATOM      6  C5  BZF d   1      -1.041  -4.451   1.071  0.00  0.00    -0.016 A 
ATOM      7  C6  BZF d   1      -0.589  -3.166   0.855  0.00  0.00     0.022 A 
ATOM      8  C7  BZF d   1      -1.068  -2.413  -0.166  0.00  0.00     0.029 A 
ATOM      9  C7A BZF d   1      -2.037  -2.979  -0.958  0.00  0.00     0.058 A 
ENDROOT
TORSDOF 0
ENDMDL
