MODEL 1
REMARK minimizedAffinity 1.82875681
REMARK minimizedRMSD -1
REMARK  0 active torsions:
REMARK  status: ('A' for Active; 'I' for Inactive)
ROOT
ATOM      1  O1  BZF d   1       4.291  -0.893   2.073  0.00  0.00    -0.204 OA
ATOM      2  C2  BZF d   1       5.625  -0.536   2.010  0.00  0.00     0.174 A 
ATOM      3  C3  BZF d   1       5.770   0.666   1.415  0.00  0.00    -0.012 A 
ATOM      4  C3A BZF d   1       4.438   1.128   1.171  0.00  0.00    -0.107 A 
ATOM      5  C4  BZF d   1       3.926   2.266   0.617  0.00  0.00     0.055 A 
ATOM      6  C5  BZF d   1       2.581   2.377   0.457  0.00  0.00    -0.016 A 
ATOM      7  C6  BZF d   1       1.720   1.367   0.835  0.00  0.00     0.022 A 
ATOM      8  C7  BZF d   1       2.181   0.221   1.394  0.00  0.00     0.029 A 
ATOM      9  C7A BZF d   1       3.537   0.121   1.586  0.00  0.00     0.058 A 
ENDROOT
TORSDOF 0
ENDMDL
