MODEL 1
REMARK minimizedAffinity 13.5981941
REMARK minimizedRMSD -1
REMARK  0 active torsions:
REMARK  status: ('A' for Active; 'I' for Inactive)
ROOT
ATOM      1  O1  BZF d   1      -2.048  -2.345  -3.106  0.00  0.00    -0.204 OA
ATOM      2  C2  BZF d   1      -3.372  -2.735  -3.155  0.00  0.00     0.174 A 
ATOM      3  C3  BZF d   1      -3.755  -3.275  -1.980  0.00  0.00    -0.012 A 
ATOM      4  C3A BZF d   1      -2.624  -3.136  -1.115  0.00  0.00    -0.107 A 
ATOM      5  C4  BZF d   1      -2.392  -3.470   0.189  0.00  0.00     0.055 A 
ATOM      6  C5  BZF d   1      -1.155  -3.265   0.713  0.00  0.00    -0.016 A 
ATOM      7  C6  BZF d   1      -0.127  -2.734  -0.038  0.00  0.00     0.022 A 
ATOM      8  C7  BZF d   1      -0.310  -2.383  -1.334  0.00  0.00     0.029 A 
ATOM      9  C7A BZF d   1      -1.568  -2.558  -1.857  0.00  0.00     0.058 A 
ENDROOT
TORSDOF 0
ENDMDL
