MODEL 1
REMARK minimizedAffinity 13.6318531
REMARK minimizedRMSD -1
REMARK  0 active torsions:
REMARK  status: ('A' for Active; 'I' for Inactive)
ROOT
ATOM      1  O1  BZF d   1       4.824   1.140  -2.907  0.00  0.00    -0.204 OA
ATOM      2  C2  BZF d   1       3.850   1.974  -3.421  0.00  0.00     0.174 A 
ATOM      3  C3  BZF d   1       2.775   2.013  -2.608  0.00  0.00    -0.012 A 
ATOM      4  C3A BZF d   1       3.135   1.222  -1.471  0.00  0.00    -0.107 A 
ATOM      5  C4  BZF d   1       2.489   0.894  -0.313  0.00  0.00     0.055 A 
ATOM      6  C5  BZF d   1       3.089   0.042   0.559  0.00  0.00    -0.016 A 
ATOM      7  C6  BZF d   1       4.330  -0.504   0.304  0.00  0.00     0.022 A 
ATOM      8  C7  BZF d   1       5.011  -0.205  -0.829  0.00  0.00     0.029 A 
ATOM      9  C7A BZF d   1       4.422   0.682  -1.697  0.00  0.00     0.058 A 
ENDROOT
TORSDOF 0
ENDMDL
