MODEL 1
REMARK minimizedAffinity -1.52052486
REMARK minimizedRMSD -1
REMARK  1 active torsions:
REMARK  status: ('A' for Active; 'I' for Inactive)
REMARK    1  A    between atoms: N_2  and  C1_3 
ROOT
ATOM      1  C1  UNL d   1      -1.363  -0.621  -0.094  0.00  0.00     0.143 A 
ATOM      2  C2  UNL d   1      -1.522  -0.033   1.165  0.00  0.00    -0.057 A 
ATOM      3  C3  UNL d   1      -0.467   0.013   2.084  0.00  0.00     0.033 A 
ATOM      4  C4  UNL d   1       0.763  -0.555   1.769  0.00  0.00    -0.042 A 
ATOM      5  C5  UNL d   1       0.937  -1.168   0.533  0.00  0.00     0.033 A 
ATOM      6  C6  UNL d   1      -0.119  -1.205  -0.383  0.00  0.00    -0.057 A 
ENDROOT
BRANCH   1   7
ATOM      7  N   UNL d   1      -2.402  -0.786  -1.013  0.00  0.00    -0.732 N 
ATOM      8  C   UNL d   1      -3.742  -1.095  -0.562  0.00  0.00     0.284 C 
ATOM      9  H3  UNL d   1      -2.364  -0.106  -1.769  0.00  0.00     0.395 HD
ENDBRANCH   1   7
TORSDOF 1
ENDMDL
