MODEL 1
REMARK minimizedAffinity 4.67554998
REMARK minimizedRMSD -1
REMARK  1 active torsions:
REMARK  status: ('A' for Active; 'I' for Inactive)
REMARK    1  A    between atoms: N_2  and  C1_3 
ROOT
ATOM      1  C1  UNL d   1       0.371  -0.534   0.467  0.00  0.00     0.143 A 
ATOM      2  C2  UNL d   1      -0.368   0.283   1.330  0.00  0.00    -0.057 A 
ATOM      3  C3  UNL d   1      -1.738   0.495   1.134  0.00  0.00     0.033 A 
ATOM      4  C4  UNL d   1      -2.389  -0.085   0.050  0.00  0.00    -0.042 A 
ATOM      5  C5  UNL d   1      -1.670  -0.881  -0.834  0.00  0.00     0.033 A 
ATOM      6  C6  UNL d   1      -0.303  -1.094  -0.629  0.00  0.00    -0.057 A 
ENDROOT
BRANCH   1   7
ATOM      7  N   UNL d   1       1.755  -0.705   0.552  0.00  0.00    -0.732 N 
ATOM      8  C   UNL d   1       2.654   0.358   0.158  0.00  0.00     0.284 C 
ATOM      9  H3  UNL d   1       2.034  -1.193   1.400  0.00  0.00     0.395 HD
ENDBRANCH   1   7
TORSDOF 1
ENDMDL
