MODEL 1
REMARK minimizedAffinity -5.89271307
REMARK minimizedRMSD -1
REMARK  2 active torsions:
REMARK  status: ('A' for Active; 'I' for Inactive)
REMARK    1  A    between atoms: C1_2  and  C2_3 
REMARK    2  A    between atoms: C2_3  and  C3_4 
ROOT
ATOM      1  C3  UNL d   1       1.137   0.765  -0.158  0.00  0.00    -0.075 A 
ATOM      2  C4  UNL d   1       2.340   1.369   0.235  0.00  0.00     0.002 A 
ATOM      3  C5  UNL d   1       2.397   2.741   0.482  0.00  0.00     0.002 A 
ATOM      4  C6  UNL d   1       1.257   3.527   0.329  0.00  0.00    -0.004 A 
ATOM      5  C7  UNL d   1       0.060   2.941  -0.077  0.00  0.00     0.002 A 
ATOM      6  C8  UNL d   1      -0.000   1.567  -0.320  0.00  0.00     0.002 A 
ENDROOT
BRANCH   1   7
ATOM      7  C2  UNL d   1       1.062  -0.724  -0.399  0.00  0.00     0.056 C 
BRANCH   7   8
ATOM      8  C1  UNL d   1      -0.300  -1.341  -0.065  0.00  0.00     0.007 C 
ATOM      9  C   UNL d   1      -0.543  -2.673  -0.762  0.00  0.00     0.009 C 
ENDBRANCH   7   8
ENDBRANCH   1   7
TORSDOF 2
ENDMDL
