MODEL 1
REMARK minimizedAffinity -5.09940672
REMARK minimizedRMSD -1
REMARK  2 active torsions:
REMARK  status: ('A' for Active; 'I' for Inactive)
REMARK    1  A    between atoms: C1_2  and  C2_3 
REMARK    2  A    between atoms: C2_3  and  C3_4 
ROOT
ATOM      1  C3  UNL d   1       0.501   0.056   0.278  0.00  0.00    -0.075 A 
ATOM      2  C4  UNL d   1       1.592   0.902   0.031  0.00  0.00     0.002 A 
ATOM      3  C5  UNL d   1       1.487   2.275   0.251  0.00  0.00     0.002 A 
ATOM      4  C6  UNL d   1       0.291   2.821   0.710  0.00  0.00    -0.004 A 
ATOM      5  C7  UNL d   1      -0.805   1.993   0.943  0.00  0.00     0.002 A 
ATOM      6  C8  UNL d   1      -0.702   0.617   0.728  0.00  0.00     0.002 A 
ENDROOT
BRANCH   1   7
ATOM      7  C2  UNL d   1       0.616  -1.435   0.070  0.00  0.00     0.056 C 
BRANCH   7   8
ATOM      8  C1  UNL d   1      -0.594  -2.063  -0.630  0.00  0.00     0.007 C 
ATOM      9  C   UNL d   1      -0.211  -2.982  -1.782  0.00  0.00     0.009 C 
ENDBRANCH   7   8
ENDBRANCH   1   7
TORSDOF 2
ENDMDL
