MODEL 1
REMARK minimizedAffinity -4.61641741
REMARK minimizedRMSD -1
REMARK  2 active torsions:
REMARK  status: ('A' for Active; 'I' for Inactive)
REMARK    1  A    between atoms: C1_2  and  C2_3 
REMARK    2  A    between atoms: C2_3  and  C3_4 
ROOT
ATOM      1  C3  UNL d   1      -0.210  -0.164   0.242  0.00  0.00    -0.075 A 
ATOM      2  C4  UNL d   1      -1.504   0.095   0.717  0.00  0.00     0.002 A 
ATOM      3  C5  UNL d   1      -1.931   1.406   0.931  0.00  0.00     0.002 A 
ATOM      4  C6  UNL d   1      -1.068   2.471   0.684  0.00  0.00    -0.004 A 
ATOM      5  C7  UNL d   1       0.225   2.225   0.228  0.00  0.00     0.002 A 
ATOM      6  C8  UNL d   1       0.653   0.915   0.008  0.00  0.00     0.002 A 
ENDROOT
BRANCH   1   7
ATOM      7  C2  UNL d   1       0.248  -1.579  -0.020  0.00  0.00     0.056 C 
BRANCH   7   8
ATOM      8  C1  UNL d   1      -0.817  -2.469  -0.668  0.00  0.00     0.007 C 
ATOM      9  C   UNL d   1      -0.354  -3.110  -1.970  0.00  0.00     0.009 C 
ENDBRANCH   7   8
ENDBRANCH   1   7
TORSDOF 2
ENDMDL
