MODEL 1
REMARK minimizedAffinity -3.70713925
REMARK minimizedRMSD -1
REMARK  2 active torsions:
REMARK  status: ('A' for Active; 'I' for Inactive)
REMARK    1  A    between atoms: C1_2  and  C2_3 
REMARK    2  A    between atoms: C2_3  and  C3_4 
ROOT
ATOM      1  C3  UNL d   1      -0.705  -0.566   0.005  0.00  0.00    -0.075 A 
ATOM      2  C4  UNL d   1      -1.738   0.042   0.734  0.00  0.00     0.002 A 
ATOM      3  C5  UNL d   1      -1.676   1.398   1.053  0.00  0.00     0.002 A 
ATOM      4  C6  UNL d   1      -0.579   2.161   0.659  0.00  0.00    -0.004 A 
ATOM      5  C7  UNL d   1       0.461   1.564  -0.051  0.00  0.00     0.002 A 
ATOM      6  C8  UNL d   1       0.399   0.208  -0.377  0.00  0.00     0.002 A 
ENDROOT
BRANCH   1   7
ATOM      7  C2  UNL d   1      -0.780  -2.027  -0.370  0.00  0.00     0.056 C 
BRANCH   7   8
ATOM      8  C1  UNL d   1      -0.187  -2.349  -1.746  0.00  0.00     0.007 C 
ATOM      9  C   UNL d   1      -0.949  -3.439  -2.488  0.00  0.00     0.009 C 
ENDBRANCH   7   8
ENDBRANCH   1   7
TORSDOF 2
ENDMDL
