MODEL 1
REMARK minimizedAffinity -6.54059076
REMARK minimizedRMSD -1
REMARK  2 active torsions:
REMARK  status: ('A' for Active; 'I' for Inactive)
REMARK    1  A    between atoms: C1_2  and  C2_3 
REMARK    2  A    between atoms: C2_3  and  C3_4 
ROOT
ATOM      1  C3  UNL d   1       0.326   1.234   0.217  0.00  0.00    -0.075 A 
ATOM      2  C4  UNL d   1       1.726   1.202   0.136  0.00  0.00     0.002 A 
ATOM      3  C5  UNL d   1       2.460   2.387   0.083  0.00  0.00     0.002 A 
ATOM      4  C6  UNL d   1       1.805   3.617   0.098  0.00  0.00    -0.004 A 
ATOM      5  C7  UNL d   1       0.414   3.661   0.162  0.00  0.00     0.002 A 
ATOM      6  C8  UNL d   1      -0.323   2.476   0.220  0.00  0.00     0.002 A 
ENDROOT
BRANCH   1   7
ATOM      7  C2  UNL d   1      -0.472  -0.044   0.306  0.00  0.00     0.056 C 
BRANCH   7   8
ATOM      8  C1  UNL d   1       0.351  -1.313   0.059  0.00  0.00     0.007 C 
ATOM      9  C   UNL d   1      -0.380  -2.349  -0.783  0.00  0.00     0.009 C 
ENDBRANCH   7   8
ENDBRANCH   1   7
TORSDOF 2
ENDMDL
