MODEL 1
REMARK minimizedAffinity -5.45859051
REMARK minimizedRMSD -1
REMARK  2 active torsions:
REMARK  status: ('A' for Active; 'I' for Inactive)
REMARK    1  A    between atoms: C1_2  and  C2_3 
REMARK    2  A    between atoms: C2_3  and  C3_4 
ROOT
ATOM      1  C3  UNL d   1       0.156   0.677  -0.038  0.00  0.00    -0.075 A 
ATOM      2  C4  UNL d   1       1.558   0.664  -0.028  0.00  0.00     0.002 A 
ATOM      3  C5  UNL d   1       2.276   1.844   0.169  0.00  0.00     0.002 A 
ATOM      4  C6  UNL d   1       1.603   3.051   0.348  0.00  0.00    -0.004 A 
ATOM      5  C7  UNL d   1       0.210   3.078   0.323  0.00  0.00     0.002 A 
ATOM      6  C8  UNL d   1      -0.510   1.898   0.131  0.00  0.00     0.002 A 
ENDROOT
BRANCH   1   7
ATOM      7  C2  UNL d   1      -0.627  -0.601  -0.221  0.00  0.00     0.056 C 
BRANCH   7   8
ATOM      8  C1  UNL d   1       0.245  -1.857  -0.322  0.00  0.00     0.007 C 
ATOM      9  C   UNL d   1      -0.225  -2.829  -1.396  0.00  0.00     0.009 C 
ENDBRANCH   7   8
ENDBRANCH   1   7
TORSDOF 2
ENDMDL
