MODEL 1
REMARK minimizedAffinity -5.44104433
REMARK minimizedRMSD -1
REMARK  2 active torsions:
REMARK  status: ('A' for Active; 'I' for Inactive)
REMARK    1  A    between atoms: C1_2  and  C2_3 
REMARK    2  A    between atoms: C2_3  and  C3_4 
ROOT
ATOM      1  C3  UNL d   1       0.391   1.156  -0.381  0.00  0.00    -0.075 A 
ATOM      2  C4  UNL d   1       1.733   0.954  -0.027  0.00  0.00     0.002 A 
ATOM      3  C5  UNL d   1       2.602   2.038   0.103  0.00  0.00     0.002 A 
ATOM      4  C6  UNL d   1       2.145   3.333  -0.129  0.00  0.00    -0.004 A 
ATOM      5  C7  UNL d   1       0.818   3.544  -0.498  0.00  0.00     0.002 A 
ATOM      6  C8  UNL d   1      -0.055   2.462  -0.624  0.00  0.00     0.002 A 
ENDROOT
BRANCH   1   7
ATOM      7  C2  UNL d   1      -0.562  -0.010  -0.494  0.00  0.00     0.056 C 
BRANCH   7   8
ATOM      8  C1  UNL d   1      -0.022  -1.316   0.099  0.00  0.00     0.007 C 
ATOM      9  C   UNL d   1      -0.421  -2.548  -0.702  0.00  0.00     0.009 C 
ENDBRANCH   7   8
ENDBRANCH   1   7
TORSDOF 2
ENDMDL
