MODEL 1
REMARK minimizedAffinity -4.86698198
REMARK minimizedRMSD -1
REMARK  2 active torsions:
REMARK  status: ('A' for Active; 'I' for Inactive)
REMARK    1  A    between atoms: C1_2  and  C2_3 
REMARK    2  A    between atoms: C2_3  and  C3_4 
ROOT
ATOM      1  C3  UNL d   1      -0.180   0.802  -0.121  0.00  0.00    -0.075 A 
ATOM      2  C4  UNL d   1       1.168   0.942  -0.482  0.00  0.00     0.002 A 
ATOM      3  C5  UNL d   1       1.768   2.201  -0.505  0.00  0.00     0.002 A 
ATOM      4  C6  UNL d   1       1.027   3.335  -0.180  0.00  0.00    -0.004 A 
ATOM      5  C7  UNL d   1      -0.317   3.210   0.164  0.00  0.00     0.002 A 
ATOM      6  C8  UNL d   1      -0.919   1.951   0.193  0.00  0.00     0.002 A 
ENDROOT
BRANCH   1   7
ATOM      7  C2  UNL d   1      -0.828  -0.561  -0.064  0.00  0.00     0.056 C 
BRANCH   7   8
ATOM      8  C1  UNL d   1       0.120  -1.716  -0.405  0.00  0.00     0.007 C 
ATOM      9  C   UNL d   1      -0.402  -2.611  -1.521  0.00  0.00     0.009 C 
ENDBRANCH   7   8
ENDBRANCH   1   7
TORSDOF 2
ENDMDL
