MODEL 1
REMARK minimizedAffinity 16.1229172
REMARK minimizedRMSD -1
REMARK  0 active torsions:
REMARK  status: ('A' for Active; 'I' for Inactive)
ROOT
ATOM      1  C   UNL d   1      -5.522  -2.069   6.000  0.00  0.00     0.077 C 
ATOM      2  C1  UNL d   1      -5.631  -0.782   5.237  0.00  0.00    -0.074 A 
ATOM      3  C2  UNL d   1      -5.671  -0.777   3.839  0.00  0.00    -0.005 A 
ATOM      4  C3  UNL d   1      -5.782   0.427   3.143  0.00  0.00     0.006 A 
ATOM      5  C4  UNL d   1      -5.854   1.636   3.837  0.00  0.00    -0.005 A 
ATOM      6  C5  UNL d   1      -5.817   1.650   5.235  0.00  0.00    -0.074 A 
ATOM      7  C6  UNL d   1      -5.903   2.939   5.996  0.00  0.00     0.077 C 
ATOM      8  C7  UNL d   1      -5.712   0.436   5.927  0.00  0.00    -0.001 A 
ENDROOT
TORSDOF 0
ENDMDL
