MODEL 1
REMARK minimizedAffinity 3.66530228
REMARK minimizedRMSD -1
REMARK  0 active torsions:
REMARK  status: ('A' for Active; 'I' for Inactive)
ROOT
ATOM      1  C   UNL d   1       5.531  -4.032  -6.000  0.00  0.00     0.077 C 
ATOM      2  C1  UNL d   1       4.752  -3.075  -5.147  0.00  0.00    -0.074 A 
ATOM      3  C2  UNL d   1       5.347  -2.442  -4.051  0.00  0.00    -0.005 A 
ATOM      4  C3  UNL d   1       4.613  -1.547  -3.273  0.00  0.00     0.006 A 
ATOM      5  C4  UNL d   1       3.279  -1.276  -3.582  0.00  0.00    -0.005 A 
ATOM      6  C5  UNL d   1       2.669  -1.899  -4.675  0.00  0.00    -0.074 A 
ATOM      7  C6  UNL d   1       1.239  -1.611  -5.028  0.00  0.00     0.077 C 
ATOM      8  C7  UNL d   1       3.415  -2.792  -5.457  0.00  0.00    -0.001 A 
ENDROOT
TORSDOF 0
ENDMDL
