MODEL 1
REMARK minimizedAffinity 2.00844836
REMARK minimizedRMSD -1
REMARK  0 active torsions:
REMARK  status: ('A' for Active; 'I' for Inactive)
ROOT
ATOM      1  C   UNL d   1      -3.485  -5.986  -1.149  0.00  0.00     0.077 C 
ATOM      2  C1  UNL d   1      -3.511  -5.984   0.351  0.00  0.00    -0.074 A 
ATOM      3  C2  UNL d   1      -4.723  -5.993   1.049  0.00  0.00    -0.005 A 
ATOM      4  C3  UNL d   1      -4.731  -6.000   2.444  0.00  0.00     0.006 A 
ATOM      5  C4  UNL d   1      -3.530  -5.998   3.153  0.00  0.00    -0.005 A 
ATOM      6  C5  UNL d   1      -2.308  -5.991   2.473  0.00  0.00    -0.074 A 
ATOM      7  C6  UNL d   1      -1.008  -5.999   3.220  0.00  0.00     0.077 C 
ATOM      8  C7  UNL d   1      -2.308  -5.990   1.071  0.00  0.00    -0.001 A 
ENDROOT
TORSDOF 0
ENDMDL
