MODEL 1
REMARK minimizedAffinity 5.15006781
REMARK minimizedRMSD -1
REMARK  0 active torsions:
REMARK  status: ('A' for Active; 'I' for Inactive)
ROOT
ATOM      1  C   UNL d   1       0.520  -5.833   2.250  0.00  0.00     0.077 C 
ATOM      2  C1  UNL d   1      -0.263  -4.556   2.323  0.00  0.00    -0.074 A 
ATOM      3  C2  UNL d   1       0.171  -3.492   3.121  0.00  0.00    -0.005 A 
ATOM      4  C3  UNL d   1      -0.563  -2.307   3.172  0.00  0.00     0.006 A 
ATOM      5  C4  UNL d   1      -1.735  -2.174   2.427  0.00  0.00    -0.005 A 
ATOM      6  C5  UNL d   1      -2.184  -3.226   1.623  0.00  0.00    -0.074 A 
ATOM      7  C6  UNL d   1      -3.436  -3.096   0.808  0.00  0.00     0.077 C 
ATOM      8  C7  UNL d   1      -1.437  -4.411   1.572  0.00  0.00    -0.001 A 
ENDROOT
TORSDOF 0
ENDMDL
