MODEL 1
REMARK minimizedAffinity 18.5142803
REMARK minimizedRMSD -1
REMARK  0 active torsions:
REMARK  status: ('A' for Active; 'I' for Inactive)
ROOT
ATOM      1  C   UNL d   1       3.127  -6.000   2.941  0.00  0.00     0.077 C 
ATOM      2  C1  UNL d   1       3.761  -4.698   2.550  0.00  0.00    -0.074 A 
ATOM      3  C2  UNL d   1       4.906  -4.232   3.203  0.00  0.00    -0.005 A 
ATOM      4  C3  UNL d   1       5.490  -3.023   2.821  0.00  0.00     0.006 A 
ATOM      5  C4  UNL d   1       4.935  -2.271   1.786  0.00  0.00    -0.005 A 
ATOM      6  C5  UNL d   1       3.790  -2.722   1.121  0.00  0.00    -0.074 A 
ATOM      7  C6  UNL d   1       3.186  -1.930  -0.000  0.00  0.00     0.077 C 
ATOM      8  C7  UNL d   1       3.213  -3.940   1.505  0.00  0.00    -0.001 A 
ENDROOT
TORSDOF 0
ENDMDL
