MODEL 1
REMARK minimizedAffinity 7.38285303
REMARK minimizedRMSD -1
REMARK  0 active torsions:
REMARK  status: ('A' for Active; 'I' for Inactive)
ROOT
ATOM      1  C   UNL d   1      -4.836  -0.738   5.174  0.00  0.00     0.077 C 
ATOM      2  C1  UNL d   1      -4.846  -1.264   3.770  0.00  0.00    -0.074 A 
ATOM      3  C2  UNL d   1      -6.000  -1.189   2.983  0.00  0.00    -0.005 A 
ATOM      4  C3  UNL d   1      -5.991  -1.674   1.675  0.00  0.00     0.006 A 
ATOM      5  C4  UNL d   1      -4.832  -2.239   1.142  0.00  0.00    -0.005 A 
ATOM      6  C5  UNL d   1      -3.669  -2.322   1.914  0.00  0.00    -0.074 A 
ATOM      7  C6  UNL d   1      -2.411  -2.916   1.354  0.00  0.00     0.077 C 
ATOM      8  C7  UNL d   1      -3.683  -1.826   3.225  0.00  0.00    -0.001 A 
ENDROOT
TORSDOF 0
ENDMDL
