MODEL 1
REMARK minimizedAffinity 10.5860214
REMARK minimizedRMSD -1
REMARK  0 active torsions:
REMARK  status: ('A' for Active; 'I' for Inactive)
ROOT
ATOM      1  C   UNL d   1      -0.014  -5.928  -0.805  0.00  0.00     0.077 C 
ATOM      2  C1  UNL d   1      -0.906  -5.946   0.400  0.00  0.00    -0.074 A 
ATOM      3  C2  UNL d   1      -2.298  -5.969   0.263  0.00  0.00    -0.005 A 
ATOM      4  C3  UNL d   1      -3.115  -5.996   1.394  0.00  0.00     0.006 A 
ATOM      5  C4  UNL d   1      -2.550  -6.000   2.669  0.00  0.00    -0.005 A 
ATOM      6  C5  UNL d   1      -1.161  -5.978   2.825  0.00  0.00    -0.074 A 
ATOM      7  C6  UNL d   1      -0.537  -5.992   4.189  0.00  0.00     0.077 C 
ATOM      8  C7  UNL d   1      -0.346  -5.959   1.685  0.00  0.00    -0.001 A 
ENDROOT
TORSDOF 0
ENDMDL
