MODEL 1
REMARK minimizedAffinity 3.52565193
REMARK minimizedRMSD -1
REMARK  0 active torsions:
REMARK  status: ('A' for Active; 'I' for Inactive)
ROOT
ATOM      1  C   UNL d   1       5.995  -4.147   6.000  0.00  0.00     0.077 C 
ATOM      2  C1  UNL d   1       5.663  -3.121   4.958  0.00  0.00    -0.074 A 
ATOM      3  C2  UNL d   1       6.000  -1.776   5.142  0.00  0.00    -0.005 A 
ATOM      4  C3  UNL d   1       5.694  -0.834   4.159  0.00  0.00     0.006 A 
ATOM      5  C4  UNL d   1       5.049  -1.227   2.986  0.00  0.00    -0.005 A 
ATOM      6  C5  UNL d   1       4.705  -2.567   2.784  0.00  0.00    -0.074 A 
ATOM      7  C6  UNL d   1       4.021  -3.008   1.525  0.00  0.00     0.077 C 
ATOM      8  C7  UNL d   1       5.023  -3.509   3.773  0.00  0.00    -0.001 A 
ENDROOT
TORSDOF 0
ENDMDL
