MODEL 1
REMARK minimizedAffinity 7.70516205
REMARK minimizedRMSD -1
REMARK  0 active torsions:
REMARK  status: ('A' for Active; 'I' for Inactive)
ROOT
ATOM      1  C   UNL d   1       2.849   1.605  -1.029  0.00  0.00     0.077 C 
ATOM      2  C1  UNL d   1       3.495   0.965  -2.222  0.00  0.00    -0.074 A 
ATOM      3  C2  UNL d   1       4.334  -0.144  -2.077  0.00  0.00    -0.005 A 
ATOM      4  C3  UNL d   1       4.920  -0.734  -3.197  0.00  0.00     0.006 A 
ATOM      5  C4  UNL d   1       4.674  -0.221  -4.471  0.00  0.00    -0.005 A 
ATOM      6  C5  UNL d   1       3.837   0.887  -4.636  0.00  0.00    -0.074 A 
ATOM      7  C6  UNL d   1       3.554   1.445  -5.999  0.00  0.00     0.077 C 
ATOM      8  C7  UNL d   1       3.246   1.470  -3.506  0.00  0.00    -0.001 A 
ENDROOT
TORSDOF 0
ENDMDL
