MODEL 1
REMARK minimizedAffinity 3.74161029
REMARK minimizedRMSD -1
REMARK  0 active torsions:
REMARK  status: ('A' for Active; 'I' for Inactive)
ROOT
ATOM      1  C   UNL d   1       0.545   0.585  -0.050  0.00  0.00     0.077 C 
ATOM      2  C1  UNL d   1      -0.503  -0.236  -0.742  0.00  0.00    -0.074 A 
ATOM      3  C2  UNL d   1      -1.191   0.264  -1.852  0.00  0.00    -0.005 A 
ATOM      4  C3  UNL d   1      -2.156  -0.515  -2.491  0.00  0.00     0.006 A 
ATOM      5  C4  UNL d   1      -2.442  -1.799  -2.027  0.00  0.00    -0.005 A 
ATOM      6  C5  UNL d   1      -1.763  -2.316  -0.919  0.00  0.00    -0.074 A 
ATOM      7  C6  UNL d   1      -2.052  -3.698  -0.413  0.00  0.00     0.077 C 
ATOM      8  C7  UNL d   1      -0.790  -1.530  -0.286  0.00  0.00    -0.001 A 
ENDROOT
TORSDOF 0
ENDMDL
