MODEL 1
REMARK minimizedAffinity 2.09473443
REMARK minimizedRMSD -1
REMARK  0 active torsions:
REMARK  status: ('A' for Active; 'I' for Inactive)
ROOT
ATOM      1  C   UNL d   1       1.252   0.949  -0.400  0.00  0.00     0.077 C 
ATOM      2  C1  UNL d   1       0.349   0.119   0.463  0.00  0.00    -0.074 A 
ATOM      3  C2  UNL d   1       0.042   0.512   1.769  0.00  0.00    -0.005 A 
ATOM      4  C3  UNL d   1      -0.807  -0.265   2.557  0.00  0.00     0.006 A 
ATOM      5  C4  UNL d   1      -1.356  -1.442   2.047  0.00  0.00    -0.005 A 
ATOM      6  C5  UNL d   1      -1.061  -1.851   0.743  0.00  0.00    -0.074 A 
ATOM      7  C6  UNL d   1      -1.651  -3.109   0.176  0.00  0.00     0.077 C 
ATOM      8  C7  UNL d   1      -0.213  -1.061  -0.045  0.00  0.00    -0.001 A 
ENDROOT
TORSDOF 0
ENDMDL
