MODEL 1
REMARK minimizedAffinity 14.4325237
REMARK minimizedRMSD -1
REMARK  0 active torsions:
REMARK  status: ('A' for Active; 'I' for Inactive)
ROOT
ATOM      1  C   UNL d   1       2.355  -5.985   5.456  0.00  0.00     0.077 C 
ATOM      2  C1  UNL d   1       1.433  -5.385   4.436  0.00  0.00    -0.074 A 
ATOM      3  C2  UNL d   1       1.831  -4.291   3.662  0.00  0.00    -0.005 A 
ATOM      4  C3  UNL d   1       0.966  -3.750   2.711  0.00  0.00     0.006 A 
ATOM      5  C4  UNL d   1      -0.304  -4.297   2.524  0.00  0.00    -0.005 A 
ATOM      6  C5  UNL d   1      -0.719  -5.393   3.288  0.00  0.00    -0.074 A 
ATOM      7  C6  UNL d   1      -2.077  -5.999   3.093  0.00  0.00     0.077 C 
ATOM      8  C7  UNL d   1       0.158  -5.935   4.237  0.00  0.00    -0.001 A 
ENDROOT
TORSDOF 0
ENDMDL
