MODEL 1
REMARK minimizedAffinity 13.7163763
REMARK minimizedRMSD -1
REMARK  0 active torsions:
REMARK  status: ('A' for Active; 'I' for Inactive)
ROOT
ATOM      1  C   UNL d   1      -2.737  -3.885  -0.407  0.00  0.00     0.077 C 
ATOM      2  C1  UNL d   1      -2.988  -3.068   0.826  0.00  0.00    -0.074 A 
ATOM      3  C2  UNL d   1      -1.948  -2.764   1.710  0.00  0.00    -0.005 A 
ATOM      4  C3  UNL d   1      -2.195  -1.995   2.848  0.00  0.00     0.006 A 
ATOM      5  C4  UNL d   1      -3.481  -1.523   3.112  0.00  0.00    -0.005 A 
ATOM      6  C5  UNL d   1      -4.533  -1.817   2.238  0.00  0.00    -0.074 A 
ATOM      7  C6  UNL d   1      -5.920  -1.310   2.502  0.00  0.00     0.077 C 
ATOM      8  C7  UNL d   1      -4.276  -2.584   1.094  0.00  0.00    -0.001 A 
ENDROOT
TORSDOF 0
ENDMDL
