MODEL 1
REMARK minimizedAffinity 0.47928369
REMARK minimizedRMSD -1
REMARK  0 active torsions:
REMARK  status: ('A' for Active; 'I' for Inactive)
ROOT
ATOM      1  C   UNL d   1       1.645  -1.100   1.180  0.00  0.00     0.124 A 
ATOM      2  C1  UNL d   1       0.657  -1.865   1.785  0.00  0.00     0.062 A 
ATOM      3  C2  UNL d   1       0.999  -2.851   2.705  0.00  0.00     0.162 A 
ATOM      4  C3  UNL d   1       2.337  -3.078   3.027  0.00  0.00    -0.034 A 
ATOM      5  C4  UNL d   1       3.326  -2.306   2.414  0.00  0.00     0.162 A 
ATOM      6  C5  UNL d   1       2.978  -1.322   1.495  0.00  0.00     0.062 A 
ATOM      7  F   UNL d   1       3.934  -0.584   0.912  0.00  0.00    -0.097 F 
ATOM      8  F1  UNL d   1       4.622  -2.498   2.701  0.00  0.00    -0.096 F 
ATOM      9  I   UNL d   1       2.854  -4.552   4.403  0.00  0.00    -0.060 I 
ATOM     10  F2  UNL d   1       0.023  -3.574   3.274  0.00  0.00    -0.096 F 
ATOM     11  F3  UNL d   1      -0.632  -1.653   1.481  0.00  0.00    -0.097 F 
ATOM     12  F4  UNL d   1       1.312  -0.153   0.294  0.00  0.00    -0.092 F 
ENDROOT
TORSDOF 0
ENDMDL
