MODEL 1
REMARK minimizedAffinity 15.5954103
REMARK minimizedRMSD -1
REMARK  0 active torsions:
REMARK  status: ('A' for Active; 'I' for Inactive)
ROOT
ATOM      1  C   UNL d   1       1.441  -2.911   1.961  0.00  0.00     0.124 A 
ATOM      2  C1  UNL d   1       2.740  -2.459   1.777  0.00  0.00     0.062 A 
ATOM      3  C2  UNL d   1       2.973  -1.168   1.311  0.00  0.00     0.162 A 
ATOM      4  C3  UNL d   1       1.904  -0.319   1.025  0.00  0.00    -0.034 A 
ATOM      5  C4  UNL d   1       0.600  -0.781   1.211  0.00  0.00     0.162 A 
ATOM      6  C5  UNL d   1       0.372  -2.072   1.678  0.00  0.00     0.062 A 
ATOM      7  F   UNL d   1      -0.884  -2.506   1.855  0.00  0.00    -0.097 F 
ATOM      8  F1  UNL d   1      -0.451   0.009   0.947  0.00  0.00    -0.096 F 
ATOM      9  I   UNL d   1       2.249   1.611   0.327  0.00  0.00    -0.060 I 
ATOM     10  F2  UNL d   1       4.239  -0.759   1.142  0.00  0.00    -0.096 F 
ATOM     11  F3  UNL d   1       3.774  -3.268   2.049  0.00  0.00    -0.097 F 
ATOM     12  F4  UNL d   1       1.219  -4.153   2.409  0.00  0.00    -0.092 F 
ENDROOT
TORSDOF 0
ENDMDL
