MODEL 1
REMARK minimizedAffinity 5.69824743
REMARK minimizedRMSD -1
REMARK  0 active torsions:
REMARK  status: ('A' for Active; 'I' for Inactive)
ROOT
ATOM      1  C   UNL d   1       0.239  -3.400   2.254  0.00  0.00     0.124 A 
ATOM      2  C1  UNL d   1      -0.339  -2.400   1.485  0.00  0.00     0.062 A 
ATOM      3  C2  UNL d   1       0.418  -1.305   1.077  0.00  0.00     0.162 A 
ATOM      4  C3  UNL d   1       1.761  -1.204   1.438  0.00  0.00    -0.034 A 
ATOM      5  C4  UNL d   1       2.335  -2.214   2.213  0.00  0.00     0.162 A 
ATOM      6  C5  UNL d   1       1.575  -3.306   2.618  0.00  0.00     0.062 A 
ATOM      7  F   UNL d   1       2.135  -4.271   3.361  0.00  0.00    -0.097 F 
ATOM      8  F1  UNL d   1       3.624  -2.149   2.577  0.00  0.00    -0.096 F 
ATOM      9  I   UNL d   1       2.896   0.431   0.830  0.00  0.00    -0.060 I 
ATOM     10  F2  UNL d   1      -0.167  -0.354   0.334  0.00  0.00    -0.096 F 
ATOM     11  F3  UNL d   1      -1.630  -2.488   1.133  0.00  0.00    -0.097 F 
ATOM     12  F4  UNL d   1      -0.491  -4.452   2.646  0.00  0.00    -0.092 F 
ENDROOT
TORSDOF 0
ENDMDL
