MODEL 1
REMARK minimizedAffinity 7.10044003
REMARK minimizedRMSD -1
REMARK  0 active torsions:
REMARK  status: ('A' for Active; 'I' for Inactive)
ROOT
ATOM      1  C   UNL d   1       1.516  -2.273   2.146  0.00  0.00     0.124 A 
ATOM      2  C1  UNL d   1       2.803  -1.775   1.995  0.00  0.00     0.062 A 
ATOM      3  C2  UNL d   1       3.004  -0.506   1.459  0.00  0.00     0.162 A 
ATOM      4  C3  UNL d   1       1.915   0.274   1.070  0.00  0.00    -0.034 A 
ATOM      5  C4  UNL d   1       0.624  -0.235   1.224  0.00  0.00     0.162 A 
ATOM      6  C5  UNL d   1       0.429  -1.503   1.760  0.00  0.00     0.062 A 
ATOM      7  F   UNL d   1      -0.815  -1.983   1.904  0.00  0.00    -0.097 F 
ATOM      8  F1  UNL d   1      -0.445   0.489   0.860  0.00  0.00    -0.096 F 
ATOM      9  I   UNL d   1       2.212   2.172   0.268  0.00  0.00    -0.060 I 
ATOM     10  F2  UNL d   1       4.258  -0.050   1.326  0.00  0.00    -0.096 F 
ATOM     11  F3  UNL d   1       3.856  -2.518   2.367  0.00  0.00    -0.097 F 
ATOM     12  F4  UNL d   1       1.326  -3.495   2.661  0.00  0.00    -0.092 F 
ENDROOT
TORSDOF 0
ENDMDL
