MODEL 1
REMARK minimizedAffinity 3.86274004
REMARK minimizedRMSD -1
REMARK  0 active torsions:
REMARK  status: ('A' for Active; 'I' for Inactive)
ROOT
ATOM      1  C   UNL d   1       2.269  -1.066   1.204  0.00  0.00     0.124 A 
ATOM      2  C1  UNL d   1       2.053   0.274   0.915  0.00  0.00     0.062 A 
ATOM      3  C2  UNL d   1       0.756   0.770   0.817  0.00  0.00     0.162 A 
ATOM      4  C3  UNL d   1      -0.337  -0.076   1.010  0.00  0.00    -0.034 A 
ATOM      5  C4  UNL d   1      -0.112  -1.423   1.300  0.00  0.00     0.162 A 
ATOM      6  C5  UNL d   1       1.187  -1.913   1.396  0.00  0.00     0.062 A 
ATOM      7  F   UNL d   1       1.393  -3.208   1.675  0.00  0.00    -0.097 F 
ATOM      8  F1  UNL d   1      -1.139  -2.264   1.491  0.00  0.00    -0.096 F 
ATOM      9  I   UNL d   1      -2.278   0.660   0.865  0.00  0.00    -0.060 I 
ATOM     10  F2  UNL d   1       0.577   2.069   0.537  0.00  0.00    -0.096 F 
ATOM     11  F3  UNL d   1       3.097   1.095   0.728  0.00  0.00    -0.097 F 
ATOM     12  F4  UNL d   1       3.518  -1.540   1.296  0.00  0.00    -0.092 F 
ENDROOT
TORSDOF 0
ENDMDL
