MODEL 1
REMARK minimizedAffinity 18.9406261
REMARK minimizedRMSD -1
REMARK  0 active torsions:
REMARK  status: ('A' for Active; 'I' for Inactive)
ROOT
ATOM      1  C   UNL d   1       2.649   0.930   1.355  0.00  0.00     0.124 A 
ATOM      2  C1  UNL d   1       3.122   1.327   0.112  0.00  0.00     0.062 A 
ATOM      3  C2  UNL d   1       2.670   2.511  -0.464  0.00  0.00     0.162 A 
ATOM      4  C3  UNL d   1       1.741   3.309   0.204  0.00  0.00    -0.034 A 
ATOM      5  C4  UNL d   1       1.269   2.902   1.453  0.00  0.00     0.162 A 
ATOM      6  C5  UNL d   1       1.723   1.718   2.024  0.00  0.00     0.062 A 
ATOM      7  F   UNL d   1       1.265   1.336   3.225  0.00  0.00    -0.097 F 
ATOM      8  F1  UNL d   1       0.374   3.645   2.123  0.00  0.00    -0.096 F 
ATOM      9  I   UNL d   1       1.063   5.080  -0.653  0.00  0.00    -0.060 I 
ATOM     10  F2  UNL d   1       3.145   2.870  -1.666  0.00  0.00    -0.096 F 
ATOM     11  F3  UNL d   1       4.016   0.568  -0.538  0.00  0.00    -0.097 F 
ATOM     12  F4  UNL d   1       3.084  -0.210   1.906  0.00  0.00    -0.092 F 
ENDROOT
TORSDOF 0
ENDMDL
