MODEL 1
REMARK minimizedAffinity 6.37287855
REMARK minimizedRMSD -1
REMARK  0 active torsions:
REMARK  status: ('A' for Active; 'I' for Inactive)
ROOT
ATOM      1  C   UNL d   1      -0.685  -2.556   0.458  0.00  0.00     0.124 A 
ATOM      2  C1  UNL d   1       0.608  -2.370   0.927  0.00  0.00     0.062 A 
ATOM      3  C2  UNL d   1       1.653  -2.161   0.032  0.00  0.00     0.162 A 
ATOM      4  C3  UNL d   1       1.410  -2.137  -1.341  0.00  0.00    -0.034 A 
ATOM      5  C4  UNL d   1       0.107  -2.326  -1.805  0.00  0.00     0.162 A 
ATOM      6  C5  UNL d   1      -0.935  -2.534  -0.907  0.00  0.00     0.062 A 
ATOM      7  F   UNL d   1      -2.183  -2.713  -1.362  0.00  0.00    -0.097 F 
ATOM      8  F1  UNL d   1      -0.162  -2.308  -3.119  0.00  0.00    -0.096 F 
ATOM      9  I   UNL d   1       2.971  -1.826  -2.683  0.00  0.00    -0.060 I 
ATOM     10  F2  UNL d   1       2.893  -1.984   0.513  0.00  0.00    -0.096 F 
ATOM     11  F3  UNL d   1       0.851  -2.392   2.245  0.00  0.00    -0.097 F 
ATOM     12  F4  UNL d   1      -1.689  -2.757   1.321  0.00  0.00    -0.092 F 
ENDROOT
TORSDOF 0
ENDMDL
