MODEL 1
REMARK minimizedAffinity 4.74431849
REMARK minimizedRMSD -1
REMARK  0 active torsions:
REMARK  status: ('A' for Active; 'I' for Inactive)
ROOT
ATOM      1  C   UNL d   1       1.907   0.505   2.625  0.00  0.00     0.124 A 
ATOM      2  C1  UNL d   1       2.187  -0.828   2.358  0.00  0.00     0.062 A 
ATOM      3  C2  UNL d   1       1.628  -1.451   1.246  0.00  0.00     0.162 A 
ATOM      4  C3  UNL d   1       0.785  -0.741   0.391  0.00  0.00    -0.034 A 
ATOM      5  C4  UNL d   1       0.507   0.599   0.666  0.00  0.00     0.162 A 
ATOM      6  C5  UNL d   1       1.068   1.217   1.779  0.00  0.00     0.062 A 
ATOM      7  F   UNL d   1       0.796   2.505   2.036  0.00  0.00    -0.097 F 
ATOM      8  F1  UNL d   1      -0.299   1.311  -0.135  0.00  0.00    -0.096 F 
ATOM      9  I   UNL d   1      -0.052  -1.669  -1.274  0.00  0.00    -0.060 I 
ATOM     10  F2  UNL d   1       1.916  -2.740   1.012  0.00  0.00    -0.096 F 
ATOM     11  F3  UNL d   1       2.996  -1.518   3.174  0.00  0.00    -0.097 F 
ATOM     12  F4  UNL d   1       2.445   1.102   3.696  0.00  0.00    -0.092 F 
ENDROOT
TORSDOF 0
ENDMDL
