MODEL 1
REMARK minimizedAffinity 9.16134739
REMARK minimizedRMSD -1
REMARK  0 active torsions:
REMARK  status: ('A' for Active; 'I' for Inactive)
ROOT
ATOM      1  C   UNL d   1       1.949  -2.515   3.124  0.00  0.00     0.124 A 
ATOM      2  C1  UNL d   1       2.573  -1.968   2.011  0.00  0.00     0.062 A 
ATOM      3  C2  UNL d   1       1.821  -1.596   0.900  0.00  0.00     0.162 A 
ATOM      4  C3  UNL d   1       0.437  -1.768   0.897  0.00  0.00    -0.034 A 
ATOM      5  C4  UNL d   1      -0.183  -2.319   2.019  0.00  0.00     0.162 A 
ATOM      6  C5  UNL d   1       0.572  -2.690   3.127  0.00  0.00     0.062 A 
ATOM      7  F   UNL d   1      -0.032  -3.218   4.202  0.00  0.00    -0.097 F 
ATOM      8  F1  UNL d   1      -1.512  -2.499   2.050  0.00  0.00    -0.096 F 
ATOM      9  I   UNL d   1      -0.690  -1.213  -0.763  0.00  0.00    -0.060 I 
ATOM     10  F2  UNL d   1       2.451  -1.070  -0.162  0.00  0.00    -0.096 F 
ATOM     11  F3  UNL d   1       3.903  -1.799   2.005  0.00  0.00    -0.097 F 
ATOM     12  F4  UNL d   1       2.674  -2.873   4.191  0.00  0.00    -0.092 F 
ENDROOT
TORSDOF 0
ENDMDL
