MODEL 1
REMARK minimizedAffinity 10.2828598
REMARK minimizedRMSD -1
REMARK  0 active torsions:
REMARK  status: ('A' for Active; 'I' for Inactive)
ROOT
ATOM      1  C   UNL d   1      -0.278  -0.463   1.554  0.00  0.00     0.124 A 
ATOM      2  C1  UNL d   1       0.723   0.498   1.588  0.00  0.00     0.062 A 
ATOM      3  C2  UNL d   1       2.061   0.114   1.596  0.00  0.00     0.162 A 
ATOM      4  C3  UNL d   1       2.406  -1.237   1.569  0.00  0.00    -0.034 A 
ATOM      5  C4  UNL d   1       1.393  -2.197   1.535  0.00  0.00     0.162 A 
ATOM      6  C5  UNL d   1       0.058  -1.809   1.527  0.00  0.00     0.062 A 
ATOM      7  F   UNL d   1      -0.908  -2.738   1.494  0.00  0.00    -0.097 F 
ATOM      8  F1  UNL d   1       1.690  -3.505   1.508  0.00  0.00    -0.096 F 
ATOM      9  I   UNL d   1       4.405  -1.815   1.581  0.00  0.00    -0.060 I 
ATOM     10  F2  UNL d   1       3.008   1.064   1.629  0.00  0.00    -0.096 F 
ATOM     11  F3  UNL d   1       0.402   1.799   1.615  0.00  0.00    -0.097 F 
ATOM     12  F4  UNL d   1      -1.565  -0.091   1.547  0.00  0.00    -0.092 F 
ENDROOT
TORSDOF 0
ENDMDL
