MODEL 1
REMARK minimizedAffinity -2.69702792
REMARK minimizedRMSD -1
REMARK  0 active torsions:
REMARK  status: ('A' for Active; 'I' for Inactive)
ROOT
ATOM      1  C1  BNZ d   1      -0.498  -1.082   0.621  0.00  0.00     0.000 A 
ATOM      2  C2  BNZ d   1       0.461  -1.924   1.118  0.00  0.00     0.000 A 
ATOM      3  C3  BNZ d   1       1.525  -2.305   0.349  0.00  0.00     0.000 A 
ATOM      4  C4  BNZ d   1       1.609  -1.875  -0.926  0.00  0.00     0.000 A 
ATOM      5  C5  BNZ d   1       0.645  -1.033  -1.445  0.00  0.00     0.000 A 
ATOM      6  C6  BNZ d   1      -0.404  -0.621  -0.656  0.00  0.00     0.000 A 
ENDROOT
TORSDOF 0
ENDMDL
