MODEL 1
REMARK minimizedAffinity -5.13358021
REMARK minimizedRMSD -1
REMARK  0 active torsions:
REMARK  status: ('A' for Active; 'I' for Inactive)
ROOT
ATOM      1  C1  BNZ d   1       1.783   0.799   0.784  0.00  0.00     0.000 A 
ATOM      2  C2  BNZ d   1       3.054   0.288   0.804  0.00  0.00     0.000 A 
ATOM      3  C3  BNZ d   1       3.300  -0.993   0.397  0.00  0.00     0.000 A 
ATOM      4  C4  BNZ d   1       2.271  -1.775   0.010  0.00  0.00     0.000 A 
ATOM      5  C5  BNZ d   1       0.983  -1.278  -0.006  0.00  0.00     0.000 A 
ATOM      6  C6  BNZ d   1       0.745   0.025   0.367  0.00  0.00     0.000 A 
ENDROOT
TORSDOF 0
ENDMDL
