MODEL 1
REMARK minimizedAffinity -1.59984803
REMARK minimizedRMSD -1
REMARK  0 active torsions:
REMARK  status: ('A' for Active; 'I' for Inactive)
ROOT
ATOM      1  C1  BNZ d   1       1.032  -1.167  -0.055  0.00  0.00     0.000 A 
ATOM      2  C2  BNZ d   1       0.556  -0.021   0.525  0.00  0.00     0.000 A 
ATOM      3  C3  BNZ d   1      -0.587   0.572   0.068  0.00  0.00     0.000 A 
ATOM      4  C4  BNZ d   1      -1.230   0.044  -0.994  0.00  0.00     0.000 A 
ATOM      5  C5  BNZ d   1      -0.757  -1.105  -1.596  0.00  0.00     0.000 A 
ATOM      6  C6  BNZ d   1       0.372  -1.722  -1.108  0.00  0.00     0.000 A 
ENDROOT
TORSDOF 0
ENDMDL
