MODEL 1
REMARK minimizedAffinity -3.18020272
REMARK minimizedRMSD -1
REMARK  0 active torsions:
REMARK  status: ('A' for Active; 'I' for Inactive)
ROOT
ATOM      1  C1  BNZ d   1      -0.533   2.048  -0.537  0.00  0.00     0.000 A 
ATOM      2  C2  BNZ d   1       0.668   1.990   0.119  0.00  0.00     0.000 A 
ATOM      3  C3  BNZ d   1       1.052   0.857   0.780  0.00  0.00     0.000 A 
ATOM      4  C4  BNZ d   1       0.218  -0.202   0.818  0.00  0.00     0.000 A 
ATOM      5  C5  BNZ d   1      -1.000  -0.157   0.169  0.00  0.00     0.000 A 
ATOM      6  C6  BNZ d   1      -1.366   0.972  -0.527  0.00  0.00     0.000 A 
ENDROOT
TORSDOF 0
ENDMDL
