MODEL 1
REMARK minimizedAffinity -4.56415319
REMARK minimizedRMSD -1
REMARK  0 active torsions:
REMARK  status: ('A' for Active; 'I' for Inactive)
ROOT
ATOM      1  C1  BNZ d   1       0.488   0.092  -0.096  0.00  0.00     0.000 A 
ATOM      2  C2  BNZ d   1       0.836  -1.222  -0.258  0.00  0.00     0.000 A 
ATOM      3  C3  BNZ d   1       2.099  -1.653   0.038  0.00  0.00     0.000 A 
ATOM      4  C4  BNZ d   1       3.022  -0.764   0.457  0.00  0.00     0.000 A 
ATOM      5  C5  BNZ d   1       2.689   0.566   0.616  0.00  0.00     0.000 A 
ATOM      6  C6  BNZ d   1       1.406   0.990   0.354  0.00  0.00     0.000 A 
ENDROOT
TORSDOF 0
ENDMDL
