MODEL 1
REMARK minimizedAffinity -5.24267435
REMARK minimizedRMSD -1
REMARK  0 active torsions:
REMARK  status: ('A' for Active; 'I' for Inactive)
ROOT
ATOM      1  C1  BNZ d   1       1.057  -0.750  -0.255  0.00  0.00     0.000 A 
ATOM      2  C2  BNZ d   1       2.251  -1.125   0.300  0.00  0.00     0.000 A 
ATOM      3  C3  BNZ d   1       3.142  -0.188   0.744  0.00  0.00     0.000 A 
ATOM      4  C4  BNZ d   1       2.855   1.121   0.596  0.00  0.00     0.000 A 
ATOM      5  C5  BNZ d   1       1.659   1.516   0.030  0.00  0.00     0.000 A 
ATOM      6  C6  BNZ d   1       0.748   0.569  -0.380  0.00  0.00     0.000 A 
ENDROOT
TORSDOF 0
ENDMDL
