MODEL 1
REMARK minimizedAffinity -4.49781466
REMARK minimizedRMSD -1
REMARK  0 active torsions:
REMARK  status: ('A' for Active; 'I' for Inactive)
ROOT
ATOM      1  C1  BNZ d   1       2.544   0.576   0.544  0.00  0.00     0.000 A 
ATOM      2  C2  BNZ d   1       1.285   1.001   0.216  0.00  0.00     0.000 A 
ATOM      3  C3  BNZ d   1       0.333   0.113  -0.202  0.00  0.00     0.000 A 
ATOM      4  C4  BNZ d   1       0.654  -1.191  -0.330  0.00  0.00     0.000 A 
ATOM      5  C5  BNZ d   1       1.922  -1.633  -0.012  0.00  0.00     0.000 A 
ATOM      6  C6  BNZ d   1       2.866  -0.742   0.446  0.00  0.00     0.000 A 
ENDROOT
TORSDOF 0
ENDMDL
