MODEL 1
REMARK minimizedAffinity -3.75180268
REMARK minimizedRMSD -1
REMARK  0 active torsions:
REMARK  status: ('A' for Active; 'I' for Inactive)
ROOT
ATOM      1  C1  BNZ d   1       2.232  -1.116  -0.204  0.00  0.00     0.000 A 
ATOM      2  C2  BNZ d   1       1.735   0.152  -0.059  0.00  0.00     0.000 A 
ATOM      3  C3  BNZ d   1       0.401   0.403  -0.221  0.00  0.00     0.000 A 
ATOM      4  C4  BNZ d   1      -0.426  -0.604  -0.567  0.00  0.00     0.000 A 
ATOM      5  C5  BNZ d   1       0.062  -1.886  -0.726  0.00  0.00     0.000 A 
ATOM      6  C6  BNZ d   1       1.398  -2.143  -0.524  0.00  0.00     0.000 A 
ENDROOT
TORSDOF 0
ENDMDL
