MODEL 1
REMARK minimizedAffinity 0.640082657
REMARK minimizedRMSD -1
REMARK  0 active torsions:
REMARK  status: ('A' for Active; 'I' for Inactive)
ROOT
ATOM      1  C1  BNZ d   1       3.410  -1.219  -0.849  0.00  0.00     0.000 A 
ATOM      2  C2  BNZ d   1       3.847   0.079  -0.845  0.00  0.00     0.000 A 
ATOM      3  C3  BNZ d   1       3.017   1.096  -0.465  0.00  0.00     0.000 A 
ATOM      4  C4  BNZ d   1       1.740   0.819  -0.129  0.00  0.00     0.000 A 
ATOM      5  C5  BNZ d   1       1.282  -0.483  -0.137  0.00  0.00     0.000 A 
ATOM      6  C6  BNZ d   1       2.132  -1.509  -0.482  0.00  0.00     0.000 A 
ENDROOT
TORSDOF 0
ENDMDL
