MODEL 1
REMARK minimizedAffinity 13.799901
REMARK minimizedRMSD -1
REMARK  0 active torsions:
REMARK  status: ('A' for Active; 'I' for Inactive)
ROOT
ATOM      1  C   UNL d   1      -1.265   3.731  -3.122  0.00  0.00     0.172 C 
ATOM      2  N   UNL d   1      -0.648   3.302  -1.888  0.00  0.00    -0.070 N 
ATOM      3  C1  UNL d   1      -1.273   2.617  -0.880  0.00  0.00    -0.004 A 
ATOM      4  C2  UNL d   1      -0.347   2.396   0.117  0.00  0.00    -0.047 A 
ATOM      5  C3  UNL d   1       0.876   2.969  -0.307  0.00  0.00    -0.047 A 
ATOM      6  C4  UNL d   1       0.661   3.522  -1.552  0.00  0.00    -0.004 A 
ENDROOT
TORSDOF 0
ENDMDL
