MODEL 1
REMARK minimizedAffinity 10.1915751
REMARK minimizedRMSD -1
REMARK  0 active torsions:
REMARK  status: ('A' for Active; 'I' for Inactive)
ROOT
ATOM      1  C   UNL d   1       0.123  -3.140  -5.999  0.00  0.00     0.172 C 
ATOM      2  N   UNL d   1       1.432  -2.531  -5.999  0.00  0.00    -0.070 N 
ATOM      3  C1  UNL d   1       2.625  -3.202  -5.999  0.00  0.00    -0.004 A 
ATOM      4  C2  UNL d   1       3.636  -2.266  -6.000  0.00  0.00    -0.047 A 
ATOM      5  C3  UNL d   1       3.029  -0.987  -5.998  0.00  0.00    -0.047 A 
ATOM      6  C4  UNL d   1       1.664  -1.181  -5.998  0.00  0.00    -0.004 A 
ENDROOT
TORSDOF 0
ENDMDL
