MODEL 1
REMARK minimizedAffinity 11.933321
REMARK minimizedRMSD -1
REMARK  0 active torsions:
REMARK  status: ('A' for Active; 'I' for Inactive)
ROOT
ATOM      1  C   UNL d   1      -0.849   3.014  -3.422  0.00  0.00     0.172 C 
ATOM      2  N   UNL d   1      -2.291   3.053  -3.481  0.00  0.00    -0.070 N 
ATOM      3  C1  UNL d   1      -3.105   2.001  -3.809  0.00  0.00    -0.004 A 
ATOM      4  C2  UNL d   1      -4.409   2.443  -3.751  0.00  0.00    -0.047 A 
ATOM      5  C3  UNL d   1      -4.378   3.807  -3.375  0.00  0.00    -0.047 A 
ATOM      6  C4  UNL d   1      -3.054   4.159  -3.215  0.00  0.00    -0.004 A 
ENDROOT
TORSDOF 0
ENDMDL
