MODEL 1
REMARK minimizedAffinity 6.13976145
REMARK minimizedRMSD -1
REMARK  0 active torsions:
REMARK  status: ('A' for Active; 'I' for Inactive)
ROOT
ATOM      1  C   UNL d   1      -5.292   6.000   3.776  0.00  0.00     0.172 C 
ATOM      2  N   UNL d   1      -5.030   5.984   2.356  0.00  0.00    -0.070 N 
ATOM      3  C1  UNL d   1      -3.792   5.999   1.772  0.00  0.00    -0.004 A 
ATOM      4  C2  UNL d   1      -3.969   5.976   0.405  0.00  0.00    -0.047 A 
ATOM      5  C3  UNL d   1      -5.362   5.947   0.159  0.00  0.00    -0.047 A 
ATOM      6  C4  UNL d   1      -5.995   5.953   1.384  0.00  0.00    -0.004 A 
ENDROOT
TORSDOF 0
ENDMDL
