MODEL 1
REMARK minimizedAffinity 7.79349232
REMARK minimizedRMSD -1
REMARK  0 active torsions:
REMARK  status: ('A' for Active; 'I' for Inactive)
ROOT
ATOM      1  C   UNL d   1      -0.826  -3.474  -6.000  0.00  0.00     0.172 C 
ATOM      2  N   UNL d   1       0.427  -2.758  -5.999  0.00  0.00    -0.070 N 
ATOM      3  C1  UNL d   1       0.568  -1.396  -6.000  0.00  0.00    -0.004 A 
ATOM      4  C2  UNL d   1       1.917  -1.111  -5.998  0.00  0.00    -0.047 A 
ATOM      5  C3  UNL d   1       2.610  -2.344  -5.997  0.00  0.00    -0.047 A 
ATOM      6  C4  UNL d   1       1.664  -3.347  -5.998  0.00  0.00    -0.004 A 
ENDROOT
TORSDOF 0
ENDMDL
