MODEL 1
REMARK minimizedAffinity 4.03217411
REMARK minimizedRMSD -1
REMARK  0 active torsions:
REMARK  status: ('A' for Active; 'I' for Inactive)
ROOT
ATOM      1  C   UNL d   1      -4.871   5.614  -2.420  0.00  0.00     0.172 C 
ATOM      2  N   UNL d   1      -4.408   5.721  -1.056  0.00  0.00    -0.070 N 
ATOM      3  C1  UNL d   1      -3.109   5.591  -0.642  0.00  0.00    -0.004 A 
ATOM      4  C2  UNL d   1      -3.084   5.761   0.726  0.00  0.00    -0.047 A 
ATOM      5  C3  UNL d   1      -4.413   6.000   1.148  0.00  0.00    -0.047 A 
ATOM      6  C4  UNL d   1      -5.212   5.969   0.024  0.00  0.00    -0.004 A 
ENDROOT
TORSDOF 0
ENDMDL
