MODEL 1
REMARK minimizedAffinity 6.31232548
REMARK minimizedRMSD -1
REMARK  0 active torsions:
REMARK  status: ('A' for Active; 'I' for Inactive)
ROOT
ATOM      1  C   UNL d   1      -5.337  -3.028   5.999  0.00  0.00     0.172 C 
ATOM      2  N   UNL d   1      -4.070  -2.824   5.337  0.00  0.00    -0.070 N 
ATOM      3  C1  UNL d   1      -3.730  -3.300   4.099  0.00  0.00    -0.004 A 
ATOM      4  C2  UNL d   1      -2.442  -2.891   3.828  0.00  0.00    -0.047 A 
ATOM      5  C3  UNL d   1      -1.992  -2.144   4.942  0.00  0.00    -0.047 A 
ATOM      6  C4  UNL d   1      -3.019  -2.118   5.862  0.00  0.00    -0.004 A 
ENDROOT
TORSDOF 0
ENDMDL
