MODEL 1
REMARK minimizedAffinity 11.6176233
REMARK minimizedRMSD -1
REMARK  0 active torsions:
REMARK  status: ('A' for Active; 'I' for Inactive)
ROOT
ATOM      1  C   UNL d   1      -3.337  -2.227   5.830  0.00  0.00     0.172 C 
ATOM      2  N   UNL d   1      -2.144  -2.413   5.038  0.00  0.00    -0.070 N 
ATOM      3  C1  UNL d   1      -1.517  -1.445   4.299  0.00  0.00    -0.004 A 
ATOM      4  C2  UNL d   1      -0.421  -2.021   3.694  0.00  0.00    -0.047 A 
ATOM      5  C3  UNL d   1      -0.388  -3.381   4.082  0.00  0.00    -0.047 A 
ATOM      6  C4  UNL d   1      -1.466  -3.597   4.914  0.00  0.00    -0.004 A 
ENDROOT
TORSDOF 0
ENDMDL
