MODEL 1
REMARK minimizedAffinity 2.32862282
REMARK minimizedRMSD -1
REMARK  0 active torsions:
REMARK  status: ('A' for Active; 'I' for Inactive)
ROOT
ATOM      1  C   UNL d   1       0.108   4.259  -0.619  0.00  0.00     0.172 C 
ATOM      2  N   UNL d   1      -0.666   3.410   0.257  0.00  0.00    -0.070 N 
ATOM      3  C1  UNL d   1      -1.891   3.715   0.787  0.00  0.00    -0.004 A 
ATOM      4  C2  UNL d   1      -2.291   2.650   1.565  0.00  0.00    -0.047 A 
ATOM      5  C3  UNL d   1      -1.270   1.671   1.501  0.00  0.00    -0.047 A 
ATOM      6  C4  UNL d   1      -0.276   2.168   0.685  0.00  0.00    -0.004 A 
ENDROOT
TORSDOF 0
ENDMDL
