MODEL 1
REMARK minimizedAffinity 3.4676373
REMARK minimizedRMSD -1
REMARK  0 active torsions:
REMARK  status: ('A' for Active; 'I' for Inactive)
ROOT
ATOM      1  C   UNL d   1      -1.338   1.838   0.837  0.00  0.00     0.172 C 
ATOM      2  N   UNL d   1      -0.626   2.916   0.193  0.00  0.00    -0.070 N 
ATOM      3  C1  UNL d   1      -0.736   3.270  -1.125  0.00  0.00    -0.004 A 
ATOM      4  C2  UNL d   1       0.101   4.343  -1.345  0.00  0.00    -0.047 A 
ATOM      5  C3  UNL d   1       0.736   4.643  -0.117  0.00  0.00    -0.047 A 
ATOM      6  C4  UNL d   1       0.268   3.745   0.819  0.00  0.00    -0.004 A 
ENDROOT
TORSDOF 0
ENDMDL
