MODEL 1
REMARK minimizedAffinity 1.8192364
REMARK minimizedRMSD -1
REMARK  0 active torsions:
REMARK  status: ('A' for Active; 'I' for Inactive)
ROOT
ATOM      1  C   UNL d   1      -1.463   3.345  -3.208  0.00  0.00     0.172 C 
ATOM      2  N   UNL d   1      -0.843   3.718  -1.959  0.00  0.00    -0.070 N 
ATOM      3  C1  UNL d   1      -0.869   2.984  -0.804  0.00  0.00    -0.004 A 
ATOM      4  C2  UNL d   1      -0.165   3.680   0.155  0.00  0.00    -0.047 A 
ATOM      5  C3  UNL d   1       0.299   4.875  -0.444  0.00  0.00    -0.047 A 
ATOM      6  C4  UNL d   1      -0.135   4.873  -1.753  0.00  0.00    -0.004 A 
ENDROOT
TORSDOF 0
ENDMDL
