MODEL 1
REMARK minimizedAffinity 1.52758849
REMARK minimizedRMSD -1
REMARK  0 active torsions:
REMARK  status: ('A' for Active; 'I' for Inactive)
ROOT
ATOM      1  C   UNL d   1      -0.889   1.374  -2.100  0.00  0.00     0.172 C 
ATOM      2  N   UNL d   1      -0.524   2.550  -1.346  0.00  0.00    -0.070 N 
ATOM      3  C1  UNL d   1      -0.643   3.844  -1.778  0.00  0.00    -0.004 A 
ATOM      4  C2  UNL d   1      -0.191   4.669  -0.770  0.00  0.00    -0.047 A 
ATOM      5  C3  UNL d   1       0.214   3.841   0.305  0.00  0.00    -0.047 A 
ATOM      6  C4  UNL d   1      -0.004   2.535  -0.079  0.00  0.00    -0.004 A 
ENDROOT
TORSDOF 0
ENDMDL
