MODEL 1
REMARK minimizedAffinity -2.72696972
REMARK minimizedRMSD -1
REMARK  0 active torsions:
REMARK  status: ('A' for Active; 'I' for Inactive)
ROOT
ATOM      1  C   UNL d   1      -0.834   2.988  -2.931  0.00  0.00     0.172 C 
ATOM      2  N   UNL d   1      -0.528   3.294  -1.553  0.00  0.00    -0.070 N 
ATOM      3  C1  UNL d   1      -0.104   4.507  -1.080  0.00  0.00    -0.004 A 
ATOM      4  C2  UNL d   1       0.077   4.389   0.281  0.00  0.00    -0.047 A 
ATOM      5  C3  UNL d   1      -0.248   3.059   0.638  0.00  0.00    -0.047 A 
ATOM      6  C4  UNL d   1      -0.619   2.403  -0.517  0.00  0.00    -0.004 A 
ENDROOT
TORSDOF 0
ENDMDL
