MODEL 1
REMARK minimizedAffinity 2.28570294
REMARK minimizedRMSD -1
REMARK  0 active torsions:
REMARK  status: ('A' for Active; 'I' for Inactive)
ROOT
ATOM      1  C   UNL d   1      -0.678   1.462   2.177  0.00  0.00     0.172 C 
ATOM      2  N   UNL d   1      -0.268   2.400   1.159  0.00  0.00    -0.070 N 
ATOM      3  C1  UNL d   1      -0.165   2.132  -0.180  0.00  0.00    -0.004 A 
ATOM      4  C2  UNL d   1       0.254   3.284  -0.810  0.00  0.00    -0.047 A 
ATOM      5  C3  UNL d   1       0.409   4.278   0.185  0.00  0.00    -0.047 A 
ATOM      6  C4  UNL d   1       0.080   3.704   1.394  0.00  0.00    -0.004 A 
ENDROOT
TORSDOF 0
ENDMDL
