MODEL 1
REMARK minimizedAffinity 6.5250144
REMARK minimizedRMSD -1
REMARK  0 active torsions:
REMARK  status: ('A' for Active; 'I' for Inactive)
ROOT
ATOM      1  C   UNL d   1      -1.139   3.740  -3.091  0.00  0.00     0.172 C 
ATOM      2  N   UNL d   1      -0.417   3.926  -1.854  0.00  0.00    -0.070 N 
ATOM      3  C1  UNL d   1       0.624   4.795  -1.660  0.00  0.00    -0.004 A 
ATOM      4  C2  UNL d   1       1.037   4.673  -0.351  0.00  0.00    -0.047 A 
ATOM      5  C3  UNL d   1       0.216   3.698   0.263  0.00  0.00    -0.047 A 
ATOM      6  C4  UNL d   1      -0.675   3.252  -0.690  0.00  0.00    -0.004 A 
ENDROOT
TORSDOF 0
ENDMDL
