MODEL 1
REMARK minimizedAffinity 0.145579815
REMARK minimizedRMSD -1
REMARK  0 active torsions:
REMARK  status: ('A' for Active; 'I' for Inactive)
ROOT
ATOM      1  C   UNL d   1      -5.912  -4.129   0.181  0.00  0.00     0.172 C 
ATOM      2  N   UNL d   1      -5.726  -2.704   0.033  0.00  0.00    -0.070 N 
ATOM      3  C1  UNL d   1      -5.998  -1.761   0.987  0.00  0.00    -0.004 A 
ATOM      4  C2  UNL d   1      -5.685  -0.526   0.461  0.00  0.00    -0.047 A 
ATOM      5  C3  UNL d   1      -5.209  -0.735  -0.855  0.00  0.00    -0.047 A 
ATOM      6  C4  UNL d   1      -5.245  -2.092  -1.094  0.00  0.00    -0.004 A 
ENDROOT
TORSDOF 0
ENDMDL
