MODEL 1
REMARK minimizedAffinity 11.795167
REMARK minimizedRMSD -1
REMARK  0 active torsions:
REMARK  status: ('A' for Active; 'I' for Inactive)
ROOT
ATOM      1  C   UNL d   1      -5.899  -4.474   2.721  0.00  0.00     0.172 C 
ATOM      2  N   UNL d   1      -5.933  -3.512   1.645  0.00  0.00    -0.070 N 
ATOM      3  C1  UNL d   1      -5.938  -3.810   0.308  0.00  0.00    -0.004 A 
ATOM      4  C2  UNL d   1      -5.975  -2.622  -0.389  0.00  0.00    -0.047 A 
ATOM      5  C3  UNL d   1      -5.991  -1.573   0.562  0.00  0.00    -0.047 A 
ATOM      6  C4  UNL d   1      -5.965  -2.153   1.813  0.00  0.00    -0.004 A 
ENDROOT
TORSDOF 0
ENDMDL
