MODEL 1
REMARK minimizedAffinity -2.38906717
REMARK minimizedRMSD -1
REMARK  0 active torsions:
REMARK  status: ('A' for Active; 'I' for Inactive)
ROOT
ATOM      1  C   UNL d   1       0.621  -0.580   0.455  0.00  0.00     0.023 A 
ATOM      2  C1  UNL d   1       0.931  -1.790  -0.167  0.00  0.00     0.003 A 
ATOM      3  C2  UNL d   1       0.504  -2.035  -1.473  0.00  0.00     0.048 A 
ATOM      4  C3  UNL d   1      -0.232  -1.065  -2.153  0.00  0.00     0.023 A 
ATOM      5  C4  UNL d   1      -0.544   0.147  -1.536  0.00  0.00     0.048 A 
ATOM      6  C5  UNL d   1      -0.115   0.387  -0.229  0.00  0.00     0.003 A 
ATOM      7  I   UNL d   1      -0.869  -1.427  -4.098  0.00  0.00    -0.146 I 
ENDROOT
TORSDOF 0
ENDMDL
