MODEL 1
REMARK minimizedAffinity 4.01113176
REMARK minimizedRMSD -1
REMARK  0 active torsions:
REMARK  status: ('A' for Active; 'I' for Inactive)
ROOT
ATOM      1  C   UNL d   1      -0.797  -2.926  -3.660  0.00  0.00     0.023 A 
ATOM      2  C1  UNL d   1      -1.010  -2.924  -5.039  0.00  0.00     0.003 A 
ATOM      3  C2  UNL d   1      -1.338  -1.736  -5.694  0.00  0.00     0.048 A 
ATOM      4  C3  UNL d   1      -1.450  -0.553  -4.965  0.00  0.00     0.023 A 
ATOM      5  C4  UNL d   1      -1.237  -0.549  -3.586  0.00  0.00     0.048 A 
ATOM      6  C5  UNL d   1      -0.910  -1.740  -2.934  0.00  0.00     0.003 A 
ATOM      7  I   UNL d   1      -1.939   1.218  -5.939  0.00  0.00    -0.146 I 
ENDROOT
TORSDOF 0
ENDMDL
