MODEL 1
REMARK minimizedAffinity 0.596294105
REMARK minimizedRMSD -1
REMARK  0 active torsions:
REMARK  status: ('A' for Active; 'I' for Inactive)
ROOT
ATOM      1  C   UNL d   1       1.591  -0.468   1.130  0.00  0.00     0.023 A 
ATOM      2  C1  UNL d   1       0.292   0.018   0.986  0.00  0.00     0.003 A 
ATOM      3  C2  UNL d   1      -0.440  -0.272  -0.167  0.00  0.00     0.048 A 
ATOM      4  C3  UNL d   1       0.134  -1.049  -1.173  0.00  0.00     0.023 A 
ATOM      5  C4  UNL d   1       1.434  -1.538  -1.033  0.00  0.00     0.048 A 
ATOM      6  C5  UNL d   1       2.162  -1.245   0.122  0.00  0.00     0.003 A 
ATOM      7  I   UNL d   1      -0.953  -1.482  -2.891  0.00  0.00    -0.146 I 
ENDROOT
TORSDOF 0
ENDMDL
