MODEL 1
REMARK minimizedAffinity -2.8309207
REMARK minimizedRMSD -1
REMARK  0 active torsions:
REMARK  status: ('A' for Active; 'I' for Inactive)
ROOT
ATOM      1  C   UNL d   1       0.857  -0.220   0.504  0.00  0.00     0.023 A 
ATOM      2  C1  UNL d   1      -0.126   0.709   0.163  0.00  0.00     0.003 A 
ATOM      3  C2  UNL d   1      -0.845   0.563  -1.025  0.00  0.00     0.048 A 
ATOM      4  C3  UNL d   1      -0.576  -0.515  -1.868  0.00  0.00     0.023 A 
ATOM      5  C4  UNL d   1       0.407  -1.448  -1.530  0.00  0.00     0.048 A 
ATOM      6  C5  UNL d   1       1.124  -1.296  -0.342  0.00  0.00     0.003 A 
ATOM      7  I   UNL d   1      -1.644  -0.736  -3.636  0.00  0.00    -0.146 I 
ENDROOT
TORSDOF 0
ENDMDL
