MODEL 1
REMARK minimizedAffinity -2.70825911
REMARK minimizedRMSD -1
REMARK  0 active torsions:
REMARK  status: ('A' for Active; 'I' for Inactive)
ROOT
ATOM      1  C   UNL d   1       3.204  -1.362   1.108  0.00  0.00     0.023 A 
ATOM      2  C1  UNL d   1       2.902  -1.499  -0.247  0.00  0.00     0.003 A 
ATOM      3  C2  UNL d   1       1.728  -0.948  -0.762  0.00  0.00     0.048 A 
ATOM      4  C3  UNL d   1       0.859  -0.259   0.084  0.00  0.00     0.023 A 
ATOM      5  C4  UNL d   1       1.157  -0.118   1.441  0.00  0.00     0.048 A 
ATOM      6  C5  UNL d   1       2.332  -0.672   1.951  0.00  0.00     0.003 A 
ATOM      7  I   UNL d   1      -0.890   0.564  -0.680  0.00  0.00    -0.146 I 
ENDROOT
TORSDOF 0
ENDMDL
