MODEL 1
REMARK minimizedAffinity -2.16436934
REMARK minimizedRMSD -1
REMARK  0 active torsions:
REMARK  status: ('A' for Active; 'I' for Inactive)
ROOT
ATOM      1  C   UNL d   1       4.284  -0.748  -2.454  0.00  0.00     0.023 A 
ATOM      2  C1  UNL d   1       4.333   0.418  -1.689  0.00  0.00     0.003 A 
ATOM      3  C2  UNL d   1       3.578   0.519  -0.519  0.00  0.00     0.048 A 
ATOM      4  C3  UNL d   1       2.776  -0.550  -0.119  0.00  0.00     0.023 A 
ATOM      5  C4  UNL d   1       2.725  -1.718  -0.881  0.00  0.00     0.048 A 
ATOM      6  C5  UNL d   1       3.481  -1.814  -2.050  0.00  0.00     0.003 A 
ATOM      7  I   UNL d   1       1.651  -0.402   1.623  0.00  0.00    -0.146 I 
ENDROOT
TORSDOF 0
ENDMDL
