MODEL 1
REMARK minimizedAffinity 5.89774036
REMARK minimizedRMSD -1
REMARK  0 active torsions:
REMARK  status: ('A' for Active; 'I' for Inactive)
ROOT
ATOM      1  C   UNL d   1      -0.741   1.485   0.001  0.00  0.00     0.023 A 
ATOM      2  C1  UNL d   1       0.500   2.066   0.264  0.00  0.00     0.003 A 
ATOM      3  C2  UNL d   1       1.656   1.283   0.249  0.00  0.00     0.048 A 
ATOM      4  C3  UNL d   1       1.564  -0.080  -0.031  0.00  0.00     0.023 A 
ATOM      5  C4  UNL d   1       0.325  -0.665  -0.297  0.00  0.00     0.048 A 
ATOM      6  C5  UNL d   1      -0.828   0.121  -0.279  0.00  0.00     0.003 A 
ATOM      7  I   UNL d   1       3.284  -1.247  -0.055  0.00  0.00    -0.146 I 
ENDROOT
TORSDOF 0
ENDMDL
