MODEL 1
REMARK minimizedAffinity 1.42111754
REMARK minimizedRMSD -1
REMARK  0 active torsions:
REMARK  status: ('A' for Active; 'I' for Inactive)
ROOT
ATOM      1  C   UNL d   1      -4.602   0.819   1.935  0.00  0.00     0.023 A 
ATOM      2  C1  UNL d   1      -3.567   1.637   2.388  0.00  0.00     0.003 A 
ATOM      3  C2  UNL d   1      -2.273   1.469   1.889  0.00  0.00     0.048 A 
ATOM      4  C3  UNL d   1      -2.022   0.481   0.937  0.00  0.00     0.023 A 
ATOM      5  C4  UNL d   1      -3.055  -0.339   0.480  0.00  0.00     0.048 A 
ATOM      6  C5  UNL d   1      -4.346  -0.167   0.982  0.00  0.00     0.003 A 
ATOM      7  I   UNL d   1      -0.098   0.229   0.194  0.00  0.00    -0.146 I 
ENDROOT
TORSDOF 0
ENDMDL
