MODEL 1
REMARK minimizedAffinity 0.0716662258
REMARK minimizedRMSD -1
REMARK  0 active torsions:
REMARK  status: ('A' for Active; 'I' for Inactive)
ROOT
ATOM      1  C   UNL d   1       1.750  -0.353   0.601  0.00  0.00     0.023 A 
ATOM      2  C1  UNL d   1       1.226  -1.486  -0.021  0.00  0.00     0.003 A 
ATOM      3  C2  UNL d   1       0.068  -1.387  -0.796  0.00  0.00     0.048 A 
ATOM      4  C3  UNL d   1      -0.560  -0.151  -0.945  0.00  0.00     0.023 A 
ATOM      5  C4  UNL d   1      -0.039   0.986  -0.325  0.00  0.00     0.048 A 
ATOM      6  C5  UNL d   1       1.118   0.882   0.449  0.00  0.00     0.003 A 
ATOM      7  I   UNL d   1      -2.283   0.000  -2.097  0.00  0.00    -0.146 I 
ENDROOT
TORSDOF 0
ENDMDL
