MODEL 1
REMARK minimizedAffinity -0.381596625
REMARK minimizedRMSD -1
REMARK  0 active torsions:
REMARK  status: ('A' for Active; 'I' for Inactive)
ROOT
ATOM      1  C   UNL d   1       2.780  -0.064   1.479  0.00  0.00     0.023 A 
ATOM      2  C1  UNL d   1       3.058  -1.197   0.714  0.00  0.00     0.003 A 
ATOM      3  C2  UNL d   1       2.255  -1.514  -0.384  0.00  0.00     0.048 A 
ATOM      4  C3  UNL d   1       1.176  -0.693  -0.711  0.00  0.00     0.023 A 
ATOM      5  C4  UNL d   1       0.895   0.441   0.051  0.00  0.00     0.048 A 
ATOM      6  C5  UNL d   1       1.700   0.754   1.148  0.00  0.00     0.003 A 
ATOM      7  I   UNL d   1      -0.020  -1.163  -2.344  0.00  0.00    -0.146 I 
ENDROOT
TORSDOF 0
ENDMDL
