MODEL 1
REMARK minimizedAffinity -0.918762624
REMARK minimizedRMSD -1
REMARK  0 active torsions:
REMARK  status: ('A' for Active; 'I' for Inactive)
ROOT
ATOM      1  C   UNL d   1       2.849  -0.254   1.076  0.00  0.00     0.023 A 
ATOM      2  C1  UNL d   1       1.635   0.429   1.154  0.00  0.00     0.003 A 
ATOM      3  C2  UNL d   1       0.606   0.129   0.259  0.00  0.00     0.048 A 
ATOM      4  C3  UNL d   1       0.797  -0.855  -0.710  0.00  0.00     0.023 A 
ATOM      5  C4  UNL d   1       2.010  -1.541  -0.791  0.00  0.00     0.048 A 
ATOM      6  C5  UNL d   1       3.036  -1.237   0.105  0.00  0.00     0.003 A 
ATOM      7  I   UNL d   1      -0.734  -1.303  -2.043  0.00  0.00    -0.146 I 
ENDROOT
TORSDOF 0
ENDMDL
