MODEL 1
REMARK minimizedAffinity 4.9618845
REMARK minimizedRMSD -1
REMARK  0 active torsions:
REMARK  status: ('A' for Active; 'I' for Inactive)
ROOT
ATOM      1  O1  BZF d   1      -1.566   3.170   1.296  0.00  0.00    -0.204 OA
ATOM      2  C2  BZF d   1      -2.601   2.662   2.057  0.00  0.00     0.174 A 
ATOM      3  C3  BZF d   1      -2.280   1.451   2.554  0.00  0.00    -0.012 A 
ATOM      4  C3A BZF d   1      -0.927   1.224   2.150  0.00  0.00    -0.107 A 
ATOM      5  C4  BZF d   1      -0.045   0.201   2.352  0.00  0.00     0.055 A 
ATOM      6  C5  BZF d   1       1.177   0.256   1.761  0.00  0.00    -0.016 A 
ATOM      7  C6  BZF d   1       1.548   1.314   0.957  0.00  0.00     0.022 A 
ATOM      8  C7  BZF d   1       0.710   2.354   0.731  0.00  0.00     0.029 A 
ATOM      9  C7A BZF d   1      -0.514   2.318   1.354  0.00  0.00     0.058 A 
ENDROOT
TORSDOF 0
ENDMDL
