MODEL 1
REMARK minimizedAffinity -4.10321188
REMARK minimizedRMSD -1
REMARK  0 active torsions:
REMARK  status: ('A' for Active; 'I' for Inactive)
ROOT
ATOM      1  O1  BZF d   1      -3.115   0.854   2.506  0.00  0.00    -0.204 OA
ATOM      2  C2  BZF d   1      -3.204   2.225   2.368  0.00  0.00     0.174 A 
ATOM      3  C3  BZF d   1      -2.066   2.729   1.848  0.00  0.00    -0.012 A 
ATOM      4  C3A BZF d   1      -1.246   1.591   1.563  0.00  0.00    -0.107 A 
ATOM      5  C4  BZF d   1      -0.002   1.442   1.021  0.00  0.00     0.055 A 
ATOM      6  C5  BZF d   1       0.542   0.199   0.947  0.00  0.00    -0.016 A 
ATOM      7  C6  BZF d   1      -0.127  -0.915   1.410  0.00  0.00     0.022 A 
ATOM      8  C7  BZF d   1      -1.366  -0.818   1.952  0.00  0.00     0.029 A 
ATOM      9  C7A BZF d   1      -1.932   0.433   1.998  0.00  0.00     0.058 A 
ENDROOT
TORSDOF 0
ENDMDL
