MODEL 1
REMARK minimizedAffinity 3.44378066
REMARK minimizedRMSD -1
REMARK  0 active torsions:
REMARK  status: ('A' for Active; 'I' for Inactive)
ROOT
ATOM      1  O1  BZF d   1      -2.553   0.580   2.125  0.00  0.00    -0.204 OA
ATOM      2  C2  BZF d   1      -2.458  -0.737   2.531  0.00  0.00     0.174 A 
ATOM      3  C3  BZF d   1      -1.168  -1.122   2.607  0.00  0.00    -0.012 A 
ATOM      4  C3A BZF d   1      -0.406   0.053   2.313  0.00  0.00    -0.107 A 
ATOM      5  C4  BZF d   1       0.933   0.312   2.248  0.00  0.00     0.055 A 
ATOM      6  C5  BZF d   1       1.348   1.548   1.862  0.00  0.00    -0.016 A 
ATOM      7  C6  BZF d   1       0.454   2.544   1.531  0.00  0.00     0.022 A 
ATOM      8  C7  BZF d   1      -0.884   2.336   1.585  0.00  0.00     0.029 A 
ATOM      9  C7A BZF d   1      -1.308   1.099   2.006  0.00  0.00     0.058 A 
ENDROOT
TORSDOF 0
ENDMDL
