MODEL 1
REMARK minimizedAffinity 9.0382843
REMARK minimizedRMSD -1
REMARK  0 active torsions:
REMARK  status: ('A' for Active; 'I' for Inactive)
ROOT
ATOM      1  O1  BZF d   1      -1.453   1.811   3.011  0.00  0.00    -0.204 OA
ATOM      2  C2  BZF d   1      -1.811   2.942   2.302  0.00  0.00     0.174 A 
ATOM      3  C3  BZF d   1      -1.006   3.111   1.233  0.00  0.00    -0.012 A 
ATOM      4  C3A BZF d   1      -0.146   1.968   1.225  0.00  0.00    -0.107 A 
ATOM      5  C4  BZF d   1       0.860   1.555   0.398  0.00  0.00     0.055 A 
ATOM      6  C5  BZF d   1       1.550   0.427   0.709  0.00  0.00    -0.016 A 
ATOM      7  C6  BZF d   1       1.266  -0.309   1.841  0.00  0.00     0.022 A 
ATOM      8  C7  BZF d   1       0.274   0.058   2.689  0.00  0.00     0.029 A 
ATOM      9  C7A BZF d   1      -0.447   1.179   2.359  0.00  0.00     0.058 A 
ENDROOT
TORSDOF 0
ENDMDL
