MODEL 1
REMARK minimizedAffinity 1.13336957
REMARK minimizedRMSD -1
REMARK  0 active torsions:
REMARK  status: ('A' for Active; 'I' for Inactive)
ROOT
ATOM      1  O1  BZF d   1      -1.263   3.471   1.050  0.00  0.00    -0.204 OA
ATOM      2  C2  BZF d   1       0.085   3.716   0.874  0.00  0.00     0.174 A 
ATOM      3  C3  BZF d   1       0.820   2.659   1.277  0.00  0.00    -0.012 A 
ATOM      4  C3A BZF d   1      -0.132   1.658   1.648  0.00  0.00    -0.107 A 
ATOM      5  C4  BZF d   1      -0.016   0.380   2.115  0.00  0.00     0.055 A 
ATOM      6  C5  BZF d   1      -1.141  -0.305   2.451  0.00  0.00    -0.016 A 
ATOM      7  C6  BZF d   1      -2.395   0.259   2.337  0.00  0.00     0.022 A 
ATOM      8  C7  BZF d   1      -2.561   1.522   1.874  0.00  0.00     0.029 A 
ATOM      9  C7A BZF d   1      -1.428   2.204   1.503  0.00  0.00     0.058 A 
ENDROOT
TORSDOF 0
ENDMDL
