MODEL 1
REMARK minimizedAffinity 0.742176712
REMARK minimizedRMSD -1
REMARK  0 active torsions:
REMARK  status: ('A' for Active; 'I' for Inactive)
ROOT
ATOM      1  O1  BZF d   1       0.525   2.755   0.745  0.00  0.00    -0.204 OA
ATOM      2  C2  BZF d   1       1.829   2.316   0.624  0.00  0.00     0.174 A 
ATOM      3  C3  BZF d   1       1.913   0.993   0.874  0.00  0.00    -0.012 A 
ATOM      4  C3A BZF d   1       0.564   0.563   1.080  0.00  0.00    -0.107 A 
ATOM      5  C4  BZF d   1      -0.003  -0.649   1.352  0.00  0.00     0.055 A 
ATOM      6  C5  BZF d   1      -1.343  -0.718   1.567  0.00  0.00    -0.016 A 
ATOM      7  C6  BZF d   1      -2.144   0.405   1.523  0.00  0.00     0.022 A 
ATOM      8  C7  BZF d   1      -1.627   1.628   1.252  0.00  0.00     0.029 A 
ATOM      9  C7A BZF d   1      -0.278   1.695   1.001  0.00  0.00     0.058 A 
ENDROOT
TORSDOF 0
ENDMDL
