MODEL 1
REMARK minimizedAffinity 8.05620193
REMARK minimizedRMSD -1
REMARK  0 active torsions:
REMARK  status: ('A' for Active; 'I' for Inactive)
ROOT
ATOM      1  O1  BZF d   1      -1.285   3.153   0.731  0.00  0.00    -0.204 OA
ATOM      2  C2  BZF d   1      -2.409   2.638   1.348  0.00  0.00     0.174 A 
ATOM      3  C3  BZF d   1      -2.176   1.390   1.803  0.00  0.00    -0.012 A 
ATOM      4  C3A BZF d   1      -0.793   1.142   1.529  0.00  0.00    -0.107 A 
ATOM      5  C4  BZF d   1       0.034   0.080   1.760  0.00  0.00     0.055 A 
ATOM      6  C5  BZF d   1       1.313   0.128   1.303  0.00  0.00    -0.016 A 
ATOM      7  C6  BZF d   1       1.795   1.217   0.607  0.00  0.00     0.022 A 
ATOM      8  C7  BZF d   1       1.014   2.295   0.358  0.00  0.00     0.029 A 
ATOM      9  C7A BZF d   1      -0.269   2.265   0.847  0.00  0.00     0.058 A 
ENDROOT
TORSDOF 0
ENDMDL
