MODEL 1
REMARK minimizedAffinity 6.64501238
REMARK minimizedRMSD -1
REMARK  0 active torsions:
REMARK  status: ('A' for Active; 'I' for Inactive)
ROOT
ATOM      1  O1  BZF d   1      -3.048  -4.999  -0.002  0.00  0.00    -0.204 OA
ATOM      2  C2  BZF d   1      -1.775  -5.439  -0.307  0.00  0.00     0.174 A 
ATOM      3  C3  BZF d   1      -1.205  -4.647  -1.237  0.00  0.00    -0.012 A 
ATOM      4  C3A BZF d   1      -2.148  -3.596  -1.465  0.00  0.00    -0.107 A 
ATOM      5  C4  BZF d   1      -2.148  -2.493  -2.270  0.00  0.00     0.055 A 
ATOM      6  C5  BZF d   1      -3.255  -1.706  -2.313  0.00  0.00    -0.016 A 
ATOM      7  C6  BZF d   1      -4.380  -1.995  -1.569  0.00  0.00     0.022 A 
ATOM      8  C7  BZF d   1      -4.425  -3.075  -0.752  0.00  0.00     0.029 A 
ATOM      9  C7A BZF d   1      -3.296  -3.854  -0.681  0.00  0.00     0.058 A 
ENDROOT
TORSDOF 0
ENDMDL
