MODEL 1
REMARK minimizedAffinity 5.99812603
REMARK minimizedRMSD -1
REMARK  0 active torsions:
REMARK  status: ('A' for Active; 'I' for Inactive)
ROOT
ATOM      1  O1  BZF d   1      -3.655  -3.278  -1.013  0.00  0.00    -0.204 OA
ATOM      2  C2  BZF d   1      -3.764  -1.940  -0.688  0.00  0.00     0.174 A 
ATOM      3  C3  BZF d   1      -2.623  -1.489  -0.128  0.00  0.00    -0.012 A 
ATOM      4  C3A BZF d   1      -1.714  -2.592  -0.186  0.00  0.00    -0.107 A 
ATOM      5  C4  BZF d   1      -0.415  -2.759   0.200  0.00  0.00     0.055 A 
ATOM      6  C5  BZF d   1       0.161  -3.984   0.070  0.00  0.00    -0.016 A 
ATOM      7  C6  BZF d   1      -0.535  -5.062  -0.436  0.00  0.00     0.022 A 
ATOM      8  C7  BZF d   1      -1.824  -4.944  -0.837  0.00  0.00     0.029 A 
ATOM      9  C7A BZF d   1      -2.397  -3.700  -0.738  0.00  0.00     0.058 A 
ENDROOT
TORSDOF 0
ENDMDL
