MODEL 1
REMARK minimizedAffinity 6.64169264
REMARK minimizedRMSD -1
REMARK  0 active torsions:
REMARK  status: ('A' for Active; 'I' for Inactive)
ROOT
ATOM      1  O1  BZF d   1      -2.549   0.929   2.484  0.00  0.00    -0.204 OA
ATOM      2  C2  BZF d   1      -2.911   2.234   2.213  0.00  0.00     0.174 A 
ATOM      3  C3  BZF d   1      -1.857   2.936   1.750  0.00  0.00    -0.012 A 
ATOM      4  C3A BZF d   1      -0.790   1.989   1.644  0.00  0.00    -0.107 A 
ATOM      5  C4  BZF d   1       0.507   2.078   1.228  0.00  0.00     0.055 A 
ATOM      6  C5  BZF d   1       1.307   0.983   1.317  0.00  0.00    -0.016 A 
ATOM      7  C6  BZF d   1       0.844  -0.215   1.821  0.00  0.00     0.022 A 
ATOM      8  C7  BZF d   1      -0.437  -0.354   2.241  0.00  0.00     0.029 A 
ATOM      9  C7A BZF d   1      -1.257   0.742   2.122  0.00  0.00     0.058 A 
ENDROOT
TORSDOF 0
ENDMDL
