MODEL 1
REMARK minimizedAffinity 7.44845152
REMARK minimizedRMSD -1
REMARK  0 active torsions:
REMARK  status: ('A' for Active; 'I' for Inactive)
ROOT
ATOM      1  O1  BZF d   1      -0.763   3.382   1.319  0.00  0.00    -0.204 OA
ATOM      2  C2  BZF d   1      -1.951   3.064   1.949  0.00  0.00     0.174 A 
ATOM      3  C3  BZF d   1      -1.953   1.774   2.342  0.00  0.00    -0.012 A 
ATOM      4  C3A BZF d   1      -0.651   1.279   2.015  0.00  0.00    -0.107 A 
ATOM      5  C4  BZF d   1      -0.039   0.068   2.176  0.00  0.00     0.055 A 
ATOM      6  C5  BZF d   1       1.214  -0.109   1.681  0.00  0.00    -0.016 A 
ATOM      7  C6  BZF d   1       1.882   0.899   1.018  0.00  0.00     0.022 A 
ATOM      8  C7  BZF d   1       1.318   2.119   0.838  0.00  0.00     0.029 A 
ATOM      9  C7A BZF d   1       0.065   2.311   1.366  0.00  0.00     0.058 A 
ENDROOT
TORSDOF 0
ENDMDL
