MODEL 1
REMARK minimizedAffinity 6.34090042
REMARK minimizedRMSD -1
REMARK  0 active torsions:
REMARK  status: ('A' for Active; 'I' for Inactive)
ROOT
ATOM      1  O1  BZF d   1       0.641   1.014   1.227  0.00  0.00    -0.204 OA
ATOM      2  C2  BZF d   1       0.550   2.376   1.009  0.00  0.00     0.174 A 
ATOM      3  C3  BZF d   1      -0.662   2.839   1.377  0.00  0.00    -0.012 A 
ATOM      4  C3A BZF d   1      -1.341   1.713   1.940  0.00  0.00    -0.107 A 
ATOM      5  C4  BZF d   1      -2.576   1.543   2.497  0.00  0.00     0.055 A 
ATOM      6  C5  BZF d   1      -2.961   0.299   2.884  0.00  0.00    -0.016 A 
ATOM      7  C6  BZF d   1      -2.139  -0.798   2.726  0.00  0.00     0.022 A 
ATOM      8  C7  BZF d   1      -0.902  -0.678   2.183  0.00  0.00     0.029 A 
ATOM      9  C7A BZF d   1      -0.498   0.583   1.821  0.00  0.00     0.058 A 
ENDROOT
TORSDOF 0
ENDMDL
