MODEL 1
REMARK minimizedAffinity 4.48624754
REMARK minimizedRMSD -1
REMARK  0 active torsions:
REMARK  status: ('A' for Active; 'I' for Inactive)
ROOT
ATOM      1  O1  BZF d   1      -2.669   2.874   1.957  0.00  0.00    -0.204 OA
ATOM      2  C2  BZF d   1      -3.447   2.056   2.753  0.00  0.00     0.174 A 
ATOM      3  C3  BZF d   1      -2.790   0.918   3.056  0.00  0.00    -0.012 A 
ATOM      4  C3A BZF d   1      -1.487   1.072   2.486  0.00  0.00    -0.107 A 
ATOM      5  C4  BZF d   1      -0.373   0.283   2.463  0.00  0.00     0.055 A 
ATOM      6  C5  BZF d   1       0.713   0.694   1.757  0.00  0.00    -0.016 A 
ATOM      7  C6  BZF d   1       0.718   1.884   1.059  0.00  0.00     0.022 A 
ATOM      8  C7  BZF d   1      -0.362   2.702   1.056  0.00  0.00     0.029 A 
ATOM      9  C7A BZF d   1      -1.450   2.306   1.796  0.00  0.00     0.058 A 
ENDROOT
TORSDOF 0
ENDMDL
