MODEL 1
REMARK minimizedAffinity 11.3224993
REMARK minimizedRMSD -1
REMARK  0 active torsions:
REMARK  status: ('A' for Active; 'I' for Inactive)
ROOT
ATOM      1  O1  BZF d   1      -0.459  -2.647  -3.851  0.00  0.00    -0.204 OA
ATOM      2  C2  BZF d   1       0.430  -3.634  -3.472  0.00  0.00     0.174 A 
ATOM      3  C3  BZF d   1       0.193  -4.031  -2.205  0.00  0.00    -0.012 A 
ATOM      4  C3A BZF d   1      -0.972  -3.308  -1.797  0.00  0.00    -0.107 A 
ATOM      5  C4  BZF d   1      -1.706  -3.283  -0.645  0.00  0.00     0.055 A 
ATOM      6  C5  BZF d   1      -2.743  -2.412  -0.542  0.00  0.00    -0.016 A 
ATOM      7  C6  BZF d   1      -3.072  -1.549  -1.566  0.00  0.00     0.022 A 
ATOM      8  C7  BZF d   1      -2.376  -1.540  -2.730  0.00  0.00     0.029 A 
ATOM      9  C7A BZF d   1      -1.348  -2.442  -2.850  0.00  0.00     0.058 A 
ENDROOT
TORSDOF 0
ENDMDL
