MODEL 1
REMARK minimizedAffinity 3.4631958
REMARK minimizedRMSD -1
REMARK  0 active torsions:
REMARK  status: ('A' for Active; 'I' for Inactive)
ROOT
ATOM      1  O1  BZF d   1      -2.888  -2.616  -3.544  0.00  0.00    -0.204 OA
ATOM      2  C2  BZF d   1      -3.277  -1.297  -3.415  0.00  0.00     0.174 A 
ATOM      3  C3  BZF d   1      -3.651  -1.030  -2.147  0.00  0.00    -0.012 A 
ATOM      4  C3A BZF d   1      -3.397  -2.235  -1.418  0.00  0.00    -0.107 A 
ATOM      5  C4  BZF d   1      -3.549  -2.589  -0.108  0.00  0.00     0.055 A 
ATOM      6  C5  BZF d   1      -3.278  -3.867   0.266  0.00  0.00    -0.016 A 
ATOM      7  C6  BZF d   1      -2.858  -4.816  -0.643  0.00  0.00     0.022 A 
ATOM      8  C7  BZF d   1      -2.687  -4.510  -1.952  0.00  0.00     0.029 A 
ATOM      9  C7A BZF d   1      -2.929  -3.211  -2.327  0.00  0.00     0.058 A 
ENDROOT
TORSDOF 0
ENDMDL
