MODEL 1
REMARK minimizedAffinity 17.4405003
REMARK minimizedRMSD -1
REMARK  0 active torsions:
REMARK  status: ('A' for Active; 'I' for Inactive)
ROOT
ATOM      1  O1  BZF d   1      -3.947   3.665   2.847  0.00  0.00    -0.204 OA
ATOM      2  C2  BZF d   1      -4.345   2.658   3.705  0.00  0.00     0.174 A 
ATOM      3  C3  BZF d   1      -3.535   1.586   3.593  0.00  0.00    -0.012 A 
ATOM      4  C3A BZF d   1      -2.515   1.979   2.670  0.00  0.00    -0.107 A 
ATOM      5  C4  BZF d   1      -1.413   1.351   2.164  0.00  0.00     0.055 A 
ATOM      6  C5  BZF d   1      -0.663   1.986   1.226  0.00  0.00    -0.016 A 
ATOM      7  C6  BZF d   1      -0.989   3.246   0.767  0.00  0.00     0.022 A 
ATOM      8  C7  BZF d   1      -2.069   3.911   1.242  0.00  0.00     0.029 A 
ATOM      9  C7A BZF d   1      -2.811   3.285   2.215  0.00  0.00     0.058 A 
ENDROOT
TORSDOF 0
ENDMDL
