MODEL 1
REMARK minimizedAffinity -1.75596917
REMARK minimizedRMSD -1
REMARK  0 active torsions:
REMARK  status: ('A' for Active; 'I' for Inactive)
ROOT
ATOM      1  O1  BZF d   1       1.374   2.498   1.079  0.00  0.00    -0.204 OA
ATOM      2  C2  BZF d   1       0.560   3.608   0.960  0.00  0.00     0.174 A 
ATOM      3  C3  BZF d   1      -0.740   3.249   0.957  0.00  0.00    -0.012 A 
ATOM      4  C3A BZF d   1      -0.741   1.835   1.175  0.00  0.00    -0.107 A 
ATOM      5  C4  BZF d   1      -1.732   0.903   1.289  0.00  0.00     0.055 A 
ATOM      6  C5  BZF d   1      -1.395  -0.406   1.426  0.00  0.00    -0.016 A 
ATOM      7  C6  BZF d   1      -0.079  -0.819   1.447  0.00  0.00     0.022 A 
ATOM      8  C7  BZF d   1       0.939   0.069   1.342  0.00  0.00     0.029 A 
ATOM      9  C7A BZF d   1       0.602   1.396   1.237  0.00  0.00     0.058 A 
ENDROOT
TORSDOF 0
ENDMDL
