MODEL 1
REMARK minimizedAffinity -0.742545545
REMARK minimizedRMSD -1
REMARK  0 active torsions:
REMARK  status: ('A' for Active; 'I' for Inactive)
ROOT
ATOM      1  O1  BZF d   1       1.655   0.913   1.953  0.00  0.00    -0.204 OA
ATOM      2  C2  BZF d   1       1.041   1.771   1.061  0.00  0.00     0.174 A 
ATOM      3  C3  BZF d   1      -0.275   1.493   0.958  0.00  0.00    -0.012 A 
ATOM      4  C3A BZF d   1      -0.515   0.453   1.911  0.00  0.00    -0.107 A 
ATOM      5  C4  BZF d   1      -1.633  -0.235   2.288  0.00  0.00     0.055 A 
ATOM      6  C5  BZF d   1      -1.515  -1.240   3.195  0.00  0.00    -0.016 A 
ATOM      7  C6  BZF d   1      -0.297  -1.587   3.741  0.00  0.00     0.022 A 
ATOM      8  C7  BZF d   1       0.839  -0.930   3.401  0.00  0.00     0.029 A 
ATOM      9  C7A BZF d   1       0.719   0.107   2.509  0.00  0.00     0.058 A 
ENDROOT
TORSDOF 0
ENDMDL
