MODEL 1
REMARK minimizedAffinity -1.76540279
REMARK minimizedRMSD -1
REMARK  1 active torsions:
REMARK  status: ('A' for Active; 'I' for Inactive)
REMARK    1  A    between atoms: C1_2  and  C2_3 
ROOT
ATOM      1  C2  UNL d   1       1.222   0.743   0.271  0.00  0.00    -0.081 A 
ATOM      2  C3  UNL d   1       0.441   1.277  -0.762  0.00  0.00     0.006 A 
ATOM      3  C4  UNL d   1      -0.764   0.671  -1.125  0.00  0.00     0.002 A 
ATOM      4  C5  UNL d   1      -1.212  -0.474  -0.457  0.00  0.00    -0.080 A 
ATOM      5  C6  UNL d   1      -2.518  -1.117  -0.817  0.00  0.00     0.076 C 
ATOM      6  C7  UNL d   1      -0.424  -1.018   0.563  0.00  0.00     0.002 A 
ATOM      7  C8  UNL d   1       0.781  -0.413   0.926  0.00  0.00     0.006 A 
ENDROOT
BRANCH   1   8
ATOM      8  C1  UNL d   1       2.489   1.431   0.708  0.00  0.00     0.054 C 
ATOM      9  C   UNL d   1       2.227   2.880   1.095  0.00  0.00     0.018 C 
ENDBRANCH   1   8
TORSDOF 1
ENDMDL
