MODEL 1
REMARK minimizedAffinity -0.41372928
REMARK minimizedRMSD -1
REMARK  1 active torsions:
REMARK  status: ('A' for Active; 'I' for Inactive)
REMARK    1  A    between atoms: C1_2  and  C2_3 
ROOT
ATOM      1  C2  UNL d   1      -0.364  -1.610   0.606  0.00  0.00    -0.081 A 
ATOM      2  C3  UNL d   1       0.328  -0.426   0.325  0.00  0.00     0.006 A 
ATOM      3  C4  UNL d   1      -0.060   0.384  -0.746  0.00  0.00     0.002 A 
ATOM      4  C5  UNL d   1      -1.150   0.027  -1.547  0.00  0.00    -0.080 A 
ATOM      5  C6  UNL d   1      -1.596   0.903  -2.680  0.00  0.00     0.076 C 
ATOM      6  C7  UNL d   1      -1.831  -1.165  -1.276  0.00  0.00     0.002 A 
ATOM      7  C8  UNL d   1      -1.443  -1.975  -0.206  0.00  0.00     0.006 A 
ENDROOT
BRANCH   1   8
ATOM      8  C1  UNL d   1       0.011  -2.452   1.799  0.00  0.00     0.054 C 
ATOM      9  C   UNL d   1       1.488  -2.305   2.137  0.00  0.00     0.018 C 
ENDBRANCH   1   8
TORSDOF 1
ENDMDL
