MODEL 1
REMARK minimizedAffinity -1.03205252
REMARK minimizedRMSD -1
REMARK  1 active torsions:
REMARK  status: ('A' for Active; 'I' for Inactive)
REMARK    1  A    between atoms: C1_2  and  C2_3 
ROOT
ATOM      1  C2  UNL d   1       0.833   0.619  -0.034  0.00  0.00    -0.081 A 
ATOM      2  C3  UNL d   1       0.136   0.929  -1.208  0.00  0.00     0.006 A 
ATOM      3  C4  UNL d   1      -1.045   0.257  -1.529  0.00  0.00     0.002 A 
ATOM      4  C5  UNL d   1      -1.554  -0.730  -0.679  0.00  0.00    -0.080 A 
ATOM      5  C6  UNL d   1      -2.837  -1.438  -0.996  0.00  0.00     0.076 C 
ATOM      6  C7  UNL d   1      -0.849  -1.053   0.486  0.00  0.00     0.002 A 
ATOM      7  C8  UNL d   1       0.333  -0.381   0.807  0.00  0.00     0.006 A 
ENDROOT
BRANCH   1   8
ATOM      8  C1  UNL d   1       2.072   1.387   0.348  0.00  0.00     0.054 C 
ATOM      9  C   UNL d   1       1.722   2.748   0.932  0.00  0.00     0.018 C 
ENDBRANCH   1   8
TORSDOF 1
ENDMDL
