MODEL 1
REMARK minimizedAffinity -3.93156838
REMARK minimizedRMSD -1
REMARK  1 active torsions:
REMARK  status: ('A' for Active; 'I' for Inactive)
REMARK    1  A    between atoms: C1_2  and  C2_3 
ROOT
ATOM      1  C2  UNL d   1       0.015   0.414  -0.274  0.00  0.00    -0.081 A 
ATOM      2  C3  UNL d   1      -0.237   1.723   0.156  0.00  0.00     0.006 A 
ATOM      3  C4  UNL d   1       0.803   2.523   0.636  0.00  0.00     0.002 A 
ATOM      4  C5  UNL d   1       2.112   2.031   0.686  0.00  0.00    -0.080 A 
ATOM      5  C6  UNL d   1       3.243   2.889   1.170  0.00  0.00     0.076 C 
ATOM      6  C7  UNL d   1       2.360   0.717   0.273  0.00  0.00     0.002 A 
ATOM      7  C8  UNL d   1       1.321  -0.083  -0.206  0.00  0.00     0.006 A 
ENDROOT
BRANCH   1   8
ATOM      8  C1  UNL d   1      -1.093  -0.429  -0.852  0.00  0.00     0.054 C 
ATOM      9  C   UNL d   1      -2.312   0.417  -1.191  0.00  0.00     0.018 C 
ENDBRANCH   1   8
TORSDOF 1
ENDMDL
