MODEL 1
REMARK minimizedAffinity -1.17517626
REMARK minimizedRMSD -1
REMARK  1 active torsions:
REMARK  status: ('A' for Active; 'I' for Inactive)
REMARK    1  A    between atoms: C1_2  and  C2_3 
ROOT
ATOM      1  C2  UNL d   1       0.883   1.071   0.325  0.00  0.00    -0.081 A 
ATOM      2  C3  UNL d   1      -0.423   1.576   0.333  0.00  0.00     0.006 A 
ATOM      3  C4  UNL d   1      -1.381   1.076  -0.553  0.00  0.00     0.002 A 
ATOM      4  C5  UNL d   1      -1.051   0.058  -1.455  0.00  0.00    -0.080 A 
ATOM      5  C6  UNL d   1      -2.077  -0.509  -2.390  0.00  0.00     0.076 C 
ATOM      6  C7  UNL d   1       0.259  -0.433  -1.475  0.00  0.00     0.002 A 
ATOM      7  C8  UNL d   1       1.217   0.067  -0.590  0.00  0.00     0.006 A 
ENDROOT
BRANCH   1   8
ATOM      8  C1  UNL d   1       1.900   1.563   1.322  0.00  0.00     0.054 C 
ATOM      9  C   UNL d   1       2.631   2.795   0.806  0.00  0.00     0.018 C 
ENDBRANCH   1   8
TORSDOF 1
ENDMDL
