MODEL 1
REMARK minimizedAffinity 1.29277909
REMARK minimizedRMSD -1
REMARK  1 active torsions:
REMARK  status: ('A' for Active; 'I' for Inactive)
REMARK    1  A    between atoms: C1_2  and  C2_3 
ROOT
ATOM      1  C2  UNL d   1       1.161   0.668   0.044  0.00  0.00    -0.081 A 
ATOM      2  C3  UNL d   1       1.126   0.202  -1.275  0.00  0.00     0.006 A 
ATOM      3  C4  UNL d   1      -0.089  -0.141  -1.874  0.00  0.00     0.002 A 
ATOM      4  C5  UNL d   1      -1.289  -0.015  -1.166  0.00  0.00    -0.080 A 
ATOM      5  C6  UNL d   1      -2.603  -0.350  -1.806  0.00  0.00     0.076 C 
ATOM      6  C7  UNL d   1      -1.252   0.435   0.159  0.00  0.00     0.002 A 
ATOM      7  C8  UNL d   1      -0.038   0.777   0.757  0.00  0.00     0.006 A 
ENDROOT
BRANCH   1   8
ATOM      8  C1  UNL d   1       2.463   1.100   0.670  0.00  0.00     0.054 C 
ATOM      9  C   UNL d   1       2.678   2.599   0.522  0.00  0.00     0.018 C 
ENDBRANCH   1   8
TORSDOF 1
ENDMDL
