MODEL 1
REMARK minimizedAffinity -4.32592726
REMARK minimizedRMSD -1
REMARK  1 active torsions:
REMARK  status: ('A' for Active; 'I' for Inactive)
REMARK    1  A    between atoms: C1_2  and  C2_3 
ROOT
ATOM      1  C2  UNL d   1       1.455   0.955  -0.269  0.00  0.00    -0.081 A 
ATOM      2  C3  UNL d   1       0.744   1.407  -1.388  0.00  0.00     0.006 A 
ATOM      3  C4  UNL d   1      -0.411   0.743  -1.808  0.00  0.00     0.002 A 
ATOM      4  C5  UNL d   1      -0.878  -0.377  -1.113  0.00  0.00    -0.080 A 
ATOM      5  C6  UNL d   1      -2.134  -1.081  -1.536  0.00  0.00     0.076 C 
ATOM      6  C7  UNL d   1      -0.158  -0.839  -0.006  0.00  0.00     0.002 A 
ATOM      7  C8  UNL d   1       0.997  -0.176   0.414  0.00  0.00     0.006 A 
ENDROOT
BRANCH   1   8
ATOM      8  C1  UNL d   1       2.665   1.707   0.225  0.00  0.00     0.054 C 
ATOM      9  C   UNL d   1       2.522   2.081   1.693  0.00  0.00     0.018 C 
ENDBRANCH   1   8
TORSDOF 1
ENDMDL
