MODEL 1
REMARK minimizedAffinity -2.87152982
REMARK minimizedRMSD -1
REMARK  1 active torsions:
REMARK  status: ('A' for Active; 'I' for Inactive)
REMARK    1  A    between atoms: C1_2  and  C2_3 
ROOT
ATOM      1  C2  UNL d   1       1.260   1.301   0.702  0.00  0.00    -0.081 A 
ATOM      2  C3  UNL d   1       1.494   0.063   0.090  0.00  0.00     0.006 A 
ATOM      3  C4  UNL d   1       0.478  -0.578  -0.623  0.00  0.00     0.002 A 
ATOM      4  C5  UNL d   1      -0.785   0.011  -0.743  0.00  0.00    -0.080 A 
ATOM      5  C6  UNL d   1      -1.875  -0.652  -1.532  0.00  0.00     0.076 C 
ATOM      6  C7  UNL d   1      -1.024   1.240  -0.118  0.00  0.00     0.002 A 
ATOM      7  C8  UNL d   1      -0.009   1.880   0.596  0.00  0.00     0.006 A 
ENDROOT
BRANCH   1   8
ATOM      8  C1  UNL d   1       2.373   2.024   1.417  0.00  0.00     0.054 C 
ATOM      9  C   UNL d   1       1.975   3.454   1.754  0.00  0.00     0.018 C 
ENDBRANCH   1   8
TORSDOF 1
ENDMDL
