MODEL 1
REMARK minimizedAffinity -1.9713105
REMARK minimizedRMSD -1
REMARK  1 active torsions:
REMARK  status: ('A' for Active; 'I' for Inactive)
REMARK    1  A    between atoms: C1_2  and  C2_3 
ROOT
ATOM      1  C2  UNL d   1       1.365   0.723   0.020  0.00  0.00    -0.081 A 
ATOM      2  C3  UNL d   1       0.805   1.084  -1.211  0.00  0.00     0.006 A 
ATOM      3  C4  UNL d   1      -0.392   0.507  -1.641  0.00  0.00     0.002 A 
ATOM      4  C5  UNL d   1      -1.053  -0.434  -0.844  0.00  0.00    -0.080 A 
ATOM      5  C6  UNL d   1      -2.354  -1.039  -1.281  0.00  0.00     0.076 C 
ATOM      6  C7  UNL d   1      -0.484  -0.808   0.378  0.00  0.00     0.002 A 
ATOM      7  C8  UNL d   1       0.713  -0.231   0.808  0.00  0.00     0.006 A 
ENDROOT
BRANCH   1   8
ATOM      8  C1  UNL d   1       2.622   1.391   0.516  0.00  0.00     0.054 C 
ATOM      9  C   UNL d   1       2.350   2.233   1.754  0.00  0.00     0.018 C 
ENDBRANCH   1   8
TORSDOF 1
ENDMDL
