MODEL 1
REMARK minimizedAffinity 1.31219614
REMARK minimizedRMSD -1
REMARK  1 active torsions:
REMARK  status: ('A' for Active; 'I' for Inactive)
REMARK    1  A    between atoms: C1_2  and  C2_3 
ROOT
ATOM      1  C2  UNL d   1       3.261   3.554  -0.029  0.00  0.00    -0.081 A 
ATOM      2  C3  UNL d   1       3.624   2.273  -0.463  0.00  0.00     0.006 A 
ATOM      3  C4  UNL d   1       4.500   2.111  -1.539  0.00  0.00     0.002 A 
ATOM      4  C5  UNL d   1       5.034   3.227  -2.193  0.00  0.00    -0.080 A 
ATOM      5  C6  UNL d   1       6.000   3.068  -3.329  0.00  0.00     0.076 C 
ATOM      6  C7  UNL d   1       4.658   4.507  -1.770  0.00  0.00     0.002 A 
ATOM      7  C8  UNL d   1       3.781   4.668  -0.695  0.00  0.00     0.006 A 
ENDROOT
BRANCH   1   8
ATOM      8  C1  UNL d   1       2.367   3.731   1.172  0.00  0.00     0.054 C 
ATOM      9  C   UNL d   1       2.996   3.136   2.423  0.00  0.00     0.018 C 
ENDBRANCH   1   8
TORSDOF 1
ENDMDL
