MODEL 1
REMARK minimizedAffinity 2.22516179
REMARK minimizedRMSD -1
REMARK  1 active torsions:
REMARK  status: ('A' for Active; 'I' for Inactive)
REMARK    1  A    between atoms: C1_2  and  C2_3 
ROOT
ATOM      1  C2  UNL d   1      -1.321   0.135  -0.842  0.00  0.00    -0.081 A 
ATOM      2  C3  UNL d   1      -0.414  -0.625  -0.093  0.00  0.00     0.006 A 
ATOM      3  C4  UNL d   1      -0.528  -0.695   1.298  0.00  0.00     0.002 A 
ATOM      4  C5  UNL d   1      -1.553  -0.012   1.961  0.00  0.00    -0.080 A 
ATOM      5  C6  UNL d   1      -1.704  -0.103   3.451  0.00  0.00     0.076 C 
ATOM      6  C7  UNL d   1      -2.448   0.762   1.215  0.00  0.00     0.002 A 
ATOM      7  C8  UNL d   1      -2.335   0.832  -0.176  0.00  0.00     0.006 A 
ENDROOT
BRANCH   1   8
ATOM      8  C1  UNL d   1      -1.240   0.160  -2.347  0.00  0.00     0.054 C 
ATOM      9  C   UNL d   1      -2.290  -0.748  -2.972  0.00  0.00     0.018 C 
ENDBRANCH   1   8
TORSDOF 1
ENDMDL
