MODEL 1
REMARK minimizedAffinity 2.41208506
REMARK minimizedRMSD -1
REMARK  1 active torsions:
REMARK  status: ('A' for Active; 'I' for Inactive)
REMARK    1  A    between atoms: C1_2  and  C2_3 
ROOT
ATOM      1  C2  UNL d   1       1.316   0.702  -0.195  0.00  0.00    -0.081 A 
ATOM      2  C3  UNL d   1       0.789  -0.213   0.725  0.00  0.00     0.006 A 
ATOM      3  C4  UNL d   1      -0.437  -0.835   0.482  0.00  0.00     0.002 A 
ATOM      4  C5  UNL d   1      -1.153  -0.560  -0.688  0.00  0.00    -0.080 A 
ATOM      5  C6  UNL d   1      -2.457  -1.244  -0.975  0.00  0.00     0.076 C 
ATOM      6  C7  UNL d   1      -0.636   0.367  -1.599  0.00  0.00     0.002 A 
ATOM      7  C8  UNL d   1       0.590   0.990  -1.355  0.00  0.00     0.006 A 
ENDROOT
BRANCH   1   8
ATOM      8  C1  UNL d   1       2.669   1.326   0.034  0.00  0.00     0.054 C 
ATOM      9  C   UNL d   1       2.542   2.778   0.472  0.00  0.00     0.018 C 
ENDBRANCH   1   8
TORSDOF 1
ENDMDL
