MODEL 1
REMARK minimizedAffinity -0.16458118
REMARK minimizedRMSD -1
REMARK  1 active torsions:
REMARK  status: ('A' for Active; 'I' for Inactive)
REMARK    1  A    between atoms: C1_2  and  C2_3 
ROOT
ATOM      1  C2  UNL d   1       1.134   0.324   0.353  0.00  0.00    -0.081 A 
ATOM      2  C3  UNL d   1       0.782   0.809  -0.912  0.00  0.00     0.006 A 
ATOM      3  C4  UNL d   1      -0.409   0.404  -1.520  0.00  0.00     0.002 A 
ATOM      4  C5  UNL d   1      -1.270  -0.486  -0.869  0.00  0.00    -0.080 A 
ATOM      5  C6  UNL d   1      -2.566  -0.906  -1.498  0.00  0.00     0.076 C 
ATOM      6  C7  UNL d   1      -0.910  -0.984   0.387  0.00  0.00     0.002 A 
ATOM      7  C8  UNL d   1       0.281  -0.580   0.995  0.00  0.00     0.006 A 
ENDROOT
BRANCH   1   8
ATOM      8  C1  UNL d   1       2.386   0.810   1.039  0.00  0.00     0.054 C 
ATOM      9  C   UNL d   1       3.167   1.768   0.152  0.00  0.00     0.018 C 
ENDBRANCH   1   8
TORSDOF 1
ENDMDL
