MODEL 1
REMARK minimizedAffinity 3.60944176
REMARK minimizedRMSD -1
REMARK  0 active torsions:
REMARK  status: ('A' for Active; 'I' for Inactive)
ROOT
ATOM      1  C1  BNZ d   1      -0.144  -1.941   1.608  0.00  0.00     0.000 A 
ATOM      2  C2  BNZ d   1       1.217  -1.835   1.723  0.00  0.00     0.000 A 
ATOM      3  C3  BNZ d   1       1.779  -0.859   2.498  0.00  0.00     0.000 A 
ATOM      4  C4  BNZ d   1       0.984   0.032   3.123  0.00  0.00     0.000 A 
ATOM      5  C5  BNZ d   1      -0.390  -0.056   3.009  0.00  0.00     0.000 A 
ATOM      6  C6  BNZ d   1      -0.954  -1.063   2.260  0.00  0.00     0.000 A 
ENDROOT
TORSDOF 0
ENDMDL
