MODEL 1
REMARK minimizedAffinity 6.15029049
REMARK minimizedRMSD -1
REMARK  0 active torsions:
REMARK  status: ('A' for Active; 'I' for Inactive)
ROOT
ATOM      1  C1  BNZ d   1       1.667  -0.667   2.320  0.00  0.00     0.000 A 
ATOM      2  C2  BNZ d   1       1.323  -1.859   1.741  0.00  0.00     0.000 A 
ATOM      3  C3  BNZ d   1       0.010  -2.209   1.587  0.00  0.00     0.000 A 
ATOM      4  C4  BNZ d   1      -0.954  -1.387   2.049  0.00  0.00     0.000 A 
ATOM      5  C5  BNZ d   1      -0.622  -0.186   2.644  0.00  0.00     0.000 A 
ATOM      6  C6  BNZ d   1       0.699   0.181   2.762  0.00  0.00     0.000 A 
ENDROOT
TORSDOF 0
ENDMDL
