MODEL 1
REMARK minimizedAffinity -3.27355909
REMARK minimizedRMSD -1
REMARK  0 active torsions:
REMARK  status: ('A' for Active; 'I' for Inactive)
ROOT
ATOM      1  C1  BNZ d   1      -5.999   5.249   1.519  0.00  0.00     0.000 A 
ATOM      2  C2  BNZ d   1      -4.915   4.472   1.830  0.00  0.00     0.000 A 
ATOM      3  C3  BNZ d   1      -3.816   4.447   1.017  0.00  0.00     0.000 A 
ATOM      4  C4  BNZ d   1      -3.819   5.166  -0.124  0.00  0.00     0.000 A 
ATOM      5  C5  BNZ d   1      -4.908   5.947  -0.456  0.00  0.00     0.000 A 
ATOM      6  C6  BNZ d   1      -5.997   6.000   0.384  0.00  0.00     0.000 A 
ENDROOT
TORSDOF 0
ENDMDL
