MODEL 1
REMARK minimizedAffinity -1.75080931
REMARK minimizedRMSD -1
REMARK  0 active torsions:
REMARK  status: ('A' for Active; 'I' for Inactive)
ROOT
ATOM      1  C1  BNZ d   1       3.710   3.622   5.946  0.00  0.00     0.000 A 
ATOM      2  C2  BNZ d   1       3.071   4.832   5.996  0.00  0.00     0.000 A 
ATOM      3  C3  BNZ d   1       3.781   6.000   5.992  0.00  0.00     0.000 A 
ATOM      4  C4  BNZ d   1       5.129   5.956   5.979  0.00  0.00     0.000 A 
ATOM      5  C5  BNZ d   1       5.789   4.744   5.938  0.00  0.00     0.000 A 
ATOM      6  C6  BNZ d   1       5.070   3.571   5.903  0.00  0.00     0.000 A 
ENDROOT
TORSDOF 0
ENDMDL
