MODEL 1
REMARK minimizedAffinity 3.28335834
REMARK minimizedRMSD -1
REMARK  0 active torsions:
REMARK  status: ('A' for Active; 'I' for Inactive)
ROOT
ATOM      1  C1  BNZ d   1      -4.292   3.633  -4.829  0.00  0.00     0.000 A 
ATOM      2  C2  BNZ d   1      -3.840   4.833  -4.348  0.00  0.00     0.000 A 
ATOM      3  C3  BNZ d   1      -4.476   5.999  -4.668  0.00  0.00     0.000 A 
ATOM      4  C4  BNZ d   1      -5.538   5.969  -5.499  0.00  0.00     0.000 A 
ATOM      5  C5  BNZ d   1      -6.000   4.768  -6.000  0.00  0.00     0.000 A 
ATOM      6  C6  BNZ d   1      -5.380   3.592  -5.644  0.00  0.00     0.000 A 
ENDROOT
TORSDOF 0
ENDMDL
