MODEL 1
REMARK minimizedAffinity 9.54417324
REMARK minimizedRMSD -1
REMARK  0 active torsions:
REMARK  status: ('A' for Active; 'I' for Inactive)
ROOT
ATOM      1  C1  BNZ d   1       3.672   3.216   5.985  0.00  0.00     0.000 A 
ATOM      2  C2  BNZ d   1       2.642   4.118   6.000  0.00  0.00     0.000 A 
ATOM      3  C3  BNZ d   1       2.889   5.462   5.977  0.00  0.00     0.000 A 
ATOM      4  C4  BNZ d   1       4.164   5.903   5.980  0.00  0.00     0.000 A 
ATOM      5  C5  BNZ d   1       5.213   5.005   5.975  0.00  0.00     0.000 A 
ATOM      6  C6  BNZ d   1       4.960   3.653   5.958  0.00  0.00     0.000 A 
ENDROOT
TORSDOF 0
ENDMDL
