MODEL 1
REMARK minimizedAffinity 6.98975325
REMARK minimizedRMSD -1
REMARK  0 active torsions:
REMARK  status: ('A' for Active; 'I' for Inactive)
ROOT
ATOM      1  C1  BNZ d   1       5.999  -0.493  -4.116  0.00  0.00     0.000 A 
ATOM      2  C2  BNZ d   1       4.969  -0.986  -3.361  0.00  0.00     0.000 A 
ATOM      3  C3  BNZ d   1       3.926  -0.183  -2.992  0.00  0.00     0.000 A 
ATOM      4  C4  BNZ d   1       3.934   1.119  -3.344  0.00  0.00     0.000 A 
ATOM      5  C5  BNZ d   1       4.971   1.633  -4.097  0.00  0.00     0.000 A 
ATOM      6  C6  BNZ d   1       6.000   0.813  -4.500  0.00  0.00     0.000 A 
ENDROOT
TORSDOF 0
ENDMDL
