MODEL 1
REMARK minimizedAffinity 3.85638165
REMARK minimizedRMSD -1
REMARK  0 active torsions:
REMARK  status: ('A' for Active; 'I' for Inactive)
ROOT
ATOM      1  C1  BNZ d   1      -6.000   5.028   1.517  0.00  0.00     0.000 A 
ATOM      2  C2  BNZ d   1      -5.404   3.810   1.709  0.00  0.00     0.000 A 
ATOM      3  C3  BNZ d   1      -4.158   3.554   1.209  0.00  0.00     0.000 A 
ATOM      4  C4  BNZ d   1      -3.527   4.500   0.484  0.00  0.00     0.000 A 
ATOM      5  C5  BNZ d   1      -4.118   5.730   0.274  0.00  0.00     0.000 A 
ATOM      6  C6  BNZ d   1      -5.356   5.998   0.812  0.00  0.00     0.000 A 
ENDROOT
TORSDOF 0
ENDMDL
