MODEL 1
REMARK minimizedAffinity 8.37917614
REMARK minimizedRMSD -1
REMARK  0 active torsions:
REMARK  status: ('A' for Active; 'I' for Inactive)
ROOT
ATOM      1  C1  BNZ d   1       4.874   3.201   1.104  0.00  0.00     0.000 A 
ATOM      2  C2  BNZ d   1       4.891   4.570   1.074  0.00  0.00     0.000 A 
ATOM      3  C3  BNZ d   1       5.437   5.241   0.015  0.00  0.00     0.000 A 
ATOM      4  C4  BNZ d   1       6.000   4.543  -0.992  0.00  0.00     0.000 A 
ATOM      5  C5  BNZ d   1       5.999   3.162  -0.972  0.00  0.00     0.000 A 
ATOM      6  C6  BNZ d   1       5.414   2.491   0.077  0.00  0.00     0.000 A 
ENDROOT
TORSDOF 0
ENDMDL
