MODEL 1
REMARK minimizedAffinity 3.78312564
REMARK minimizedRMSD -1
REMARK  0 active torsions:
REMARK  status: ('A' for Active; 'I' for Inactive)
ROOT
ATOM      1  C1  BNZ d   1       3.675   5.654   6.000  0.00  0.00     0.000 A 
ATOM      2  C2  BNZ d   1       5.042   5.687   5.934  0.00  0.00     0.000 A 
ATOM      3  C3  BNZ d   1       5.767   4.531   5.854  0.00  0.00     0.000 A 
ATOM      4  C4  BNZ d   1       5.127   3.344   5.881  0.00  0.00     0.000 A 
ATOM      5  C5  BNZ d   1       3.750   3.294   5.957  0.00  0.00     0.000 A 
ATOM      6  C6  BNZ d   1       3.021   4.461   5.998  0.00  0.00     0.000 A 
ENDROOT
TORSDOF 0
ENDMDL
