MODEL 1
REMARK minimizedAffinity 7.63125658
REMARK minimizedRMSD -1
REMARK  0 active torsions:
REMARK  status: ('A' for Active; 'I' for Inactive)
ROOT
ATOM      1  C1  BNZ d   1      -1.763  -3.644   5.990  0.00  0.00     0.000 A 
ATOM      2  C2  BNZ d   1      -1.006  -2.503   5.997  0.00  0.00     0.000 A 
ATOM      3  C3  BNZ d   1      -1.522  -1.318   5.554  0.00  0.00     0.000 A 
ATOM      4  C4  BNZ d   1      -2.779  -1.283   5.067  0.00  0.00     0.000 A 
ATOM      5  C5  BNZ d   1      -3.552  -2.427   5.044  0.00  0.00     0.000 A 
ATOM      6  C6  BNZ d   1      -3.042  -3.610   5.528  0.00  0.00     0.000 A 
ENDROOT
TORSDOF 0
ENDMDL
