MODEL 1
REMARK minimizedAffinity 1.65561593
REMARK minimizedRMSD -1
REMARK  0 active torsions:
REMARK  status: ('A' for Active; 'I' for Inactive)
ROOT
ATOM      1  C1  BNZ d   1      -2.681   0.152   5.583  0.00  0.00     0.000 A 
ATOM      2  C2  BNZ d   1      -1.562  -0.518   5.999  0.00  0.00     0.000 A 
ATOM      3  C3  BNZ d   1      -1.523  -1.884   6.000  0.00  0.00     0.000 A 
ATOM      4  C4  BNZ d   1      -2.616  -2.579   5.622  0.00  0.00     0.000 A 
ATOM      5  C5  BNZ d   1      -3.755  -1.918   5.209  0.00  0.00     0.000 A 
ATOM      6  C6  BNZ d   1      -3.777  -0.543   5.172  0.00  0.00     0.000 A 
ENDROOT
TORSDOF 0
ENDMDL
