MODEL 1
REMARK minimizedAffinity 5.41416121
REMARK minimizedRMSD -1
REMARK  0 active torsions:
REMARK  status: ('A' for Active; 'I' for Inactive)
ROOT
ATOM      1  C1  BNZ d   1      -3.160  -1.039   5.991  0.00  0.00     0.000 A 
ATOM      2  C2  BNZ d   1      -3.653  -2.317   5.987  0.00  0.00     0.000 A 
ATOM      3  C3  BNZ d   1      -2.809  -3.392   5.999  0.00  0.00     0.000 A 
ATOM      4  C4  BNZ d   1      -1.476  -3.190   5.976  0.00  0.00     0.000 A 
ATOM      5  C5  BNZ d   1      -0.964  -1.908   5.970  0.00  0.00     0.000 A 
ATOM      6  C6  BNZ d   1      -1.816  -0.827   5.997  0.00  0.00     0.000 A 
ENDROOT
TORSDOF 0
ENDMDL
