MODEL 1
REMARK minimizedAffinity -0.0051896628
REMARK minimizedRMSD -1
REMARK  0 active torsions:
REMARK  status: ('A' for Active; 'I' for Inactive)
ROOT
ATOM      1  C   UNL d   1       1.601   1.862  -0.446  0.00  0.00     0.023 A 
ATOM      2  C1  UNL d   1       1.843   0.814  -1.334  0.00  0.00     0.003 A 
ATOM      3  C2  UNL d   1       1.297  -0.449  -1.093  0.00  0.00     0.048 A 
ATOM      4  C3  UNL d   1       0.509  -0.656   0.038  0.00  0.00     0.023 A 
ATOM      5  C4  UNL d   1       0.262   0.390   0.929  0.00  0.00     0.048 A 
ATOM      6  C5  UNL d   1       0.811   1.650   0.684  0.00  0.00     0.003 A 
ATOM      7  I   UNL d   1      -0.305  -2.534   0.400  0.00  0.00    -0.146 I 
ENDROOT
TORSDOF 0
ENDMDL
