MODEL 1
REMARK minimizedAffinity 0.726312578
REMARK minimizedRMSD -1
REMARK  0 active torsions:
REMARK  status: ('A' for Active; 'I' for Inactive)
ROOT
ATOM      1  C   UNL d   1       1.874   0.833  -0.817  0.00  0.00     0.023 A 
ATOM      2  C1  UNL d   1       1.681   1.749   0.217  0.00  0.00     0.003 A 
ATOM      3  C2  UNL d   1       0.586   1.615   1.073  0.00  0.00     0.048 A 
ATOM      4  C3  UNL d   1      -0.310   0.563   0.891  0.00  0.00     0.023 A 
ATOM      5  C4  UNL d   1      -0.120  -0.356  -0.142  0.00  0.00     0.048 A 
ATOM      6  C5  UNL d   1       0.975  -0.218  -0.997  0.00  0.00     0.003 A 
ATOM      7  I   UNL d   1      -1.940   0.362   2.165  0.00  0.00    -0.146 I 
ENDROOT
TORSDOF 0
ENDMDL
