MODEL 1
REMARK minimizedAffinity -2.71423864
REMARK minimizedRMSD -1
REMARK  0 active torsions:
REMARK  status: ('A' for Active; 'I' for Inactive)
ROOT
ATOM      1  C   UNL d   1       1.762  -0.081  -2.410  0.00  0.00     0.023 A 
ATOM      2  C1  UNL d   1       1.787   1.050  -1.593  0.00  0.00     0.003 A 
ATOM      3  C2  UNL d   1       1.181   1.019  -0.336  0.00  0.00     0.048 A 
ATOM      4  C3  UNL d   1       0.552  -0.147   0.099  0.00  0.00     0.023 A 
ATOM      5  C4  UNL d   1       0.525  -1.282  -0.714  0.00  0.00     0.048 A 
ATOM      6  C5  UNL d   1       1.132  -1.245  -1.970  0.00  0.00     0.003 A 
ATOM      7  I   UNL d   1      -0.352  -0.196   1.970  0.00  0.00    -0.146 I 
ENDROOT
TORSDOF 0
ENDMDL
