MODEL 1
REMARK minimizedAffinity -1.22388542
REMARK minimizedRMSD -1
REMARK  0 active torsions:
REMARK  status: ('A' for Active; 'I' for Inactive)
ROOT
ATOM      1  C   UNL d   1       2.059   0.635  -1.173  0.00  0.00     0.023 A 
ATOM      2  C1  UNL d   1       1.299  -0.485  -1.512  0.00  0.00     0.003 A 
ATOM      3  C2  UNL d   1      -0.061  -0.529  -1.197  0.00  0.00     0.048 A 
ATOM      4  C3  UNL d   1      -0.655   0.551  -0.545  0.00  0.00     0.023 A 
ATOM      5  C4  UNL d   1       0.102   1.674  -0.205  0.00  0.00     0.048 A 
ATOM      6  C5  UNL d   1       1.461   1.713  -0.521  0.00  0.00     0.003 A 
ATOM      7  I   UNL d   1      -2.678   0.488  -0.076  0.00  0.00    -0.146 I 
ENDROOT
TORSDOF 0
ENDMDL
