MODEL 1
REMARK minimizedAffinity -2.22318649
REMARK minimizedRMSD -1
REMARK  0 active torsions:
REMARK  status: ('A' for Active; 'I' for Inactive)
ROOT
ATOM      1  C   UNL d   1      -4.648   5.253  -5.983  0.00  0.00     0.023 A 
ATOM      2  C1  UNL d   1      -5.717   4.357  -5.984  0.00  0.00     0.003 A 
ATOM      3  C2  UNL d   1      -5.476   2.981  -5.989  0.00  0.00     0.048 A 
ATOM      4  C3  UNL d   1      -4.164   2.509  -5.992  0.00  0.00     0.023 A 
ATOM      5  C4  UNL d   1      -3.092   3.402  -5.990  0.00  0.00     0.048 A 
ATOM      6  C5  UNL d   1      -3.337   4.776  -5.986  0.00  0.00     0.003 A 
ATOM      7  I   UNL d   1      -3.803   0.462  -6.000  0.00  0.00    -0.146 I 
ENDROOT
TORSDOF 0
ENDMDL
