MODEL 1
REMARK minimizedAffinity 1.56055331
REMARK minimizedRMSD -1
REMARK  0 active torsions:
REMARK  status: ('A' for Active; 'I' for Inactive)
ROOT
ATOM      1  C   UNL d   1       1.095  -1.739  -2.964  0.00  0.00     0.023 A 
ATOM      2  C1  UNL d   1       1.002  -0.368  -3.206  0.00  0.00     0.003 A 
ATOM      3  C2  UNL d   1       0.803   0.518  -2.145  0.00  0.00     0.048 A 
ATOM      4  C3  UNL d   1       0.697   0.026  -0.845  0.00  0.00     0.023 A 
ATOM      5  C4  UNL d   1       0.790  -1.344  -0.598  0.00  0.00     0.048 A 
ATOM      6  C5  UNL d   1       0.989  -2.226  -1.662  0.00  0.00     0.003 A 
ATOM      7  I   UNL d   1       0.401   1.343   0.736  0.00  0.00    -0.146 I 
ENDROOT
TORSDOF 0
ENDMDL
