MODEL 1
REMARK minimizedAffinity 2.1639626
REMARK minimizedRMSD -1
REMARK  0 active torsions:
REMARK  status: ('A' for Active; 'I' for Inactive)
ROOT
ATOM      1  C   UNL d   1      -1.570   1.267  -5.719  0.00  0.00     0.023 A 
ATOM      2  C1  UNL d   1      -1.557   2.656  -5.598  0.00  0.00     0.003 A 
ATOM      3  C2  UNL d   1      -2.750   3.377  -5.679  0.00  0.00     0.048 A 
ATOM      4  C3  UNL d   1      -3.953   2.701  -5.879  0.00  0.00     0.023 A 
ATOM      5  C4  UNL d   1      -3.972   1.311  -6.000  0.00  0.00     0.048 A 
ATOM      6  C5  UNL d   1      -2.776   0.595  -5.919  0.00  0.00     0.003 A 
ATOM      7  I   UNL d   1      -5.731   3.772  -5.999  0.00  0.00    -0.146 I 
ENDROOT
TORSDOF 0
ENDMDL
