MODEL 1
REMARK minimizedAffinity 3.82058549
REMARK minimizedRMSD -1
REMARK  0 active torsions:
REMARK  status: ('A' for Active; 'I' for Inactive)
ROOT
ATOM      1  C   UNL d   1      -3.372   3.076  -5.939  0.00  0.00     0.023 A 
ATOM      2  C1  UNL d   1      -4.678   2.587  -5.977  0.00  0.00     0.003 A 
ATOM      3  C2  UNL d   1      -4.909   1.210  -5.994  0.00  0.00     0.048 A 
ATOM      4  C3  UNL d   1      -3.830   0.328  -5.972  0.00  0.00     0.023 A 
ATOM      5  C4  UNL d   1      -2.521   0.812  -5.933  0.00  0.00     0.048 A 
ATOM      6  C5  UNL d   1      -2.295   2.190  -5.917  0.00  0.00     0.003 A 
ATOM      7  I   UNL d   1      -4.171  -1.722  -5.998  0.00  0.00    -0.146 I 
ENDROOT
TORSDOF 0
ENDMDL
