MODEL 1
REMARK minimizedAffinity 4.3982935
REMARK minimizedRMSD -1
REMARK  0 active torsions:
REMARK  status: ('A' for Active; 'I' for Inactive)
ROOT
ATOM      1  C   UNL d   1      -2.717   1.991  -5.999  0.00  0.00     0.023 A 
ATOM      2  C1  UNL d   1      -4.088   1.735  -6.000  0.00  0.00     0.003 A 
ATOM      3  C2  UNL d   1      -4.997   2.795  -5.999  0.00  0.00     0.048 A 
ATOM      4  C3  UNL d   1      -4.528   4.108  -5.999  0.00  0.00     0.023 A 
ATOM      5  C4  UNL d   1      -3.157   4.369  -5.999  0.00  0.00     0.048 A 
ATOM      6  C5  UNL d   1      -2.252   3.306  -5.999  0.00  0.00     0.003 A 
ATOM      7  I   UNL d   1      -5.880   5.688  -5.999  0.00  0.00    -0.146 I 
ENDROOT
TORSDOF 0
ENDMDL
