MODEL 1
REMARK minimizedAffinity 2.34826374
REMARK minimizedRMSD -1
REMARK  0 active torsions:
REMARK  status: ('A' for Active; 'I' for Inactive)
ROOT
ATOM      1  C   UNL d   1      -3.972  -4.316  -5.980  0.00  0.00     0.023 A 
ATOM      2  C1  UNL d   1      -5.323  -3.968  -5.995  0.00  0.00     0.003 A 
ATOM      3  C2  UNL d   1      -5.699  -2.623  -6.000  0.00  0.00     0.048 A 
ATOM      4  C3  UNL d   1      -4.719  -1.631  -5.992  0.00  0.00     0.023 A 
ATOM      5  C4  UNL d   1      -3.366  -1.974  -5.978  0.00  0.00     0.048 A 
ATOM      6  C5  UNL d   1      -2.995  -3.320  -5.972  0.00  0.00     0.003 A 
ATOM      7  I   UNL d   1      -5.277   0.371  -6.000  0.00  0.00    -0.146 I 
ENDROOT
TORSDOF 0
ENDMDL
