MODEL 1
REMARK minimizedAffinity 6.02385473
REMARK minimizedRMSD -1
REMARK  0 active torsions:
REMARK  status: ('A' for Active; 'I' for Inactive)
ROOT
ATOM      1  C   UNL d   1       1.318   2.973   1.567  0.00  0.00     0.023 A 
ATOM      2  C1  UNL d   1       1.124   2.471   0.280  0.00  0.00     0.003 A 
ATOM      3  C2  UNL d   1       1.111   3.339  -0.814  0.00  0.00     0.048 A 
ATOM      4  C3  UNL d   1       1.293   4.707  -0.614  0.00  0.00     0.023 A 
ATOM      5  C4  UNL d   1       1.488   5.213   0.672  0.00  0.00     0.048 A 
ATOM      6  C5  UNL d   1       1.500   4.342   1.763  0.00  0.00     0.003 A 
ATOM      7  I   UNL d   1       1.275   6.000  -2.241  0.00  0.00    -0.146 I 
ENDROOT
TORSDOF 0
ENDMDL
