MODEL 1
REMARK minimizedAffinity 16.605032
REMARK minimizedRMSD -1
REMARK  0 active torsions:
REMARK  status: ('A' for Active; 'I' for Inactive)
ROOT
ATOM      1  C   UNL d   1      -0.278  -1.097  -1.265  0.00  0.00     0.023 A 
ATOM      2  C1  UNL d   1      -0.455  -2.053  -2.266  0.00  0.00     0.003 A 
ATOM      3  C2  UNL d   1       0.299  -3.227  -2.253  0.00  0.00     0.048 A 
ATOM      4  C3  UNL d   1       1.229  -3.441  -1.236  0.00  0.00     0.023 A 
ATOM      5  C4  UNL d   1       1.409  -2.489  -0.232  0.00  0.00     0.048 A 
ATOM      6  C5  UNL d   1       0.653  -1.315  -0.249  0.00  0.00     0.003 A 
ATOM      7  I   UNL d   1       2.353  -5.189  -1.215  0.00  0.00    -0.146 I 
ENDROOT
TORSDOF 0
ENDMDL
