MODEL 1
REMARK minimizedAffinity 5.55754852
REMARK minimizedRMSD -1
REMARK  0 active torsions:
REMARK  status: ('A' for Active; 'I' for Inactive)
ROOT
ATOM      1  C   UNL d   1      -3.224   2.294   3.561  0.00  0.00     0.023 A 
ATOM      2  C1  UNL d   1      -2.750   1.371   4.494  0.00  0.00     0.003 A 
ATOM      3  C2  UNL d   1      -3.121   0.028   4.401  0.00  0.00     0.048 A 
ATOM      4  C3  UNL d   1      -3.965  -0.386   3.370  0.00  0.00     0.023 A 
ATOM      5  C4  UNL d   1      -4.440   0.534   2.434  0.00  0.00     0.048 A 
ATOM      6  C5  UNL d   1      -4.068   1.875   2.532  0.00  0.00     0.003 A 
ATOM      7  I   UNL d   1      -4.518  -2.384   3.228  0.00  0.00    -0.146 I 
ENDROOT
TORSDOF 0
ENDMDL
