MODEL 1
REMARK minimizedAffinity 15.7967348
REMARK minimizedRMSD -1
REMARK  0 active torsions:
REMARK  status: ('A' for Active; 'I' for Inactive)
ROOT
ATOM      1  C   UNL d   1      -3.490   3.051   1.613  0.00  0.00     0.023 A 
ATOM      2  C1  UNL d   1      -4.137   1.869   1.976  0.00  0.00     0.003 A 
ATOM      3  C2  UNL d   1      -3.914   1.307   3.234  0.00  0.00     0.048 A 
ATOM      4  C3  UNL d   1      -3.043   1.932   4.126  0.00  0.00     0.023 A 
ATOM      5  C4  UNL d   1      -2.394   3.115   3.768  0.00  0.00     0.048 A 
ATOM      6  C5  UNL d   1      -2.619   3.673   2.508  0.00  0.00     0.003 A 
ATOM      7  I   UNL d   1      -2.709   1.098   6.000  0.00  0.00    -0.146 I 
ENDROOT
TORSDOF 0
ENDMDL
