MODEL 1
REMARK minimizedAffinity 4.60322046
REMARK minimizedRMSD -1
REMARK  0 active torsions:
REMARK  status: ('A' for Active; 'I' for Inactive)
ROOT
ATOM      1  C   UNL d   1      -0.663   5.999  -3.887  0.00  0.00     0.023 A 
ATOM      2  C1  UNL d   1      -0.599   5.779  -5.263  0.00  0.00     0.003 A 
ATOM      3  C2  UNL d   1      -1.487   4.889  -5.871  0.00  0.00     0.048 A 
ATOM      4  C3  UNL d   1      -2.437   4.223  -5.097  0.00  0.00     0.023 A 
ATOM      5  C4  UNL d   1      -2.506   4.441  -3.720  0.00  0.00     0.048 A 
ATOM      6  C5  UNL d   1      -1.615   5.331  -3.117  0.00  0.00     0.003 A 
ATOM      7  I   UNL d   1      -3.760   2.899  -6.000  0.00  0.00    -0.146 I 
ENDROOT
TORSDOF 0
ENDMDL
