MODEL 1
REMARK minimizedAffinity 8.81160545
REMARK minimizedRMSD -1
REMARK  0 active torsions:
REMARK  status: ('A' for Active; 'I' for Inactive)
ROOT
ATOM      1  C   UNL d   1      -0.840   5.983  -3.367  0.00  0.00     0.023 A 
ATOM      2  C1  UNL d   1      -0.725   5.950  -4.757  0.00  0.00     0.003 A 
ATOM      3  C2  UNL d   1      -1.611   5.180  -5.513  0.00  0.00     0.048 A 
ATOM      4  C3  UNL d   1      -2.610   4.447  -4.874  0.00  0.00     0.023 A 
ATOM      5  C4  UNL d   1      -2.730   4.478  -3.484  0.00  0.00     0.048 A 
ATOM      6  C5  UNL d   1      -1.841   5.249  -2.731  0.00  0.00     0.003 A 
ATOM      7  I   UNL d   1      -3.929   3.301  -5.999  0.00  0.00    -0.146 I 
ENDROOT
TORSDOF 0
ENDMDL
