MODEL 1
REMARK minimizedAffinity -0.253054917
REMARK minimizedRMSD -1
REMARK  0 active torsions:
REMARK  status: ('A' for Active; 'I' for Inactive)
ROOT
ATOM      1  C   UNL d   1       2.034   0.316  -1.028  0.00  0.00     0.023 A 
ATOM      2  C1  UNL d   1       1.692  -0.908  -0.453  0.00  0.00     0.003 A 
ATOM      3  C2  UNL d   1       0.944  -0.942   0.725  0.00  0.00     0.048 A 
ATOM      4  C3  UNL d   1       0.540   0.251   1.323  0.00  0.00     0.023 A 
ATOM      5  C4  UNL d   1       0.879   1.478   0.750  0.00  0.00     0.048 A 
ATOM      6  C5  UNL d   1       1.628   1.507  -0.428  0.00  0.00     0.003 A 
ATOM      7  I   UNL d   1      -0.575   0.203   3.076  0.00  0.00    -0.146 I 
ENDROOT
TORSDOF 0
ENDMDL
