MODEL 1
REMARK minimizedAffinity 5.12310934
REMARK minimizedRMSD -1
REMARK  1 active torsions:
REMARK  status: ('A' for Active; 'I' for Inactive)
REMARK    1  A    between atoms: C1_2  and  C2_3 
ROOT
ATOM      1  C2  UNL d   1       4.687  -3.194  -1.687  0.00  0.00    -0.076 A 
ATOM      2  C3  UNL d   1       4.433  -2.570  -2.920  0.00  0.00     0.004 A 
ATOM      3  C4  UNL d   1       4.391  -3.308  -4.102  0.00  0.00    -0.003 A 
ATOM      4  C5  UNL d   1       4.603  -4.682  -4.069  0.00  0.00     0.000 A 
ATOM      5  C6  UNL d   1       4.839  -5.320  -2.852  0.00  0.00     0.000 A 
ATOM      6  C7  UNL d   1       4.868  -4.593  -1.649  0.00  0.00    -0.073 A 
ATOM      7  C8  UNL d   1       5.133  -5.331  -0.366  0.00  0.00     0.078 C 
ENDROOT
BRANCH   1   8
ATOM      8  C1  UNL d   1       4.748  -2.338  -0.441  0.00  0.00     0.053 C 
ATOM      9  C   UNL d   1       3.372  -1.878   0.017  0.00  0.00     0.018 C 
ENDBRANCH   1   8
TORSDOF 1
ENDMDL
