MODEL 1
REMARK minimizedAffinity -0.307422638
REMARK minimizedRMSD -1
REMARK  1 active torsions:
REMARK  status: ('A' for Active; 'I' for Inactive)
REMARK    1  A    between atoms: C1_2  and  C2_3 
ROOT
ATOM      1  C2  UNL d   1      -5.631   3.534  -3.311  0.00  0.00    -0.076 A 
ATOM      2  C3  UNL d   1      -5.986   2.679  -4.369  0.00  0.00     0.004 A 
ATOM      3  C4  UNL d   1      -5.999   3.135  -5.686  0.00  0.00    -0.003 A 
ATOM      4  C5  UNL d   1      -5.657   4.453  -5.967  0.00  0.00     0.000 A 
ATOM      5  C6  UNL d   1      -5.285   5.310  -4.932  0.00  0.00     0.000 A 
ATOM      6  C7  UNL d   1      -5.251   4.862  -3.600  0.00  0.00    -0.073 A 
ATOM      7  C8  UNL d   1      -4.848   5.831  -2.523  0.00  0.00     0.078 C 
ENDROOT
BRANCH   1   8
ATOM      8  C1  UNL d   1      -5.661   2.992  -1.900  0.00  0.00     0.053 C 
ATOM      9  C   UNL d   1      -5.999   1.509  -1.853  0.00  0.00     0.018 C 
ENDBRANCH   1   8
TORSDOF 1
ENDMDL
