MODEL 1
REMARK minimizedAffinity 11.4422102
REMARK minimizedRMSD -1
REMARK  1 active torsions:
REMARK  status: ('A' for Active; 'I' for Inactive)
REMARK    1  A    between atoms: C1_2  and  C2_3 
ROOT
ATOM      1  C2  UNL d   1      -0.536   3.282   0.708  0.00  0.00    -0.076 A 
ATOM      2  C3  UNL d   1      -0.388   4.339  -0.207  0.00  0.00     0.004 A 
ATOM      3  C4  UNL d   1      -1.246   5.437  -0.180  0.00  0.00    -0.003 A 
ATOM      4  C5  UNL d   1      -2.267   5.495   0.762  0.00  0.00     0.000 A 
ATOM      5  C6  UNL d   1      -2.418   4.464   1.688  0.00  0.00     0.000 A 
ATOM      6  C7  UNL d   1      -1.551   3.358   1.685  0.00  0.00    -0.073 A 
ATOM      7  C8  UNL d   1      -1.764   2.271   2.703  0.00  0.00     0.078 C 
ENDROOT
BRANCH   1   8
ATOM      8  C1  UNL d   1       0.408   2.104   0.613  0.00  0.00     0.053 C 
ATOM      9  C   UNL d   1       0.142   1.241  -0.611  0.00  0.00     0.018 C 
ENDBRANCH   1   8
TORSDOF 1
ENDMDL
