MODEL 1
REMARK minimizedAffinity 4.13756418
REMARK minimizedRMSD -1
REMARK  1 active torsions:
REMARK  status: ('A' for Active; 'I' for Inactive)
REMARK    1  A    between atoms: C1_2  and  C2_3 
ROOT
ATOM      1  C2  UNL d   1      -5.824   3.909  -3.815  0.00  0.00    -0.076 A 
ATOM      2  C3  UNL d   1      -5.908   5.229  -3.340  0.00  0.00     0.004 A 
ATOM      3  C4  UNL d   1      -5.995   5.497  -1.975  0.00  0.00    -0.003 A 
ATOM      4  C5  UNL d   1      -6.000   4.448  -1.062  0.00  0.00     0.000 A 
ATOM      5  C6  UNL d   1      -5.899   3.133  -1.514  0.00  0.00     0.000 A 
ATOM      6  C7  UNL d   1      -5.794   2.846  -2.886  0.00  0.00    -0.073 A 
ATOM      7  C8  UNL d   1      -5.694   1.409  -3.318  0.00  0.00     0.078 C 
ENDROOT
BRANCH   1   8
ATOM      8  C1  UNL d   1      -5.759   3.679  -5.308  0.00  0.00     0.053 C 
ATOM      9  C   UNL d   1      -4.654   4.484  -5.974  0.00  0.00     0.018 C 
ENDBRANCH   1   8
TORSDOF 1
ENDMDL
