MODEL 1
REMARK minimizedAffinity -3.54102755
REMARK minimizedRMSD -1
REMARK  1 active torsions:
REMARK  status: ('A' for Active; 'I' for Inactive)
REMARK    1  A    between atoms: C1_2  and  C2_3 
ROOT
ATOM      1  C2  UNL d   1      -5.258   4.096  -3.398  0.00  0.00    -0.076 A 
ATOM      2  C3  UNL d   1      -5.993   5.256  -3.700  0.00  0.00     0.004 A 
ATOM      3  C4  UNL d   1      -5.999   5.786  -4.989  0.00  0.00    -0.003 A 
ATOM      4  C5  UNL d   1      -5.270   5.165  -5.997  0.00  0.00     0.000 A 
ATOM      5  C6  UNL d   1      -4.550   4.004  -5.720  0.00  0.00     0.000 A 
ATOM      6  C7  UNL d   1      -4.547   3.447  -4.430  0.00  0.00    -0.073 A 
ATOM      7  C8  UNL d   1      -3.748   2.196  -4.185  0.00  0.00     0.078 C 
ENDROOT
BRANCH   1   8
ATOM      8  C1  UNL d   1      -5.268   3.582  -1.976  0.00  0.00     0.053 C 
ATOM      9  C   UNL d   1      -4.119   2.627  -1.694  0.00  0.00     0.018 C 
ENDBRANCH   1   8
TORSDOF 1
ENDMDL
