MODEL 1
REMARK minimizedAffinity 3.51263833
REMARK minimizedRMSD -1
REMARK  1 active torsions:
REMARK  status: ('A' for Active; 'I' for Inactive)
REMARK    1  A    between atoms: C1_2  and  C2_3 
ROOT
ATOM      1  C2  UNL d   1       0.960   3.251   2.273  0.00  0.00    -0.076 A 
ATOM      2  C3  UNL d   1       1.995   3.878   1.558  0.00  0.00     0.004 A 
ATOM      3  C4  UNL d   1       1.717   4.706   0.472  0.00  0.00    -0.003 A 
ATOM      4  C5  UNL d   1       0.399   4.922   0.084  0.00  0.00     0.000 A 
ATOM      5  C6  UNL d   1      -0.641   4.323   0.794  0.00  0.00     0.000 A 
ATOM      6  C7  UNL d   1      -0.379   3.498   1.901  0.00  0.00    -0.073 A 
ATOM      7  C8  UNL d   1      -1.538   2.872   2.626  0.00  0.00     0.078 C 
ENDROOT
BRANCH   1   8
ATOM      8  C1  UNL d   1       1.324   2.342   3.426  0.00  0.00     0.053 C 
ATOM      9  C   UNL d   1       2.576   2.800   4.157  0.00  0.00     0.018 C 
ENDBRANCH   1   8
TORSDOF 1
ENDMDL
