MODEL 1
REMARK minimizedAffinity -3.79892492
REMARK minimizedRMSD -1
REMARK  1 active torsions:
REMARK  status: ('A' for Active; 'I' for Inactive)
REMARK    1  A    between atoms: C1_2  and  C2_3 
ROOT
ATOM      1  C2  UNL d   1      -5.223   4.309  -3.444  0.00  0.00    -0.076 A 
ATOM      2  C3  UNL d   1      -5.944   4.683  -2.296  0.00  0.00     0.004 A 
ATOM      3  C4  UNL d   1      -6.000   3.850  -1.180  0.00  0.00    -0.003 A 
ATOM      4  C5  UNL d   1      -5.335   2.629  -1.193  0.00  0.00     0.000 A 
ATOM      5  C6  UNL d   1      -4.601   2.249  -2.316  0.00  0.00     0.000 A 
ATOM      6  C7  UNL d   1      -4.521   3.085  -3.444  0.00  0.00    -0.073 A 
ATOM      7  C8  UNL d   1      -3.719   2.623  -4.630  0.00  0.00     0.078 C 
ENDROOT
BRANCH   1   8
ATOM      8  C1  UNL d   1      -5.221   5.242  -4.634  0.00  0.00     0.053 C 
ATOM      9  C   UNL d   1      -5.998   4.681  -5.814  0.00  0.00     0.018 C 
ENDBRANCH   1   8
TORSDOF 1
ENDMDL
