MODEL 1
REMARK minimizedAffinity -0.996471107
REMARK minimizedRMSD -1
REMARK  1 active torsions:
REMARK  status: ('A' for Active; 'I' for Inactive)
REMARK    1  A    between atoms: C1_2  and  C2_3 
ROOT
ATOM      1  C2  UNL d   1       0.203  -1.650  -1.911  0.00  0.00    -0.076 A 
ATOM      2  C3  UNL d   1       0.655  -2.309  -0.755  0.00  0.00     0.004 A 
ATOM      3  C4  UNL d   1       0.714  -3.700  -0.698  0.00  0.00    -0.003 A 
ATOM      4  C5  UNL d   1       0.324  -4.456  -1.799  0.00  0.00     0.000 A 
ATOM      5  C6  UNL d   1      -0.110  -3.819  -2.961  0.00  0.00     0.000 A 
ATOM      6  C7  UNL d   1      -0.161  -2.416  -3.039  0.00  0.00    -0.073 A 
ATOM      7  C8  UNL d   1      -0.643  -1.782  -4.315  0.00  0.00     0.078 C 
ENDROOT
BRANCH   1   8
ATOM      8  C1  UNL d   1       0.134  -0.140  -1.904  0.00  0.00     0.053 C 
ATOM      9  C   UNL d   1       0.860   0.471  -0.715  0.00  0.00     0.018 C 
ENDBRANCH   1   8
TORSDOF 1
ENDMDL
