MODEL 1
REMARK minimizedAffinity -4.73502731
REMARK minimizedRMSD -1
REMARK  0 active torsions:
REMARK  status: ('A' for Active; 'I' for Inactive)
ROOT
ATOM      1  C2' OXE d   1      -1.636   0.081   1.834  0.00  0.00     0.078 C 
ATOM      2  C1' OXE d   1      -0.214  -1.954   3.143  0.00  0.00     0.078 C 
ATOM      3  C1  OXE d   1       0.377  -1.386   1.878  0.00  0.00    -0.078 A 
ATOM      4  C2  OXE d   1      -0.348  -0.423   1.218  0.00  0.00    -0.078 A 
ATOM      5  C3  OXE d   1       0.177   0.174   0.076  0.00  0.00     0.003 A 
ATOM      6  C4  OXE d   1       1.363  -0.305  -0.493  0.00  0.00    -0.002 A 
ATOM      7  C5  OXE d   1       2.098  -1.312   0.141  0.00  0.00    -0.002 A 
ATOM      8  C6  OXE d   1       1.641  -1.833   1.347  0.00  0.00     0.003 A 
ENDROOT
TORSDOF 0
ENDMDL
