MODEL 1
REMARK minimizedAffinity -1.5006187
REMARK minimizedRMSD -1
REMARK  0 active torsions:
REMARK  status: ('A' for Active; 'I' for Inactive)
ROOT
ATOM      1  C2' OXE d   1      -0.577   0.868  -0.555  0.00  0.00     0.078 C 
ATOM      2  C1' OXE d   1      -1.265  -0.361   1.874  0.00  0.00     0.078 C 
ATOM      3  C1  OXE d   1       0.072  -0.703   1.266  0.00  0.00    -0.078 A 
ATOM      4  C2  OXE d   1       0.381  -0.133   0.055  0.00  0.00    -0.078 A 
ATOM      5  C3  OXE d   1       1.625  -0.372  -0.523  0.00  0.00     0.003 A 
ATOM      6  C4  OXE d   1       2.501  -1.306   0.042  0.00  0.00    -0.002 A 
ATOM      7  C5  OXE d   1       2.189  -1.929   1.256  0.00  0.00    -0.002 A 
ATOM      8  C6  OXE d   1       1.000  -1.606   1.901  0.00  0.00     0.003 A 
ENDROOT
TORSDOF 0
ENDMDL
