MODEL 1
REMARK minimizedAffinity -2.02329874
REMARK minimizedRMSD -1
REMARK  0 active torsions:
REMARK  status: ('A' for Active; 'I' for Inactive)
ROOT
ATOM      1  C2' OXE d   1      -1.788   1.131   0.510  0.00  0.00     0.078 C 
ATOM      2  C1' OXE d   1      -1.675  -1.308   1.896  0.00  0.00     0.078 C 
ATOM      3  C1  OXE d   1      -0.497  -0.935   1.032  0.00  0.00    -0.078 A 
ATOM      4  C2  OXE d   1      -0.580   0.238   0.320  0.00  0.00    -0.078 A 
ATOM      5  C3  OXE d   1       0.501   0.656  -0.449  0.00  0.00     0.003 A 
ATOM      6  C4  OXE d   1       1.610  -0.180  -0.627  0.00  0.00    -0.002 A 
ATOM      7  C5  OXE d   1       1.698  -1.398   0.057  0.00  0.00    -0.002 A 
ATOM      8  C6  OXE d   1       0.674  -1.769   0.921  0.00  0.00     0.003 A 
ENDROOT
TORSDOF 0
ENDMDL
