MODEL 1
REMARK minimizedAffinity -2.4243176
REMARK minimizedRMSD -1
REMARK  0 active torsions:
REMARK  status: ('A' for Active; 'I' for Inactive)
ROOT
ATOM      1  C2' OXE d   1      -0.770   1.564  -1.181  0.00  0.00     0.078 C 
ATOM      2  C1' OXE d   1      -1.420   0.105   1.127  0.00  0.00     0.078 C 
ATOM      3  C1  OXE d   1      -0.027  -0.045   0.569  0.00  0.00    -0.078 A 
ATOM      4  C2  OXE d   1       0.268   0.636  -0.588  0.00  0.00    -0.078 A 
ATOM      5  C3  OXE d   1       1.555   0.575  -1.115  0.00  0.00     0.003 A 
ATOM      6  C4  OXE d   1       2.506  -0.293  -0.565  0.00  0.00    -0.002 A 
ATOM      7  C5  OXE d   1       2.214  -1.026   0.590  0.00  0.00    -0.002 A 
ATOM      8  C6  OXE d   1       0.969  -0.882   1.192  0.00  0.00     0.003 A 
ENDROOT
TORSDOF 0
ENDMDL
