MODEL 1
REMARK minimizedAffinity -4.42093325
REMARK minimizedRMSD -1
REMARK  0 active torsions:
REMARK  status: ('A' for Active; 'I' for Inactive)
ROOT
ATOM      1  C2' OXE d   1       1.978  -1.216  -0.260  0.00  0.00     0.078 C 
ATOM      2  C1' OXE d   1       1.186  -1.911   2.342  0.00  0.00     0.078 C 
ATOM      3  C1  OXE d   1       0.346  -0.904   1.596  0.00  0.00    -0.078 A 
ATOM      4  C2  OXE d   1       0.767  -0.535   0.341  0.00  0.00    -0.078 A 
ATOM      5  C3  OXE d   1      -0.001   0.348  -0.412  0.00  0.00     0.003 A 
ATOM      6  C4  OXE d   1      -1.113   0.981   0.155  0.00  0.00    -0.002 A 
ATOM      7  C5  OXE d   1      -1.537   0.649   1.447  0.00  0.00    -0.002 A 
ATOM      8  C6  OXE d   1      -0.845  -0.321   2.163  0.00  0.00     0.003 A 
ENDROOT
TORSDOF 0
ENDMDL
