MODEL 1
REMARK minimizedAffinity -4.35790586
REMARK minimizedRMSD -1
REMARK  0 active torsions:
REMARK  status: ('A' for Active; 'I' for Inactive)
ROOT
ATOM      1  C2' OXE d   1      -2.037   0.971   1.114  0.00  0.00     0.078 C 
ATOM      2  C1' OXE d   1      -1.625   1.289  -1.644  0.00  0.00     0.078 C 
ATOM      3  C1  OXE d   1      -0.667   0.405  -0.887  0.00  0.00    -0.078 A 
ATOM      4  C2  OXE d   1      -0.848   0.292   0.470  0.00  0.00    -0.078 A 
ATOM      5  C3  OXE d   1      -0.025  -0.555   1.208  0.00  0.00     0.003 A 
ATOM      6  C4  OXE d   1       1.078  -1.172   0.606  0.00  0.00    -0.002 A 
ATOM      7  C5  OXE d   1       1.305  -1.038  -0.768  0.00  0.00    -0.002 A 
ATOM      8  C6  OXE d   1       0.419  -0.290  -1.535  0.00  0.00     0.003 A 
ENDROOT
TORSDOF 0
ENDMDL
