MODEL 1
REMARK minimizedAffinity -0.732340872
REMARK minimizedRMSD -1
REMARK  0 active torsions:
REMARK  status: ('A' for Active; 'I' for Inactive)
ROOT
ATOM      1  C2' OXE d   1      -1.429   0.912  -1.490  0.00  0.00     0.078 C 
ATOM      2  C1' OXE d   1      -1.504   0.557   1.293  0.00  0.00     0.078 C 
ATOM      3  C1  OXE d   1      -0.244   0.158   0.567  0.00  0.00    -0.078 A 
ATOM      4  C2  OXE d   1      -0.233   0.292  -0.801  0.00  0.00    -0.078 A 
ATOM      5  C3  OXE d   1       0.924  -0.009  -1.514  0.00  0.00     0.003 A 
ATOM      6  C4  OXE d   1       2.022  -0.592  -0.870  0.00  0.00    -0.002 A 
ATOM      7  C5  OXE d   1       2.017  -0.774   0.517  0.00  0.00    -0.002 A 
ATOM      8  C6  OXE d   1       0.911  -0.365   1.254  0.00  0.00     0.003 A 
ENDROOT
TORSDOF 0
ENDMDL
