MODEL 1
REMARK minimizedAffinity -5.72906256
REMARK minimizedRMSD -1
REMARK  0 active torsions:
REMARK  status: ('A' for Active; 'I' for Inactive)
ROOT
ATOM      1  C2' OXE d   1       0.728  -0.158  -0.621  0.00  0.00     0.078 C 
ATOM      2  C1' OXE d   1      -1.558  -0.864   0.847  0.00  0.00     0.078 C 
ATOM      3  C1  OXE d   1      -1.726   0.113  -0.290  0.00  0.00    -0.078 A 
ATOM      4  C2  OXE d   1      -0.594   0.489  -0.973  0.00  0.00    -0.078 A 
ATOM      5  C3  OXE d   1      -0.701   1.346  -2.065  0.00  0.00     0.003 A 
ATOM      6  C4  OXE d   1      -1.926   1.947  -2.377  0.00  0.00    -0.002 A 
ATOM      7  C5  OXE d   1      -3.084   1.608  -1.669  0.00  0.00    -0.002 A 
ATOM      8  C6  OXE d   1      -3.009   0.663  -0.653  0.00  0.00     0.003 A 
ENDROOT
TORSDOF 0
ENDMDL
