MODEL 1
REMARK minimizedAffinity -3.73647952
REMARK minimizedRMSD -1
REMARK  0 active torsions:
REMARK  status: ('A' for Active; 'I' for Inactive)
ROOT
ATOM      1  C2' OXE d   1       0.459   0.822  -0.310  0.00  0.00     0.078 C 
ATOM      2  C1' OXE d   1      -1.479   0.205   1.624  0.00  0.00     0.078 C 
ATOM      3  C1  OXE d   1      -0.195  -0.586   1.637  0.00  0.00    -0.078 A 
ATOM      4  C2  OXE d   1       0.728  -0.309   0.658  0.00  0.00    -0.078 A 
ATOM      5  C3  OXE d   1       1.952  -0.972   0.657  0.00  0.00     0.003 A 
ATOM      6  C4  OXE d   1       2.189  -2.024   1.550  0.00  0.00    -0.002 A 
ATOM      7  C5  OXE d   1       1.246  -2.350   2.530  0.00  0.00    -0.002 A 
ATOM      8  C6  OXE d   1       0.069  -1.614   2.614  0.00  0.00     0.003 A 
ENDROOT
TORSDOF 0
ENDMDL
