MODEL 1
REMARK minimizedAffinity 4.71600103
REMARK minimizedRMSD -1
REMARK  0 active torsions:
REMARK  status: ('A' for Active; 'I' for Inactive)
ROOT
ATOM      1  C2' OXE d   1      -2.793  -3.830   0.716  0.00  0.00     0.078 C 
ATOM      2  C1' OXE d   1      -4.910  -4.824   2.269  0.00  0.00     0.078 C 
ATOM      3  C1  OXE d   1      -4.942  -5.089   0.785  0.00  0.00    -0.078 A 
ATOM      4  C2  OXE d   1      -3.926  -4.559   0.026  0.00  0.00    -0.078 A 
ATOM      5  C3  OXE d   1      -3.879  -4.820  -1.341  0.00  0.00     0.003 A 
ATOM      6  C4  OXE d   1      -4.936  -5.486  -1.972  0.00  0.00    -0.002 A 
ATOM      7  C5  OXE d   1      -6.000  -6.000  -1.223  0.00  0.00    -0.002 A 
ATOM      8  C6  OXE d   1      -5.997  -5.847   0.159  0.00  0.00     0.003 A 
ENDROOT
TORSDOF 0
ENDMDL
