MODEL 1
REMARK minimizedAffinity 6.9324789
REMARK minimizedRMSD -1
REMARK  0 active torsions:
REMARK  status: ('A' for Active; 'I' for Inactive)
ROOT
ATOM      1  C2' OXE d   1      -2.786  -3.850   0.697  0.00  0.00     0.078 C 
ATOM      2  C1' OXE d   1      -5.243  -4.567   1.850  0.00  0.00     0.078 C 
ATOM      3  C1  OXE d   1      -4.996  -4.966   0.417  0.00  0.00    -0.078 A 
ATOM      4  C2  OXE d   1      -3.810  -4.571  -0.154  0.00  0.00    -0.078 A 
ATOM      5  C3  OXE d   1      -3.507  -4.960  -1.456  0.00  0.00     0.003 A 
ATOM      6  C4  OXE d   1      -4.463  -5.617  -2.239  0.00  0.00    -0.002 A 
ATOM      7  C5  OXE d   1      -5.693  -5.994  -1.690  0.00  0.00    -0.002 A 
ATOM      8  C6  OXE d   1      -5.958  -5.715  -0.354  0.00  0.00     0.003 A 
ENDROOT
TORSDOF 0
ENDMDL
