MODEL 1
REMARK minimizedAffinity 3.65138602
REMARK minimizedRMSD -1
REMARK  0 active torsions:
REMARK  status: ('A' for Active; 'I' for Inactive)
ROOT
ATOM      1  C2' OXE d   1      -2.456  -2.998   1.142  0.00  0.00     0.078 C 
ATOM      2  C1' OXE d   1      -3.155  -0.302   1.493  0.00  0.00     0.078 C 
ATOM      3  C1  OXE d   1      -1.811  -0.606   0.880  0.00  0.00    -0.078 A 
ATOM      4  C2  OXE d   1      -1.458  -1.928   0.755  0.00  0.00    -0.078 A 
ATOM      5  C3  OXE d   1      -0.252  -2.265   0.146  0.00  0.00     0.003 A 
ATOM      6  C4  OXE d   1       0.670  -1.269  -0.201  0.00  0.00    -0.002 A 
ATOM      7  C5  OXE d   1       0.346   0.083  -0.045  0.00  0.00    -0.002 A 
ATOM      8  C6  OXE d   1      -0.905   0.431   0.453  0.00  0.00     0.003 A 
ENDROOT
TORSDOF 0
ENDMDL
