MODEL 1
REMARK minimizedAffinity 6.11241579
REMARK minimizedRMSD -1
REMARK  0 active torsions:
REMARK  status: ('A' for Active; 'I' for Inactive)
ROOT
ATOM      1  C2' OXE d   1      -0.997  -5.831  -3.185  0.00  0.00     0.078 C 
ATOM      2  C1' OXE d   1      -0.991  -5.998  -5.987  0.00  0.00     0.078 C 
ATOM      3  C1  OXE d   1       0.340  -5.894  -5.285  0.00  0.00    -0.078 A 
ATOM      4  C2  OXE d   1       0.325  -5.766  -3.917  0.00  0.00    -0.078 A 
ATOM      5  C3  OXE d   1       1.527  -5.721  -3.216  0.00  0.00     0.003 A 
ATOM      6  C4  OXE d   1       2.746  -5.651  -3.902  0.00  0.00    -0.002 A 
ATOM      7  C5  OXE d   1       2.781  -5.740  -5.297  0.00  0.00    -0.002 A 
ATOM      8  C6  OXE d   1       1.593  -5.905  -6.000  0.00  0.00     0.003 A 
ENDROOT
TORSDOF 0
ENDMDL
