MODEL 1
REMARK minimizedAffinity 2.02278161
REMARK minimizedRMSD -1
REMARK  0 active torsions:
REMARK  status: ('A' for Active; 'I' for Inactive)
ROOT
ATOM      1  C2' OXE d   1       1.402  -1.754   3.709  0.00  0.00     0.078 C 
ATOM      2  C1' OXE d   1      -0.753  -0.455   2.465  0.00  0.00     0.078 C 
ATOM      3  C1  OXE d   1       0.533  -0.586   1.688  0.00  0.00    -0.078 A 
ATOM      4  C2  OXE d   1       1.597  -1.181   2.322  0.00  0.00    -0.078 A 
ATOM      5  C3  OXE d   1       2.790  -1.376   1.632  0.00  0.00     0.003 A 
ATOM      6  C4  OXE d   1       2.965  -0.835   0.353  0.00  0.00    -0.002 A 
ATOM      7  C5  OXE d   1       1.907  -0.189  -0.296  0.00  0.00    -0.002 A 
ATOM      8  C6  OXE d   1       0.674  -0.094   0.340  0.00  0.00     0.003 A 
ENDROOT
TORSDOF 0
ENDMDL
