MODEL 1
REMARK minimizedAffinity -1.84920764
REMARK minimizedRMSD -1
REMARK  0 active torsions:
REMARK  status: ('A' for Active; 'I' for Inactive)
ROOT
ATOM      1  C2' OXE d   1      -0.169  -0.657   1.748  0.00  0.00     0.078 C 
ATOM      2  C1' OXE d   1       2.126  -2.217   1.319  0.00  0.00     0.078 C 
ATOM      3  C1  OXE d   1       1.987  -0.937   0.532  0.00  0.00    -0.078 A 
ATOM      4  C2  OXE d   1       0.839  -0.204   0.714  0.00  0.00    -0.078 A 
ATOM      5  C3  OXE d   1       0.686   1.011   0.054  0.00  0.00     0.003 A 
ATOM      6  C4  OXE d   1       1.618   1.418  -0.908  0.00  0.00    -0.002 A 
ATOM      7  C5  OXE d   1       2.775   0.666  -1.138  0.00  0.00    -0.002 A 
ATOM      8  C6  OXE d   1       2.995  -0.490  -0.397  0.00  0.00     0.003 A 
ENDROOT
TORSDOF 0
ENDMDL
