MODEL 1
REMARK minimizedAffinity -6.42974472
REMARK minimizedRMSD -1
REMARK  0 active torsions:
REMARK  status: ('A' for Active; 'I' for Inactive)
ROOT
ATOM      1  C2' OXE d   1       0.748  -0.037  -0.929  0.00  0.00     0.078 C 
ATOM      2  C1' OXE d   1      -1.281   0.456   0.947  0.00  0.00     0.078 C 
ATOM      3  C1  OXE d   1      -0.356  -0.709   1.200  0.00  0.00    -0.078 A 
ATOM      4  C2  OXE d   1       0.604  -0.971   0.253  0.00  0.00    -0.078 A 
ATOM      5  C3  OXE d   1       1.518  -1.999   0.464  0.00  0.00     0.003 A 
ATOM      6  C4  OXE d   1       1.372  -2.865   1.555  0.00  0.00    -0.002 A 
ATOM      7  C5  OXE d   1       0.375  -2.640   2.511  0.00  0.00    -0.002 A 
ATOM      8  C6  OXE d   1      -0.468  -1.543   2.371  0.00  0.00     0.003 A 
ENDROOT
TORSDOF 0
ENDMDL
