MODEL 1
REMARK minimizedAffinity -0.888397813
REMARK minimizedRMSD -1
REMARK  0 active torsions:
REMARK  status: ('A' for Active; 'I' for Inactive)
ROOT
ATOM      1  C2' OXE d   1       2.700   0.772  -0.525  0.00  0.00     0.078 C 
ATOM      2  C1' OXE d   1       2.252  -1.412   1.181  0.00  0.00     0.078 C 
ATOM      3  C1  OXE d   1       1.129  -0.423   0.995  0.00  0.00    -0.078 A 
ATOM      4  C2  OXE d   1       1.373   0.668   0.196  0.00  0.00    -0.078 A 
ATOM      5  C3  OXE d   1       0.353   1.582  -0.053  0.00  0.00     0.003 A 
ATOM      6  C4  OXE d   1      -0.868   1.484   0.625  0.00  0.00    -0.002 A 
ATOM      7  C5  OXE d   1      -1.123   0.402   1.475  0.00  0.00    -0.002 A 
ATOM      8  C6  OXE d   1      -0.153  -0.581   1.637  0.00  0.00     0.003 A 
ENDROOT
TORSDOF 0
ENDMDL
