MODEL 1
REMARK minimizedAffinity -1.75906062
REMARK minimizedRMSD -1
REMARK  0 active torsions:
REMARK  status: ('A' for Active; 'I' for Inactive)
ROOT
ATOM      1  C2' OXE d   1      -0.570   1.357  -0.933  0.00  0.00     0.078 C 
ATOM      2  C1' OXE d   1       1.708  -0.070  -0.123  0.00  0.00     0.078 C 
ATOM      3  C1  OXE d   1       0.469  -0.179   0.730  0.00  0.00    -0.078 A 
ATOM      4  C2  OXE d   1      -0.627   0.560   0.352  0.00  0.00    -0.078 A 
ATOM      5  C3  OXE d   1      -1.813   0.453   1.073  0.00  0.00     0.003 A 
ATOM      6  C4  OXE d   1      -1.854  -0.279   2.265  0.00  0.00    -0.002 A 
ATOM      7  C5  OXE d   1      -0.737  -1.007   2.690  0.00  0.00    -0.002 A 
ATOM      8  C6  OXE d   1       0.416  -1.002   1.913  0.00  0.00     0.003 A 
ENDROOT
TORSDOF 0
ENDMDL
