MODEL 1
REMARK minimizedAffinity 3.69286776
REMARK minimizedRMSD -1
REMARK  1 active torsions:
REMARK  status: ('A' for Active; 'I' for Inactive)
REMARK    1  A    between atoms: C1_2  and  C2_3 
ROOT
ATOM      1  C2  UNL d   1      -2.970   1.594  -4.806  0.00  0.00    -0.081 A 
ATOM      2  C3  UNL d   1      -2.993   1.053  -3.515  0.00  0.00     0.006 A 
ATOM      3  C4  UNL d   1      -2.708   1.853  -2.406  0.00  0.00     0.002 A 
ATOM      4  C5  UNL d   1      -2.402   3.208  -2.568  0.00  0.00    -0.080 A 
ATOM      5  C6  UNL d   1      -2.123   4.085  -1.384  0.00  0.00     0.076 C 
ATOM      6  C7  UNL d   1      -2.362   3.745  -3.859  0.00  0.00     0.002 A 
ATOM      7  C8  UNL d   1      -2.647   2.946  -4.969  0.00  0.00     0.006 A 
ENDROOT
BRANCH   1   8
ATOM      8  C1  UNL d   1      -3.341   0.750  -5.998  0.00  0.00     0.054 C 
ATOM      9  C   UNL d   1      -4.808   0.346  -5.956  0.00  0.00     0.018 C 
ENDBRANCH   1   8
TORSDOF 1
ENDMDL
