MODEL 1
REMARK minimizedAffinity 1.96287501
REMARK minimizedRMSD -1
REMARK  1 active torsions:
REMARK  status: ('A' for Active; 'I' for Inactive)
REMARK    1  A    between atoms: C1_2  and  C2_3 
ROOT
ATOM      1  C2  UNL d   1       1.902   4.622   2.705  0.00  0.00    -0.081 A 
ATOM      2  C3  UNL d   1       0.602   4.115   2.826  0.00  0.00     0.006 A 
ATOM      3  C4  UNL d   1      -0.234   4.549   3.857  0.00  0.00     0.002 A 
ATOM      4  C5  UNL d   1       0.211   5.503   4.778  0.00  0.00    -0.080 A 
ATOM      5  C6  UNL d   1      -0.688   6.000   5.871  0.00  0.00     0.076 C 
ATOM      6  C7  UNL d   1       1.515   5.997   4.668  0.00  0.00     0.002 A 
ATOM      7  C8  UNL d   1       2.352   5.563   3.638  0.00  0.00     0.006 A 
ENDROOT
BRANCH   1   8
ATOM      8  C1  UNL d   1       2.784   4.204   1.556  0.00  0.00     0.054 C 
ATOM      9  C   UNL d   1       2.582   2.736   1.209  0.00  0.00     0.018 C 
ENDBRANCH   1   8
TORSDOF 1
ENDMDL
