MODEL 1
REMARK minimizedAffinity -4.95886898
REMARK minimizedRMSD -1
REMARK  1 active torsions:
REMARK  status: ('A' for Active; 'I' for Inactive)
REMARK    1  A    between atoms: C1_2  and  C2_3 
ROOT
ATOM      1  C2  UNL d   1      -0.275  -1.506   0.492  0.00  0.00    -0.081 A 
ATOM      2  C3  UNL d   1      -0.704  -1.680   1.813  0.00  0.00     0.006 A 
ATOM      3  C4  UNL d   1      -1.986  -1.280   2.200  0.00  0.00     0.002 A 
ATOM      4  C5  UNL d   1      -2.861  -0.708   1.271  0.00  0.00    -0.080 A 
ATOM      5  C6  UNL d   1      -4.250  -0.303   1.665  0.00  0.00     0.076 C 
ATOM      6  C7  UNL d   1      -2.426  -0.518  -0.045  0.00  0.00     0.002 A 
ATOM      7  C8  UNL d   1      -1.145  -0.916  -0.432  0.00  0.00     0.006 A 
ENDROOT
BRANCH   1   8
ATOM      8  C1  UNL d   1       1.083  -1.994   0.056  0.00  0.00     0.054 C 
ATOM      9  C   UNL d   1       1.396  -1.562  -1.369  0.00  0.00     0.018 C 
ENDBRANCH   1   8
TORSDOF 1
ENDMDL
