MODEL 1
REMARK minimizedAffinity 1.91627133
REMARK minimizedRMSD -1
REMARK  1 active torsions:
REMARK  status: ('A' for Active; 'I' for Inactive)
REMARK    1  A    between atoms: C1_2  and  C2_3 
ROOT
ATOM      1  C2  UNL d   1      -0.133  -1.222   0.898  0.00  0.00    -0.081 A 
ATOM      2  C3  UNL d   1       0.960  -1.513   0.073  0.00  0.00     0.006 A 
ATOM      3  C4  UNL d   1       1.779  -2.611   0.344  0.00  0.00     0.002 A 
ATOM      4  C5  UNL d   1       1.515  -3.441   1.438  0.00  0.00    -0.080 A 
ATOM      5  C6  UNL d   1       2.369  -4.641   1.723  0.00  0.00     0.076 C 
ATOM      6  C7  UNL d   1       0.433  -3.141   2.273  0.00  0.00     0.002 A 
ATOM      7  C8  UNL d   1      -0.386  -2.042   2.003  0.00  0.00     0.006 A 
ENDROOT
BRANCH   1   8
ATOM      8  C1  UNL d   1      -1.057  -0.077   0.571  0.00  0.00     0.054 C 
ATOM      9  C   UNL d   1      -2.516  -0.496   0.673  0.00  0.00     0.018 C 
ENDBRANCH   1   8
TORSDOF 1
ENDMDL
