MODEL 1
REMARK minimizedAffinity 1.03964162
REMARK minimizedRMSD -1
REMARK  1 active torsions:
REMARK  status: ('A' for Active; 'I' for Inactive)
REMARK    1  A    between atoms: C1_2  and  C2_3 
ROOT
ATOM      1  C2  UNL d   1       0.016  -1.309   1.143  0.00  0.00    -0.081 A 
ATOM      2  C3  UNL d   1       0.991  -1.712   0.222  0.00  0.00     0.006 A 
ATOM      3  C4  UNL d   1       1.822  -2.800   0.501  0.00  0.00     0.002 A 
ATOM      4  C5  UNL d   1       1.688  -3.507   1.700  0.00  0.00    -0.080 A 
ATOM      5  C6  UNL d   1       2.554  -4.695   1.998  0.00  0.00     0.076 C 
ATOM      6  C7  UNL d   1       0.726  -3.094   2.628  0.00  0.00     0.002 A 
ATOM      7  C8  UNL d   1      -0.105  -2.006   2.350  0.00  0.00     0.006 A 
ENDROOT
BRANCH   1   8
ATOM      8  C1  UNL d   1      -0.925  -0.178   0.818  0.00  0.00     0.054 C 
ATOM      9  C   UNL d   1      -2.279  -0.699   0.359  0.00  0.00     0.018 C 
ENDBRANCH   1   8
TORSDOF 1
ENDMDL
