MODEL 1
REMARK minimizedAffinity -3.59575772
REMARK minimizedRMSD -1
REMARK  1 active torsions:
REMARK  status: ('A' for Active; 'I' for Inactive)
REMARK    1  A    between atoms: C1_2  and  C2_3 
ROOT
ATOM      1  C2  UNL d   1      -0.296  -1.042   1.271  0.00  0.00    -0.081 A 
ATOM      2  C3  UNL d   1      -1.587  -0.620   0.930  0.00  0.00     0.006 A 
ATOM      3  C4  UNL d   1      -1.852  -0.111  -0.344  0.00  0.00     0.002 A 
ATOM      4  C5  UNL d   1      -0.834  -0.023  -1.299  0.00  0.00    -0.080 A 
ATOM      5  C6  UNL d   1      -1.112   0.493  -2.680  0.00  0.00     0.076 C 
ATOM      6  C7  UNL d   1       0.460  -0.428  -0.953  0.00  0.00     0.002 A 
ATOM      7  C8  UNL d   1       0.726  -0.937   0.320  0.00  0.00     0.006 A 
ENDROOT
BRANCH   1   8
ATOM      8  C1  UNL d   1      -0.021  -1.651   2.621  0.00  0.00     0.054 C 
ATOM      9  C   UNL d   1      -1.261  -2.328   3.186  0.00  0.00     0.018 C 
ENDBRANCH   1   8
TORSDOF 1
ENDMDL
