MODEL 1
REMARK minimizedAffinity -1.9637394
REMARK minimizedRMSD -1
REMARK  1 active torsions:
REMARK  status: ('A' for Active; 'I' for Inactive)
REMARK    1  A    between atoms: C1_2  and  C2_3 
ROOT
ATOM      1  C2  UNL d   1       0.391  -1.210   0.599  0.00  0.00    -0.081 A 
ATOM      2  C3  UNL d   1       0.883  -2.440   1.050  0.00  0.00     0.006 A 
ATOM      3  C4  UNL d   1       0.196  -3.162   2.029  0.00  0.00     0.002 A 
ATOM      4  C5  UNL d   1      -0.997  -2.670   2.567  0.00  0.00    -0.080 A 
ATOM      5  C6  UNL d   1      -1.760  -3.449   3.597  0.00  0.00     0.076 C 
ATOM      6  C7  UNL d   1      -1.480  -1.432   2.129  0.00  0.00     0.002 A 
ATOM      7  C8  UNL d   1      -0.794  -0.710   1.151  0.00  0.00     0.006 A 
ENDROOT
BRANCH   1   8
ATOM      8  C1  UNL d   1       1.095  -0.460  -0.503  0.00  0.00     0.054 C 
ATOM      9  C   UNL d   1       0.334  -0.565  -1.818  0.00  0.00     0.018 C 
ENDBRANCH   1   8
TORSDOF 1
ENDMDL
