MODEL 1
REMARK minimizedAffinity 3.38042712
REMARK minimizedRMSD -1
REMARK  0 active torsions:
REMARK  status: ('A' for Active; 'I' for Inactive)
ROOT
ATOM      1  C   UNL d   1       4.449  -3.011   4.296  0.00  0.00     0.078 C 
ATOM      2  C1  UNL d   1       4.308  -3.354   2.843  0.00  0.00    -0.077 A 
ATOM      3  C2  UNL d   1       5.309  -4.065   2.170  0.00  0.00    -0.001 A 
ATOM      4  C3  UNL d   1       5.169  -4.369   0.815  0.00  0.00     0.003 A 
ATOM      5  C4  UNL d   1       4.029  -3.965   0.121  0.00  0.00    -0.005 A 
ATOM      6  C5  UNL d   1       3.029  -3.256   0.783  0.00  0.00     0.003 A 
ATOM      7  C6  UNL d   1       3.167  -2.951   2.138  0.00  0.00    -0.001 A 
ENDROOT
TORSDOF 0
ENDMDL
