MODEL 1
REMARK minimizedAffinity -4.73160553
REMARK minimizedRMSD -1
REMARK  0 active torsions:
REMARK  status: ('A' for Active; 'I' for Inactive)
ROOT
ATOM      1  C   UNL d   1      -5.987  -0.789  -4.442  0.00  0.00     0.078 C 
ATOM      2  C1  UNL d   1      -4.545  -0.379  -4.432  0.00  0.00    -0.077 A 
ATOM      3  C2  UNL d   1      -4.051   0.543  -5.362  0.00  0.00    -0.001 A 
ATOM      4  C3  UNL d   1      -2.704   0.909  -5.347  0.00  0.00     0.003 A 
ATOM      5  C4  UNL d   1      -1.839   0.355  -4.405  0.00  0.00    -0.005 A 
ATOM      6  C5  UNL d   1      -2.321  -0.566  -3.476  0.00  0.00     0.003 A 
ATOM      7  C6  UNL d   1      -3.668  -0.932  -3.490  0.00  0.00    -0.001 A 
ENDROOT
TORSDOF 0
ENDMDL
