MODEL 1
REMARK minimizedAffinity 8.014925
REMARK minimizedRMSD -1
REMARK  0 active torsions:
REMARK  status: ('A' for Active; 'I' for Inactive)
ROOT
ATOM      1  C   UNL d   1       5.380  -5.431   2.256  0.00  0.00     0.078 C 
ATOM      2  C1  UNL d   1       5.415  -4.691   3.560  0.00  0.00    -0.077 A 
ATOM      3  C2  UNL d   1       4.890  -5.260   4.727  0.00  0.00    -0.001 A 
ATOM      4  C3  UNL d   1       4.922  -4.556   5.932  0.00  0.00     0.003 A 
ATOM      5  C4  UNL d   1       5.476  -3.279   5.981  0.00  0.00    -0.005 A 
ATOM      6  C5  UNL d   1       5.999  -2.703   4.825  0.00  0.00     0.003 A 
ATOM      7  C6  UNL d   1       5.968  -3.406   3.619  0.00  0.00    -0.001 A 
ENDROOT
TORSDOF 0
ENDMDL
