MODEL 1
REMARK minimizedAffinity -0.27254039
REMARK minimizedRMSD -1
REMARK  0 active torsions:
REMARK  status: ('A' for Active; 'I' for Inactive)
ROOT
ATOM      1  C   UNL d   1      -1.926  -1.459  -5.569  0.00  0.00     0.078 C 
ATOM      2  C1  UNL d   1      -3.190  -0.679  -5.362  0.00  0.00    -0.077 A 
ATOM      3  C2  UNL d   1      -3.261   0.681  -5.688  0.00  0.00    -0.001 A 
ATOM      4  C3  UNL d   1      -4.441   1.397  -5.480  0.00  0.00     0.003 A 
ATOM      5  C4  UNL d   1      -5.560   0.761  -4.945  0.00  0.00    -0.005 A 
ATOM      6  C5  UNL d   1      -5.499  -0.591  -4.616  0.00  0.00     0.003 A 
ATOM      7  C6  UNL d   1      -4.319  -1.309  -4.822  0.00  0.00    -0.001 A 
ENDROOT
TORSDOF 0
ENDMDL
