MODEL 1
REMARK minimizedAffinity 0.82023108
REMARK minimizedRMSD -1
REMARK  0 active torsions:
REMARK  status: ('A' for Active; 'I' for Inactive)
ROOT
ATOM      1  C   UNL d   1      -3.597   0.444  -1.885  0.00  0.00     0.078 C 
ATOM      2  C1  UNL d   1      -3.746  -0.291  -3.184  0.00  0.00    -0.077 A 
ATOM      3  C2  UNL d   1      -4.486  -1.477  -3.261  0.00  0.00    -0.001 A 
ATOM      4  C3  UNL d   1      -4.609  -2.155  -4.474  0.00  0.00     0.003 A 
ATOM      5  C4  UNL d   1      -3.993  -1.656  -5.620  0.00  0.00    -0.005 A 
ATOM      6  C5  UNL d   1      -3.253  -0.478  -5.553  0.00  0.00     0.003 A 
ATOM      7  C6  UNL d   1      -3.129   0.202  -4.341  0.00  0.00    -0.001 A 
ENDROOT
TORSDOF 0
ENDMDL
