MODEL 1
REMARK minimizedAffinity -1.71606708
REMARK minimizedRMSD -1
REMARK  0 active torsions:
REMARK  status: ('A' for Active; 'I' for Inactive)
ROOT
ATOM      1  C   UNL d   1      -3.368  -1.502  -2.482  0.00  0.00     0.078 C 
ATOM      2  C1  UNL d   1      -3.739  -0.734  -3.715  0.00  0.00    -0.077 A 
ATOM      3  C2  UNL d   1      -2.898  -0.715  -4.834  0.00  0.00    -0.001 A 
ATOM      4  C3  UNL d   1      -3.252   0.012  -5.971  0.00  0.00     0.003 A 
ATOM      5  C4  UNL d   1      -4.447   0.729  -6.000  0.00  0.00    -0.005 A 
ATOM      6  C5  UNL d   1      -5.289   0.718  -4.890  0.00  0.00     0.003 A 
ATOM      7  C6  UNL d   1      -4.937  -0.009  -3.752  0.00  0.00    -0.001 A 
ENDROOT
TORSDOF 0
ENDMDL
