MODEL 1
REMARK minimizedAffinity -1.20489776
REMARK minimizedRMSD -1
REMARK  0 active torsions:
REMARK  status: ('A' for Active; 'I' for Inactive)
ROOT
ATOM      1  C   UNL d   1      -2.186   1.184  -5.895  0.00  0.00     0.078 C 
ATOM      2  C1  UNL d   1      -3.258   0.388  -5.213  0.00  0.00    -0.077 A 
ATOM      3  C2  UNL d   1      -2.934  -0.656  -4.337  0.00  0.00    -0.001 A 
ATOM      4  C3  UNL d   1      -3.943  -1.396  -3.718  0.00  0.00     0.003 A 
ATOM      5  C4  UNL d   1      -5.281  -1.101  -3.967  0.00  0.00    -0.005 A 
ATOM      6  C5  UNL d   1      -5.613  -0.066  -4.839  0.00  0.00     0.003 A 
ATOM      7  C6  UNL d   1      -4.606   0.675  -5.460  0.00  0.00    -0.001 A 
ENDROOT
TORSDOF 0
ENDMDL
