MODEL 1
REMARK minimizedAffinity 3.56541848
REMARK minimizedRMSD -1
REMARK  0 active torsions:
REMARK  status: ('A' for Active; 'I' for Inactive)
ROOT
ATOM      1  C1  DEN d   1       0.834   1.253  -3.579  0.00  0.00     0.130 A 
ATOM      2  C2  DEN d   1      -0.440   0.570  -3.786  0.00  0.00    -0.031 A 
ATOM      3  C3  DEN d   1      -0.773  -0.160  -2.547  0.00  0.00     0.027 A 
ATOM      4  C4  DEN d   1       0.549  -0.293  -0.336  0.00  0.00     0.027 A 
ATOM      5  C5  DEN d   1       1.695   0.112   0.312  0.00  0.00    -0.003 A 
ATOM      6  C6  DEN d   1       2.642   0.891  -0.297  0.00  0.00     0.001 A 
ATOM      7  C7  DEN d   1       2.440   1.328  -1.579  0.00  0.00     0.017 A 
ATOM      8  C8  DEN d   1       1.291   0.918  -2.242  0.00  0.00    -0.094 A 
ATOM      9  C9  DEN d   1       0.339   0.140  -1.605  0.00  0.00    -0.072 A 
ENDROOT
TORSDOF 0
ENDMDL
