MODEL 1
REMARK minimizedAffinity 3.35338044
REMARK minimizedRMSD -1
REMARK  0 active torsions:
REMARK  status: ('A' for Active; 'I' for Inactive)
ROOT
ATOM      1  C1  DEN d   1       1.868   0.434  -0.378  0.00  0.00     0.130 A 
ATOM      2  C2  DEN d   1       0.979  -0.548   0.237  0.00  0.00    -0.031 A 
ATOM      3  C3  DEN d   1      -0.054  -0.911  -0.754  0.00  0.00     0.027 A 
ATOM      4  C4  DEN d   1      -0.358  -0.056  -3.169  0.00  0.00     0.027 A 
ATOM      5  C5  DEN d   1       0.143   0.793  -4.130  0.00  0.00    -0.003 A 
ATOM      6  C6  DEN d   1       1.225   1.600  -3.899  0.00  0.00     0.001 A 
ATOM      7  C7  DEN d   1       1.870   1.543  -2.692  0.00  0.00     0.017 A 
ATOM      8  C8  DEN d   1       1.365   0.695  -1.714  0.00  0.00    -0.094 A 
ATOM      9  C9  DEN d   1       0.278  -0.123  -1.972  0.00  0.00    -0.072 A 
ENDROOT
TORSDOF 0
ENDMDL
