MODEL 1
REMARK minimizedAffinity 3.81832671
REMARK minimizedRMSD -1
REMARK  0 active torsions:
REMARK  status: ('A' for Active; 'I' for Inactive)
ROOT
ATOM      1  C1  DEN d   1      -0.016  -0.212   2.447  0.00  0.00     0.130 A 
ATOM      2  C2  DEN d   1      -1.164   0.439   3.073  0.00  0.00    -0.031 A 
ATOM      3  C3  DEN d   1      -2.031   0.965   1.999  0.00  0.00     0.027 A 
ATOM      4  C4  DEN d   1      -1.711   0.832  -0.557  0.00  0.00     0.027 A 
ATOM      5  C5  DEN d   1      -0.882   0.387  -1.562  0.00  0.00    -0.003 A 
ATOM      6  C6  DEN d   1       0.301  -0.254  -1.304  0.00  0.00     0.001 A 
ATOM      7  C7  DEN d   1       0.666  -0.508  -0.008  0.00  0.00     0.017 A 
ATOM      8  C8  DEN d   1      -0.161  -0.055   1.011  0.00  0.00    -0.094 A 
ATOM      9  C9  DEN d   1      -1.358   0.579   0.729  0.00  0.00    -0.072 A 
ENDROOT
TORSDOF 0
ENDMDL
