MODEL 1
REMARK minimizedAffinity -6.24177122
REMARK minimizedRMSD -1
REMARK  0 active torsions:
REMARK  status: ('A' for Active; 'I' for Inactive)
ROOT
ATOM      1  C1  DEN d   1       0.750  -0.474  -0.570  0.00  0.00     0.130 A 
ATOM      2  C2  DEN d   1      -0.459  -0.501  -1.389  0.00  0.00    -0.031 A 
ATOM      3  C3  DEN d   1      -1.567   0.053  -0.586  0.00  0.00     0.027 A 
ATOM      4  C4  DEN d   1      -1.528   0.952   1.832  0.00  0.00     0.027 A 
ATOM      5  C5  DEN d   1      -0.733   1.169   2.936  0.00  0.00    -0.003 A 
ATOM      6  C6  DEN d   1       0.592   0.825   2.960  0.00  0.00     0.001 A 
ATOM      7  C7  DEN d   1       1.175   0.287   1.843  0.00  0.00     0.017 A 
ATOM      8  C8  DEN d   1       0.379   0.058   0.729  0.00  0.00    -0.094 A 
ATOM      9  C9  DEN d   1      -0.957   0.424   0.720  0.00  0.00    -0.072 A 
ENDROOT
TORSDOF 0
ENDMDL
