MODEL 1
REMARK minimizedAffinity 0.203636989
REMARK minimizedRMSD -1
REMARK  0 active torsions:
REMARK  status: ('A' for Active; 'I' for Inactive)
ROOT
ATOM      1  C1  DEN d   1       2.140  -0.549   0.791  0.00  0.00     0.130 A 
ATOM      2  C2  DEN d   1       1.900  -0.466  -0.647  0.00  0.00    -0.031 A 
ATOM      3  C3  DEN d   1       0.483  -0.104  -0.852  0.00  0.00     0.027 A 
ATOM      4  C4  DEN d   1      -1.350   0.340   0.907  0.00  0.00     0.027 A 
ATOM      5  C5  DEN d   1      -1.626   0.377   2.256  0.00  0.00    -0.003 A 
ATOM      6  C6  DEN d   1      -0.682   0.079   3.203  0.00  0.00     0.001 A 
ATOM      7  C7  DEN d   1       0.596  -0.228   2.814  0.00  0.00     0.017 A 
ATOM      8  C8  DEN d   1       0.879  -0.275   1.456  0.00  0.00    -0.094 A 
ATOM      9  C9  DEN d   1      -0.086   0.042   0.515  0.00  0.00    -0.072 A 
ENDROOT
TORSDOF 0
ENDMDL
