MODEL 1
REMARK minimizedAffinity -3.34534812
REMARK minimizedRMSD -1
REMARK  0 active torsions:
REMARK  status: ('A' for Active; 'I' for Inactive)
ROOT
ATOM      1  C1  DEN d   1      -0.305  -0.965  -0.451  0.00  0.00     0.130 A 
ATOM      2  C2  DEN d   1       0.788  -0.176  -1.013  0.00  0.00    -0.031 A 
ATOM      3  C3  DEN d   1       1.141   0.875  -0.037  0.00  0.00     0.027 A 
ATOM      4  C4  DEN d   1       0.109   1.352   2.278  0.00  0.00     0.027 A 
ATOM      5  C5  DEN d   1      -0.854   0.958   3.180  0.00  0.00    -0.003 A 
ATOM      6  C6  DEN d   1      -1.717  -0.074   2.924  0.00  0.00     0.001 A 
ATOM      7  C7  DEN d   1      -1.604  -0.778   1.754  0.00  0.00     0.017 A 
ATOM      8  C8  DEN d   1      -0.641  -0.382   0.835  0.00  0.00    -0.094 A 
ATOM      9  C9  DEN d   1       0.230   0.657   1.119  0.00  0.00    -0.072 A 
ENDROOT
TORSDOF 0
ENDMDL
