MODEL 1
REMARK minimizedAffinity -2.05295277
REMARK minimizedRMSD -1
REMARK  0 active torsions:
REMARK  status: ('A' for Active; 'I' for Inactive)
ROOT
ATOM      1  C1  DEN d   1      -1.088   0.887   2.204  0.00  0.00     0.130 A 
ATOM      2  C2  DEN d   1      -0.101   0.481   3.200  0.00  0.00    -0.031 A 
ATOM      3  C3  DEN d   1       0.959  -0.280   2.508  0.00  0.00     0.027 A 
ATOM      4  C4  DEN d   1       1.169  -0.861   0.004  0.00  0.00     0.027 A 
ATOM      5  C5  DEN d   1       0.569  -0.742  -1.230  0.00  0.00    -0.003 A 
ATOM      6  C6  DEN d   1      -0.633  -0.107  -1.399  0.00  0.00     0.001 A 
ATOM      7  C7  DEN d   1      -1.252   0.473  -0.323  0.00  0.00     0.017 A 
ATOM      8  C8  DEN d   1      -0.656   0.352   0.925  0.00  0.00    -0.094 A 
ATOM      9  C9  DEN d   1       0.565  -0.283   1.074  0.00  0.00    -0.072 A 
ENDROOT
TORSDOF 0
ENDMDL
