MODEL 1
REMARK minimizedAffinity -2.73622799
REMARK minimizedRMSD -1
REMARK  0 active torsions:
REMARK  status: ('A' for Active; 'I' for Inactive)
ROOT
ATOM      1  C1  DEN d   1      -1.632   0.345   0.658  0.00  0.00     0.130 A 
ATOM      2  C2  DEN d   1      -1.060  -0.062  -0.622  0.00  0.00    -0.031 A 
ATOM      3  C3  DEN d   1       0.294  -0.595  -0.368  0.00  0.00     0.027 A 
ATOM      4  C4  DEN d   1       1.551  -0.833   1.872  0.00  0.00     0.027 A 
ATOM      5  C5  DEN d   1       1.476  -0.612   3.229  0.00  0.00    -0.003 A 
ATOM      6  C6  DEN d   1       0.384  -0.031   3.816  0.00  0.00     0.001 A 
ATOM      7  C7  DEN d   1      -0.699   0.309   3.048  0.00  0.00     0.017 A 
ATOM      8  C8  DEN d   1      -0.628   0.097   1.678  0.00  0.00    -0.094 A 
ATOM      9  C9  DEN d   1       0.480  -0.504   1.105  0.00  0.00    -0.072 A 
ENDROOT
TORSDOF 0
ENDMDL
