MODEL 1
REMARK minimizedAffinity -3.57246661
REMARK minimizedRMSD -1
REMARK  0 active torsions:
REMARK  status: ('A' for Active; 'I' for Inactive)
ROOT
ATOM      1  C1  DEN d   1       1.671  -1.389   0.021  0.00  0.00     0.130 A 
ATOM      2  C2  DEN d   1       0.868  -1.102  -1.164  0.00  0.00    -0.031 A 
ATOM      3  C3  DEN d   1      -0.385  -0.458  -0.722  0.00  0.00     0.027 A 
ATOM      4  C4  DEN d   1      -1.153   0.124   1.671  0.00  0.00     0.027 A 
ATOM      5  C5  DEN d   1      -0.815   0.063   3.004  0.00  0.00    -0.003 A 
ATOM      6  C6  DEN d   1       0.351  -0.512   3.436  0.00  0.00     0.001 A 
ATOM      7  C7  DEN d   1       1.242  -1.009   2.522  0.00  0.00     0.017 A 
ATOM      8  C8  DEN d   1       0.904  -0.957   1.176  0.00  0.00    -0.094 A 
ATOM      9  C9  DEN d   1      -0.273  -0.361   0.759  0.00  0.00    -0.072 A 
ENDROOT
TORSDOF 0
ENDMDL
