MODEL 1
REMARK minimizedAffinity 5.17958879
REMARK minimizedRMSD -1
REMARK  2 active torsions:
REMARK  status: ('A' for Active; 'I' for Inactive)
REMARK    1  A    between atoms: C2'_3  and  C1'_4 
REMARK    2  A    between atoms: C1'_4  and  C1_5 
ROOT
ATOM      1  C1  I4B d   1       2.047   1.036   0.303  0.00  0.00    -0.075 A 
ATOM      2  C2  I4B d   1       0.906   1.146  -0.451  0.00  0.00     0.003 A 
ATOM      3  C3  I4B d   1       0.221   2.383  -0.531  0.00  0.00     0.002 A 
ATOM      4  C4  I4B d   1       0.680   3.462   0.195  0.00  0.00    -0.004 A 
ATOM      5  C5  I4B d   1       1.850   3.355   0.941  0.00  0.00     0.002 A 
ATOM      6  C6  I4B d   1       2.546   2.138   0.986  0.00  0.00     0.003 A 
ENDROOT
BRANCH   1   7
ATOM      7  C1' I4B d   1       2.727  -0.293   0.392  0.00  0.00     0.060 C 
BRANCH   7   8
ATOM      8  C2' I4B d   1       1.992  -1.256  -0.519  0.00  0.00    -0.013 C 
ATOM      9  C4' I4B d   1       2.876  -1.725  -1.644  0.00  0.00     0.013 C 
ATOM     10  C3' I4B d   1       1.516  -2.408   0.313  0.00  0.00     0.013 C 
ENDBRANCH   7   8
ENDBRANCH   1   7
TORSDOF 2
ENDMDL
