MODEL 1
REMARK minimizedAffinity -2.38539839
REMARK minimizedRMSD -1
REMARK  2 active torsions:
REMARK  status: ('A' for Active; 'I' for Inactive)
REMARK    1  A    between atoms: C2'_3  and  C1'_4 
REMARK    2  A    between atoms: C1'_4  and  C1_5 
ROOT
ATOM      1  C1  I4B d   1      -1.730   1.637   1.498  0.00  0.00    -0.075 A 
ATOM      2  C2  I4B d   1      -2.335   0.873   0.531  0.00  0.00     0.003 A 
ATOM      3  C3  I4B d   1      -3.746   0.862   0.410  0.00  0.00     0.002 A 
ATOM      4  C4  I4B d   1      -4.510   1.585   1.303  0.00  0.00    -0.004 A 
ATOM      5  C5  I4B d   1      -3.894   2.377   2.268  0.00  0.00     0.002 A 
ATOM      6  C6  I4B d   1      -2.495   2.413   2.359  0.00  0.00     0.003 A 
ENDROOT
BRANCH   1   7
ATOM      7  C1' I4B d   1      -0.240   1.599   1.619  0.00  0.00     0.060 C 
BRANCH   7   8
ATOM      8  C2' I4B d   1       0.347   2.079   0.307  0.00  0.00    -0.013 C 
ATOM      9  C4' I4B d   1       0.292   3.580   0.201  0.00  0.00     0.013 C 
ATOM     10  C3' I4B d   1       1.760   1.582   0.223  0.00  0.00     0.013 C 
ENDBRANCH   7   8
ENDBRANCH   1   7
TORSDOF 2
ENDMDL
