MODEL 1
REMARK minimizedAffinity 8.74857426
REMARK minimizedRMSD -1
REMARK  2 active torsions:
REMARK  status: ('A' for Active; 'I' for Inactive)
REMARK    1  A    between atoms: C2'_3  and  C1'_4 
REMARK    2  A    between atoms: C1'_4  and  C1_5 
ROOT
ATOM      1  C1  I4B d   1      -4.348   0.858  -3.004  0.00  0.00    -0.075 A 
ATOM      2  C2  I4B d   1      -4.407   2.205  -3.264  0.00  0.00     0.003 A 
ATOM      3  C3  I4B d   1      -4.577   2.668  -4.591  0.00  0.00     0.002 A 
ATOM      4  C4  I4B d   1      -4.634   1.757  -5.627  0.00  0.00    -0.004 A 
ATOM      5  C5  I4B d   1      -4.597   0.392  -5.359  0.00  0.00     0.002 A 
ATOM      6  C6  I4B d   1      -4.466  -0.061  -4.038  0.00  0.00     0.003 A 
ENDROOT
BRANCH   1   7
ATOM      7  C1' I4B d   1      -4.135   0.405  -1.594  0.00  0.00     0.060 C 
BRANCH   7   8
ATOM      8  C2' I4B d   1      -5.410   0.672  -0.820  0.00  0.00    -0.013 C 
ATOM      9  C4' I4B d   1      -5.146   0.726   0.662  0.00  0.00     0.013 C 
ATOM     10  C3' I4B d   1      -5.989   1.964  -1.314  0.00  0.00     0.013 C 
ENDBRANCH   7   8
ENDBRANCH   1   7
TORSDOF 2
ENDMDL
