MODEL 1
REMARK minimizedAffinity 5.635005
REMARK minimizedRMSD -1
REMARK  2 active torsions:
REMARK  status: ('A' for Active; 'I' for Inactive)
REMARK    1  A    between atoms: C2'_3  and  C1'_4 
REMARK    2  A    between atoms: C1'_4  and  C1_5 
ROOT
ATOM      1  C1  I4B d   1       2.312  -0.647  -0.209  0.00  0.00    -0.075 A 
ATOM      2  C2  I4B d   1       2.837  -1.346   0.849  0.00  0.00     0.003 A 
ATOM      3  C3  I4B d   1       2.441  -2.685   1.085  0.00  0.00     0.002 A 
ATOM      4  C4  I4B d   1       1.487  -3.264   0.274  0.00  0.00    -0.004 A 
ATOM      5  C5  I4B d   1       0.972  -2.561  -0.811  0.00  0.00     0.002 A 
ATOM      6  C6  I4B d   1       1.397  -1.249  -1.062  0.00  0.00     0.003 A 
ENDROOT
BRANCH   1   7
ATOM      7  C1' I4B d   1       2.728   0.776  -0.409  0.00  0.00     0.060 C 
BRANCH   7   8
ATOM      8  C2' I4B d   1       2.062   1.613   0.665  0.00  0.00    -0.013 C 
ATOM      9  C4' I4B d   1       3.055   2.520   1.342  0.00  0.00     0.013 C 
ATOM     10  C3' I4B d   1       0.960   2.400   0.022  0.00  0.00     0.013 C 
ENDBRANCH   7   8
ENDBRANCH   1   7
TORSDOF 2
ENDMDL
