MODEL 1
REMARK minimizedAffinity -3.98644471
REMARK minimizedRMSD -1
REMARK  0 active torsions:
REMARK  status: ('A' for Active; 'I' for Inactive)
ROOT
ATOM      1  C   UNL d   1       0.746   1.214  -0.740  0.00  0.00     0.078 C 
ATOM      2  C1  UNL d   1       0.679  -0.025   0.102  0.00  0.00    -0.077 A 
ATOM      3  C2  UNL d   1      -0.532  -0.453   0.660  0.00  0.00    -0.001 A 
ATOM      4  C3  UNL d   1      -0.579  -1.603   1.449  0.00  0.00     0.003 A 
ATOM      5  C4  UNL d   1       0.583  -2.334   1.689  0.00  0.00    -0.005 A 
ATOM      6  C5  UNL d   1       1.793  -1.915   1.140  0.00  0.00     0.003 A 
ATOM      7  C6  UNL d   1       1.842  -0.765   0.351  0.00  0.00    -0.001 A 
ENDROOT
TORSDOF 0
ENDMDL
