MODEL 1
REMARK minimizedAffinity -2.80588722
REMARK minimizedRMSD -1
REMARK  0 active torsions:
REMARK  status: ('A' for Active; 'I' for Inactive)
ROOT
ATOM      1  C   UNL d   1      -1.676  -1.360   0.181  0.00  0.00     0.078 C 
ATOM      2  C1  UNL d   1      -0.480  -0.481  -0.033  0.00  0.00    -0.077 A 
ATOM      3  C2  UNL d   1      -0.582   0.708  -0.767  0.00  0.00    -0.001 A 
ATOM      4  C3  UNL d   1       0.542   1.511  -0.967  0.00  0.00     0.003 A 
ATOM      5  C4  UNL d   1       1.775   1.135  -0.438  0.00  0.00    -0.005 A 
ATOM      6  C5  UNL d   1       1.886  -0.048   0.291  0.00  0.00     0.003 A 
ATOM      7  C6  UNL d   1       0.763  -0.853   0.492  0.00  0.00    -0.001 A 
ENDROOT
TORSDOF 0
ENDMDL
