MODEL 1
REMARK minimizedAffinity -2.83612585
REMARK minimizedRMSD -1
REMARK  0 active torsions:
REMARK  status: ('A' for Active; 'I' for Inactive)
ROOT
ATOM      1  C   UNL d   1       0.052   0.528  -0.970  0.00  0.00     0.078 C 
ATOM      2  C1  UNL d   1       0.097  -0.535   0.086  0.00  0.00    -0.077 A 
ATOM      3  C2  UNL d   1      -1.081  -1.083   0.609  0.00  0.00    -0.001 A 
ATOM      4  C3  UNL d   1      -1.024  -2.065   1.599  0.00  0.00     0.003 A 
ATOM      5  C4  UNL d   1       0.208  -2.507   2.076  0.00  0.00    -0.005 A 
ATOM      6  C5  UNL d   1       1.385  -1.966   1.564  0.00  0.00     0.003 A 
ATOM      7  C6  UNL d   1       1.331  -0.984   0.574  0.00  0.00    -0.001 A 
ENDROOT
TORSDOF 0
ENDMDL
