MODEL 1
REMARK minimizedAffinity -4.81959867
REMARK minimizedRMSD -1
REMARK  0 active torsions:
REMARK  status: ('A' for Active; 'I' for Inactive)
ROOT
ATOM      1  C   UNL d   1      -2.081   1.294   1.374  0.00  0.00     0.078 C 
ATOM      2  C1  UNL d   1      -1.356  -0.004   1.174  0.00  0.00    -0.077 A 
ATOM      3  C2  UNL d   1      -1.785  -1.175   1.809  0.00  0.00    -0.001 A 
ATOM      4  C3  UNL d   1      -1.095  -2.374   1.622  0.00  0.00     0.003 A 
ATOM      5  C4  UNL d   1       0.030  -2.412   0.799  0.00  0.00    -0.005 A 
ATOM      6  C5  UNL d   1       0.466  -1.251   0.164  0.00  0.00     0.003 A 
ATOM      7  C6  UNL d   1      -0.223  -0.051   0.351  0.00  0.00    -0.001 A 
ENDROOT
TORSDOF 0
ENDMDL
