MODEL 1
REMARK minimizedAffinity -3.21245623
REMARK minimizedRMSD -1
REMARK  0 active torsions:
REMARK  status: ('A' for Active; 'I' for Inactive)
ROOT
ATOM      1  C   UNL d   1      -2.182  -2.520   1.084  0.00  0.00     0.078 C 
ATOM      2  C1  UNL d   1      -1.812  -1.140   0.630  0.00  0.00    -0.077 A 
ATOM      3  C2  UNL d   1      -2.563  -0.026   1.024  0.00  0.00    -0.001 A 
ATOM      4  C3  UNL d   1      -2.213   1.252   0.585  0.00  0.00     0.003 A 
ATOM      5  C4  UNL d   1      -1.111   1.428  -0.250  0.00  0.00    -0.005 A 
ATOM      6  C5  UNL d   1      -0.359   0.325  -0.649  0.00  0.00     0.003 A 
ATOM      7  C6  UNL d   1      -0.708  -0.954  -0.212  0.00  0.00    -0.001 A 
ENDROOT
TORSDOF 0
ENDMDL
