MODEL 1
REMARK minimizedAffinity -0.131435499
REMARK minimizedRMSD -1
REMARK  0 active torsions:
REMARK  status: ('A' for Active; 'I' for Inactive)
ROOT
ATOM      1  C   UNL d   1      -1.386  -2.182   1.357  0.00  0.00     0.078 C 
ATOM      2  C1  UNL d   1      -0.928  -0.786   1.059  0.00  0.00    -0.077 A 
ATOM      3  C2  UNL d   1      -1.771   0.312   1.272  0.00  0.00    -0.001 A 
ATOM      4  C3  UNL d   1      -1.335   1.605   0.981  0.00  0.00     0.003 A 
ATOM      5  C4  UNL d   1      -0.053   1.813   0.474  0.00  0.00    -0.005 A 
ATOM      6  C5  UNL d   1       0.793   0.727   0.257  0.00  0.00     0.003 A 
ATOM      7  C6  UNL d   1       0.357  -0.567   0.548  0.00  0.00    -0.001 A 
ENDROOT
TORSDOF 0
ENDMDL
