MODEL 1
REMARK minimizedAffinity -3.261204
REMARK minimizedRMSD -1
REMARK  0 active torsions:
REMARK  status: ('A' for Active; 'I' for Inactive)
ROOT
ATOM      1  C   UNL d   1      -2.062  -0.305   2.726  0.00  0.00     0.078 C 
ATOM      2  C1  UNL d   1      -0.929  -0.874   1.926  0.00  0.00    -0.077 A 
ATOM      3  C2  UNL d   1      -0.527  -2.205   2.089  0.00  0.00    -0.001 A 
ATOM      4  C3  UNL d   1       0.536  -2.718   1.344  0.00  0.00     0.003 A 
ATOM      5  C4  UNL d   1       1.206  -1.907   0.431  0.00  0.00    -0.005 A 
ATOM      6  C5  UNL d   1       0.815  -0.580   0.263  0.00  0.00     0.003 A 
ATOM      7  C6  UNL d   1      -0.247  -0.065   1.007  0.00  0.00    -0.001 A 
ENDROOT
TORSDOF 0
ENDMDL
