MODEL 1
REMARK minimizedAffinity -4.44733524
REMARK minimizedRMSD -1
REMARK  0 active torsions:
REMARK  status: ('A' for Active; 'I' for Inactive)
ROOT
ATOM      1  C   UNL d   1      -0.100  -2.660   1.108  0.00  0.00     0.078 C 
ATOM      2  C1  UNL d   1       0.226  -1.369   0.418  0.00  0.00    -0.077 A 
ATOM      3  C2  UNL d   1       1.219  -1.309  -0.568  0.00  0.00    -0.001 A 
ATOM      4  C3  UNL d   1       1.518  -0.098  -1.195  0.00  0.00     0.003 A 
ATOM      5  C4  UNL d   1       0.831   1.061  -0.842  0.00  0.00    -0.005 A 
ATOM      6  C5  UNL d   1      -0.157   1.012   0.140  0.00  0.00     0.003 A 
ATOM      7  C6  UNL d   1      -0.458  -0.198   0.768  0.00  0.00    -0.001 A 
ENDROOT
TORSDOF 0
ENDMDL
