MODEL 1
REMARK minimizedAffinity -4.37162638
REMARK minimizedRMSD -1
REMARK  0 active torsions:
REMARK  status: ('A' for Active; 'I' for Inactive)
ROOT
ATOM      1  C   UNL d   1      -1.829  -2.848   1.933  0.00  0.00     0.078 C 
ATOM      2  C1  UNL d   1      -1.304  -1.614   1.261  0.00  0.00    -0.077 A 
ATOM      3  C2  UNL d   1      -0.170  -1.667   0.441  0.00  0.00    -0.001 A 
ATOM      4  C3  UNL d   1       0.314  -0.509  -0.169  0.00  0.00     0.003 A 
ATOM      5  C4  UNL d   1      -0.329   0.711   0.035  0.00  0.00    -0.005 A 
ATOM      6  C5  UNL d   1      -1.456   0.773   0.851  0.00  0.00     0.003 A 
ATOM      7  C6  UNL d   1      -1.942  -0.384   1.463  0.00  0.00    -0.001 A 
ENDROOT
TORSDOF 0
ENDMDL
