MODEL 1
REMARK minimizedAffinity -6.20277596
REMARK minimizedRMSD -1
REMARK  0 active torsions:
REMARK  status: ('A' for Active; 'I' for Inactive)
ROOT
ATOM      1  C   UNL d   1       0.566   0.719  -0.840  0.00  0.00     0.078 C 
ATOM      2  C1  UNL d   1      -0.413   0.037   0.069  0.00  0.00    -0.077 A 
ATOM      3  C2  UNL d   1      -1.420   0.762   0.718  0.00  0.00    -0.001 A 
ATOM      4  C3  UNL d   1      -2.318   0.115   1.569  0.00  0.00     0.003 A 
ATOM      5  C4  UNL d   1      -2.218  -1.258   1.779  0.00  0.00    -0.005 A 
ATOM      6  C5  UNL d   1      -1.217  -1.988   1.140  0.00  0.00     0.003 A 
ATOM      7  C6  UNL d   1      -0.318  -1.343   0.289  0.00  0.00    -0.001 A 
ENDROOT
TORSDOF 0
ENDMDL
