MODEL 1
REMARK minimizedAffinity -4.19670248
REMARK minimizedRMSD -1
REMARK  0 active torsions:
REMARK  status: ('A' for Active; 'I' for Inactive)
ROOT
ATOM      1  C   UNL d   1       0.059   0.613  -0.649  0.00  0.00     0.078 C 
ATOM      2  C1  UNL d   1      -0.438  -0.605   0.071  0.00  0.00    -0.077 A 
ATOM      3  C2  UNL d   1      -1.809  -0.826   0.252  0.00  0.00    -0.001 A 
ATOM      4  C3  UNL d   1      -2.257  -1.959   0.933  0.00  0.00     0.003 A 
ATOM      5  C4  UNL d   1      -1.341  -2.879   1.440  0.00  0.00    -0.005 A 
ATOM      6  C5  UNL d   1       0.025  -2.666   1.266  0.00  0.00     0.003 A 
ATOM      7  C6  UNL d   1       0.475  -1.534   0.586  0.00  0.00    -0.001 A 
ENDROOT
TORSDOF 0
ENDMDL
