MODEL 1
REMARK minimizedAffinity -4.20672464
REMARK minimizedRMSD -1
REMARK  0 active torsions:
REMARK  status: ('A' for Active; 'I' for Inactive)
ROOT
ATOM      1  C   UNL d   1       0.490   1.010  -0.727  0.00  0.00     0.078 C 
ATOM      2  C1  UNL d   1       0.022  -0.127   0.130  0.00  0.00    -0.077 A 
ATOM      3  C2  UNL d   1       0.656  -1.375   0.084  0.00  0.00    -0.001 A 
ATOM      4  C3  UNL d   1       0.204  -2.427   0.881  0.00  0.00     0.003 A 
ATOM      5  C4  UNL d   1      -0.886  -2.244   1.729  0.00  0.00    -0.005 A 
ATOM      6  C5  UNL d   1      -1.525  -1.006   1.781  0.00  0.00     0.003 A 
ATOM      7  C6  UNL d   1      -1.074   0.047   0.985  0.00  0.00    -0.001 A 
ENDROOT
TORSDOF 0
ENDMDL
