MODEL 1
REMARK minimizedAffinity -5.28527212
REMARK minimizedRMSD -1
REMARK  0 active torsions:
REMARK  status: ('A' for Active; 'I' for Inactive)
ROOT
ATOM      1  C   UNL d   1      -1.218  -2.905   0.923  0.00  0.00     0.078 C 
ATOM      2  C1  UNL d   1      -0.644  -1.555   0.612  0.00  0.00    -0.077 A 
ATOM      3  C2  UNL d   1      -1.467  -0.428   0.508  0.00  0.00    -0.001 A 
ATOM      4  C3  UNL d   1      -0.919   0.821   0.208  0.00  0.00     0.003 A 
ATOM      5  C4  UNL d   1       0.454   0.953   0.009  0.00  0.00    -0.005 A 
ATOM      6  C5  UNL d   1       1.280  -0.164   0.109  0.00  0.00     0.003 A 
ATOM      7  C6  UNL d   1       0.735  -1.413   0.408  0.00  0.00    -0.001 A 
ENDROOT
TORSDOF 0
ENDMDL
