MODEL 1
REMARK minimizedAffinity -4.77335596
REMARK minimizedRMSD -1
REMARK  0 active torsions:
REMARK  status: ('A' for Active; 'I' for Inactive)
ROOT
ATOM      1  C   UNL d   1       1.935  -1.134   0.373  0.00  0.00     0.078 C 
ATOM      2  C1  UNL d   1       0.476  -1.460   0.494  0.00  0.00    -0.077 A 
ATOM      3  C2  UNL d   1       0.053  -2.707   0.971  0.00  0.00    -0.001 A 
ATOM      4  C3  UNL d   1      -1.308  -3.000   1.070  0.00  0.00     0.003 A 
ATOM      5  C4  UNL d   1      -2.257  -2.051   0.693  0.00  0.00    -0.005 A 
ATOM      6  C5  UNL d   1      -1.846  -0.809   0.216  0.00  0.00     0.003 A 
ATOM      7  C6  UNL d   1      -0.485  -0.514   0.116  0.00  0.00    -0.001 A 
ENDROOT
TORSDOF 0
ENDMDL
