MODEL 1
REMARK minimizedAffinity -5.33901358
REMARK minimizedRMSD -1
REMARK  0 active torsions:
REMARK  status: ('A' for Active; 'I' for Inactive)
ROOT
ATOM      1  C   UNL d   1       0.144   1.251  -0.183  0.00  0.00     0.078 C 
ATOM      2  C1  UNL d   1      -0.777   0.196   0.354  0.00  0.00    -0.077 A 
ATOM      3  C2  UNL d   1      -2.028   0.533   0.886  0.00  0.00    -0.001 A 
ATOM      4  C3  UNL d   1      -2.871  -0.458   1.392  0.00  0.00     0.003 A 
ATOM      5  C4  UNL d   1      -2.471  -1.793   1.372  0.00  0.00    -0.005 A 
ATOM      6  C5  UNL d   1      -1.228  -2.138   0.847  0.00  0.00     0.003 A 
ATOM      7  C6  UNL d   1      -0.384  -1.148   0.341  0.00  0.00    -0.001 A 
ENDROOT
TORSDOF 0
ENDMDL
