MODEL 1
REMARK minimizedAffinity 4.2576313
REMARK minimizedRMSD -1
REMARK  0 active torsions:
REMARK  status: ('A' for Active; 'I' for Inactive)
ROOT
ATOM      1  C   UNL d   1       1.407   5.824  -1.188  0.00  0.00     0.078 C 
ATOM      2  C1  UNL d   1       1.135   4.516  -0.507  0.00  0.00    -0.077 A 
ATOM      3  C2  UNL d   1       2.155   3.820   0.153  0.00  0.00    -0.001 A 
ATOM      4  C3  UNL d   1       1.889   2.599   0.775  0.00  0.00     0.003 A 
ATOM      5  C4  UNL d   1       0.603   2.062   0.740  0.00  0.00    -0.005 A 
ATOM      6  C5  UNL d   1      -0.418   2.746   0.083  0.00  0.00     0.003 A 
ATOM      7  C6  UNL d   1      -0.154   3.967  -0.538  0.00  0.00    -0.001 A 
ENDROOT
TORSDOF 0
ENDMDL
