MODEL 1
REMARK minimizedAffinity 4.46936464
REMARK minimizedRMSD -1
REMARK  0 active torsions:
REMARK  status: ('A' for Active; 'I' for Inactive)
ROOT
ATOM      1  C   UNL d   1       1.709   6.000  -1.881  0.00  0.00     0.078 C 
ATOM      2  C1  UNL d   1       0.670   4.933  -1.703  0.00  0.00    -0.077 A 
ATOM      3  C2  UNL d   1       1.028   3.635  -1.319  0.00  0.00    -0.001 A 
ATOM      4  C3  UNL d   1       0.051   2.650  -1.166  0.00  0.00     0.003 A 
ATOM      5  C4  UNL d   1      -1.289   2.952  -1.397  0.00  0.00    -0.005 A 
ATOM      6  C5  UNL d   1      -1.655   4.240  -1.782  0.00  0.00     0.003 A 
ATOM      7  C6  UNL d   1      -0.679   5.227  -1.934  0.00  0.00    -0.001 A 
ENDROOT
TORSDOF 0
ENDMDL
