MODEL 1
REMARK minimizedAffinity 12.7248697
REMARK minimizedRMSD -1
REMARK  0 active torsions:
REMARK  status: ('A' for Active; 'I' for Inactive)
ROOT
ATOM      1  C   UNL d   1      -4.728   1.043  -3.065  0.00  0.00     0.078 C 
ATOM      2  C1  UNL d   1      -3.403   0.863  -3.744  0.00  0.00    -0.077 A 
ATOM      3  C2  UNL d   1      -3.324   0.354  -5.046  0.00  0.00    -0.001 A 
ATOM      4  C3  UNL d   1      -2.084   0.183  -5.663  0.00  0.00     0.003 A 
ATOM      5  C4  UNL d   1      -0.913   0.517  -4.985  0.00  0.00    -0.005 A 
ATOM      6  C5  UNL d   1      -0.982   1.023  -3.688  0.00  0.00     0.003 A 
ATOM      7  C6  UNL d   1      -2.221   1.194  -3.070  0.00  0.00    -0.001 A 
ENDROOT
TORSDOF 0
ENDMDL
