MODEL 1
REMARK minimizedAffinity 3.60762906
REMARK minimizedRMSD -1
REMARK  0 active torsions:
REMARK  status: ('A' for Active; 'I' for Inactive)
ROOT
ATOM      1  C   UNL d   1       1.976  -0.457   2.164  0.00  0.00     0.078 C 
ATOM      2  C1  UNL d   1       3.095  -1.448   2.044  0.00  0.00    -0.077 A 
ATOM      3  C2  UNL d   1       3.566  -2.143   3.165  0.00  0.00    -0.001 A 
ATOM      4  C3  UNL d   1       4.615  -3.056   3.040  0.00  0.00     0.003 A 
ATOM      5  C4  UNL d   1       5.202  -3.282   1.797  0.00  0.00    -0.005 A 
ATOM      6  C5  UNL d   1       4.741  -2.593   0.676  0.00  0.00     0.003 A 
ATOM      7  C6  UNL d   1       3.692  -1.680   0.799  0.00  0.00    -0.001 A 
ENDROOT
TORSDOF 0
ENDMDL
