MODEL 1
REMARK minimizedAffinity 10.5724239
REMARK minimizedRMSD -1
REMARK  0 active torsions:
REMARK  status: ('A' for Active; 'I' for Inactive)
ROOT
ATOM      1  C   UNL d   1      -2.957   3.015  -1.520  0.00  0.00     0.078 C 
ATOM      2  C1  UNL d   1      -1.574   3.581  -1.639  0.00  0.00    -0.077 A 
ATOM      3  C2  UNL d   1      -1.368   4.897  -2.071  0.00  0.00    -0.001 A 
ATOM      4  C3  UNL d   1      -0.075   5.408  -2.187  0.00  0.00     0.003 A 
ATOM      5  C4  UNL d   1       1.024   4.609  -1.874  0.00  0.00    -0.005 A 
ATOM      6  C5  UNL d   1       0.829   3.298  -1.446  0.00  0.00     0.003 A 
ATOM      7  C6  UNL d   1      -0.464   2.785  -1.329  0.00  0.00    -0.001 A 
ENDROOT
TORSDOF 0
ENDMDL
