MODEL 1
REMARK minimizedAffinity -4.11746645
REMARK minimizedRMSD -1
REMARK  0 active torsions:
REMARK  status: ('A' for Active; 'I' for Inactive)
ROOT
ATOM      1  C   UNL d   1      -3.976   5.997   1.491  0.00  0.00     0.078 C 
ATOM      2  C1  UNL d   1      -3.109   4.850   1.065  0.00  0.00    -0.077 A 
ATOM      3  C2  UNL d   1      -3.107   3.644   1.776  0.00  0.00    -0.001 A 
ATOM      4  C3  UNL d   1      -2.287   2.588   1.374  0.00  0.00     0.003 A 
ATOM      5  C4  UNL d   1      -1.463   2.728   0.259  0.00  0.00    -0.005 A 
ATOM      6  C5  UNL d   1      -1.456   3.925  -0.454  0.00  0.00     0.003 A 
ATOM      7  C6  UNL d   1      -2.275   4.982  -0.053  0.00  0.00    -0.001 A 
ENDROOT
TORSDOF 0
ENDMDL
