MODEL 1
REMARK minimizedAffinity 3.86660862
REMARK minimizedRMSD -1
REMARK  0 active torsions:
REMARK  status: ('A' for Active; 'I' for Inactive)
ROOT
ATOM      1  C   UNL d   1       5.648  -2.416   1.869  0.00  0.00     0.078 C 
ATOM      2  C1  UNL d   1       4.242  -2.015   1.537  0.00  0.00    -0.077 A 
ATOM      3  C2  UNL d   1       3.419  -1.410   2.495  0.00  0.00    -0.001 A 
ATOM      4  C3  UNL d   1       2.109  -1.050   2.175  0.00  0.00     0.003 A 
ATOM      5  C4  UNL d   1       1.609  -1.294   0.897  0.00  0.00    -0.005 A 
ATOM      6  C5  UNL d   1       2.419  -1.898  -0.062  0.00  0.00     0.003 A 
ATOM      7  C6  UNL d   1       3.730  -2.258   0.257  0.00  0.00    -0.001 A 
ENDROOT
TORSDOF 0
ENDMDL
