MODEL 1
REMARK minimizedAffinity -2.07620621
REMARK minimizedRMSD -1
REMARK  0 active torsions:
REMARK  status: ('A' for Active; 'I' for Inactive)
ROOT
ATOM      1  C   UNL d   1      -4.355   6.000   1.861  0.00  0.00     0.078 C 
ATOM      2  C1  UNL d   1      -3.379   4.960   1.397  0.00  0.00    -0.077 A 
ATOM      3  C2  UNL d   1      -3.188   3.777   2.120  0.00  0.00    -0.001 A 
ATOM      4  C3  UNL d   1      -2.269   2.822   1.681  0.00  0.00     0.003 A 
ATOM      5  C4  UNL d   1      -1.533   3.041   0.518  0.00  0.00    -0.005 A 
ATOM      6  C5  UNL d   1      -1.715   4.217  -0.207  0.00  0.00     0.003 A 
ATOM      7  C6  UNL d   1      -2.633   5.173   0.230  0.00  0.00    -0.001 A 
ENDROOT
TORSDOF 0
ENDMDL
