MODEL 1
REMARK minimizedAffinity 6.75815868
REMARK minimizedRMSD -1
REMARK  0 active torsions:
REMARK  status: ('A' for Active; 'I' for Inactive)
ROOT
ATOM      1  C   UNL d   1       3.970  -5.994  -1.750  0.00  0.00     0.078 C 
ATOM      2  C1  UNL d   1       2.632  -5.722  -1.129  0.00  0.00    -0.077 A 
ATOM      3  C2  UNL d   1       2.395  -5.997   0.223  0.00  0.00    -0.001 A 
ATOM      4  C3  UNL d   1       1.142  -5.748   0.785  0.00  0.00     0.003 A 
ATOM      5  C4  UNL d   1       0.116  -5.223   0.002  0.00  0.00    -0.005 A 
ATOM      6  C5  UNL d   1       0.342  -4.948  -1.345  0.00  0.00     0.003 A 
ATOM      7  C6  UNL d   1       1.594  -5.196  -1.909  0.00  0.00    -0.001 A 
ENDROOT
TORSDOF 0
ENDMDL
