MODEL 1
REMARK minimizedAffinity 9.82712841
REMARK minimizedRMSD -1
REMARK  1 active torsions:
REMARK  status: ('A' for Active; 'I' for Inactive)
REMARK    1  A    between atoms: C1_2  and  C2_3 
ROOT
ATOM      1  C2  UNL d   1       0.523   2.892   1.990  0.00  0.00    -0.081 A 
ATOM      2  C3  UNL d   1      -0.502   3.508   1.261  0.00  0.00     0.006 A 
ATOM      3  C4  UNL d   1      -1.784   2.954   1.233  0.00  0.00     0.002 A 
ATOM      4  C5  UNL d   1      -2.064   1.779   1.939  0.00  0.00    -0.080 A 
ATOM      5  C6  UNL d   1      -3.444   1.190   1.942  0.00  0.00     0.076 C 
ATOM      6  C7  UNL d   1      -1.037   1.153   2.653  0.00  0.00     0.002 A 
ATOM      7  C8  UNL d   1       0.245   1.707   2.680  0.00  0.00     0.006 A 
ENDROOT
BRANCH   1   8
ATOM      8  C1  UNL d   1       1.889   3.522   2.074  0.00  0.00     0.054 C 
ATOM      9  C   UNL d   1       2.323   3.710   3.521  0.00  0.00     0.018 C 
ENDBRANCH   1   8
TORSDOF 1
ENDMDL
