MODEL 1
REMARK minimizedAffinity -5.92571878
REMARK minimizedRMSD -1
REMARK  1 active torsions:
REMARK  status: ('A' for Active; 'I' for Inactive)
REMARK    1  A    between atoms: C1_2  and  C2_3 
ROOT
ATOM      1  C2  UNL d   1       0.244  -0.308  -0.352  0.00  0.00    -0.081 A 
ATOM      2  C3  UNL d   1       0.723  -0.182   0.958  0.00  0.00     0.006 A 
ATOM      3  C4  UNL d   1       0.258   0.843   1.786  0.00  0.00     0.002 A 
ATOM      4  C5  UNL d   1      -0.698   1.752   1.321  0.00  0.00    -0.080 A 
ATOM      5  C6  UNL d   1      -1.227   2.838   2.210  0.00  0.00     0.076 C 
ATOM      6  C7  UNL d   1      -1.163   1.637   0.007  0.00  0.00     0.002 A 
ATOM      7  C8  UNL d   1      -0.698   0.613  -0.822  0.00  0.00     0.006 A 
ENDROOT
BRANCH   1   8
ATOM      8  C1  UNL d   1       0.695  -1.451  -1.226  0.00  0.00     0.054 C 
ATOM      9  C   UNL d   1      -0.293  -2.607  -1.178  0.00  0.00     0.018 C 
ENDBRANCH   1   8
TORSDOF 1
ENDMDL
