MODEL 1
REMARK minimizedAffinity -4.66401052
REMARK minimizedRMSD -1
REMARK  1 active torsions:
REMARK  status: ('A' for Active; 'I' for Inactive)
REMARK    1  A    between atoms: C1_2  and  C2_3 
ROOT
ATOM      1  C2  UNL d   1       0.362  -0.060  -0.559  0.00  0.00    -0.081 A 
ATOM      2  C3  UNL d   1       0.202  -0.192   0.826  0.00  0.00     0.006 A 
ATOM      3  C4  UNL d   1      -0.376   0.837   1.573  0.00  0.00     0.002 A 
ATOM      4  C5  UNL d   1      -0.811   2.011   0.948  0.00  0.00    -0.080 A 
ATOM      5  C6  UNL d   1      -1.461   3.110   1.734  0.00  0.00     0.076 C 
ATOM      6  C7  UNL d   1      -0.634   2.150  -0.433  0.00  0.00     0.002 A 
ATOM      7  C8  UNL d   1      -0.056   1.122  -1.180  0.00  0.00     0.006 A 
ENDROOT
BRANCH   1   8
ATOM      8  C1  UNL d   1       0.926  -1.193  -1.377  0.00  0.00     0.054 C 
ATOM      9  C   UNL d   1       0.019  -2.414  -1.330  0.00  0.00     0.018 C 
ENDBRANCH   1   8
TORSDOF 1
ENDMDL
