MODEL 1
REMARK minimizedAffinity -3.9914403
REMARK minimizedRMSD -1
REMARK  1 active torsions:
REMARK  status: ('A' for Active; 'I' for Inactive)
REMARK    1  A    between atoms: C1_2  and  C2_3 
ROOT
ATOM      1  C2  UNL d   1       0.509  -1.576  -0.458  0.00  0.00    -0.081 A 
ATOM      2  C3  UNL d   1       0.857  -1.175   0.838  0.00  0.00     0.006 A 
ATOM      3  C4  UNL d   1       0.403   0.043   1.348  0.00  0.00     0.002 A 
ATOM      4  C5  UNL d   1      -0.413   0.877   0.575  0.00  0.00    -0.080 A 
ATOM      5  C6  UNL d   1      -0.932   2.173   1.122  0.00  0.00     0.076 C 
ATOM      6  C7  UNL d   1      -0.746   0.485  -0.725  0.00  0.00     0.002 A 
ATOM      7  C8  UNL d   1      -0.292  -0.733  -1.237  0.00  0.00     0.006 A 
ENDROOT
BRANCH   1   8
ATOM      8  C1  UNL d   1       0.944  -2.918  -0.988  0.00  0.00     0.054 C 
ATOM      9  C   UNL d   1      -0.204  -3.917  -0.973  0.00  0.00     0.018 C 
ENDBRANCH   1   8
TORSDOF 1
ENDMDL
