MODEL 1
REMARK minimizedAffinity -4.12299919
REMARK minimizedRMSD -1
REMARK  0 active torsions:
REMARK  status: ('A' for Active; 'I' for Inactive)
ROOT
ATOM      1  N1  IND d   1       0.727   0.639  -1.109  0.00  0.00    -0.196 N 
ATOM      2  C2  IND d   1       0.577  -0.452  -0.300  0.00  0.00     0.054 A 
ATOM      3  C3  IND d   1      -0.197  -0.145   0.766  0.00  0.00    -0.031 A 
ATOM      4  C4  IND d   1      -1.405   2.057   1.328  0.00  0.00     0.051 A 
ATOM      5  C5  IND d   1      -1.540   3.350   0.907  0.00  0.00    -0.031 A 
ATOM      6  C6  IND d   1      -0.915   3.815  -0.233  0.00  0.00     0.015 A 
ATOM      7  C7  IND d   1      -0.139   2.996  -1.003  0.00  0.00    -0.016 A 
ATOM      8  C8  IND d   1       0.006   1.684  -0.574  0.00  0.00    -0.047 A 
ATOM      9  C9  IND d   1      -0.591   1.219   0.605  0.00  0.00    -0.096 A 
ATOM     10  HN1 IND d   1       1.193   0.668  -1.831  0.00  0.00     0.298 HD
ENDROOT
TORSDOF 0
ENDMDL
