MODEL 1
REMARK minimizedAffinity -6.38700342
REMARK minimizedRMSD -1
REMARK  0 active torsions:
REMARK  status: ('A' for Active; 'I' for Inactive)
ROOT
ATOM      1  N1  IND d   1       0.223   0.834  -0.514  0.00  0.00    -0.196 N 
ATOM      2  C2  IND d   1       0.199  -0.399   0.076  0.00  0.00     0.054 A 
ATOM      3  C3  IND d   1      -0.634  -0.394   1.141  0.00  0.00    -0.031 A 
ATOM      4  C4  IND d   1      -2.136   1.495   2.035  0.00  0.00     0.051 A 
ATOM      5  C5  IND d   1      -2.430   2.817   1.849  0.00  0.00    -0.031 A 
ATOM      6  C6  IND d   1      -1.845   3.560   0.844  0.00  0.00     0.015 A 
ATOM      7  C7  IND d   1      -0.949   3.003  -0.024  0.00  0.00    -0.016 A 
ATOM      8  C8  IND d   1      -0.642   1.663   0.166  0.00  0.00    -0.047 A 
ATOM      9  C9  IND d   1      -1.201   0.915   1.211  0.00  0.00    -0.096 A 
ATOM     10  HN1 IND d   1       0.698   1.055  -1.196  0.00  0.00     0.298 HD
ENDROOT
TORSDOF 0
ENDMDL
