MODEL 1
REMARK minimizedAffinity -5.92006445
REMARK minimizedRMSD -1
REMARK  0 active torsions:
REMARK  status: ('A' for Active; 'I' for Inactive)
ROOT
ATOM      1  N1  IND d   1       0.610   0.817  -0.876  0.00  0.00    -0.196 N 
ATOM      2  C2  IND d   1       0.366  -0.355  -0.214  0.00  0.00     0.054 A 
ATOM      3  C3  IND d   1      -0.710  -0.222   0.594  0.00  0.00    -0.031 A 
ATOM      4  C4  IND d   1      -2.279   1.793   0.912  0.00  0.00     0.051 A 
ATOM      5  C5  IND d   1      -2.439   3.101   0.550  0.00  0.00    -0.031 A 
ATOM      6  C6  IND d   1      -1.575   3.727  -0.326  0.00  0.00     0.015 A 
ATOM      7  C7  IND d   1      -0.521   3.061  -0.883  0.00  0.00    -0.016 A 
ATOM      8  C8  IND d   1      -0.351   1.734  -0.512  0.00  0.00    -0.047 A 
ATOM      9  C9  IND d   1      -1.200   1.107   0.409  0.00  0.00    -0.096 A 
ATOM     10  HN1 IND d   1       1.256   0.957  -1.426  0.00  0.00     0.298 HD
ENDROOT
TORSDOF 0
ENDMDL
