MODEL 1
REMARK minimizedAffinity -4.69552422
REMARK minimizedRMSD -1
REMARK  0 active torsions:
REMARK  status: ('A' for Active; 'I' for Inactive)
ROOT
ATOM      1  N1  IND d   1       0.762   0.015  -1.489  0.00  0.00    -0.196 N 
ATOM      2  C2  IND d   1       0.608  -1.154  -0.797  0.00  0.00     0.054 A 
ATOM      3  C3  IND d   1      -0.010  -0.923   0.383  0.00  0.00    -0.031 A 
ATOM      4  C4  IND d   1      -0.945   1.278   1.337  0.00  0.00     0.051 A 
ATOM      5  C5  IND d   1      -1.010   2.620   1.084  0.00  0.00    -0.031 A 
ATOM      6  C6  IND d   1      -0.479   3.173  -0.063  0.00  0.00     0.015 A 
ATOM      7  C7  IND d   1       0.129   2.399  -1.011  0.00  0.00    -0.016 A 
ATOM      8  C8  IND d   1       0.203   1.037  -0.755  0.00  0.00    -0.047 A 
ATOM      9  C9  IND d   1      -0.296   0.476   0.428  0.00  0.00    -0.096 A 
ATOM     10  HN1 IND d   1       1.145   0.097  -2.255  0.00  0.00     0.298 HD
ENDROOT
TORSDOF 0
ENDMDL
