MODEL 1
REMARK minimizedAffinity -5.85495758
REMARK minimizedRMSD -1
REMARK  0 active torsions:
REMARK  status: ('A' for Active; 'I' for Inactive)
ROOT
ATOM      1  N1  IND d   1       0.481   0.204  -0.525  0.00  0.00    -0.196 N 
ATOM      2  C2  IND d   1       0.426  -0.913   0.261  0.00  0.00     0.054 A 
ATOM      3  C3  IND d   1      -0.386  -0.702   1.322  0.00  0.00    -0.031 A 
ATOM      4  C4  IND d   1      -1.804   1.365   1.910  0.00  0.00     0.051 A 
ATOM      5  C5  IND d   1      -2.055   2.648   1.512  0.00  0.00    -0.031 A 
ATOM      6  C6  IND d   1      -1.463   3.192   0.390  0.00  0.00     0.015 A 
ATOM      7  C7  IND d   1      -0.604   2.466  -0.385  0.00  0.00    -0.016 A 
ATOM      8  C8  IND d   1      -0.341   1.165   0.020  0.00  0.00    -0.047 A 
ATOM      9  C9  IND d   1      -0.905   0.622   1.182  0.00  0.00    -0.096 A 
ATOM     10  HN1 IND d   1       0.951   0.292  -1.240  0.00  0.00     0.298 HD
ENDROOT
TORSDOF 0
ENDMDL
