MODEL 1
REMARK minimizedAffinity -5.12402582
REMARK minimizedRMSD -1
REMARK  0 active torsions:
REMARK  status: ('A' for Active; 'I' for Inactive)
ROOT
ATOM      1  N1  IND d   1      -0.143   2.501  -0.545  0.00  0.00    -0.196 N 
ATOM      2  C2  IND d   1      -0.833   3.554  -0.012  0.00  0.00     0.054 A 
ATOM      3  C3  IND d   1      -1.496   3.166   1.101  0.00  0.00    -0.031 A 
ATOM      4  C4  IND d   1      -1.507   0.881   2.286  0.00  0.00     0.051 A 
ATOM      5  C5  IND d   1      -1.057  -0.403   2.154  0.00  0.00    -0.031 A 
ATOM      6  C6  IND d   1      -0.260  -0.791   1.097  0.00  0.00     0.015 A 
ATOM      7  C7  IND d   1       0.126   0.096   0.132  0.00  0.00    -0.016 A 
ATOM      8  C8  IND d   1      -0.335   1.399   0.259  0.00  0.00    -0.047 A 
ATOM      9  C9  IND d   1      -1.179   1.789   1.307  0.00  0.00    -0.096 A 
ATOM     10  HN1 IND d   1       0.331   2.523  -1.262  0.00  0.00     0.298 HD
ENDROOT
TORSDOF 0
ENDMDL
