MODEL 1
REMARK minimizedAffinity -0.930187225
REMARK minimizedRMSD -1
REMARK  0 active torsions:
REMARK  status: ('A' for Active; 'I' for Inactive)
ROOT
ATOM      1  N1  IND d   1       1.108  -0.139  -0.726  0.00  0.00    -0.196 N 
ATOM      2  C2  IND d   1       0.212  -0.040   0.301  0.00  0.00     0.054 A 
ATOM      3  C3  IND d   1      -0.563  -1.146   0.358  0.00  0.00    -0.031 A 
ATOM      4  C4  IND d   1      -0.465  -3.285  -1.072  0.00  0.00     0.051 A 
ATOM      5  C5  IND d   1       0.163  -3.828  -2.157  0.00  0.00    -0.031 A 
ATOM      6  C6  IND d   1       1.160  -3.156  -2.834  0.00  0.00     0.015 A 
ATOM      7  C7  IND d   1       1.576  -1.915  -2.440  0.00  0.00    -0.016 A 
ATOM      8  C8  IND d   1       0.936  -1.358  -1.343  0.00  0.00    -0.047 A 
ATOM      9  C9  IND d   1      -0.106  -2.018  -0.678  0.00  0.00    -0.096 A 
ATOM     10  HN1 IND d   1       1.683   0.461  -0.950  0.00  0.00     0.298 HD
ENDROOT
TORSDOF 0
ENDMDL
