MODEL 1
REMARK minimizedAffinity 2.44973278
REMARK minimizedRMSD -1
REMARK  0 active torsions:
REMARK  status: ('A' for Active; 'I' for Inactive)
ROOT
ATOM      1  N1  IND d   1       0.490   0.192  -0.110  0.00  0.00    -0.196 N 
ATOM      2  C2  IND d   1      -0.042  -0.178   1.094  0.00  0.00     0.054 A 
ATOM      3  C3  IND d   1      -0.272  -1.510   1.117  0.00  0.00    -0.031 A 
ATOM      4  C4  IND d   1       0.242  -3.289  -0.671  0.00  0.00     0.051 A 
ATOM      5  C5  IND d   1       0.696  -3.429  -1.952  0.00  0.00    -0.031 A 
ATOM      6  C6  IND d   1       1.116  -2.348  -2.699  0.00  0.00     0.015 A 
ATOM      7  C7  IND d   1       1.108  -1.081  -2.186  0.00  0.00    -0.016 A 
ATOM      8  C8  IND d   1       0.641  -0.935  -0.888  0.00  0.00    -0.047 A 
ATOM      9  C9  IND d   1       0.174  -2.023  -0.140  0.00  0.00    -0.096 A 
ATOM     10  HN1 IND d   1       0.696   0.994  -0.342  0.00  0.00     0.298 HD
ENDROOT
TORSDOF 0
ENDMDL
