MODEL 1
REMARK minimizedAffinity -2.09672642
REMARK minimizedRMSD -1
REMARK  0 active torsions:
REMARK  status: ('A' for Active; 'I' for Inactive)
ROOT
ATOM      1  N1  IND d   1       1.195  -0.314  -0.714  0.00  0.00    -0.196 N 
ATOM      2  C2  IND d   1       0.908  -1.239   0.251  0.00  0.00     0.054 A 
ATOM      3  C3  IND d   1       0.422  -0.631   1.356  0.00  0.00    -0.031 A 
ATOM      4  C4  IND d   1      -0.081   1.861   1.764  0.00  0.00     0.051 A 
ATOM      5  C5  IND d   1       0.050   3.094   1.189  0.00  0.00    -0.031 A 
ATOM      6  C6  IND d   1       0.578   3.258  -0.076  0.00  0.00     0.015 A 
ATOM      7  C7  IND d   1       0.985   2.187  -0.821  0.00  0.00    -0.016 A 
ATOM      8  C8  IND d   1       0.860   0.934  -0.238  0.00  0.00    -0.047 A 
ATOM      9  C9  IND d   1       0.365   0.766   1.062  0.00  0.00    -0.096 A 
ATOM     10  HN1 IND d   1       1.529  -0.484  -1.488  0.00  0.00     0.298 HD
ENDROOT
TORSDOF 0
ENDMDL
