MODEL 1
REMARK minimizedAffinity -6.00551558
REMARK minimizedRMSD -1
REMARK  0 active torsions:
REMARK  status: ('A' for Active; 'I' for Inactive)
ROOT
ATOM      1  N1  IND d   1       0.639   2.398  -0.766  0.00  0.00    -0.196 N 
ATOM      2  C2  IND d   1       0.356   3.608  -1.335  0.00  0.00     0.054 A 
ATOM      3  C3  IND d   1      -0.878   4.022  -0.971  0.00  0.00    -0.031 A 
ATOM      4  C4  IND d   1      -2.565   2.921   0.633  0.00  0.00     0.051 A 
ATOM      5  C5  IND d   1      -2.770   1.789   1.369  0.00  0.00    -0.031 A 
ATOM      6  C6  IND d   1      -1.829   0.781   1.435  0.00  0.00     0.015 A 
ATOM      7  C7  IND d   1      -0.637   0.876   0.773  0.00  0.00    -0.016 A 
ATOM      8  C8  IND d   1      -0.429   2.021   0.018  0.00  0.00    -0.047 A 
ATOM      9  C9  IND d   1      -1.398   3.028  -0.086  0.00  0.00    -0.096 A 
ATOM     10  HN1 IND d   1       1.363   1.947  -0.879  0.00  0.00     0.298 HD
ENDROOT
TORSDOF 0
ENDMDL
