MODEL 1
REMARK minimizedAffinity -0.289613038
REMARK minimizedRMSD -1
REMARK  0 active torsions:
REMARK  status: ('A' for Active; 'I' for Inactive)
ROOT
ATOM      1  N1  IND d   1       0.811   0.409  -1.099  0.00  0.00    -0.196 N 
ATOM      2  C2  IND d   1       0.647  -0.790  -0.463  0.00  0.00     0.054 A 
ATOM      3  C3  IND d   1       0.040  -0.610   0.731  0.00  0.00    -0.031 A 
ATOM      4  C4  IND d   1      -0.864   1.551   1.798  0.00  0.00     0.051 A 
ATOM      5  C5  IND d   1      -0.915   2.904   1.612  0.00  0.00    -0.031 A 
ATOM      6  C6  IND d   1      -0.386   3.507   0.489  0.00  0.00     0.015 A 
ATOM      7  C7  IND d   1       0.208   2.774  -0.500  0.00  0.00    -0.016 A 
ATOM      8  C8  IND d   1       0.268   1.400  -0.311  0.00  0.00    -0.047 A 
ATOM      9  C9  IND d   1      -0.230   0.788   0.846  0.00  0.00    -0.096 A 
ATOM     10  HN1 IND d   1       1.189   0.525  -1.863  0.00  0.00     0.298 HD
ENDROOT
TORSDOF 0
ENDMDL
