MODEL 1
REMARK minimizedAffinity -3.27373219
REMARK minimizedRMSD -1
REMARK  0 active torsions:
REMARK  status: ('A' for Active; 'I' for Inactive)
ROOT
ATOM      1  N1  IND d   1       0.814   1.637  -0.784  0.00  0.00    -0.196 N 
ATOM      2  C2  IND d   1       1.160   0.363  -1.139  0.00  0.00     0.054 A 
ATOM      3  C3  IND d   1       0.523  -0.533  -0.353  0.00  0.00    -0.031 A 
ATOM      4  C4  IND d   1      -1.207  -0.136   1.511  0.00  0.00     0.051 A 
ATOM      5  C5  IND d   1      -1.816   0.861   2.221  0.00  0.00    -0.031 A 
ATOM      6  C6  IND d   1      -1.576   2.194   1.959  0.00  0.00     0.015 A 
ATOM      7  C7  IND d   1      -0.724   2.582   0.964  0.00  0.00    -0.016 A 
ATOM      8  C8  IND d   1      -0.099   1.573   0.246  0.00  0.00    -0.047 A 
ATOM      9  C9  IND d   1      -0.305   0.218   0.536  0.00  0.00    -0.096 A 
ATOM     10  HN1 IND d   1       1.116   2.358  -1.144  0.00  0.00     0.298 HD
ENDROOT
TORSDOF 0
ENDMDL
