MODEL 1
REMARK minimizedAffinity -4.26990747
REMARK minimizedRMSD -1
REMARK  0 active torsions:
REMARK  status: ('A' for Active; 'I' for Inactive)
ROOT
ATOM      1  N1  IND d   1       0.310   0.131   1.422  0.00  0.00    -0.196 N 
ATOM      2  C2  IND d   1       0.676  -0.412   0.223  0.00  0.00     0.054 A 
ATOM      3  C3  IND d   1       0.234   0.358  -0.797  0.00  0.00    -0.031 A 
ATOM      4  C4  IND d   1      -1.020   2.605  -0.725  0.00  0.00     0.051 A 
ATOM      5  C5  IND d   1      -1.607   3.484   0.142  0.00  0.00    -0.031 A 
ATOM      6  C6  IND d   1      -1.582   3.287   1.507  0.00  0.00     0.015 A 
ATOM      7  C7  IND d   1      -0.957   2.206   2.060  0.00  0.00    -0.016 A 
ATOM      8  C8  IND d   1      -0.366   1.308   1.183  0.00  0.00    -0.047 A 
ATOM      9  C9  IND d   1      -0.424   1.480  -0.206  0.00  0.00    -0.096 A 
ATOM     10  HN1 IND d   1       0.473  -0.205   2.197  0.00  0.00     0.298 HD
ENDROOT
TORSDOF 0
ENDMDL
