MODEL 1
REMARK minimizedAffinity -6.17343712
REMARK minimizedRMSD -1
REMARK  0 active torsions:
REMARK  status: ('A' for Active; 'I' for Inactive)
ROOT
ATOM      1  N1  IND d   1       1.464   1.393  -1.134  0.00  0.00    -0.196 N 
ATOM      2  C2  IND d   1       1.477   0.060  -0.832  0.00  0.00     0.054 A 
ATOM      3  C3  IND d   1       0.423  -0.254  -0.045  0.00  0.00    -0.031 A 
ATOM      4  C4  IND d   1      -1.503   1.240   0.782  0.00  0.00     0.051 A 
ATOM      5  C5  IND d   1      -1.930   2.538   0.795  0.00  0.00    -0.031 A 
ATOM      6  C6  IND d   1      -1.235   3.541   0.150  0.00  0.00     0.015 A 
ATOM      7  C7  IND d   1      -0.088   3.279  -0.545  0.00  0.00    -0.016 A 
ATOM      8  C8  IND d   1       0.353   1.963  -0.554  0.00  0.00    -0.047 A 
ATOM      9  C9  IND d   1      -0.325   0.949   0.134  0.00  0.00    -0.096 A 
ATOM     10  HN1 IND d   1       2.052   1.805  -1.608  0.00  0.00     0.298 HD
ENDROOT
TORSDOF 0
ENDMDL
