MODEL 1
REMARK minimizedAffinity -6.52174664
REMARK minimizedRMSD -1
REMARK  0 active torsions:
REMARK  status: ('A' for Active; 'I' for Inactive)
ROOT
ATOM      1  N1  IND d   1       1.271   2.157  -0.991  0.00  0.00    -0.196 N 
ATOM      2  C2  IND d   1       1.596   0.838  -0.831  0.00  0.00     0.054 A 
ATOM      3  C3  IND d   1       0.654   0.207  -0.096  0.00  0.00    -0.031 A 
ATOM      4  C4  IND d   1      -1.556   1.118   0.861  0.00  0.00     0.051 A 
ATOM      5  C5  IND d   1      -2.272   2.274   1.006  0.00  0.00    -0.031 A 
ATOM      6  C6  IND d   1      -1.836   3.472   0.479  0.00  0.00     0.015 A 
ATOM      7  C7  IND d   1      -0.668   3.559  -0.224  0.00  0.00    -0.016 A 
ATOM      8  C8  IND d   1       0.065   2.389  -0.367  0.00  0.00    -0.047 A 
ATOM      9  C9  IND d   1      -0.351   1.178   0.201  0.00  0.00    -0.096 A 
ATOM     10  HN1 IND d   1       1.741   2.742  -1.411  0.00  0.00     0.298 HD
ENDROOT
TORSDOF 0
ENDMDL
