MODEL 1
REMARK minimizedAffinity -6.6663723
REMARK minimizedRMSD -1
REMARK  0 active torsions:
REMARK  status: ('A' for Active; 'I' for Inactive)
ROOT
ATOM      1  N1  IND d   1       0.863   0.672  -0.391  0.00  0.00    -0.196 N 
ATOM      2  C2  IND d   1       0.564  -0.491   0.262  0.00  0.00     0.054 A 
ATOM      3  C3  IND d   1      -0.488  -0.307   1.092  0.00  0.00    -0.031 A 
ATOM      4  C4  IND d   1      -1.934   1.792   1.459  0.00  0.00     0.051 A 
ATOM      5  C5  IND d   1      -2.025   3.111   1.114  0.00  0.00    -0.031 A 
ATOM      6  C6  IND d   1      -1.142   3.696   0.229  0.00  0.00     0.015 A 
ATOM      7  C7  IND d   1      -0.138   2.977  -0.354  0.00  0.00    -0.016 A 
ATOM      8  C8  IND d   1      -0.037   1.639  -0.001  0.00  0.00    -0.047 A 
ATOM      9  C9  IND d   1      -0.904   1.050   0.929  0.00  0.00    -0.096 A 
ATOM     10  HN1 IND d   1       1.506   0.782  -0.952  0.00  0.00     0.298 HD
ENDROOT
TORSDOF 0
ENDMDL
