MODEL 1
REMARK minimizedAffinity -6.10407257
REMARK minimizedRMSD -1
REMARK  1 active torsions:
REMARK  status: ('A' for Active; 'I' for Inactive)
REMARK    1  A    between atoms: C1_2  and  C2_3 
ROOT
ATOM      1  C2  UNL d   1       0.299  -0.107  -0.100  0.00  0.00    -0.077 A 
ATOM      2  C3  UNL d   1       0.279  -1.316   0.609  0.00  0.00     0.002 A 
ATOM      3  C4  UNL d   1       1.428  -1.775   1.256  0.00  0.00     0.002 A 
ATOM      4  C5  UNL d   1       2.604  -1.029   1.204  0.00  0.00    -0.004 A 
ATOM      5  C6  UNL d   1       2.635   0.173   0.499  0.00  0.00     0.002 A 
ATOM      6  C7  UNL d   1       1.488   0.633  -0.149  0.00  0.00     0.002 A 
ENDROOT
BRANCH   1   7
ATOM      7  C1  UNL d   1      -0.952   0.414  -0.757  0.00  0.00     0.055 C 
ATOM      8  C   UNL d   1      -2.199  -0.195  -0.134  0.00  0.00     0.019 C 
ENDBRANCH   1   7
TORSDOF 1
ENDMDL
