MODEL 1
REMARK minimizedAffinity -5.45701456
REMARK minimizedRMSD -1
REMARK  1 active torsions:
REMARK  status: ('A' for Active; 'I' for Inactive)
REMARK    1  A    between atoms: C1_2  and  C2_3 
ROOT
ATOM      1  C2  UNL d   1       0.431   0.165   0.287  0.00  0.00    -0.077 A 
ATOM      2  C3  UNL d   1       0.429  -1.121   0.844  0.00  0.00     0.002 A 
ATOM      3  C4  UNL d   1       1.500  -1.553   1.628  0.00  0.00     0.002 A 
ATOM      4  C5  UNL d   1       2.579  -0.704   1.866  0.00  0.00    -0.004 A 
ATOM      5  C6  UNL d   1       2.592   0.576   1.315  0.00  0.00     0.002 A 
ATOM      6  C7  UNL d   1       1.522   1.010   0.530  0.00  0.00     0.002 A 
ENDROOT
BRANCH   1   7
ATOM      7  C1  UNL d   1      -0.746   0.651  -0.518  0.00  0.00     0.055 C 
ATOM      8  C   UNL d   1      -1.874  -0.370  -0.521  0.00  0.00     0.019 C 
ENDBRANCH   1   7
TORSDOF 1
ENDMDL
