MODEL 1
REMARK minimizedAffinity -5.45956087
REMARK minimizedRMSD -1
REMARK  1 active torsions:
REMARK  status: ('A' for Active; 'I' for Inactive)
REMARK    1  A    between atoms: C1_2  and  C2_3 
ROOT
ATOM      1  C2  UNL d   1       1.049   1.480   0.285  0.00  0.00    -0.077 A 
ATOM      2  C3  UNL d   1       0.497   0.344  -0.324  0.00  0.00     0.002 A 
ATOM      3  C4  UNL d   1       1.148  -0.888  -0.241  0.00  0.00     0.002 A 
ATOM      4  C5  UNL d   1       2.352  -0.997   0.452  0.00  0.00    -0.004 A 
ATOM      5  C6  UNL d   1       2.910   0.128   1.059  0.00  0.00     0.002 A 
ATOM      6  C7  UNL d   1       2.261   1.361   0.976  0.00  0.00     0.002 A 
ENDROOT
BRANCH   1   7
ATOM      7  C1  UNL d   1       0.323   2.799   0.238  0.00  0.00     0.055 C 
ATOM      8  C   UNL d   1       1.290   3.957   0.038  0.00  0.00     0.019 C 
ENDBRANCH   1   7
TORSDOF 1
ENDMDL
