MODEL 1
REMARK minimizedAffinity -1.80756819
REMARK minimizedRMSD -1
REMARK  0 active torsions:
REMARK  status: ('A' for Active; 'I' for Inactive)
ROOT
ATOM      1  C2' OXE d   1       0.532   4.022  -1.541  0.00  0.00     0.078 C 
ATOM      2  C1' OXE d   1      -0.295   2.381   0.581  0.00  0.00     0.078 C 
ATOM      3  C1  OXE d   1      -1.054   2.286  -0.719  0.00  0.00    -0.078 A 
ATOM      4  C2  OXE d   1      -0.672   3.126  -1.737  0.00  0.00    -0.078 A 
ATOM      5  C3  OXE d   1      -1.303   3.041  -2.974  0.00  0.00     0.003 A 
ATOM      6  C4  OXE d   1      -2.422   2.217  -3.144  0.00  0.00    -0.002 A 
ATOM      7  C5  OXE d   1      -2.853   1.382  -2.108  0.00  0.00    -0.002 A 
ATOM      8  C6  OXE d   1      -2.155   1.373  -0.905  0.00  0.00     0.003 A 
ENDROOT
TORSDOF 0
ENDMDL
