MODEL 1
REMARK minimizedAffinity 3.12939382
REMARK minimizedRMSD -1
REMARK  0 active torsions:
REMARK  status: ('A' for Active; 'I' for Inactive)
ROOT
ATOM      1  C2' OXE d   1       0.564   3.848  -0.960  0.00  0.00     0.078 C 
ATOM      2  C1' OXE d   1      -0.467   1.884   0.759  0.00  0.00     0.078 C 
ATOM      3  C1  OXE d   1      -1.046   1.976  -0.631  0.00  0.00    -0.078 A 
ATOM      4  C2  OXE d   1      -0.568   2.971  -1.450  0.00  0.00    -0.078 A 
ATOM      5  C3  OXE d   1      -1.028   3.066  -2.760  0.00  0.00     0.003 A 
ATOM      6  C4  OXE d   1      -2.082   2.257  -3.201  0.00  0.00    -0.002 A 
ATOM      7  C5  OXE d   1      -2.611   1.264  -2.370  0.00  0.00    -0.002 A 
ATOM      8  C6  OXE d   1      -2.076   1.083  -1.099  0.00  0.00     0.003 A 
ENDROOT
TORSDOF 0
ENDMDL
