MODEL 1
REMARK minimizedAffinity 8.06077194
REMARK minimizedRMSD -1
REMARK  0 active torsions:
REMARK  status: ('A' for Active; 'I' for Inactive)
ROOT
ATOM      1  C2' OXE d   1       0.068   2.622  -0.670  0.00  0.00     0.078 C 
ATOM      2  C1' OXE d   1      -2.141   1.008  -0.041  0.00  0.00     0.078 C 
ATOM      3  C1  OXE d   1      -1.346   1.589   1.101  0.00  0.00    -0.078 A 
ATOM      4  C2  OXE d   1      -0.239   2.339   0.784  0.00  0.00    -0.078 A 
ATOM      5  C3  OXE d   1       0.498   2.943   1.799  0.00  0.00     0.003 A 
ATOM      6  C4  OXE d   1       0.213   2.668   3.142  0.00  0.00    -0.002 A 
ATOM      7  C5  OXE d   1      -0.886   1.875   3.486  0.00  0.00    -0.002 A 
ATOM      8  C6  OXE d   1      -1.699   1.363   2.481  0.00  0.00     0.003 A 
ENDROOT
TORSDOF 0
ENDMDL
