MODEL 1
REMARK minimizedAffinity 4.12243032
REMARK minimizedRMSD -1
REMARK  0 active torsions:
REMARK  status: ('A' for Active; 'I' for Inactive)
ROOT
ATOM      1  C2' OXE d   1      -1.116   1.891   0.996  0.00  0.00     0.078 C 
ATOM      2  C1' OXE d   1       0.748   3.740   0.004  0.00  0.00     0.078 C 
ATOM      3  C1  OXE d   1      -0.641   4.239   0.314  0.00  0.00    -0.078 A 
ATOM      4  C2  OXE d   1      -1.560   3.317   0.755  0.00  0.00    -0.078 A 
ATOM      5  C3  OXE d   1      -2.840   3.735   1.108  0.00  0.00     0.003 A 
ATOM      6  C4  OXE d   1      -3.246   5.054   0.872  0.00  0.00    -0.002 A 
ATOM      7  C5  OXE d   1      -2.337   6.000   0.386  0.00  0.00    -0.002 A 
ATOM      8  C6  OXE d   1      -1.022   5.619   0.143  0.00  0.00     0.003 A 
ENDROOT
TORSDOF 0
ENDMDL
