MODEL 1
REMARK minimizedAffinity 7.17644691
REMARK minimizedRMSD -1
REMARK  0 active torsions:
REMARK  status: ('A' for Active; 'I' for Inactive)
ROOT
ATOM      1  C2' OXE d   1      -4.701  -3.023   3.772  0.00  0.00     0.078 C 
ATOM      2  C1' OXE d   1      -5.804  -5.369   2.694  0.00  0.00     0.078 C 
ATOM      3  C1  OXE d   1      -5.638  -4.183   1.776  0.00  0.00    -0.078 A 
ATOM      4  C2  OXE d   1      -5.141  -3.025   2.324  0.00  0.00    -0.078 A 
ATOM      5  C3  OXE d   1      -4.916  -1.919   1.509  0.00  0.00     0.003 A 
ATOM      6  C4  OXE d   1      -5.336  -1.925   0.173  0.00  0.00    -0.002 A 
ATOM      7  C5  OXE d   1      -5.881  -3.081  -0.394  0.00  0.00    -0.002 A 
ATOM      8  C6  OXE d   1      -6.000  -4.230   0.381  0.00  0.00     0.003 A 
ENDROOT
TORSDOF 0
ENDMDL
