MODEL 1
REMARK minimizedAffinity 12.2757587
REMARK minimizedRMSD -1
REMARK  0 active torsions:
REMARK  status: ('A' for Active; 'I' for Inactive)
ROOT
ATOM      1  C2' OXE d   1       1.523   4.541  -0.828  0.00  0.00     0.078 C 
ATOM      2  C1' OXE d   1      -0.769   3.597  -2.144  0.00  0.00     0.078 C 
ATOM      3  C1  OXE d   1      -0.407   2.967  -0.822  0.00  0.00    -0.078 A 
ATOM      4  C2  OXE d   1       0.742   3.403  -0.208  0.00  0.00    -0.078 A 
ATOM      5  C3  OXE d   1       1.092   2.895   1.040  0.00  0.00     0.003 A 
ATOM      6  C4  OXE d   1       0.369   1.836   1.602  0.00  0.00    -0.002 A 
ATOM      7  C5  OXE d   1      -0.782   1.349   0.973  0.00  0.00    -0.002 A 
ATOM      8  C6  OXE d   1      -1.207   1.932  -0.216  0.00  0.00     0.003 A 
ENDROOT
TORSDOF 0
ENDMDL
