MODEL 1
REMARK minimizedAffinity 22.2833443
REMARK minimizedRMSD -1
REMARK  0 active torsions:
REMARK  status: ('A' for Active; 'I' for Inactive)
ROOT
ATOM      1  C2' OXE d   1      -4.492   5.198  -2.480  0.00  0.00     0.078 C 
ATOM      2  C1' OXE d   1      -2.048   4.745  -1.176  0.00  0.00     0.078 C 
ATOM      3  C1  OXE d   1      -3.226   5.168  -0.335  0.00  0.00    -0.078 A 
ATOM      4  C2  OXE d   1      -4.406   5.433  -0.987  0.00  0.00    -0.078 A 
ATOM      5  C3  OXE d   1      -5.539   5.774  -0.253  0.00  0.00     0.003 A 
ATOM      6  C4  OXE d   1      -5.448   5.999   1.126  0.00  0.00    -0.002 A 
ATOM      7  C5  OXE d   1      -4.246   5.773   1.805  0.00  0.00    -0.002 A 
ATOM      8  C6  OXE d   1      -3.139   5.318   1.097  0.00  0.00     0.003 A 
ENDROOT
TORSDOF 0
ENDMDL
