MODEL 1
REMARK minimizedAffinity -1.30873358
REMARK minimizedRMSD -1
REMARK  0 active torsions:
REMARK  status: ('A' for Active; 'I' for Inactive)
ROOT
ATOM      1  C2' OXE d   1      -2.155   1.643   2.281  0.00  0.00     0.078 C 
ATOM      2  C1' OXE d   1       0.258   2.517   3.418  0.00  0.00     0.078 C 
ATOM      3  C1  OXE d   1       0.046   2.759   1.945  0.00  0.00    -0.078 A 
ATOM      4  C2  OXE d   1      -1.117   2.287   1.387  0.00  0.00    -0.078 A 
ATOM      5  C3  OXE d   1      -1.387   2.532   0.044  0.00  0.00     0.003 A 
ATOM      6  C4  OXE d   1      -0.417   3.119  -0.778  0.00  0.00    -0.002 A 
ATOM      7  C5  OXE d   1       0.791   3.573  -0.238  0.00  0.00    -0.002 A 
ATOM      8  C6  OXE d   1       1.020   3.439   1.127  0.00  0.00     0.003 A 
ENDROOT
TORSDOF 0
ENDMDL
