MODEL 1
REMARK minimizedAffinity 14.3556499
REMARK minimizedRMSD -1
REMARK  0 active torsions:
REMARK  status: ('A' for Active; 'I' for Inactive)
ROOT
ATOM      1  C2' OXE d   1       1.589   4.522  -2.186  0.00  0.00     0.078 C 
ATOM      2  C1' OXE d   1      -0.891   3.594  -3.119  0.00  0.00     0.078 C 
ATOM      3  C1  OXE d   1      -0.511   3.274  -1.695  0.00  0.00    -0.078 A 
ATOM      4  C2  OXE d   1       0.724   3.692  -1.261  0.00  0.00    -0.078 A 
ATOM      5  C3  OXE d   1       1.102   3.470   0.060  0.00  0.00     0.003 A 
ATOM      6  C4  OXE d   1       0.301   2.693   0.905  0.00  0.00    -0.002 A 
ATOM      7  C5  OXE d   1      -0.943   2.224   0.471  0.00  0.00    -0.002 A 
ATOM      8  C6  OXE d   1      -1.382   2.541  -0.810  0.00  0.00     0.003 A 
ENDROOT
TORSDOF 0
ENDMDL
