MODEL 1
REMARK minimizedAffinity 10.6312037
REMARK minimizedRMSD -1
REMARK  0 active torsions:
REMARK  status: ('A' for Active; 'I' for Inactive)
ROOT
ATOM      1  C2' OXE d   1      -3.435   5.936  -2.115  0.00  0.00     0.078 C 
ATOM      2  C1' OXE d   1      -1.691   5.981   0.083  0.00  0.00     0.078 C 
ATOM      3  C1  OXE d   1      -3.173   5.966   0.362  0.00  0.00    -0.078 A 
ATOM      4  C2  OXE d   1      -4.020   5.991  -0.720  0.00  0.00    -0.078 A 
ATOM      5  C3  OXE d   1      -5.395   5.923  -0.521  0.00  0.00     0.003 A 
ATOM      6  C4  OXE d   1      -5.928   5.984   0.773  0.00  0.00    -0.002 A 
ATOM      7  C5  OXE d   1      -5.084   5.999   1.888  0.00  0.00    -0.002 A 
ATOM      8  C6  OXE d   1      -3.707   5.947   1.701  0.00  0.00     0.003 A 
ENDROOT
TORSDOF 0
ENDMDL
