MODEL 1
REMARK minimizedAffinity -4.15258074
REMARK minimizedRMSD -1
REMARK  0 active torsions:
REMARK  status: ('A' for Active; 'I' for Inactive)
ROOT
ATOM      1  C2' OXE d   1      -1.571   0.921   2.649  0.00  0.00     0.078 C 
ATOM      2  C1' OXE d   1       0.347   2.328   4.139  0.00  0.00     0.078 C 
ATOM      3  C1  OXE d   1       0.158   2.713   2.693  0.00  0.00    -0.078 A 
ATOM      4  C2  OXE d   1      -0.749   1.989   1.959  0.00  0.00    -0.078 A 
ATOM      5  C3  OXE d   1      -1.002   2.338   0.635  0.00  0.00     0.003 A 
ATOM      6  C4  OXE d   1      -0.230   3.320   0.002  0.00  0.00    -0.002 A 
ATOM      7  C5  OXE d   1       0.728   4.043   0.721  0.00  0.00    -0.002 A 
ATOM      8  C6  OXE d   1       0.904   3.782   2.075  0.00  0.00     0.003 A 
ENDROOT
TORSDOF 0
ENDMDL
