MODEL 1
REMARK minimizedAffinity 16.2514496
REMARK minimizedRMSD -1
REMARK  0 active torsions:
REMARK  status: ('A' for Active; 'I' for Inactive)
ROOT
ATOM      1  C2' OXE d   1       0.360   2.417   0.370  0.00  0.00     0.078 C 
ATOM      2  C1' OXE d   1       0.788   3.697  -2.091  0.00  0.00     0.078 C 
ATOM      3  C1  OXE d   1      -0.216   4.308  -1.145  0.00  0.00    -0.078 A 
ATOM      4  C2  OXE d   1      -0.453   3.649   0.037  0.00  0.00    -0.078 A 
ATOM      5  C3  OXE d   1      -1.329   4.199   0.969  0.00  0.00     0.003 A 
ATOM      6  C4  OXE d   1      -2.084   5.334   0.648  0.00  0.00    -0.002 A 
ATOM      7  C5  OXE d   1      -1.887   5.998  -0.567  0.00  0.00    -0.002 A 
ATOM      8  C6  OXE d   1      -0.928   5.524  -1.455  0.00  0.00     0.003 A 
ENDROOT
TORSDOF 0
ENDMDL
