MODEL 1
REMARK minimizedAffinity -0.0183196682
REMARK minimizedRMSD -1
REMARK  0 active torsions:
REMARK  status: ('A' for Active; 'I' for Inactive)
ROOT
ATOM      1  C2' OXE d   1      -0.708   1.806   1.831  0.00  0.00     0.078 C 
ATOM      2  C1' OXE d   1       0.832   4.152   1.753  0.00  0.00     0.078 C 
ATOM      3  C1  OXE d   1       0.249   3.650   0.456  0.00  0.00    -0.078 A 
ATOM      4  C2  OXE d   1      -0.464   2.476   0.496  0.00  0.00    -0.078 A 
ATOM      5  C3  OXE d   1      -1.070   1.997  -0.663  0.00  0.00     0.003 A 
ATOM      6  C4  OXE d   1      -0.831   2.618  -1.895  0.00  0.00    -0.002 A 
ATOM      7  C5  OXE d   1      -0.075   3.792  -1.964  0.00  0.00    -0.002 A 
ATOM      8  C6  OXE d   1       0.436   4.344  -0.794  0.00  0.00     0.003 A 
ENDROOT
TORSDOF 0
ENDMDL
