MODEL 1
REMARK minimizedAffinity 2.75572443
REMARK minimizedRMSD -1
REMARK  0 active torsions:
REMARK  status: ('A' for Active; 'I' for Inactive)
ROOT
ATOM      1  C2' OXE d   1       0.215  -0.465   2.194  0.00  0.00     0.078 C 
ATOM      2  C1' OXE d   1      -2.343  -0.160   3.310  0.00  0.00     0.078 C 
ATOM      3  C1  OXE d   1      -1.796   0.977   2.484  0.00  0.00    -0.078 A 
ATOM      4  C2  OXE d   1      -0.525   0.838   1.980  0.00  0.00    -0.078 A 
ATOM      5  C3  OXE d   1       0.007   1.834   1.166  0.00  0.00     0.003 A 
ATOM      6  C4  OXE d   1      -0.679   3.041   0.982  0.00  0.00    -0.002 A 
ATOM      7  C5  OXE d   1      -1.959   3.219   1.519  0.00  0.00    -0.002 A 
ATOM      8  C6  OXE d   1      -2.547   2.183   2.235  0.00  0.00     0.003 A 
ENDROOT
TORSDOF 0
ENDMDL
