MODEL 1
REMARK minimizedAffinity 5.88039112
REMARK minimizedRMSD -1
REMARK  0 active torsions:
REMARK  status: ('A' for Active; 'I' for Inactive)
ROOT
ATOM      1  C2' OXE d   1      -1.729   0.322   3.141  0.00  0.00     0.078 C 
ATOM      2  C1' OXE d   1       0.423  -0.804   1.734  0.00  0.00     0.078 C 
ATOM      3  C1  OXE d   1      -0.389  -1.713   2.623  0.00  0.00    -0.078 A 
ATOM      4  C2  OXE d   1      -1.411  -1.144   3.344  0.00  0.00    -0.078 A 
ATOM      5  C3  OXE d   1      -2.226  -1.947   4.137  0.00  0.00     0.003 A 
ATOM      6  C4  OXE d   1      -1.918  -3.300   4.327  0.00  0.00    -0.002 A 
ATOM      7  C5  OXE d   1      -0.857  -3.891   3.633  0.00  0.00    -0.002 A 
ATOM      8  C6  OXE d   1      -0.111  -3.122   2.746  0.00  0.00     0.003 A 
ENDROOT
TORSDOF 0
ENDMDL
