MODEL 1
REMARK minimizedAffinity -0.639670372
REMARK minimizedRMSD -1
REMARK  0 active torsions:
REMARK  status: ('A' for Active; 'I' for Inactive)
ROOT
ATOM      1  C2' OXE d   1       0.231   3.570  -0.797  0.00  0.00     0.078 C 
ATOM      2  C1' OXE d   1       1.425   4.588   1.530  0.00  0.00     0.078 C 
ATOM      3  C1  OXE d   1       0.418   3.476   1.685  0.00  0.00    -0.078 A 
ATOM      4  C2  OXE d   1      -0.196   3.016   0.545  0.00  0.00    -0.078 A 
ATOM      5  C3  OXE d   1      -1.092   1.954   0.625  0.00  0.00     0.003 A 
ATOM      6  C4  OXE d   1      -1.489   1.453   1.871  0.00  0.00    -0.002 A 
ATOM      7  C5  OXE d   1      -0.905   1.935   3.048  0.00  0.00    -0.002 A 
ATOM      8  C6  OXE d   1       0.079   2.915   2.969  0.00  0.00     0.003 A 
ENDROOT
TORSDOF 0
ENDMDL
