MODEL 1
REMARK minimizedAffinity 0.614333391
REMARK minimizedRMSD -1
REMARK  0 active torsions:
REMARK  status: ('A' for Active; 'I' for Inactive)
ROOT
ATOM      1  C2' OXE d   1      -0.325   2.477   4.195  0.00  0.00     0.078 C 
ATOM      2  C1' OXE d   1      -1.132   0.062   3.013  0.00  0.00     0.078 C 
ATOM      3  C1  OXE d   1      -0.565   1.131   2.113  0.00  0.00    -0.078 A 
ATOM      4  C2  OXE d   1      -0.216   2.327   2.693  0.00  0.00    -0.078 A 
ATOM      5  C3  OXE d   1       0.363   3.327   1.917  0.00  0.00     0.003 A 
ATOM      6  C4  OXE d   1       0.451   3.183   0.527  0.00  0.00    -0.002 A 
ATOM      7  C5  OXE d   1       0.065   1.989  -0.090  0.00  0.00    -0.002 A 
ATOM      8  C6  OXE d   1      -0.405   0.939   0.692  0.00  0.00     0.003 A 
ENDROOT
TORSDOF 0
ENDMDL
