MODEL 1
REMARK minimizedAffinity 4.66601706
REMARK minimizedRMSD -1
REMARK  0 active torsions:
REMARK  status: ('A' for Active; 'I' for Inactive)
ROOT
ATOM      1  C2' OXE d   1      -1.928  -1.321   3.484  0.00  0.00     0.078 C 
ATOM      2  C1' OXE d   1       0.748  -0.917   2.735  0.00  0.00     0.078 C 
ATOM      3  C1  OXE d   1      -0.254   0.151   2.371  0.00  0.00    -0.078 A 
ATOM      4  C2  OXE d   1      -1.568  -0.077   2.700  0.00  0.00    -0.078 A 
ATOM      5  C3  OXE d   1      -2.524   0.900   2.436  0.00  0.00     0.003 A 
ATOM      6  C4  OXE d   1      -2.186   2.043   1.702  0.00  0.00    -0.002 A 
ATOM      7  C5  OXE d   1      -0.860   2.276   1.322  0.00  0.00    -0.002 A 
ATOM      8  C6  OXE d   1       0.124   1.362   1.685  0.00  0.00     0.003 A 
ENDROOT
TORSDOF 0
ENDMDL
