MODEL 1
REMARK minimizedAffinity -1.16920006
REMARK minimizedRMSD -1
REMARK  0 active torsions:
REMARK  status: ('A' for Active; 'I' for Inactive)
ROOT
ATOM      1  C2' OXE d   1      -1.316   0.221   2.890  0.00  0.00     0.078 C 
ATOM      2  C1' OXE d   1      -0.015   2.425   4.042  0.00  0.00     0.078 C 
ATOM      3  C1  OXE d   1      -0.173   2.407   2.542  0.00  0.00    -0.078 A 
ATOM      4  C2  OXE d   1      -0.770   1.302   1.983  0.00  0.00    -0.078 A 
ATOM      5  C3  OXE d   1      -0.990   1.259   0.609  0.00  0.00     0.003 A 
ATOM      6  C4  OXE d   1      -0.473   2.259  -0.223  0.00  0.00    -0.002 A 
ATOM      7  C5  OXE d   1       0.173   3.374   0.322  0.00  0.00    -0.002 A 
ATOM      8  C6  OXE d   1       0.293   3.483   1.703  0.00  0.00     0.003 A 
ENDROOT
TORSDOF 0
ENDMDL
