MODEL 1
REMARK minimizedAffinity 4.22667599
REMARK minimizedRMSD -1
REMARK  0 active torsions:
REMARK  status: ('A' for Active; 'I' for Inactive)
ROOT
ATOM      1  C2' OXE d   1      -3.323   0.759   2.255  0.00  0.00     0.078 C 
ATOM      2  C1' OXE d   1      -0.570   1.307   2.285  0.00  0.00     0.078 C 
ATOM      3  C1  OXE d   1      -1.053   0.089   3.032  0.00  0.00    -0.078 A 
ATOM      4  C2  OXE d   1      -2.407  -0.145   3.051  0.00  0.00    -0.078 A 
ATOM      5  C3  OXE d   1      -2.900  -1.285   3.680  0.00  0.00     0.003 A 
ATOM      6  C4  OXE d   1      -2.047  -2.110   4.422  0.00  0.00    -0.002 A 
ATOM      7  C5  OXE d   1      -0.670  -1.867   4.449  0.00  0.00    -0.002 A 
ATOM      8  C6  OXE d   1      -0.153  -0.798   3.726  0.00  0.00     0.003 A 
ENDROOT
TORSDOF 0
ENDMDL
