MODEL 1
REMARK minimizedAffinity 15.7350492
REMARK minimizedRMSD -1
REMARK  2 active torsions:
REMARK  status: ('A' for Active; 'I' for Inactive)
REMARK    1  A    between atoms: C1_2  and  C2_3 
REMARK    2  A    between atoms: C2_3  and  C3_4 
ROOT
ATOM      1  C3  UNL d   1      -4.127   1.512  -5.063  0.00  0.00    -0.075 A 
ATOM      2  C4  UNL d   1      -3.164   1.109  -5.999  0.00  0.00     0.002 A 
ATOM      3  C5  UNL d   1      -1.832   1.500  -5.859  0.00  0.00     0.002 A 
ATOM      4  C6  UNL d   1      -1.449   2.306  -4.790  0.00  0.00    -0.004 A 
ATOM      5  C7  UNL d   1      -2.400   2.726  -3.862  0.00  0.00     0.002 A 
ATOM      6  C8  UNL d   1      -3.732   2.333  -3.997  0.00  0.00     0.002 A 
ENDROOT
BRANCH   1   7
ATOM      7  C2  UNL d   1      -5.564   1.067  -5.192  0.00  0.00     0.056 C 
BRANCH   7   8
ATOM      8  C1  UNL d   1      -5.999   0.046  -4.136  0.00  0.00     0.007 C 
ATOM      9  C   UNL d   1      -5.886  -1.396  -4.613  0.00  0.00     0.009 C 
ENDBRANCH   7   8
ENDBRANCH   1   7
TORSDOF 2
ENDMDL
