MODEL 1
REMARK minimizedAffinity 14.5608768
REMARK minimizedRMSD -1
REMARK  2 active torsions:
REMARK  status: ('A' for Active; 'I' for Inactive)
REMARK    1  A    between atoms: C1_2  and  C2_3 
REMARK    2  A    between atoms: C2_3  and  C3_4 
ROOT
ATOM      1  C3  UNL d   1       4.610  -4.530   2.141  0.00  0.00    -0.075 A 
ATOM      2  C4  UNL d   1       5.791  -4.297   1.422  0.00  0.00     0.002 A 
ATOM      3  C5  UNL d   1       5.752  -3.645   0.189  0.00  0.00     0.002 A 
ATOM      4  C6  UNL d   1       4.535  -3.227  -0.344  0.00  0.00    -0.004 A 
ATOM      5  C7  UNL d   1       3.354  -3.468   0.355  0.00  0.00     0.002 A 
ATOM      6  C8  UNL d   1       3.390  -4.116   1.590  0.00  0.00     0.002 A 
ENDROOT
BRANCH   1   7
ATOM      7  C2  UNL d   1       4.648  -5.209   3.489  0.00  0.00     0.056 C 
BRANCH   7   8
ATOM      8  C1  UNL d   1       5.001  -4.273   4.650  0.00  0.00     0.007 C 
ATOM      9  C   UNL d   1       5.036  -4.977   6.000  0.00  0.00     0.009 C 
ENDBRANCH   7   8
ENDBRANCH   1   7
TORSDOF 2
ENDMDL
