MODEL 1
REMARK minimizedAffinity 3.12969279
REMARK minimizedRMSD -1
REMARK  2 active torsions:
REMARK  status: ('A' for Active; 'I' for Inactive)
REMARK    1  A    between atoms: C1_2  and  C2_3 
REMARK    2  A    between atoms: C2_3  and  C3_4 
ROOT
ATOM      1  C3  UNL d   1       4.970   3.667  -5.530  0.00  0.00    -0.075 A 
ATOM      2  C4  UNL d   1       5.952   3.234  -4.627  0.00  0.00     0.002 A 
ATOM      3  C5  UNL d   1       5.999   1.901  -4.219  0.00  0.00     0.002 A 
ATOM      4  C6  UNL d   1       5.062   0.988  -4.697  0.00  0.00    -0.004 A 
ATOM      5  C7  UNL d   1       4.071   1.412  -5.581  0.00  0.00     0.002 A 
ATOM      6  C8  UNL d   1       4.024   2.744  -5.995  0.00  0.00     0.002 A 
ENDROOT
BRANCH   1   7
ATOM      7  C2  UNL d   1       4.931   5.102  -5.999  0.00  0.00     0.056 C 
BRANCH   7   8
ATOM      8  C1  UNL d   1       3.962   5.990  -5.210  0.00  0.00     0.007 C 
ATOM      9  C   UNL d   1       2.537   5.946  -5.745  0.00  0.00     0.009 C 
ENDBRANCH   7   8
ENDBRANCH   1   7
TORSDOF 2
ENDMDL
