MODEL 1
REMARK minimizedAffinity 9.9072113
REMARK minimizedRMSD -1
REMARK  2 active torsions:
REMARK  status: ('A' for Active; 'I' for Inactive)
REMARK    1  A    between atoms: C1_2  and  C2_3 
REMARK    2  A    between atoms: C2_3  and  C3_4 
ROOT
ATOM      1  C3  UNL d   1       4.982  -4.887   3.580  0.00  0.00    -0.075 A 
ATOM      2  C4  UNL d   1       4.840  -5.587   4.786  0.00  0.00     0.002 A 
ATOM      3  C5  UNL d   1       5.261  -5.020   5.989  0.00  0.00     0.002 A 
ATOM      4  C6  UNL d   1       5.838  -3.752   6.000  0.00  0.00    -0.004 A 
ATOM      5  C7  UNL d   1       6.000  -3.054   4.805  0.00  0.00     0.002 A 
ATOM      6  C8  UNL d   1       5.575  -3.617   3.601  0.00  0.00     0.002 A 
ENDROOT
BRANCH   1   7
ATOM      7  C2  UNL d   1       4.501  -5.483   2.279  0.00  0.00     0.056 C 
BRANCH   7   8
ATOM      8  C1  UNL d   1       4.499  -4.499   1.104  0.00  0.00     0.007 C 
ATOM      9  C   UNL d   1       3.108  -3.985   0.754  0.00  0.00     0.009 C 
ENDBRANCH   7   8
ENDBRANCH   1   7
TORSDOF 2
ENDMDL
