MODEL 1
REMARK minimizedAffinity 9.16305923
REMARK minimizedRMSD -1
REMARK  2 active torsions:
REMARK  status: ('A' for Active; 'I' for Inactive)
REMARK    1  A    between atoms: C1_2  and  C2_3 
REMARK    2  A    between atoms: C2_3  and  C3_4 
ROOT
ATOM      1  C3  UNL d   1       2.622   0.324   1.038  0.00  0.00    -0.075 A 
ATOM      2  C4  UNL d   1       2.464   1.505   1.778  0.00  0.00     0.002 A 
ATOM      3  C5  UNL d   1       3.393   2.540   1.667  0.00  0.00     0.002 A 
ATOM      4  C6  UNL d   1       4.494   2.404   0.825  0.00  0.00    -0.004 A 
ATOM      5  C7  UNL d   1       4.670   1.229   0.097  0.00  0.00     0.002 A 
ATOM      6  C8  UNL d   1       3.740   0.194   0.203  0.00  0.00     0.002 A 
ENDROOT
BRANCH   1   7
ATOM      7  C2  UNL d   1       1.604  -0.788   1.131  0.00  0.00     0.056 C 
BRANCH   7   8
ATOM      8  C1  UNL d   1       1.693  -1.811  -0.006  0.00  0.00     0.007 C 
ATOM      9  C   UNL d   1       2.283  -3.145   0.431  0.00  0.00     0.009 C 
ENDBRANCH   7   8
ENDBRANCH   1   7
TORSDOF 2
ENDMDL
