MODEL 1
REMARK minimizedAffinity 9.89016628
REMARK minimizedRMSD -1
REMARK  2 active torsions:
REMARK  status: ('A' for Active; 'I' for Inactive)
REMARK    1  A    between atoms: C1_2  and  C2_3 
REMARK    2  A    between atoms: C2_3  and  C3_4 
ROOT
ATOM      1  C3  UNL d   1       0.932   4.486  -4.157  0.00  0.00    -0.075 A 
ATOM      2  C4  UNL d   1       2.297   4.173  -4.093  0.00  0.00     0.002 A 
ATOM      3  C5  UNL d   1       3.204   4.777  -4.964  0.00  0.00     0.002 A 
ATOM      4  C6  UNL d   1       2.758   5.693  -5.915  0.00  0.00    -0.004 A 
ATOM      5  C7  UNL d   1       1.401   5.999  -5.998  0.00  0.00     0.002 A 
ATOM      6  C8  UNL d   1       0.492   5.399  -5.125  0.00  0.00     0.002 A 
ENDROOT
BRANCH   1   7
ATOM      7  C2  UNL d   1      -0.051   3.858  -3.199  0.00  0.00     0.056 C 
BRANCH   7   8
ATOM      8  C1  UNL d   1      -1.335   3.351  -3.864  0.00  0.00     0.007 C 
ATOM      9  C   UNL d   1      -2.172   2.461  -2.955  0.00  0.00     0.009 C 
ENDBRANCH   7   8
ENDBRANCH   1   7
TORSDOF 2
ENDMDL
