MODEL 1
REMARK minimizedAffinity 8.9205513
REMARK minimizedRMSD -1
REMARK  2 active torsions:
REMARK  status: ('A' for Active; 'I' for Inactive)
REMARK    1  A    between atoms: C1_2  and  C2_3 
REMARK    2  A    between atoms: C2_3  and  C3_4 
ROOT
ATOM      1  C3  UNL d   1       3.254  -3.096   0.457  0.00  0.00    -0.075 A 
ATOM      2  C4  UNL d   1       2.585  -4.087   1.191  0.00  0.00     0.002 A 
ATOM      3  C5  UNL d   1       3.252  -5.247   1.586  0.00  0.00     0.002 A 
ATOM      4  C6  UNL d   1       4.590  -5.435   1.245  0.00  0.00    -0.004 A 
ATOM      5  C7  UNL d   1       5.259  -4.465   0.503  0.00  0.00     0.002 A 
ATOM      6  C8  UNL d   1       4.596  -3.302   0.110  0.00  0.00     0.002 A 
ENDROOT
BRANCH   1   7
ATOM      7  C2  UNL d   1       2.546  -1.825   0.051  0.00  0.00     0.056 C 
BRANCH   7   8
ATOM      8  C1  UNL d   1       1.216  -1.593   0.776  0.00  0.00     0.007 C 
ATOM      9  C   UNL d   1       1.360  -0.758   2.042  0.00  0.00     0.009 C 
ENDBRANCH   7   8
ENDBRANCH   1   7
TORSDOF 2
ENDMDL
