MODEL 1
REMARK minimizedAffinity 10.5221596
REMARK minimizedRMSD -1
REMARK  2 active torsions:
REMARK  status: ('A' for Active; 'I' for Inactive)
REMARK    1  A    between atoms: C1_2  and  C2_3 
REMARK    2  A    between atoms: C2_3  and  C3_4 
ROOT
ATOM      1  C3  UNL d   1       4.225   4.588  -5.218  0.00  0.00    -0.075 A 
ATOM      2  C4  UNL d   1       5.369   4.363  -5.998  0.00  0.00     0.002 A 
ATOM      3  C5  UNL d   1       5.990   3.114  -6.000  0.00  0.00     0.002 A 
ATOM      4  C6  UNL d   1       5.483   2.079  -5.217  0.00  0.00    -0.004 A 
ATOM      5  C7  UNL d   1       4.357   2.296  -4.426  0.00  0.00     0.002 A 
ATOM      6  C8  UNL d   1       3.731   3.544  -4.425  0.00  0.00     0.002 A 
ENDROOT
BRANCH   1   7
ATOM      7  C2  UNL d   1       3.531   5.929  -5.234  0.00  0.00     0.056 C 
BRANCH   7   8
ATOM      8  C1  UNL d   1       2.056   5.873  -4.821  0.00  0.00     0.007 C 
ATOM      9  C   UNL d   1       1.109   5.686  -6.000  0.00  0.00     0.009 C 
ENDBRANCH   7   8
ENDBRANCH   1   7
TORSDOF 2
ENDMDL
