MODEL 1
REMARK minimizedAffinity -2.94878507
REMARK minimizedRMSD -1
REMARK  0 active torsions:
REMARK  status: ('A' for Active; 'I' for Inactive)
ROOT
ATOM      1  C   UNL d   1      -0.499  -1.544  -0.194  0.00  0.00     0.020 A 
ATOM      2  C1  UNL d   1      -1.216  -0.372  -0.434  0.00  0.00     0.020 A 
ATOM      3  C2  UNL d   1      -0.563   0.754  -0.940  0.00  0.00     0.034 A 
ATOM      4  C3  UNL d   1       0.810   0.712  -1.207  0.00  0.00     0.017 A 
ATOM      5  C4  UNL d   1       1.528  -0.465  -0.967  0.00  0.00     0.017 A 
ATOM      6  C5  UNL d   1       0.870  -1.590  -0.460  0.00  0.00     0.034 A 
ATOM      7 Cl   UNL d   1       3.225  -0.595  -1.272  0.00  0.00    -0.070 Cl
ATOM      8 Cl1  UNL d   1       1.552   2.141  -1.832  0.00  0.00    -0.070 Cl
ENDROOT
TORSDOF 0
ENDMDL
