MODEL 1
REMARK minimizedAffinity -4.49864149
REMARK minimizedRMSD -1
REMARK  0 active torsions:
REMARK  status: ('A' for Active; 'I' for Inactive)
ROOT
ATOM      1  C   UNL d   1       2.695  -0.737  -1.438  0.00  0.00     0.020 A 
ATOM      2  C1  UNL d   1       2.957   0.368  -0.629  0.00  0.00     0.020 A 
ATOM      3  C2  UNL d   1       1.990   0.818   0.272  0.00  0.00     0.034 A 
ATOM      4  C3  UNL d   1       0.756   0.165   0.365  0.00  0.00     0.017 A 
ATOM      5  C4  UNL d   1       0.494  -0.944  -0.448  0.00  0.00     0.017 A 
ATOM      6  C5  UNL d   1       1.466  -1.391  -1.348  0.00  0.00     0.034 A 
ATOM      7 Cl   UNL d   1      -1.006  -1.802  -0.390  0.00  0.00    -0.070 Cl
ATOM      8 Cl1  UNL d   1      -0.394   0.776   1.501  0.00  0.00    -0.070 Cl
ENDROOT
TORSDOF 0
ENDMDL
