MODEL 1
REMARK minimizedAffinity 0.457603723
REMARK minimizedRMSD -1
REMARK  0 active torsions:
REMARK  status: ('A' for Active; 'I' for Inactive)
ROOT
ATOM      1  C   UNL d   1       1.868  -0.708  -1.688  0.00  0.00     0.020 A 
ATOM      2  C1  UNL d   1       1.329   0.569  -1.541  0.00  0.00     0.020 A 
ATOM      3  C2  UNL d   1       0.271   0.783  -0.655  0.00  0.00     0.034 A 
ATOM      4  C3  UNL d   1      -0.252  -0.282   0.087  0.00  0.00     0.017 A 
ATOM      5  C4  UNL d   1       0.289  -1.564  -0.061  0.00  0.00     0.017 A 
ATOM      6  C5  UNL d   1       1.349  -1.773  -0.949  0.00  0.00     0.034 A 
ATOM      7 Cl   UNL d   1      -0.303  -2.928   0.821  0.00  0.00    -0.070 Cl
ATOM      8 Cl1  UNL d   1      -1.560   0.055   1.164  0.00  0.00    -0.070 Cl
ENDROOT
TORSDOF 0
ENDMDL
