MODEL 1
REMARK minimizedAffinity -5.28746748
REMARK minimizedRMSD -1
REMARK  0 active torsions:
REMARK  status: ('A' for Active; 'I' for Inactive)
ROOT
ATOM      1  C   UNL d   1      -0.065   1.738  -0.812  0.00  0.00     0.020 A 
ATOM      2  C1  UNL d   1      -1.135   1.021  -0.279  0.00  0.00     0.020 A 
ATOM      3  C2  UNL d   1      -0.997  -0.342  -0.008  0.00  0.00     0.034 A 
ATOM      4  C3  UNL d   1       0.215  -0.992  -0.271  0.00  0.00     0.017 A 
ATOM      5  C4  UNL d   1       1.288  -0.272  -0.806  0.00  0.00     0.017 A 
ATOM      6  C5  UNL d   1       1.144   1.093  -1.076  0.00  0.00     0.034 A 
ATOM      7 Cl   UNL d   1       2.813  -1.005  -1.157  0.00  0.00    -0.070 Cl
ATOM      8 Cl1  UNL d   1       0.315  -2.679   0.089  0.00  0.00    -0.070 Cl
ENDROOT
TORSDOF 0
ENDMDL
