MODEL 1
REMARK minimizedAffinity -5.24083519
REMARK minimizedRMSD -1
REMARK  0 active torsions:
REMARK  status: ('A' for Active; 'I' for Inactive)
ROOT
ATOM      1  C   UNL d   1       2.195  -0.989  -1.582  0.00  0.00     0.020 A 
ATOM      2  C1  UNL d   1       1.749  -1.680  -0.456  0.00  0.00     0.020 A 
ATOM      3  C2  UNL d   1       0.599  -1.257   0.214  0.00  0.00     0.034 A 
ATOM      4  C3  UNL d   1      -0.110  -0.139  -0.242  0.00  0.00     0.017 A 
ATOM      5  C4  UNL d   1       0.338   0.554  -1.373  0.00  0.00     0.017 A 
ATOM      6  C5  UNL d   1       1.490   0.125  -2.040  0.00  0.00     0.034 A 
ATOM      7 Cl   UNL d   1      -0.484   1.941  -1.996  0.00  0.00    -0.070 Cl
ATOM      8 Cl1  UNL d   1      -1.524   0.328   0.634  0.00  0.00    -0.070 Cl
ENDROOT
TORSDOF 0
ENDMDL
