MODEL 1
REMARK minimizedAffinity -5.8157711
REMARK minimizedRMSD -1
REMARK  0 active torsions:
REMARK  status: ('A' for Active; 'I' for Inactive)
ROOT
ATOM      1  C   UNL d   1       2.289   0.919  -1.351  0.00  0.00     0.020 A 
ATOM      2  C1  UNL d   1       2.873  -0.335  -1.178  0.00  0.00     0.020 A 
ATOM      3  C2  UNL d   1       2.143  -1.372  -0.593  0.00  0.00     0.034 A 
ATOM      4  C3  UNL d   1       0.823  -1.156  -0.180  0.00  0.00     0.017 A 
ATOM      5  C4  UNL d   1       0.237   0.103  -0.354  0.00  0.00     0.017 A 
ATOM      6  C5  UNL d   1       0.973   1.137  -0.940  0.00  0.00     0.034 A 
ATOM      7 Cl   UNL d   1      -1.386   0.445   0.131  0.00  0.00    -0.070 Cl
ATOM      8 Cl1  UNL d   1      -0.022  -2.483   0.535  0.00  0.00    -0.070 Cl
ENDROOT
TORSDOF 0
ENDMDL
