MODEL 1
REMARK minimizedAffinity -4.30205345
REMARK minimizedRMSD -1
REMARK  0 active torsions:
REMARK  status: ('A' for Active; 'I' for Inactive)
ROOT
ATOM      1  C   UNL d   1       1.679  -1.284  -0.746  0.00  0.00     0.020 A 
ATOM      2  C1  UNL d   1       2.137  -0.002  -1.048  0.00  0.00     0.020 A 
ATOM      3  C2  UNL d   1       1.250   1.076  -1.045  0.00  0.00     0.034 A 
ATOM      4  C3  UNL d   1      -0.101   0.875  -0.739  0.00  0.00     0.017 A 
ATOM      5  C4  UNL d   1      -0.560  -0.412  -0.436  0.00  0.00     0.017 A 
ATOM      6  C5  UNL d   1       0.333  -1.488  -0.440  0.00  0.00     0.034 A 
ATOM      7 Cl   UNL d   1      -2.213  -0.738  -0.048  0.00  0.00    -0.070 Cl
ATOM      8 Cl1  UNL d   1      -1.142   2.254  -0.754  0.00  0.00    -0.070 Cl
ENDROOT
TORSDOF 0
ENDMDL
