MODEL 1
REMARK minimizedAffinity -3.94238234
REMARK minimizedRMSD -1
REMARK  0 active torsions:
REMARK  status: ('A' for Active; 'I' for Inactive)
ROOT
ATOM      1  C   UNL d   1      -0.516   1.613  -0.746  0.00  0.00     0.020 A 
ATOM      2  C1  UNL d   1       0.643   1.874  -1.475  0.00  0.00     0.020 A 
ATOM      3  C2  UNL d   1       1.558   0.849  -1.723  0.00  0.00     0.034 A 
ATOM      4  C3  UNL d   1       1.315  -0.443  -1.242  0.00  0.00     0.017 A 
ATOM      5  C4  UNL d   1       0.152  -0.704  -0.509  0.00  0.00     0.017 A 
ATOM      6  C5  UNL d   1      -0.761   0.326  -0.264  0.00  0.00     0.034 A 
ATOM      7 Cl   UNL d   1      -0.216  -2.272   0.118  0.00  0.00    -0.070 Cl
ATOM      8 Cl1  UNL d   1       2.490  -1.662  -1.586  0.00  0.00    -0.070 Cl
ENDROOT
TORSDOF 0
ENDMDL
