MODEL 1
REMARK minimizedAffinity -5.51102161
REMARK minimizedRMSD -1
REMARK  0 active torsions:
REMARK  status: ('A' for Active; 'I' for Inactive)
ROOT
ATOM      1  C   UNL d   1       2.621  -0.774  -1.471  0.00  0.00     0.020 A 
ATOM      2  C1  UNL d   1       2.446   0.523  -0.991  0.00  0.00     0.020 A 
ATOM      3  C2  UNL d   1       1.273   0.865  -0.314  0.00  0.00     0.034 A 
ATOM      4  C3  UNL d   1       0.270  -0.092  -0.116  0.00  0.00     0.017 A 
ATOM      5  C4  UNL d   1       0.447  -1.394  -0.598  0.00  0.00     0.017 A 
ATOM      6  C5  UNL d   1       1.624  -1.730  -1.275  0.00  0.00     0.034 A 
ATOM      7 Cl   UNL d   1      -0.745  -2.628  -0.392  0.00  0.00    -0.070 Cl
ATOM      8 Cl1  UNL d   1      -1.154   0.401   0.730  0.00  0.00    -0.070 Cl
ENDROOT
TORSDOF 0
ENDMDL
