MODEL 1
REMARK minimizedAffinity -3.01159048
REMARK minimizedRMSD -1
REMARK  0 active torsions:
REMARK  status: ('A' for Active; 'I' for Inactive)
ROOT
ATOM      1  C   UNL d   1       2.713  -0.458  -1.448  0.00  0.00     0.020 A 
ATOM      2  C1  UNL d   1       2.504   0.830  -0.958  0.00  0.00     0.020 A 
ATOM      3  C2  UNL d   1       1.342   1.124  -0.240  0.00  0.00     0.034 A 
ATOM      4  C3  UNL d   1       0.386   0.128  -0.012  0.00  0.00     0.017 A 
ATOM      5  C4  UNL d   1       0.597  -1.164  -0.504  0.00  0.00     0.017 A 
ATOM      6  C5  UNL d   1       1.762  -1.453  -1.222  0.00  0.00     0.034 A 
ATOM      7 Cl   UNL d   1      -0.538  -2.446  -0.262  0.00  0.00    -0.070 Cl
ATOM      8 Cl1  UNL d   1      -1.027   0.562   0.884  0.00  0.00    -0.070 Cl
ENDROOT
TORSDOF 0
ENDMDL
