MODEL 1
REMARK minimizedAffinity -5.60335732
REMARK minimizedRMSD -1
REMARK  0 active torsions:
REMARK  status: ('A' for Active; 'I' for Inactive)
ROOT
ATOM      1  C   UNL d   1       2.891  -0.697  -1.244  0.00  0.00     0.020 A 
ATOM      2  C1  UNL d   1       2.675   0.678  -1.168  0.00  0.00     0.020 A 
ATOM      3  C2  UNL d   1       1.417   1.169  -0.809  0.00  0.00     0.034 A 
ATOM      4  C3  UNL d   1       0.371   0.283  -0.525  0.00  0.00     0.017 A 
ATOM      5  C4  UNL d   1       0.590  -1.097  -0.600  0.00  0.00     0.017 A 
ATOM      6  C5  UNL d   1       1.850  -1.583  -0.960  0.00  0.00     0.034 A 
ATOM      7 Cl   UNL d   1      -0.652  -2.251  -0.263  0.00  0.00    -0.070 Cl
ATOM      8 Cl1  UNL d   1      -1.157   0.960  -0.087  0.00  0.00    -0.070 Cl
ENDROOT
TORSDOF 0
ENDMDL
