MODEL 1
REMARK minimizedAffinity -4.44897938
REMARK minimizedRMSD -1
REMARK  0 active torsions:
REMARK  status: ('A' for Active; 'I' for Inactive)
ROOT
ATOM      1  C   UNL d   1      -0.186  -1.497   0.346  0.00  0.00     0.020 A 
ATOM      2  C1  UNL d   1      -0.859  -0.276   0.348  0.00  0.00     0.020 A 
ATOM      3  C2  UNL d   1      -0.242   0.862  -0.175  0.00  0.00     0.034 A 
ATOM      4  C3  UNL d   1       1.052   0.782  -0.702  0.00  0.00     0.017 A 
ATOM      5  C4  UNL d   1       1.727  -0.445  -0.703  0.00  0.00     0.017 A 
ATOM      6  C5  UNL d   1       1.104  -1.581  -0.178  0.00  0.00     0.034 A 
ATOM      7 Cl   UNL d   1       3.325  -0.622  -1.336  0.00  0.00    -0.070 Cl
ATOM      8 Cl1  UNL d   1       1.754   2.229  -1.332  0.00  0.00    -0.070 Cl
ENDROOT
TORSDOF 0
ENDMDL
