MODEL 1
REMARK minimizedAffinity -4.0147562
REMARK minimizedRMSD -1
REMARK  0 active torsions:
REMARK  status: ('A' for Active; 'I' for Inactive)
ROOT
ATOM      1  C   UNL d   1       0.220  -1.980   0.208  0.00  0.00     0.020 A 
ATOM      2  C1  UNL d   1      -0.747  -0.976   0.180  0.00  0.00     0.020 A 
ATOM      3  C2  UNL d   1      -0.470   0.243  -0.442  0.00  0.00     0.034 A 
ATOM      4  C3  UNL d   1       0.776   0.462  -1.039  0.00  0.00     0.017 A 
ATOM      5  C4  UNL d   1       1.747  -0.547  -1.011  0.00  0.00     0.017 A 
ATOM      6  C5  UNL d   1       1.464  -1.766  -0.387  0.00  0.00     0.034 A 
ATOM      7 Cl   UNL d   1       3.308  -0.351  -1.727  0.00  0.00    -0.070 Cl
ATOM      8 Cl1  UNL d   1       1.050   1.993  -1.791  0.00  0.00    -0.070 Cl
ENDROOT
TORSDOF 0
ENDMDL
