MODEL 1
REMARK minimizedAffinity -4.01485252
REMARK minimizedRMSD -1
REMARK  0 active torsions:
REMARK  status: ('A' for Active; 'I' for Inactive)
ROOT
ATOM      1  C   UNL d   1      -0.843  -0.695   0.197  0.00  0.00     0.020 A 
ATOM      2  C1  UNL d   1       0.016  -1.784   0.331  0.00  0.00     0.020 A 
ATOM      3  C2  UNL d   1       1.292  -1.742  -0.235  0.00  0.00     0.034 A 
ATOM      4  C3  UNL d   1       1.712  -0.607  -0.939  0.00  0.00     0.017 A 
ATOM      5  C4  UNL d   1       0.848   0.486  -1.074  0.00  0.00     0.017 A 
ATOM      6  C5  UNL d   1      -0.428   0.438  -0.505  0.00  0.00     0.034 A 
ATOM      7 Cl   UNL d   1       1.296   1.921  -1.928  0.00  0.00    -0.070 Cl
ATOM      8 Cl1  UNL d   1       3.302  -0.623  -1.614  0.00  0.00    -0.070 Cl
ENDROOT
TORSDOF 0
ENDMDL
