MODEL 1
REMARK minimizedAffinity -4.06853008
REMARK minimizedRMSD -1
REMARK  0 active torsions:
REMARK  status: ('A' for Active; 'I' for Inactive)
ROOT
ATOM      1  C   UNL d   1       1.886  -1.229  -1.210  0.00  0.00     0.020 A 
ATOM      2  C1  UNL d   1       1.413  -1.860  -0.061  0.00  0.00     0.020 A 
ATOM      3  C2  UNL d   1       0.345  -1.308   0.650  0.00  0.00     0.034 A 
ATOM      4  C3  UNL d   1      -0.253  -0.121   0.212  0.00  0.00     0.017 A 
ATOM      5  C4  UNL d   1       0.223   0.512  -0.942  0.00  0.00     0.017 A 
ATOM      6  C5  UNL d   1       1.293  -0.045  -1.650  0.00  0.00     0.034 A 
ATOM      7 Cl   UNL d   1      -0.463   1.980  -1.544  0.00  0.00    -0.070 Cl
ATOM      8 Cl1  UNL d   1      -1.569   0.506   1.139  0.00  0.00    -0.070 Cl
ENDROOT
TORSDOF 0
ENDMDL
