MODEL 1
REMARK minimizedAffinity -3.52857971
REMARK minimizedRMSD -1
REMARK  0 active torsions:
REMARK  status: ('A' for Active; 'I' for Inactive)
ROOT
ATOM      1  C   UNL d   1      -2.325   0.797   2.619  0.00  0.00     0.020 A 
ATOM      2  C1  UNL d   1      -1.149   1.504   2.868  0.00  0.00     0.020 A 
ATOM      3  C2  UNL d   1      -0.058   1.368   2.007  0.00  0.00     0.034 A 
ATOM      4  C3  UNL d   1      -0.140   0.523   0.894  0.00  0.00     0.017 A 
ATOM      5  C4  UNL d   1      -1.321  -0.186   0.645  0.00  0.00     0.017 A 
ATOM      6  C5  UNL d   1      -2.410  -0.046   1.510  0.00  0.00     0.034 A 
ATOM      7 Cl   UNL d   1      -1.498  -1.247  -0.708  0.00  0.00    -0.070 Cl
ATOM      8 Cl1  UNL d   1       1.248   0.403  -0.128  0.00  0.00    -0.070 Cl
ENDROOT
TORSDOF 0
ENDMDL
