MODEL 1
REMARK minimizedAffinity -4.20148039
REMARK minimizedRMSD -1
REMARK  0 active torsions:
REMARK  status: ('A' for Active; 'I' for Inactive)
ROOT
ATOM      1  C   UNL d   1      -0.815  -0.495   0.435  0.00  0.00     0.020 A 
ATOM      2  C1  UNL d   1      -0.021  -1.640   0.391  0.00  0.00     0.020 A 
ATOM      3  C2  UNL d   1       1.193  -1.622  -0.300  0.00  0.00     0.034 A 
ATOM      4  C3  UNL d   1       1.616  -0.456  -0.949  0.00  0.00     0.017 A 
ATOM      5  C4  UNL d   1       0.819   0.693  -0.903  0.00  0.00     0.017 A 
ATOM      6  C5  UNL d   1      -0.396   0.669  -0.210  0.00  0.00     0.034 A 
ATOM      7 Cl   UNL d   1       1.274   2.169  -1.679  0.00  0.00    -0.070 Cl
ATOM      8 Cl1  UNL d   1       3.129  -0.505  -1.783  0.00  0.00    -0.070 Cl
ENDROOT
TORSDOF 0
ENDMDL
