MODEL 1
REMARK minimizedAffinity 4.88125372
REMARK minimizedRMSD -1
REMARK  3 active torsions:
REMARK  status: ('A' for Active; 'I' for Inactive)
REMARK    1  A    between atoms: C3'_2  and  C2'_3 
REMARK    2  A    between atoms: C2'_3  and  C1'_4 
REMARK    3  A    between atoms: C1'_4  and  C1_5 
ROOT
ATOM      1  C1  N4B d   1      -0.679   3.739   0.113  0.00  0.00    -0.075 A 
ATOM      2  C2  N4B d   1       0.309   3.343  -0.815  0.00  0.00     0.002 A 
ATOM      3  C3  N4B d   1       0.368   3.938  -2.052  0.00  0.00     0.002 A 
ATOM      4  C4  N4B d   1      -0.559   4.913  -2.388  0.00  0.00    -0.004 A 
ATOM      5  C5  N4B d   1      -1.495   5.307  -1.477  0.00  0.00     0.002 A 
ATOM      6  C6  N4B d   1      -1.563   4.721  -0.229  0.00  0.00     0.002 A 
ENDROOT
BRANCH   1   7
ATOM      7  C1' N4B d   1      -0.836   3.057   1.444  0.00  0.00     0.057 C 
BRANCH   7   8
ATOM      8  C2' N4B d   1       0.305   2.063   1.636  0.00  0.00     0.009 C 
BRANCH   8   9
ATOM      9  C3' N4B d   1       0.248   1.386   2.995  0.00  0.00     0.004 C 
ATOM     10  C4' N4B d   1       1.000   0.090   3.030  0.00  0.00     0.003 C 
ENDBRANCH   8   9
ENDBRANCH   7   8
ENDBRANCH   1   7
TORSDOF 3
ENDMDL
