MODEL 1
REMARK minimizedAffinity 12.7871885
REMARK minimizedRMSD -1
REMARK  3 active torsions:
REMARK  status: ('A' for Active; 'I' for Inactive)
REMARK    1  A    between atoms: C3'_2  and  C2'_3 
REMARK    2  A    between atoms: C2'_3  and  C1'_4 
REMARK    3  A    between atoms: C1'_4  and  C1_5 
ROOT
ATOM      1  C1  N4B d   1      -1.663   2.084   1.601  0.00  0.00    -0.075 A 
ATOM      2  C2  N4B d   1      -2.286   1.251   0.644  0.00  0.00     0.002 A 
ATOM      3  C3  N4B d   1      -3.327   0.437   1.017  0.00  0.00     0.002 A 
ATOM      4  C4  N4B d   1      -3.749   0.424   2.338  0.00  0.00    -0.004 A 
ATOM      5  C5  N4B d   1      -3.159   1.250   3.250  0.00  0.00     0.002 A 
ATOM      6  C6  N4B d   1      -2.114   2.076   2.889  0.00  0.00     0.002 A 
ENDROOT
BRANCH   1   7
ATOM      7  C1' N4B d   1      -0.466   2.927   1.259  0.00  0.00     0.057 C 
BRANCH   7   8
ATOM      8  C2' N4B d   1      -0.203   2.841  -0.241  0.00  0.00     0.009 C 
BRANCH   8   9
ATOM      9  C3' N4B d   1      -0.049   4.214  -0.871  0.00  0.00     0.004 C 
ATOM     10  C4' N4B d   1      -1.022   4.454  -1.987  0.00  0.00     0.003 C 
ENDBRANCH   8   9
ENDBRANCH   7   8
ENDBRANCH   1   7
TORSDOF 3
ENDMDL
