MODEL 1
REMARK minimizedAffinity 6.61716461
REMARK minimizedRMSD -1
REMARK  3 active torsions:
REMARK  status: ('A' for Active; 'I' for Inactive)
REMARK    1  A    between atoms: C3'_2  and  C2'_3 
REMARK    2  A    between atoms: C2'_3  and  C1'_4 
REMARK    3  A    between atoms: C1'_4  and  C1_5 
ROOT
ATOM      1  C1  N4B d   1      -0.591   3.630   0.287  0.00  0.00    -0.075 A 
ATOM      2  C2  N4B d   1       0.428   3.370  -0.655  0.00  0.00     0.002 A 
ATOM      3  C3  N4B d   1       0.261   3.743  -1.967  0.00  0.00     0.002 A 
ATOM      4  C4  N4B d   1      -0.918   4.358  -2.361  0.00  0.00    -0.004 A 
ATOM      5  C5  N4B d   1      -1.887   4.628  -1.439  0.00  0.00     0.002 A 
ATOM      6  C6  N4B d   1      -1.731   4.262  -0.117  0.00  0.00     0.002 A 
ENDROOT
BRANCH   1   7
ATOM      7  C1' N4B d   1      -0.491   3.163   1.714  0.00  0.00     0.057 C 
BRANCH   7   8
ATOM      8  C2' N4B d   1       0.752   2.293   1.870  0.00  0.00     0.009 C 
BRANCH   8   9
ATOM      9  C3' N4B d   1       1.287   2.316   3.291  0.00  0.00     0.004 C 
ATOM     10  C4' N4B d   1       2.674   2.879   3.380  0.00  0.00     0.003 C 
ENDBRANCH   8   9
ENDBRANCH   7   8
ENDBRANCH   1   7
TORSDOF 3
ENDMDL
