MODEL 1
REMARK minimizedAffinity 6.78465462
REMARK minimizedRMSD -1
REMARK  3 active torsions:
REMARK  status: ('A' for Active; 'I' for Inactive)
REMARK    1  A    between atoms: C3'_2  and  C2'_3 
REMARK    2  A    between atoms: C2'_3  and  C1'_4 
REMARK    3  A    between atoms: C1'_4  and  C1_5 
ROOT
ATOM      1  C1  N4B d   1      -4.891  -0.659   4.334  0.00  0.00    -0.075 A 
ATOM      2  C2  N4B d   1      -5.995  -0.946   5.167  0.00  0.00     0.002 A 
ATOM      3  C3  N4B d   1      -5.992  -2.077   5.946  0.00  0.00     0.002 A 
ATOM      4  C4  N4B d   1      -4.909  -2.942   5.895  0.00  0.00    -0.004 A 
ATOM      5  C5  N4B d   1      -3.836  -2.644   5.107  0.00  0.00     0.002 A 
ATOM      6  C6  N4B d   1      -3.824  -1.509   4.321  0.00  0.00     0.002 A 
ENDROOT
BRANCH   1   7
ATOM      7  C1' N4B d   1      -4.886   0.520   3.400  0.00  0.00     0.057 C 
BRANCH   7   8
ATOM      8  C2' N4B d   1      -3.543   0.582   2.679  0.00  0.00     0.009 C 
BRANCH   8   9
ATOM      9  C3' N4B d   1      -3.644   0.084   1.247  0.00  0.00     0.004 C 
ATOM     10  C4' N4B d   1      -4.576   0.907   0.410  0.00  0.00     0.003 C 
ENDBRANCH   8   9
ENDBRANCH   7   8
ENDBRANCH   1   7
TORSDOF 3
ENDMDL
