MODEL 1
REMARK minimizedAffinity 1.43034911
REMARK minimizedRMSD -1
REMARK  3 active torsions:
REMARK  status: ('A' for Active; 'I' for Inactive)
REMARK    1  A    between atoms: C3'_2  and  C2'_3 
REMARK    2  A    between atoms: C2'_3  and  C1'_4 
REMARK    3  A    between atoms: C1'_4  and  C1_5 
ROOT
ATOM      1  C1  N4B d   1       0.890   3.408   1.552  0.00  0.00    -0.075 A 
ATOM      2  C2  N4B d   1      -0.132   2.542   1.999  0.00  0.00     0.002 A 
ATOM      3  C3  N4B d   1       0.064   1.765   3.115  0.00  0.00     0.002 A 
ATOM      4  C4  N4B d   1       1.277   1.823   3.786  0.00  0.00    -0.004 A 
ATOM      5  C5  N4B d   1       2.250   2.681   3.363  0.00  0.00     0.002 A 
ATOM      6  C6  N4B d   1       2.064   3.470   2.245  0.00  0.00     0.002 A 
ENDROOT
BRANCH   1   7
ATOM      7  C1' N4B d   1       0.753   4.212   0.289  0.00  0.00     0.057 C 
BRANCH   7   8
ATOM      8  C2' N4B d   1      -0.161   3.470  -0.681  0.00  0.00     0.009 C 
BRANCH   8   9
ATOM      9  C3' N4B d   1      -0.257   4.174  -2.024  0.00  0.00     0.004 C 
ATOM     10  C4' N4B d   1      -1.546   4.920  -2.197  0.00  0.00     0.003 C 
ENDBRANCH   8   9
ENDBRANCH   7   8
ENDBRANCH   1   7
TORSDOF 3
ENDMDL
