MODEL 1
REMARK minimizedAffinity 2.49123907
REMARK minimizedRMSD -1
REMARK  3 active torsions:
REMARK  status: ('A' for Active; 'I' for Inactive)
REMARK    1  A    between atoms: C3'_2  and  C2'_3 
REMARK    2  A    between atoms: C2'_3  and  C1'_4 
REMARK    3  A    between atoms: C1'_4  and  C1_5 
ROOT
ATOM      1  C1  N4B d   1      -0.347   3.648   0.019  0.00  0.00    -0.075 A 
ATOM      2  C2  N4B d   1      -0.713   3.554  -1.342  0.00  0.00     0.002 A 
ATOM      3  C3  N4B d   1      -1.060   4.685  -2.039  0.00  0.00     0.002 A 
ATOM      4  C4  N4B d   1      -1.067   5.913  -1.395  0.00  0.00    -0.004 A 
ATOM      5  C5  N4B d   1      -0.688   5.999  -0.088  0.00  0.00     0.002 A 
ATOM      6  C6  N4B d   1      -0.333   4.871   0.625  0.00  0.00     0.002 A 
ENDROOT
BRANCH   1   7
ATOM      7  C1' N4B d   1      -0.043   2.429   0.846  0.00  0.00     0.057 C 
BRANCH   7   8
ATOM      8  C2' N4B d   1      -0.349   2.728   2.310  0.00  0.00     0.009 C 
BRANCH   8   9
ATOM      9  C3' N4B d   1       0.572   1.969   3.250  0.00  0.00     0.004 C 
ATOM     10  C4' N4B d   1       1.907   2.632   3.416  0.00  0.00     0.003 C 
ENDBRANCH   8   9
ENDBRANCH   7   8
ENDBRANCH   1   7
TORSDOF 3
ENDMDL
