MODEL 1
REMARK minimizedAffinity 6.37019491
REMARK minimizedRMSD -1
REMARK  3 active torsions:
REMARK  status: ('A' for Active; 'I' for Inactive)
REMARK    1  A    between atoms: C3'_2  and  C2'_3 
REMARK    2  A    between atoms: C2'_3  and  C1'_4 
REMARK    3  A    between atoms: C1'_4  and  C1_5 
ROOT
ATOM      1  C1  N4B d   1      -0.268   4.112  -0.886  0.00  0.00    -0.075 A 
ATOM      2  C2  N4B d   1      -1.147   5.070  -0.334  0.00  0.00     0.002 A 
ATOM      3  C3  N4B d   1      -1.750   5.998  -1.148  0.00  0.00     0.002 A 
ATOM      4  C4  N4B d   1      -1.475   6.000  -2.507  0.00  0.00    -0.004 A 
ATOM      5  C5  N4B d   1      -0.644   5.056  -3.036  0.00  0.00     0.002 A 
ATOM      6  C6  N4B d   1      -0.035   4.114  -2.231  0.00  0.00     0.002 A 
ENDROOT
BRANCH   1   7
ATOM      7  C1' N4B d   1       0.481   3.132  -0.025  0.00  0.00     0.057 C 
BRANCH   7   8
ATOM      8  C2' N4B d   1      -0.434   2.652   1.098  0.00  0.00     0.009 C 
BRANCH   8   9
ATOM      9  C3' N4B d   1       0.344   2.305   2.356  0.00  0.00     0.004 C 
ATOM     10  C4' N4B d   1      -0.545   1.936   3.506  0.00  0.00     0.003 C 
ENDBRANCH   8   9
ENDBRANCH   7   8
ENDBRANCH   1   7
TORSDOF 3
ENDMDL
