MODEL 1
REMARK minimizedAffinity 6.53974819
REMARK minimizedRMSD -1
REMARK  3 active torsions:
REMARK  status: ('A' for Active; 'I' for Inactive)
REMARK    1  A    between atoms: C3'_2  and  C2'_3 
REMARK    2  A    between atoms: C2'_3  and  C1'_4 
REMARK    3  A    between atoms: C1'_4  and  C1_5 
ROOT
ATOM      1  C1  N4B d   1      -5.881   1.710  -4.426  0.00  0.00    -0.075 A 
ATOM      2  C2  N4B d   1      -5.853   3.090  -4.128  0.00  0.00     0.002 A 
ATOM      3  C3  N4B d   1      -5.896   3.512  -2.822  0.00  0.00     0.002 A 
ATOM      4  C4  N4B d   1      -5.986   2.576  -1.802  0.00  0.00    -0.004 A 
ATOM      5  C5  N4B d   1      -5.987   1.244  -2.097  0.00  0.00     0.002 A 
ATOM      6  C6  N4B d   1      -5.940   0.806  -3.406  0.00  0.00     0.002 A 
ENDROOT
BRANCH   1   7
ATOM      7  C1' N4B d   1      -5.922   1.204  -5.842  0.00  0.00     0.057 C 
BRANCH   7   8
ATOM      8  C2' N4B d   1      -4.967   0.022  -5.980  0.00  0.00     0.009 C 
BRANCH   8   9
ATOM      9  C3' N4B d   1      -3.513   0.462  -5.971  0.00  0.00     0.004 C 
ATOM     10  C4' N4B d   1      -2.557  -0.693  -5.998  0.00  0.00     0.003 C 
ENDBRANCH   8   9
ENDBRANCH   7   8
ENDBRANCH   1   7
TORSDOF 3
ENDMDL
