MODEL 1
REMARK minimizedAffinity -5.98133898
REMARK minimizedRMSD -1
REMARK  1 active torsions:
REMARK  status: ('A' for Active; 'I' for Inactive)
REMARK    1  A    between atoms: C1_2  and  C2_3 
ROOT
ATOM      1  C2  UNL d   1      -0.322   0.231  -1.188  0.00  0.00    -0.081 A 
ATOM      2  C3  UNL d   1      -1.074   0.509  -0.041  0.00  0.00     0.006 A 
ATOM      3  C4  UNL d   1      -0.578   0.190   1.226  0.00  0.00     0.002 A 
ATOM      4  C5  UNL d   1       0.680  -0.404   1.366  0.00  0.00    -0.080 A 
ATOM      5  C6  UNL d   1       1.237  -0.724   2.722  0.00  0.00     0.076 C 
ATOM      6  C7  UNL d   1       1.425  -0.698   0.219  0.00  0.00     0.002 A 
ATOM      7  C8  UNL d   1       0.929  -0.380  -1.048  0.00  0.00     0.006 A 
ENDROOT
BRANCH   1   8
ATOM      8  C1  UNL d   1      -0.825   0.633  -2.551  0.00  0.00     0.054 C 
ATOM      9  C   UNL d   1      -0.775   2.142  -2.736  0.00  0.00     0.018 C 
ENDBRANCH   1   8
TORSDOF 1
ENDMDL
