MODEL 1
REMARK minimizedAffinity -4.64274454
REMARK minimizedRMSD -1
REMARK  1 active torsions:
REMARK  status: ('A' for Active; 'I' for Inactive)
REMARK    1  A    between atoms: C1_2  and  C2_3 
ROOT
ATOM      1  C2  UNL d   1      -0.354   0.561  -0.396  0.00  0.00    -0.081 A 
ATOM      2  C3  UNL d   1      -1.066   0.641   0.807  0.00  0.00     0.006 A 
ATOM      3  C4  UNL d   1      -0.533   0.107   1.982  0.00  0.00     0.002 A 
ATOM      4  C5  UNL d   1       0.723  -0.510   1.976  0.00  0.00    -0.080 A 
ATOM      5  C6  UNL d   1       1.320  -1.061   3.237  0.00  0.00     0.076 C 
ATOM      6  C7  UNL d   1       1.427  -0.606   0.771  0.00  0.00     0.002 A 
ATOM      7  C8  UNL d   1       0.894  -0.072  -0.405  0.00  0.00     0.006 A 
ENDROOT
BRANCH   1   8
ATOM      8  C1  UNL d   1      -0.897   1.194  -1.652  0.00  0.00     0.054 C 
ATOM      9  C   UNL d   1      -0.168   2.489  -1.979  0.00  0.00     0.018 C 
ENDBRANCH   1   8
TORSDOF 1
ENDMDL
