MODEL 1
REMARK minimizedAffinity -4.69031811
REMARK minimizedRMSD -1
REMARK  1 active torsions:
REMARK  status: ('A' for Active; 'I' for Inactive)
REMARK    1  A    between atoms: C1_2  and  C2_3 
ROOT
ATOM      1  C2  UNL d   1      -0.936   0.359  -0.664  0.00  0.00    -0.081 A 
ATOM      2  C3  UNL d   1      -1.446   0.256   0.636  0.00  0.00     0.006 A 
ATOM      3  C4  UNL d   1      -0.639  -0.208   1.678  0.00  0.00     0.002 A 
ATOM      4  C5  UNL d   1       0.692  -0.568   1.439  0.00  0.00    -0.080 A 
ATOM      5  C6  UNL d   1       1.578  -1.038   2.554  0.00  0.00     0.076 C 
ATOM      6  C7  UNL d   1       1.196  -0.481   0.136  0.00  0.00     0.002 A 
ATOM      7  C8  UNL d   1       0.389  -0.018  -0.906  0.00  0.00     0.006 A 
ENDROOT
BRANCH   1   8
ATOM      8  C1  UNL d   1      -1.784   0.920  -1.777  0.00  0.00     0.054 C 
ATOM      9  C   UNL d   1      -1.564   2.417  -1.941  0.00  0.00     0.018 C 
ENDBRANCH   1   8
TORSDOF 1
ENDMDL
