MODEL 1
REMARK minimizedAffinity -5.18839598
REMARK minimizedRMSD -1
REMARK  1 active torsions:
REMARK  status: ('A' for Active; 'I' for Inactive)
REMARK    1  A    between atoms: C1_2  and  C2_3 
ROOT
ATOM      1  C2  UNL d   1      -0.538   0.167  -0.894  0.00  0.00    -0.081 A 
ATOM      2  C3  UNL d   1      -1.282   0.236   0.291  0.00  0.00     0.006 A 
ATOM      3  C4  UNL d   1      -0.687  -0.061   1.519  0.00  0.00     0.002 A 
ATOM      4  C5  UNL d   1       0.663  -0.423   1.585  0.00  0.00    -0.080 A 
ATOM      5  C6  UNL d   1       1.322  -0.715   2.900  0.00  0.00     0.076 C 
ATOM      6  C7  UNL d   1       1.402  -0.509   0.400  0.00  0.00     0.002 A 
ATOM      7  C8  UNL d   1       0.807  -0.213  -0.829  0.00  0.00     0.006 A 
ENDROOT
BRANCH   1   8
ATOM      8  C1  UNL d   1      -1.160   0.549  -2.212  0.00  0.00     0.054 C 
ATOM      9  C   UNL d   1      -1.205   2.060  -2.386  0.00  0.00     0.018 C 
ENDBRANCH   1   8
TORSDOF 1
ENDMDL
