MODEL 1
REMARK minimizedAffinity 2.13816738
REMARK minimizedRMSD -1
REMARK  1 active torsions:
REMARK  status: ('A' for Active; 'I' for Inactive)
REMARK    1  A    between atoms: C1_2  and  C2_3 
ROOT
ATOM      1  C2  UNL d   1       0.154  -0.706   1.079  0.00  0.00    -0.081 A 
ATOM      2  C3  UNL d   1       1.190  -0.057   0.397  0.00  0.00     0.006 A 
ATOM      3  C4  UNL d   1       0.907   0.815  -0.658  0.00  0.00     0.002 A 
ATOM      4  C5  UNL d   1      -0.416   1.058  -1.042  0.00  0.00    -0.080 A 
ATOM      5  C6  UNL d   1      -0.735   2.015  -2.152  0.00  0.00     0.076 C 
ATOM      6  C7  UNL d   1      -1.450   0.396  -0.372  0.00  0.00     0.002 A 
ATOM      7  C8  UNL d   1      -1.168  -0.476   0.682  0.00  0.00     0.006 A 
ENDROOT
BRANCH   1   8
ATOM      8  C1  UNL d   1       0.452  -1.596   2.258  0.00  0.00     0.054 C 
ATOM      9  C   UNL d   1       1.685  -1.121   3.012  0.00  0.00     0.018 C 
ENDBRANCH   1   8
TORSDOF 1
ENDMDL
