MODEL 1
REMARK minimizedAffinity -2.48198724
REMARK minimizedRMSD -1
REMARK  1 active torsions:
REMARK  status: ('A' for Active; 'I' for Inactive)
REMARK    1  A    between atoms: C1_2  and  C2_3 
ROOT
ATOM      1  C2  UNL d   1      -0.636   1.426  -0.655  0.00  0.00    -0.081 A 
ATOM      2  C3  UNL d   1       0.287   0.391  -0.855  0.00  0.00     0.006 A 
ATOM      3  C4  UNL d   1       0.522  -0.552   0.148  0.00  0.00     0.002 A 
ATOM      4  C5  UNL d   1      -0.167  -0.482   1.364  0.00  0.00    -0.080 A 
ATOM      5  C6  UNL d   1       0.054  -1.506   2.437  0.00  0.00     0.076 C 
ATOM      6  C7  UNL d   1      -1.075   0.561   1.571  0.00  0.00     0.002 A 
ATOM      7  C8  UNL d   1      -1.310   1.505   0.569  0.00  0.00     0.006 A 
ENDROOT
BRANCH   1   8
ATOM      8  C1  UNL d   1      -0.939   2.407  -1.758  0.00  0.00     0.054 C 
ATOM      9  C   UNL d   1       0.339   2.959  -2.374  0.00  0.00     0.018 C 
ENDBRANCH   1   8
TORSDOF 1
ENDMDL
