MODEL 1
REMARK minimizedAffinity -4.81327057
REMARK minimizedRMSD -1
REMARK  1 active torsions:
REMARK  status: ('A' for Active; 'I' for Inactive)
REMARK    1  A    between atoms: C1_2  and  C2_3 
ROOT
ATOM      1  C2  UNL d   1      -0.512   0.469  -1.029  0.00  0.00    -0.081 A 
ATOM      2  C3  UNL d   1      -1.169   0.837   0.152  0.00  0.00     0.006 A 
ATOM      3  C4  UNL d   1      -0.724   0.361   1.388  0.00  0.00     0.002 A 
ATOM      4  C5  UNL d   1       0.389  -0.483   1.464  0.00  0.00    -0.080 A 
ATOM      5  C6  UNL d   1       0.896  -0.976   2.787  0.00  0.00     0.076 C 
ATOM      6  C7  UNL d   1       1.035  -0.865   0.283  0.00  0.00     0.002 A 
ATOM      7  C8  UNL d   1       0.590  -0.390  -0.953  0.00  0.00     0.006 A 
ENDROOT
BRANCH   1   8
ATOM      8  C1  UNL d   1      -0.950   1.032  -2.357  0.00  0.00     0.054 C 
ATOM      9  C   UNL d   1       0.003   2.117  -2.839  0.00  0.00     0.018 C 
ENDBRANCH   1   8
TORSDOF 1
ENDMDL
