MODEL 1
REMARK minimizedAffinity 5.4693079
REMARK minimizedRMSD -1
REMARK  0 active torsions:
REMARK  status: ('A' for Active; 'I' for Inactive)
ROOT
ATOM      1  C   UNL d   1       5.386  -0.758   3.389  0.00  0.00     0.077 C 
ATOM      2  C1  UNL d   1       4.372  -0.646   2.290  0.00  0.00    -0.074 A 
ATOM      3  C2  UNL d   1       3.024  -0.406   2.577  0.00  0.00    -0.005 A 
ATOM      4  C3  UNL d   1       2.094  -0.294   1.544  0.00  0.00     0.006 A 
ATOM      5  C4  UNL d   1       2.501  -0.421   0.215  0.00  0.00    -0.005 A 
ATOM      6  C5  UNL d   1       3.844  -0.660  -0.091  0.00  0.00    -0.074 A 
ATOM      7  C6  UNL d   1       4.300  -0.790  -1.514  0.00  0.00     0.077 C 
ATOM      8  C7  UNL d   1       4.774  -0.764   0.952  0.00  0.00    -0.001 A 
ENDROOT
TORSDOF 0
ENDMDL
