MODEL 1
REMARK minimizedAffinity -1.62514722
REMARK minimizedRMSD -1
REMARK  0 active torsions:
REMARK  status: ('A' for Active; 'I' for Inactive)
ROOT
ATOM      1  C   UNL d   1      -1.718   2.406   2.001  0.00  0.00     0.077 C 
ATOM      2  C1  UNL d   1      -0.998   1.697   0.893  0.00  0.00    -0.074 A 
ATOM      3  C2  UNL d   1      -0.352   0.477   1.120  0.00  0.00    -0.005 A 
ATOM      4  C3  UNL d   1       0.306  -0.176   0.078  0.00  0.00     0.006 A 
ATOM      5  C4  UNL d   1       0.324   0.383  -1.201  0.00  0.00    -0.005 A 
ATOM      6  C5  UNL d   1      -0.317   1.601  -1.447  0.00  0.00    -0.074 A 
ATOM      7  C6  UNL d   1      -0.315   2.211  -2.818  0.00  0.00     0.077 C 
ATOM      8  C7  UNL d   1      -0.981   2.248  -0.396  0.00  0.00    -0.001 A 
ENDROOT
TORSDOF 0
ENDMDL
