MODEL 1
REMARK minimizedAffinity -0.58833164
REMARK minimizedRMSD -1
REMARK  0 active torsions:
REMARK  status: ('A' for Active; 'I' for Inactive)
ROOT
ATOM      1  C   UNL d   1       3.048  -1.003   0.840  0.00  0.00     0.077 C 
ATOM      2  C1  UNL d   1       1.861  -0.087   0.828  0.00  0.00    -0.074 A 
ATOM      3  C2  UNL d   1       1.388   0.492   2.010  0.00  0.00    -0.005 A 
ATOM      4  C3  UNL d   1       0.288   1.350   1.982  0.00  0.00     0.006 A 
ATOM      5  C4  UNL d   1      -0.349   1.636   0.774  0.00  0.00    -0.005 A 
ATOM      6  C5  UNL d   1       0.110   1.067  -0.418  0.00  0.00    -0.074 A 
ATOM      7  C6  UNL d   1      -0.557   1.373  -1.726  0.00  0.00     0.077 C 
ATOM      8  C7  UNL d   1       1.220   0.212  -0.383  0.00  0.00    -0.001 A 
ENDROOT
TORSDOF 0
ENDMDL
