MODEL 1
REMARK minimizedAffinity -2.95773315
REMARK minimizedRMSD -1
REMARK  0 active torsions:
REMARK  status: ('A' for Active; 'I' for Inactive)
ROOT
ATOM      1  C   UNL d   1      -0.392   1.913  -2.824  0.00  0.00     0.077 C 
ATOM      2  C1  UNL d   1      -0.268   1.511  -1.384  0.00  0.00    -0.074 A 
ATOM      3  C2  UNL d   1       0.271   0.270  -1.028  0.00  0.00    -0.005 A 
ATOM      4  C3  UNL d   1       0.388  -0.086   0.315  0.00  0.00     0.006 A 
ATOM      5  C4  UNL d   1      -0.031   0.793   1.315  0.00  0.00    -0.005 A 
ATOM      6  C5  UNL d   1      -0.572   2.038   0.978  0.00  0.00    -0.074 A 
ATOM      7  C6  UNL d   1      -1.018   2.998   2.039  0.00  0.00     0.077 C 
ATOM      8  C7  UNL d   1      -0.680   2.391  -0.374  0.00  0.00    -0.001 A 
ENDROOT
TORSDOF 0
ENDMDL
