MODEL 1
REMARK minimizedAffinity -5.66601706
REMARK minimizedRMSD -1
REMARK  0 active torsions:
REMARK  status: ('A' for Active; 'I' for Inactive)
ROOT
ATOM      1  C   UNL d   1      -1.787   3.007   1.848  0.00  0.00     0.077 C 
ATOM      2  C1  UNL d   1      -0.790   2.055   1.256  0.00  0.00    -0.074 A 
ATOM      3  C2  UNL d   1      -0.742   1.831  -0.123  0.00  0.00    -0.005 A 
ATOM      4  C3  UNL d   1       0.196   0.950  -0.660  0.00  0.00     0.006 A 
ATOM      5  C4  UNL d   1       1.095   0.286   0.175  0.00  0.00    -0.005 A 
ATOM      6  C5  UNL d   1       1.063   0.498   1.557  0.00  0.00    -0.074 A 
ATOM      7  C6  UNL d   1       2.028  -0.200   2.468  0.00  0.00     0.077 C 
ATOM      8  C7  UNL d   1       0.121   1.390   2.089  0.00  0.00    -0.001 A 
ENDROOT
TORSDOF 0
ENDMDL
