MODEL 1
REMARK minimizedAffinity -4.31930733
REMARK minimizedRMSD -1
REMARK  0 active torsions:
REMARK  status: ('A' for Active; 'I' for Inactive)
ROOT
ATOM      1  C   UNL d   1       1.500  -5.645   0.642  0.00  0.00     0.077 C 
ATOM      2  C1  UNL d   1       0.842  -4.604  -0.214  0.00  0.00    -0.074 A 
ATOM      3  C2  UNL d   1       1.460  -3.372  -0.451  0.00  0.00    -0.005 A 
ATOM      4  C3  UNL d   1       0.840  -2.418  -1.257  0.00  0.00     0.006 A 
ATOM      5  C4  UNL d   1      -0.402  -2.685  -1.833  0.00  0.00    -0.005 A 
ATOM      6  C5  UNL d   1      -1.036  -3.911  -1.608  0.00  0.00    -0.074 A 
ATOM      7  C6  UNL d   1      -2.367  -4.218  -2.227  0.00  0.00     0.077 C 
ATOM      8  C7  UNL d   1      -0.403  -4.868  -0.802  0.00  0.00    -0.001 A 
ENDROOT
TORSDOF 0
ENDMDL
