MODEL 1
REMARK minimizedAffinity -3.36896992
REMARK minimizedRMSD -1
REMARK  0 active torsions:
REMARK  status: ('A' for Active; 'I' for Inactive)
ROOT
ATOM      1  C   UNL d   1       1.633  -1.079  -0.127  0.00  0.00     0.077 C 
ATOM      2  C1  UNL d   1       0.499  -0.147  -0.434  0.00  0.00    -0.074 A 
ATOM      3  C2  UNL d   1       0.550   0.709  -1.539  0.00  0.00    -0.005 A 
ATOM      4  C3  UNL d   1      -0.517   1.563  -1.817  0.00  0.00     0.006 A 
ATOM      5  C4  UNL d   1      -1.644   1.570  -0.995  0.00  0.00    -0.005 A 
ATOM      6  C5  UNL d   1      -1.715   0.720   0.113  0.00  0.00    -0.074 A 
ATOM      7  C6  UNL d   1      -2.923   0.707   1.001  0.00  0.00     0.077 C 
ATOM      8  C7  UNL d   1      -0.641  -0.140   0.382  0.00  0.00    -0.001 A 
ENDROOT
TORSDOF 0
ENDMDL
