MODEL 1
REMARK minimizedAffinity 4.1521697
REMARK minimizedRMSD -1
REMARK  1 active torsions:
REMARK  status: ('A' for Active; 'I' for Inactive)
REMARK    1  A    between atoms: C3_4  and  O_7 
ROOT
ATOM      1  C   UNL d   1      -0.463   5.381  -4.826  0.00  0.00    -0.033 A 
ATOM      2  C1  UNL d   1       0.073   4.697  -3.733  0.00  0.00     0.039 A 
ATOM      3  C2  UNL d   1       1.391   4.238  -3.773  0.00  0.00    -0.080 A 
ATOM      4  C3  UNL d   1       2.162   4.470  -4.909  0.00  0.00     0.150 A 
ATOM      5  C4  UNL d   1       1.635   5.155  -6.000  0.00  0.00    -0.007 A 
ATOM      6  C5  UNL d   1       0.318   5.611  -5.959  0.00  0.00     0.039 A 
ENDROOT
BRANCH   4   7
ATOM      7  O   UNL d   1       3.451   4.037  -4.996  0.00  0.00    -0.526 OA
ATOM      8  H5  UNL d   1       3.670   3.556  -4.181  0.00  0.00     0.418 HD
ENDBRANCH   4   7
TORSDOF 1
ENDMDL
