MODEL 1
REMARK minimizedAffinity 1.92553174
REMARK minimizedRMSD -1
REMARK  1 active torsions:
REMARK  status: ('A' for Active; 'I' for Inactive)
REMARK    1  A    between atoms: C3_4  and  O_7 
ROOT
ATOM      1  C   UNL d   1       1.848   1.080  -1.265  0.00  0.00    -0.033 A 
ATOM      2  C1  UNL d   1       1.796   2.280  -0.553  0.00  0.00     0.039 A 
ATOM      3  C2  UNL d   1       2.523   2.424   0.630  0.00  0.00    -0.080 A 
ATOM      4  C3  UNL d   1       3.299   1.363   1.089  0.00  0.00     0.150 A 
ATOM      5  C4  UNL d   1       3.359   0.166   0.383  0.00  0.00    -0.007 A 
ATOM      6  C5  UNL d   1       2.631   0.023  -0.797  0.00  0.00     0.039 A 
ENDROOT
BRANCH   4   7
ATOM      7  O   UNL d   1       4.022   1.456   2.241  0.00  0.00    -0.526 OA
ATOM      8  H5  UNL d   1       3.862   2.329   2.636  0.00  0.00     0.418 HD
ENDBRANCH   4   7
TORSDOF 1
ENDMDL
