MODEL 1
REMARK minimizedAffinity -1.78312433
REMARK minimizedRMSD -1
REMARK  1 active torsions:
REMARK  status: ('A' for Active; 'I' for Inactive)
REMARK    1  A    between atoms: C3_4  and  O_7 
ROOT
ATOM      1  C   UNL d   1      -0.759   5.558  -4.791  0.00  0.00    -0.033 A 
ATOM      2  C1  UNL d   1      -0.087   5.359  -5.999  0.00  0.00     0.039 A 
ATOM      3  C2  UNL d   1       1.223   4.878  -6.000  0.00  0.00    -0.080 A 
ATOM      4  C3  UNL d   1       1.850   4.600  -4.788  0.00  0.00     0.150 A 
ATOM      5  C4  UNL d   1       1.186   4.793  -3.581  0.00  0.00    -0.007 A 
ATOM      6  C5  UNL d   1      -0.123   5.274  -3.582  0.00  0.00     0.039 A 
ENDROOT
BRANCH   4   7
ATOM      7  O   UNL d   1       3.130   4.134  -4.738  0.00  0.00    -0.526 OA
ATOM      8  H5  UNL d   1       3.472   4.077  -5.646  0.00  0.00     0.418 HD
ENDBRANCH   4   7
TORSDOF 1
ENDMDL
