MODEL 1
REMARK minimizedAffinity -2.14047718
REMARK minimizedRMSD -1
REMARK  1 active torsions:
REMARK  status: ('A' for Active; 'I' for Inactive)
REMARK    1  A    between atoms: C3_4  and  O_7 
ROOT
ATOM      1  C   UNL d   1      -1.108   5.246  -4.937  0.00  0.00    -0.033 A 
ATOM      2  C1  UNL d   1      -0.274   5.610  -5.996  0.00  0.00     0.039 A 
ATOM      3  C2  UNL d   1       1.065   5.215  -6.000  0.00  0.00    -0.080 A 
ATOM      4  C3  UNL d   1       1.558   4.458  -4.940  0.00  0.00     0.150 A 
ATOM      5  C4  UNL d   1       0.732   4.089  -3.884  0.00  0.00    -0.007 A 
ATOM      6  C5  UNL d   1      -0.605   4.484  -3.881  0.00  0.00     0.039 A 
ENDROOT
BRANCH   4   7
ATOM      7  O   UNL d   1       2.859   4.054  -4.898  0.00  0.00    -0.526 OA
ATOM      8  H5  UNL d   1       3.316   4.406  -5.679  0.00  0.00     0.418 HD
ENDBRANCH   4   7
TORSDOF 1
ENDMDL
