MODEL 1
REMARK minimizedAffinity -1.09184039
REMARK minimizedRMSD -1
REMARK  1 active torsions:
REMARK  status: ('A' for Active; 'I' for Inactive)
REMARK    1  A    between atoms: C3_4  and  O_7 
ROOT
ATOM      1  C   UNL d   1      -2.914  -4.037  -0.153  0.00  0.00    -0.033 A 
ATOM      2  C1  UNL d   1      -4.033  -3.360   0.337  0.00  0.00     0.039 A 
ATOM      3  C2  UNL d   1      -4.914  -4.003   1.209  0.00  0.00    -0.080 A 
ATOM      4  C3  UNL d   1      -4.664  -5.320   1.584  0.00  0.00     0.150 A 
ATOM      5  C4  UNL d   1      -3.550  -5.999   1.104  0.00  0.00    -0.007 A 
ATOM      6  C5  UNL d   1      -2.672  -5.356   0.232  0.00  0.00     0.039 A 
ENDROOT
BRANCH   4   7
ATOM      7  O   UNL d   1      -5.498  -5.990   2.429  0.00  0.00    -0.526 OA
ATOM      8  H5  UNL d   1      -6.240  -5.405   2.657  0.00  0.00     0.418 HD
ENDBRANCH   4   7
TORSDOF 1
ENDMDL
