MODEL 1
REMARK minimizedAffinity 4.67163944
REMARK minimizedRMSD -1
REMARK  1 active torsions:
REMARK  status: ('A' for Active; 'I' for Inactive)
REMARK    1  A    between atoms: C3_4  and  O_7 
ROOT
ATOM      1  C   UNL d   1      -5.995  -0.888  -4.955  0.00  0.00    -0.033 A 
ATOM      2  C1  UNL d   1      -5.987   0.234  -5.785  0.00  0.00     0.039 A 
ATOM      3  C2  UNL d   1      -5.982   1.515  -5.230  0.00  0.00    -0.080 A 
ATOM      4  C3  UNL d   1      -5.984   1.660  -3.846  0.00  0.00     0.150 A 
ATOM      5  C4  UNL d   1      -5.988   0.546  -3.012  0.00  0.00    -0.007 A 
ATOM      6  C5  UNL d   1      -5.994  -0.732  -3.568  0.00  0.00     0.039 A 
ENDROOT
BRANCH   4   7
ATOM      7  O   UNL d   1      -5.984   2.890  -3.258  0.00  0.00    -0.526 OA
ATOM      8  H5  UNL d   1      -6.011   3.565  -3.957  0.00  0.00     0.418 HD
ENDBRANCH   4   7
TORSDOF 1
ENDMDL
