MODEL 1
REMARK minimizedAffinity -1.14817798
REMARK minimizedRMSD -1
REMARK  1 active torsions:
REMARK  status: ('A' for Active; 'I' for Inactive)
REMARK    1  A    between atoms: C3_4  and  O_7 
ROOT
ATOM      1  C   UNL d   1      -5.979  -5.796  -4.800  0.00  0.00    -0.033 A 
ATOM      2  C1  UNL d   1      -5.283  -5.948  -3.599  0.00  0.00     0.039 A 
ATOM      3  C2  UNL d   1      -3.887  -5.966  -3.597  0.00  0.00    -0.080 A 
ATOM      4  C3  UNL d   1      -3.200  -5.830  -4.800  0.00  0.00     0.150 A 
ATOM      5  C4  UNL d   1      -3.887  -5.673  -5.999  0.00  0.00    -0.007 A 
ATOM      6  C5  UNL d   1      -5.281  -5.657  -5.999  0.00  0.00     0.039 A 
ENDROOT
BRANCH   4   7
ATOM      7  O   UNL d   1      -1.838  -5.846  -4.848  0.00  0.00    -0.526 OA
ATOM      8  H5  UNL d   1      -1.500  -5.989  -3.948  0.00  0.00     0.418 HD
ENDBRANCH   4   7
TORSDOF 1
ENDMDL
