MODEL 1
REMARK minimizedAffinity 2.67374206
REMARK minimizedRMSD -1
REMARK  1 active torsions:
REMARK  status: ('A' for Active; 'I' for Inactive)
REMARK    1  A    between atoms: C3_4  and  O_7 
ROOT
ATOM      1  C   UNL d   1      -5.835   2.594  -1.699  0.00  0.00    -0.033 A 
ATOM      2  C1  UNL d   1      -5.971   2.826  -3.069  0.00  0.00     0.039 A 
ATOM      3  C2  UNL d   1      -5.995   1.753  -3.962  0.00  0.00    -0.080 A 
ATOM      4  C3  UNL d   1      -5.883   0.455  -3.473  0.00  0.00     0.150 A 
ATOM      5  C4  UNL d   1      -5.751   0.216  -2.109  0.00  0.00    -0.007 A 
ATOM      6  C5  UNL d   1      -5.726   1.289  -1.219  0.00  0.00     0.039 A 
ENDROOT
BRANCH   4   7
ATOM      7  O   UNL d   1      -5.897  -0.625  -4.306  0.00  0.00    -0.526 OA
ATOM      8  H5  UNL d   1      -5.965  -0.306  -5.221  0.00  0.00     0.418 HD
ENDBRANCH   4   7
TORSDOF 1
ENDMDL
