MODEL 1
REMARK minimizedAffinity 2.91664171
REMARK minimizedRMSD -1
REMARK  1 active torsions:
REMARK  status: ('A' for Active; 'I' for Inactive)
REMARK    1  A    between atoms: C3_4  and  O_7 
ROOT
ATOM      1  C   UNL d   1      -5.992  -1.228  -4.829  0.00  0.00    -0.033 A 
ATOM      2  C1  UNL d   1      -5.996  -1.398  -3.443  0.00  0.00     0.039 A 
ATOM      3  C2  UNL d   1      -5.997  -0.283  -2.602  0.00  0.00    -0.080 A 
ATOM      4  C3  UNL d   1      -5.994   0.993  -3.158  0.00  0.00     0.150 A 
ATOM      5  C4  UNL d   1      -5.994   1.169  -4.538  0.00  0.00    -0.007 A 
ATOM      6  C5  UNL d   1      -5.993   0.055  -5.377  0.00  0.00     0.039 A 
ENDROOT
BRANCH   4   7
ATOM      7  O   UNL d   1      -5.990   2.110  -2.378  0.00  0.00    -0.526 OA
ATOM      8  H5  UNL d   1      -5.961   1.835  -1.446  0.00  0.00     0.418 HD
ENDBRANCH   4   7
TORSDOF 1
ENDMDL
