MODEL 1
REMARK minimizedAffinity 0.150187969
REMARK minimizedRMSD -1
REMARK  1 active torsions:
REMARK  status: ('A' for Active; 'I' for Inactive)
REMARK    1  A    between atoms: C3_4  and  O_7 
ROOT
ATOM      1  C   UNL d   1      -2.608  -0.885   2.135  0.00  0.00    -0.033 A 
ATOM      2  C1  UNL d   1      -3.920  -0.925   2.611  0.00  0.00     0.039 A 
ATOM      3  C2  UNL d   1      -4.208  -0.495   3.907  0.00  0.00    -0.080 A 
ATOM      4  C3  UNL d   1      -3.177  -0.027   4.717  0.00  0.00     0.150 A 
ATOM      5  C4  UNL d   1      -1.868   0.019   4.248  0.00  0.00    -0.007 A 
ATOM      6  C5  UNL d   1      -1.582  -0.411   2.953  0.00  0.00     0.039 A 
ENDROOT
BRANCH   4   7
ATOM      7  O   UNL d   1      -3.408   0.398   5.991  0.00  0.00    -0.526 OA
ATOM      8  H5  UNL d   1      -4.352   0.282   6.188  0.00  0.00     0.418 HD
ENDBRANCH   4   7
TORSDOF 1
ENDMDL
