MODEL 1
REMARK minimizedAffinity -2.93829989
REMARK minimizedRMSD -1
REMARK  1 active torsions:
REMARK  status: ('A' for Active; 'I' for Inactive)
REMARK    1  A    between atoms: C3_4  and  O_7 
ROOT
ATOM      1  C   UNL d   1      -3.322  -1.422   2.221  0.00  0.00    -0.033 A 
ATOM      2  C1  UNL d   1      -4.217  -1.479   3.292  0.00  0.00     0.039 A 
ATOM      3  C2  UNL d   1      -3.857  -0.951   4.533  0.00  0.00    -0.080 A 
ATOM      4  C3  UNL d   1      -2.603  -0.368   4.690  0.00  0.00     0.150 A 
ATOM      5  C4  UNL d   1      -1.708  -0.305   3.627  0.00  0.00    -0.007 A 
ATOM      6  C5  UNL d   1      -2.069  -0.834   2.388  0.00  0.00     0.039 A 
ENDROOT
BRANCH   4   7
ATOM      7  O   UNL d   1      -2.205   0.157   5.884  0.00  0.00    -0.526 OA
ATOM      8  H5  UNL d   1      -2.914   0.016   6.533  0.00  0.00     0.418 HD
ENDBRANCH   4   7
TORSDOF 1
ENDMDL
