MODEL 1
REMARK minimizedAffinity 1.16356289
REMARK minimizedRMSD -1
REMARK  1 active torsions:
REMARK  status: ('A' for Active; 'I' for Inactive)
REMARK    1  A    between atoms: C3_4  and  O_7 
ROOT
ATOM      1  C   UNL d   1      -1.384   5.076  -5.791  0.00  0.00    -0.033 A 
ATOM      2  C1  UNL d   1      -0.827   6.000  -4.905  0.00  0.00     0.039 A 
ATOM      3  C2  UNL d   1       0.352   5.693  -4.223  0.00  0.00    -0.080 A 
ATOM      4  C3  UNL d   1       0.964   4.460  -4.436  0.00  0.00     0.150 A 
ATOM      5  C4  UNL d   1       0.416   3.537  -5.321  0.00  0.00    -0.007 A 
ATOM      6  C5  UNL d   1      -0.762   3.845  -6.000  0.00  0.00     0.039 A 
ENDROOT
BRANCH   4   7
ATOM      7  O   UNL d   1       2.113   4.114  -3.790  0.00  0.00    -0.526 OA
ATOM      8  H5  UNL d   1       2.359   4.838  -3.190  0.00  0.00     0.418 HD
ENDBRANCH   4   7
TORSDOF 1
ENDMDL
