MODEL 1
REMARK minimizedAffinity 0.715982199
REMARK minimizedRMSD -1
REMARK  1 active torsions:
REMARK  status: ('A' for Active; 'I' for Inactive)
REMARK    1  A    between atoms: C3_4  and  O_7 
ROOT
ATOM      1  C   UNL d   1      -5.998   0.988  -0.955  0.00  0.00    -0.033 A 
ATOM      2  C1  UNL d   1      -5.999  -0.362  -1.311  0.00  0.00     0.039 A 
ATOM      3  C2  UNL d   1      -5.999  -0.730  -2.658  0.00  0.00    -0.080 A 
ATOM      4  C3  UNL d   1      -5.996   0.261  -3.637  0.00  0.00     0.150 A 
ATOM      5  C4  UNL d   1      -5.991   1.607  -3.289  0.00  0.00    -0.007 A 
ATOM      6  C5  UNL d   1      -5.992   1.973  -1.943  0.00  0.00     0.039 A 
ENDROOT
BRANCH   4   7
ATOM      7  O   UNL d   1      -6.000  -0.050  -4.965  0.00  0.00    -0.526 OA
ATOM      8  H5  UNL d   1      -6.033  -1.017  -5.054  0.00  0.00     0.418 HD
ENDBRANCH   4   7
TORSDOF 1
ENDMDL
