MODEL 1
REMARK minimizedAffinity -0.906789124
REMARK minimizedRMSD -1
REMARK  1 active torsions:
REMARK  status: ('A' for Active; 'I' for Inactive)
REMARK    1  A    between atoms: C3_4  and  O_7 
ROOT
ATOM      1  C   UNL d   1      -4.492  -1.836   2.610  0.00  0.00    -0.033 A 
ATOM      2  C1  UNL d   1      -4.460  -1.109   3.802  0.00  0.00     0.039 A 
ATOM      3  C2  UNL d   1      -3.260  -0.553   4.250  0.00  0.00    -0.080 A 
ATOM      4  C3  UNL d   1      -2.102  -0.731   3.498  0.00  0.00     0.150 A 
ATOM      5  C4  UNL d   1      -2.127  -1.451   2.308  0.00  0.00    -0.007 A 
ATOM      6  C5  UNL d   1      -3.326  -2.006   1.863  0.00  0.00     0.039 A 
ENDROOT
BRANCH   4   7
ATOM      7  O   UNL d   1      -0.906  -0.211   3.897  0.00  0.00    -0.526 OA
ATOM      8  H5  UNL d   1      -1.035   0.236   4.751  0.00  0.00     0.418 HD
ENDBRANCH   4   7
TORSDOF 1
ENDMDL
