MODEL 1
REMARK minimizedAffinity -0.723523974
REMARK minimizedRMSD -1
REMARK  1 active torsions:
REMARK  status: ('A' for Active; 'I' for Inactive)
REMARK    1  A    between atoms: C3_4  and  O_7 
ROOT
ATOM      1  C   UNL d   1      -5.978  -1.151  -5.122  0.00  0.00    -0.033 A 
ATOM      2  C1  UNL d   1      -5.967   0.065  -5.809  0.00  0.00     0.039 A 
ATOM      3  C2  UNL d   1      -5.973   1.268  -5.101  0.00  0.00    -0.080 A 
ATOM      4  C3  UNL d   1      -5.989   1.243  -3.709  0.00  0.00     0.150 A 
ATOM      5  C4  UNL d   1      -5.996   0.035  -3.019  0.00  0.00    -0.007 A 
ATOM      6  C5  UNL d   1      -5.991  -1.166  -3.727  0.00  0.00     0.039 A 
ENDROOT
BRANCH   4   7
ATOM      7  O   UNL d   1      -6.000   2.392  -2.976  0.00  0.00    -0.526 OA
ATOM      8  H5  UNL d   1      -6.022   3.147  -3.587  0.00  0.00     0.418 HD
ENDBRANCH   4   7
TORSDOF 1
ENDMDL
