MODEL 1
REMARK minimizedAffinity 1.07392597
REMARK minimizedRMSD -1
REMARK  1 active torsions:
REMARK  status: ('A' for Active; 'I' for Inactive)
REMARK    1  A    between atoms: C3_4  and  O_7 
ROOT
ATOM      1  C   UNL d   1      -5.146  -2.954   1.932  0.00  0.00    -0.033 A 
ATOM      2  C1  UNL d   1      -5.244  -2.324   3.174  0.00  0.00     0.039 A 
ATOM      3  C2  UNL d   1      -4.259  -1.420   3.580  0.00  0.00    -0.080 A 
ATOM      4  C3  UNL d   1      -3.185  -1.155   2.735  0.00  0.00     0.150 A 
ATOM      5  C4  UNL d   1      -3.084  -1.776   1.495  0.00  0.00    -0.007 A 
ATOM      6  C5  UNL d   1      -4.067  -2.678   1.092  0.00  0.00     0.039 A 
ENDROOT
BRANCH   4   7
ATOM      7  O   UNL d   1      -2.198  -0.284   3.090  0.00  0.00    -0.526 OA
ATOM      8  H5  UNL d   1      -2.386   0.046   3.984  0.00  0.00     0.418 HD
ENDBRANCH   4   7
TORSDOF 1
ENDMDL
