MODEL 1
REMARK minimizedAffinity -4.50492525
REMARK minimizedRMSD -1
REMARK  2 active torsions:
REMARK  status: ('A' for Active; 'I' for Inactive)
REMARK    1  A    between atoms: C2'_3  and  C1'_4 
REMARK    2  A    between atoms: C1'_4  and  C1_5 
ROOT
ATOM      1  C1  I4B d   1      -0.407  -0.924   0.223  0.00  0.00    -0.075 A 
ATOM      2  C2  I4B d   1      -0.959  -1.830   1.094  0.00  0.00     0.003 A 
ATOM      3  C3  I4B d   1      -0.769  -3.219   0.892  0.00  0.00     0.002 A 
ATOM      4  C4  I4B d   1      -0.069  -3.656  -0.213  0.00  0.00    -0.004 A 
ATOM      5  C5  I4B d   1       0.509  -2.735  -1.083  0.00  0.00     0.002 A 
ATOM      6  C6  I4B d   1       0.350  -1.360  -0.857  0.00  0.00     0.003 A 
ENDROOT
BRANCH   1   7
ATOM      7  C1' I4B d   1      -0.654   0.534   0.448  0.00  0.00     0.060 C 
BRANCH   7   8
ATOM      8  C2' I4B d   1       0.269   1.311  -0.469  0.00  0.00    -0.013 C 
ATOM      9  C4' I4B d   1      -0.376   1.559  -1.807  0.00  0.00     0.013 C 
ATOM     10  C3' I4B d   1       0.619   2.601   0.211  0.00  0.00     0.013 C 
ENDBRANCH   7   8
ENDBRANCH   1   7
TORSDOF 2
ENDMDL
