MODEL 1
REMARK minimizedAffinity -4.69275284
REMARK minimizedRMSD -1
REMARK  2 active torsions:
REMARK  status: ('A' for Active; 'I' for Inactive)
REMARK    1  A    between atoms: C2'_3  and  C1'_4 
REMARK    2  A    between atoms: C1'_4  and  C1_5 
ROOT
ATOM      1  C1  I4B d   1      -0.461  -0.148   0.549  0.00  0.00    -0.075 A 
ATOM      2  C2  I4B d   1      -0.354  -1.461   0.162  0.00  0.00     0.003 A 
ATOM      3  C3  I4B d   1      -0.771  -2.497   1.033  0.00  0.00     0.002 A 
ATOM      4  C4  I4B d   1      -1.237  -2.179   2.293  0.00  0.00    -0.004 A 
ATOM      5  C5  I4B d   1      -1.366  -0.847   2.674  0.00  0.00     0.002 A 
ATOM      6  C6  I4B d   1      -0.988   0.176   1.793  0.00  0.00     0.003 A 
ENDROOT
BRANCH   1   7
ATOM      7  C1' I4B d   1       0.019   0.919  -0.383  0.00  0.00     0.060 C 
BRANCH   7   8
ATOM      8  C2' I4B d   1       0.715   1.982   0.443  0.00  0.00    -0.013 C 
ATOM      9  C4' I4B d   1       2.201   1.974   0.200  0.00  0.00     0.013 C 
ATOM     10  C3' I4B d   1       0.115   3.310   0.089  0.00  0.00     0.013 C 
ENDBRANCH   7   8
ENDBRANCH   1   7
TORSDOF 2
ENDMDL
