MODEL 1
REMARK minimizedAffinity 4.09714174
REMARK minimizedRMSD -1
REMARK  2 active torsions:
REMARK  status: ('A' for Active; 'I' for Inactive)
REMARK    1  A    between atoms: C2'_3  and  C1'_4 
REMARK    2  A    between atoms: C1'_4  and  C1_5 
ROOT
ATOM      1  C1  I4B d   1      -1.729  -1.283   2.825  0.00  0.00    -0.075 A 
ATOM      2  C2  I4B d   1      -2.226  -0.849   1.622  0.00  0.00     0.003 A 
ATOM      3  C3  I4B d   1      -1.430  -0.047   0.769  0.00  0.00     0.002 A 
ATOM      4  C4  I4B d   1      -0.169   0.337   1.178  0.00  0.00    -0.004 A 
ATOM      5  C5  I4B d   1       0.342  -0.123   2.388  0.00  0.00     0.002 A 
ATOM      6  C6  I4B d   1      -0.437  -0.949   3.212  0.00  0.00     0.003 A 
ENDROOT
BRANCH   1   7
ATOM      7  C1' I4B d   1      -2.609  -2.102   3.715  0.00  0.00     0.060 C 
BRANCH   7   8
ATOM      8  C2' I4B d   1      -2.802  -1.339   5.010  0.00  0.00    -0.013 C 
ATOM      9  C4' I4B d   1      -3.611  -0.088   4.790  0.00  0.00     0.013 C 
ATOM     10  C3' I4B d   1      -3.473  -2.253   5.991  0.00  0.00     0.013 C 
ENDBRANCH   7   8
ENDBRANCH   1   7
TORSDOF 2
ENDMDL
