MODEL 1
REMARK minimizedAffinity -3.71787381
REMARK minimizedRMSD -1
REMARK  2 active torsions:
REMARK  status: ('A' for Active; 'I' for Inactive)
REMARK    1  A    between atoms: C2'_3  and  C1'_4 
REMARK    2  A    between atoms: C1'_4  and  C1_5 
ROOT
ATOM      1  C1  I4B d   1      -0.329  -2.142  -0.168  0.00  0.00    -0.075 A 
ATOM      2  C2  I4B d   1      -0.390  -3.211  -1.027  0.00  0.00     0.003 A 
ATOM      3  C3  I4B d   1      -0.032  -3.052  -2.388  0.00  0.00     0.002 A 
ATOM      4  C4  I4B d   1       0.329  -1.805  -2.855  0.00  0.00    -0.004 A 
ATOM      5  C5  I4B d   1       0.413  -0.728  -1.977  0.00  0.00     0.002 A 
ATOM      6  C6  I4B d   1       0.093  -0.900  -0.622  0.00  0.00     0.003 A 
ENDROOT
BRANCH   1   7
ATOM      7  C1' I4B d   1      -0.746  -2.338   1.255  0.00  0.00     0.060 C 
BRANCH   7   8
ATOM      8  C2' I4B d   1      -1.204  -0.998   1.796  0.00  0.00    -0.013 C 
ATOM      9  C4' I4B d   1      -2.208  -0.354   0.877  0.00  0.00     0.013 C 
ATOM     10  C3' I4B d   1      -1.785  -1.223   3.160  0.00  0.00     0.013 C 
ENDBRANCH   7   8
ENDBRANCH   1   7
TORSDOF 2
ENDMDL
