MODEL 1
REMARK minimizedAffinity -4.89294386
REMARK minimizedRMSD -1
REMARK  2 active torsions:
REMARK  status: ('A' for Active; 'I' for Inactive)
REMARK    1  A    between atoms: C2'_3  and  C1'_4 
REMARK    2  A    between atoms: C1'_4  and  C1_5 
ROOT
ATOM      1  C1  I4B d   1      -0.138  -2.390  -0.328  0.00  0.00    -0.075 A 
ATOM      2  C2  I4B d   1       0.412  -1.157  -0.575  0.00  0.00     0.003 A 
ATOM      3  C3  I4B d   1       0.235  -0.099   0.349  0.00  0.00     0.002 A 
ATOM      4  C4  I4B d   1      -0.537  -0.303   1.475  0.00  0.00    -0.004 A 
ATOM      5  C5  I4B d   1      -1.076  -1.560   1.735  0.00  0.00     0.002 A 
ATOM      6  C6  I4B d   1      -0.865  -2.614   0.834  0.00  0.00     0.003 A 
ENDROOT
BRANCH   1   7
ATOM      7  C1' I4B d   1       0.041  -3.476  -1.342  0.00  0.00     0.060 C 
BRANCH   7   8
ATOM      8  C2' I4B d   1       0.073  -2.833  -2.713  0.00  0.00    -0.013 C 
ATOM      9  C4' I4B d   1       1.242  -3.330  -3.521  0.00  0.00     0.013 C 
ATOM     10  C3' I4B d   1      -1.226  -3.138  -3.398  0.00  0.00     0.013 C 
ENDBRANCH   7   8
ENDBRANCH   1   7
TORSDOF 2
ENDMDL
