MODEL 1
REMARK minimizedAffinity -5.33656359
REMARK minimizedRMSD -1
REMARK  2 active torsions:
REMARK  status: ('A' for Active; 'I' for Inactive)
REMARK    1  A    between atoms: C2'_3  and  C1'_4 
REMARK    2  A    between atoms: C1'_4  and  C1_5 
ROOT
ATOM      1  C1  I4B d   1      -0.247   0.333   0.141  0.00  0.00    -0.075 A 
ATOM      2  C2  I4B d   1      -1.344   0.434   0.960  0.00  0.00     0.003 A 
ATOM      3  C3  I4B d   1      -1.886  -0.723   1.570  0.00  0.00     0.002 A 
ATOM      4  C4  I4B d   1      -1.335  -1.958   1.295  0.00  0.00    -0.004 A 
ATOM      5  C5  I4B d   1      -0.210  -2.056   0.482  0.00  0.00     0.002 A 
ATOM      6  C6  I4B d   1       0.346  -0.902  -0.089  0.00  0.00     0.003 A 
ENDROOT
BRANCH   1   7
ATOM      7  C1' I4B d   1       0.280   1.571  -0.513  0.00  0.00     0.060 C 
BRANCH   7   8
ATOM      8  C2' I4B d   1       1.071   2.345   0.521  0.00  0.00    -0.013 C 
ATOM      9  C4' I4B d   1       2.541   2.349   0.192  0.00  0.00     0.013 C 
ATOM     10  C3' I4B d   1       0.524   3.740   0.574  0.00  0.00     0.013 C 
ENDBRANCH   7   8
ENDBRANCH   1   7
TORSDOF 2
ENDMDL
