MODEL 1
REMARK minimizedAffinity -3.96796298
REMARK minimizedRMSD -1
REMARK  2 active torsions:
REMARK  status: ('A' for Active; 'I' for Inactive)
REMARK    1  A    between atoms: C2'_3  and  C1'_4 
REMARK    2  A    between atoms: C1'_4  and  C1_5 
ROOT
ATOM      1  C1  I4B d   1      -0.378   0.160  -0.296  0.00  0.00    -0.075 A 
ATOM      2  C2  I4B d   1       0.224  -0.826  -1.038  0.00  0.00     0.003 A 
ATOM      3  C3  I4B d   1       0.065  -2.186  -0.679  0.00  0.00     0.002 A 
ATOM      4  C4  I4B d   1      -0.657  -2.510   0.451  0.00  0.00    -0.004 A 
ATOM      5  C5  I4B d   1      -1.286  -1.511   1.190  0.00  0.00     0.002 A 
ATOM      6  C6  I4B d   1      -1.155  -0.168   0.807  0.00  0.00     0.003 A 
ENDROOT
BRANCH   1   7
ATOM      7  C1' I4B d   1      -0.161   1.588  -0.685  0.00  0.00     0.060 C 
BRANCH   7   8
ATOM      8  C2' I4B d   1       0.701   2.236   0.379  0.00  0.00    -0.013 C 
ATOM      9  C4' I4B d   1       1.875   2.954  -0.234  0.00  0.00     0.013 C 
ATOM     10  C3' I4B d   1      -0.161   3.179   1.164  0.00  0.00     0.013 C 
ENDBRANCH   7   8
ENDBRANCH   1   7
TORSDOF 2
ENDMDL
