MODEL 1
REMARK minimizedAffinity -4.37175369
REMARK minimizedRMSD -1
REMARK  2 active torsions:
REMARK  status: ('A' for Active; 'I' for Inactive)
REMARK    1  A    between atoms: C2'_3  and  C1'_4 
REMARK    2  A    between atoms: C1'_4  and  C1_5 
ROOT
ATOM      1  C1  I4B d   1       0.223  -2.228  -0.415  0.00  0.00    -0.075 A 
ATOM      2  C2  I4B d   1       0.225  -3.359  -1.192  0.00  0.00     0.003 A 
ATOM      3  C3  I4B d   1       0.620  -3.291  -2.550  0.00  0.00     0.002 A 
ATOM      4  C4  I4B d   1       0.956  -2.070  -3.100  0.00  0.00    -0.004 A 
ATOM      5  C5  I4B d   1       0.976  -0.928  -2.304  0.00  0.00     0.002 A 
ATOM      6  C6  I4B d   1       0.619  -1.009  -0.950  0.00  0.00     0.003 A 
ENDROOT
BRANCH   1   7
ATOM      7  C1' I4B d   1      -0.231  -2.330   1.006  0.00  0.00     0.060 C 
BRANCH   7   8
ATOM      8  C2' I4B d   1      -1.386  -1.368   1.197  0.00  0.00    -0.013 C 
ATOM      9  C4' I4B d   1      -2.704  -2.030   0.896  0.00  0.00     0.013 C 
ATOM     10  C3' I4B d   1      -1.342  -0.867   2.610  0.00  0.00     0.013 C 
ENDBRANCH   7   8
ENDBRANCH   1   7
TORSDOF 2
ENDMDL
