MODEL 1
REMARK minimizedAffinity -4.88491392
REMARK minimizedRMSD -1
REMARK  2 active torsions:
REMARK  status: ('A' for Active; 'I' for Inactive)
REMARK    1  A    between atoms: C2'_3  and  C1'_4 
REMARK    2  A    between atoms: C1'_4  and  C1_5 
ROOT
ATOM      1  C1  I4B d   1      -0.090  -0.187  -0.536  0.00  0.00    -0.075 A 
ATOM      2  C2  I4B d   1      -0.411  -0.672   0.707  0.00  0.00     0.003 A 
ATOM      3  C3  I4B d   1      -0.540  -2.067   0.916  0.00  0.00     0.002 A 
ATOM      4  C4  I4B d   1      -0.390  -2.930  -0.150  0.00  0.00    -0.004 A 
ATOM      5  C5  I4B d   1      -0.042  -2.438  -1.404  0.00  0.00     0.002 A 
ATOM      6  C6  I4B d   1       0.121  -1.058  -1.597  0.00  0.00     0.003 A 
ENDROOT
BRANCH   1   7
ATOM      7  C1' I4B d   1       0.006   1.294  -0.729  0.00  0.00     0.060 C 
BRANCH   7   8
ATOM      8  C2' I4B d   1       0.788   1.866   0.436  0.00  0.00    -0.013 C 
ATOM      9  C4' I4B d   1       2.263   1.912   0.133  0.00  0.00     0.013 C 
ATOM     10  C3' I4B d   1       0.252   3.237   0.724  0.00  0.00     0.013 C 
ENDBRANCH   7   8
ENDBRANCH   1   7
TORSDOF 2
ENDMDL
