MODEL 1
REMARK minimizedAffinity -4.77565813
REMARK minimizedRMSD -1
REMARK  2 active torsions:
REMARK  status: ('A' for Active; 'I' for Inactive)
REMARK    1  A    between atoms: C2'_3  and  C1'_4 
REMARK    2  A    between atoms: C1'_4  and  C1_5 
ROOT
ATOM      1  C1  I4B d   1       0.031  -2.568  -0.366  0.00  0.00    -0.075 A 
ATOM      2  C2  I4B d   1      -0.247  -3.740  -1.025  0.00  0.00     0.003 A 
ATOM      3  C3  I4B d   1       0.195  -3.930  -2.357  0.00  0.00     0.002 A 
ATOM      4  C4  I4B d   1       0.863  -2.910  -3.003  0.00  0.00    -0.004 A 
ATOM      5  C5  I4B d   1       1.164  -1.732  -2.325  0.00  0.00     0.002 A 
ATOM      6  C6  I4B d   1       0.756  -1.565  -0.994  0.00  0.00     0.003 A 
ENDROOT
BRANCH   1   7
ATOM      7  C1' I4B d   1      -0.480  -2.388   1.029  0.00  0.00     0.060 C 
BRANCH   7   8
ATOM      8  C2' I4B d   1      -1.739  -1.547   0.960  0.00  0.00    -0.013 C 
ATOM      9  C4' I4B d   1      -2.960  -2.366   1.284  0.00  0.00     0.013 C 
ATOM     10  C3' I4B d   1      -1.584  -0.403   1.917  0.00  0.00     0.013 C 
ENDBRANCH   7   8
ENDBRANCH   1   7
TORSDOF 2
ENDMDL
