MODEL 1
REMARK minimizedAffinity -0.434048861
REMARK minimizedRMSD -1
REMARK  2 active torsions:
REMARK  status: ('A' for Active; 'I' for Inactive)
REMARK    1  A    between atoms: C2'_3  and  C1'_4 
REMARK    2  A    between atoms: C1'_4  and  C1_5 
ROOT
ATOM      1  C1  I4B d   1      -2.198   0.239   1.178  0.00  0.00    -0.075 A 
ATOM      2  C2  I4B d   1      -1.882  -0.392   0.001  0.00  0.00     0.003 A 
ATOM      3  C3  I4B d   1      -0.742   0.006  -0.738  0.00  0.00     0.002 A 
ATOM      4  C4  I4B d   1       0.020   1.067  -0.293  0.00  0.00    -0.004 A 
ATOM      5  C5  I4B d   1      -0.289   1.691   0.912  0.00  0.00     0.002 A 
ATOM      6  C6  I4B d   1      -1.398   1.267   1.659  0.00  0.00     0.003 A 
ENDROOT
BRANCH   1   7
ATOM      7  C1' I4B d   1      -3.428  -0.185   1.916  0.00  0.00     0.060 C 
BRANCH   7   8
ATOM      8  C2' I4B d   1      -3.567   0.699   3.138  0.00  0.00    -0.013 C 
ATOM      9  C4' I4B d   1      -4.828   1.520   3.077  0.00  0.00     0.013 C 
ATOM     10  C3' I4B d   1      -3.555  -0.183   4.351  0.00  0.00     0.013 C 
ENDBRANCH   7   8
ENDBRANCH   1   7
TORSDOF 2
ENDMDL
