MODEL 1
REMARK minimizedAffinity 9.31939125
REMARK minimizedRMSD -1
REMARK  2 active torsions:
REMARK  status: ('A' for Active; 'I' for Inactive)
REMARK    1  A    between atoms: C2'_3  and  C1'_4 
REMARK    2  A    between atoms: C1'_4  and  C1_5 
ROOT
ATOM      1  C1  I4B d   1       0.678   0.530  -0.060  0.00  0.00    -0.075 A 
ATOM      2  C2  I4B d   1      -0.318   0.204  -0.947  0.00  0.00     0.003 A 
ATOM      3  C3  I4B d   1      -0.010  -0.035  -2.308  0.00  0.00     0.002 A 
ATOM      4  C4  I4B d   1       1.290   0.112  -2.747  0.00  0.00    -0.004 A 
ATOM      5  C5  I4B d   1       2.302   0.420  -1.842  0.00  0.00     0.002 A 
ATOM      6  C6  I4B d   1       1.996   0.618  -0.488  0.00  0.00     0.003 A 
ENDROOT
BRANCH   1   7
ATOM      7  C1' I4B d   1       0.312   0.808   1.363  0.00  0.00     0.060 C 
BRANCH   7   8
ATOM      8  C2' I4B d   1       0.126  -0.522   2.066  0.00  0.00    -0.013 C 
ATOM      9  C4' I4B d   1       1.102  -0.680   3.202  0.00  0.00     0.013 C 
ATOM     10  C3' I4B d   1      -1.290  -0.593   2.554  0.00  0.00     0.013 C 
ENDBRANCH   7   8
ENDBRANCH   1   7
TORSDOF 2
ENDMDL
