MODEL 1
REMARK minimizedAffinity 4.71580791
REMARK minimizedRMSD -1
REMARK  3 active torsions:
REMARK  status: ('A' for Active; 'I' for Inactive)
REMARK    1  A    between atoms: C3'_2  and  C2'_3 
REMARK    2  A    between atoms: C2'_3  and  C1'_4 
REMARK    3  A    between atoms: C1'_4  and  C1_5 
ROOT
ATOM      1  C1  N4B d   1       0.408  -0.513   0.793  0.00  0.00    -0.075 A 
ATOM      2  C2  N4B d   1       0.499  -1.043   2.098  0.00  0.00     0.002 A 
ATOM      3  C3  N4B d   1       1.717  -1.104   2.731  0.00  0.00     0.002 A 
ATOM      4  C4  N4B d   1       2.854  -0.659   2.074  0.00  0.00    -0.004 A 
ATOM      5  C5  N4B d   1       2.754  -0.125   0.823  0.00  0.00     0.002 A 
ATOM      6  C6  N4B d   1       1.536  -0.054   0.176  0.00  0.00     0.002 A 
ENDROOT
BRANCH   1   7
ATOM      7  C1' N4B d   1      -0.887  -0.505   0.028  0.00  0.00     0.057 C 
BRANCH   7   8
ATOM      8  C2' N4B d   1      -2.049  -0.631   1.009  0.00  0.00     0.009 C 
BRANCH   8   9
ATOM      9  C3' N4B d   1      -3.325  -1.088   0.323  0.00  0.00     0.004 C 
ATOM     10  C4' N4B d   1      -4.390  -0.033   0.314  0.00  0.00     0.003 C 
ENDBRANCH   8   9
ENDBRANCH   7   8
ENDBRANCH   1   7
TORSDOF 3
ENDMDL
