MODEL 1
REMARK minimizedAffinity 6.3876338
REMARK minimizedRMSD -1
REMARK  3 active torsions:
REMARK  status: ('A' for Active; 'I' for Inactive)
REMARK    1  A    between atoms: C3'_2  and  C2'_3 
REMARK    2  A    between atoms: C2'_3  and  C1'_4 
REMARK    3  A    between atoms: C1'_4  and  C1_5 
ROOT
ATOM      1  C1  N4B d   1       2.440  -1.044   2.227  0.00  0.00    -0.075 A 
ATOM      2  C2  N4B d   1       2.229  -0.820   3.605  0.00  0.00     0.002 A 
ATOM      3  C3  N4B d   1       1.514  -1.728   4.347  0.00  0.00     0.002 A 
ATOM      4  C4  N4B d   1       0.987  -2.853   3.731  0.00  0.00    -0.004 A 
ATOM      5  C5  N4B d   1       1.218  -3.075   2.404  0.00  0.00     0.002 A 
ATOM      6  C6  N4B d   1       1.937  -2.173   1.648  0.00  0.00     0.002 A 
ENDROOT
BRANCH   1   7
ATOM      7  C1' N4B d   1       3.142  -0.036   1.357  0.00  0.00     0.057 C 
BRANCH   7   8
ATOM      8  C2' N4B d   1       2.189   0.426   0.258  0.00  0.00     0.009 C 
BRANCH   8   9
ATOM      9  C3' N4B d   1       0.798   0.714   0.796  0.00  0.00     0.004 C 
ATOM     10  C4' N4B d   1      -0.271  -0.063   0.087  0.00  0.00     0.003 C 
ENDBRANCH   8   9
ENDBRANCH   7   8
ENDBRANCH   1   7
TORSDOF 3
ENDMDL
