MODEL 1
REMARK minimizedAffinity 3.47685409
REMARK minimizedRMSD -1
REMARK  3 active torsions:
REMARK  status: ('A' for Active; 'I' for Inactive)
REMARK    1  A    between atoms: C3'_2  and  C2'_3 
REMARK    2  A    between atoms: C2'_3  and  C1'_4 
REMARK    3  A    between atoms: C1'_4  and  C1_5 
ROOT
ATOM      1  C1  N4B d   1      -4.183   0.183  -0.180  0.00  0.00    -0.075 A 
ATOM      2  C2  N4B d   1      -4.300   1.561  -0.464  0.00  0.00     0.002 A 
ATOM      3  C3  N4B d   1      -5.211   1.996  -1.395  0.00  0.00     0.002 A 
ATOM      4  C4  N4B d   1      -6.000   1.073  -2.066  0.00  0.00    -0.004 A 
ATOM      5  C5  N4B d   1      -5.898  -0.255  -1.768  0.00  0.00     0.002 A 
ATOM      6  C6  N4B d   1      -4.989  -0.705  -0.832  0.00  0.00     0.002 A 
ENDROOT
BRANCH   1   7
ATOM      7  C1' N4B d   1      -3.141  -0.347   0.767  0.00  0.00     0.057 C 
BRANCH   7   8
ATOM      8  C2' N4B d   1      -1.887   0.516   0.666  0.00  0.00     0.009 C 
BRANCH   8   9
ATOM      9  C3' N4B d   1      -0.707  -0.260   0.107  0.00  0.00     0.004 C 
ATOM     10  C4' N4B d   1       0.604   0.432   0.337  0.00  0.00     0.003 C 
ENDBRANCH   8   9
ENDBRANCH   7   8
ENDBRANCH   1   7
TORSDOF 3
ENDMDL
