MODEL 1
REMARK minimizedAffinity 5.41515636
REMARK minimizedRMSD -1
REMARK  3 active torsions:
REMARK  status: ('A' for Active; 'I' for Inactive)
REMARK    1  A    between atoms: C3'_2  and  C2'_3 
REMARK    2  A    between atoms: C2'_3  and  C1'_4 
REMARK    3  A    between atoms: C1'_4  and  C1_5 
ROOT
ATOM      1  C1  N4B d   1      -0.421  -0.400   1.286  0.00  0.00    -0.075 A 
ATOM      2  C2  N4B d   1       0.487   0.244   0.418  0.00  0.00     0.002 A 
ATOM      3  C3  N4B d   1       1.829  -0.038   0.495  0.00  0.00     0.002 A 
ATOM      4  C4  N4B d   1       2.286  -0.943   1.441  0.00  0.00    -0.004 A 
ATOM      5  C5  N4B d   1       1.399  -1.580   2.259  0.00  0.00     0.002 A 
ATOM      6  C6  N4B d   1       0.048  -1.309   2.190  0.00  0.00     0.002 A 
ENDROOT
BRANCH   1   7
ATOM      7  C1' N4B d   1      -1.887  -0.060   1.297  0.00  0.00     0.057 C 
BRANCH   7   8
ATOM      8  C2' N4B d   1      -2.522  -0.541  -0.004  0.00  0.00     0.009 C 
BRANCH   8   9
ATOM      9  C3' N4B d   1      -3.642   0.377  -0.462  0.00  0.00     0.004 C 
ATOM     10  C4' N4B d   1      -3.746   0.466  -1.956  0.00  0.00     0.003 C 
ENDBRANCH   8   9
ENDBRANCH   7   8
ENDBRANCH   1   7
TORSDOF 3
ENDMDL
