MODEL 1
REMARK minimizedAffinity -0.486776143
REMARK minimizedRMSD -1
REMARK  3 active torsions:
REMARK  status: ('A' for Active; 'I' for Inactive)
REMARK    1  A    between atoms: C3'_2  and  C2'_3 
REMARK    2  A    between atoms: C2'_3  and  C1'_4 
REMARK    3  A    between atoms: C1'_4  and  C1_5 
ROOT
ATOM      1  C1  N4B d   1      -0.029  -5.619  -2.969  0.00  0.00    -0.075 A 
ATOM      2  C2  N4B d   1      -1.391  -5.679  -3.337  0.00  0.00     0.002 A 
ATOM      3  C3  N4B d   1      -1.738  -5.878  -4.651  0.00  0.00     0.002 A 
ATOM      4  C4  N4B d   1      -0.746  -6.000  -5.612  0.00  0.00    -0.004 A 
ATOM      5  C5  N4B d   1       0.567  -5.966  -5.244  0.00  0.00     0.002 A 
ATOM      6  C6  N4B d   1       0.931  -5.770  -3.927  0.00  0.00     0.002 A 
ENDROOT
BRANCH   1   7
ATOM      7  C1' N4B d   1       0.400  -5.317  -1.559  0.00  0.00     0.057 C 
BRANCH   7   8
ATOM      8  C2' N4B d   1       0.324  -3.812  -1.323  0.00  0.00     0.009 C 
BRANCH   8   9
ATOM      9  C3' N4B d   1       0.275  -3.470   0.156  0.00  0.00     0.004 C 
ATOM     10  C4' N4B d   1       0.602  -2.033   0.431  0.00  0.00     0.003 C 
ENDBRANCH   8   9
ENDBRANCH   7   8
ENDBRANCH   1   7
TORSDOF 3
ENDMDL
