MODEL 1
REMARK minimizedAffinity 2.04862881
REMARK minimizedRMSD -1
REMARK  3 active torsions:
REMARK  status: ('A' for Active; 'I' for Inactive)
REMARK    1  A    between atoms: C3'_2  and  C2'_3 
REMARK    2  A    between atoms: C2'_3  and  C1'_4 
REMARK    3  A    between atoms: C1'_4  and  C1_5 
ROOT
ATOM      1  C1  N4B d   1      -1.140  -5.877  -2.871  0.00  0.00    -0.075 A 
ATOM      2  C2  N4B d   1      -1.402  -5.915  -1.484  0.00  0.00     0.002 A 
ATOM      3  C3  N4B d   1      -2.697  -5.970  -1.031  0.00  0.00     0.002 A 
ATOM      4  C4  N4B d   1      -3.743  -5.967  -1.942  0.00  0.00    -0.004 A 
ATOM      5  C5  N4B d   1      -3.481  -5.955  -3.281  0.00  0.00     0.002 A 
ATOM      6  C6  N4B d   1      -2.184  -5.905  -3.750  0.00  0.00     0.002 A 
ENDROOT
BRANCH   1   7
ATOM      7  C1' N4B d   1       0.256  -5.730  -3.412  0.00  0.00     0.057 C 
BRANCH   7   8
ATOM      8  C2' N4B d   1       0.196  -5.643  -4.934  0.00  0.00     0.009 C 
BRANCH   8   9
ATOM      9  C3' N4B d   1       1.571  -5.784  -5.566  0.00  0.00     0.004 C 
ATOM     10  C4' N4B d   1       2.665  -5.925  -4.550  0.00  0.00     0.003 C 
ENDBRANCH   8   9
ENDBRANCH   7   8
ENDBRANCH   1   7
TORSDOF 3
ENDMDL
