MODEL 1
REMARK minimizedAffinity 3.02271986
REMARK minimizedRMSD -1
REMARK  3 active torsions:
REMARK  status: ('A' for Active; 'I' for Inactive)
REMARK    1  A    between atoms: C3'_2  and  C2'_3 
REMARK    2  A    between atoms: C2'_3  and  C1'_4 
REMARK    3  A    between atoms: C1'_4  and  C1_5 
ROOT
ATOM      1  C1  N4B d   1      -0.192  -5.823  -3.242  0.00  0.00    -0.075 A 
ATOM      2  C2  N4B d   1      -1.440  -5.911  -3.897  0.00  0.00     0.002 A 
ATOM      3  C3  N4B d   1      -1.492  -6.000  -5.267  0.00  0.00     0.002 A 
ATOM      4  C4  N4B d   1      -0.315  -5.983  -6.000  0.00  0.00    -0.004 A 
ATOM      5  C5  N4B d   1       0.888  -5.923  -5.358  0.00  0.00     0.002 A 
ATOM      6  C6  N4B d   1       0.955  -5.838  -3.982  0.00  0.00     0.002 A 
ENDROOT
BRANCH   1   7
ATOM      7  C1' N4B d   1      -0.088  -5.638  -1.753  0.00  0.00     0.057 C 
BRANCH   7   8
ATOM      8  C2' N4B d   1      -0.457  -4.200  -1.400  0.00  0.00     0.009 C 
BRANCH   8   9
ATOM      9  C3' N4B d   1       0.314  -3.695  -0.192  0.00  0.00     0.004 C 
ATOM     10  C4' N4B d   1      -0.111  -2.322   0.236  0.00  0.00     0.003 C 
ENDBRANCH   8   9
ENDBRANCH   7   8
ENDBRANCH   1   7
TORSDOF 3
ENDMDL
