MODEL 1
REMARK minimizedAffinity 2.62414026
REMARK minimizedRMSD -1
REMARK  3 active torsions:
REMARK  status: ('A' for Active; 'I' for Inactive)
REMARK    1  A    between atoms: C3'_2  and  C2'_3 
REMARK    2  A    between atoms: C2'_3  and  C1'_4 
REMARK    3  A    between atoms: C1'_4  and  C1_5 
ROOT
ATOM      1  C1  N4B d   1      -0.701  -0.330   0.408  0.00  0.00    -0.075 A 
ATOM      2  C2  N4B d   1      -0.976  -1.713   0.470  0.00  0.00     0.002 A 
ATOM      3  C3  N4B d   1       0.020  -2.597   0.807  0.00  0.00     0.002 A 
ATOM      4  C4  N4B d   1       1.298  -2.124   1.066  0.00  0.00    -0.004 A 
ATOM      5  C5  N4B d   1       1.549  -0.783   1.029  0.00  0.00     0.002 A 
ATOM      6  C6  N4B d   1       0.556   0.117   0.696  0.00  0.00     0.002 A 
ENDROOT
BRANCH   1   7
ATOM      7  C1' N4B d   1      -1.736   0.666  -0.039  0.00  0.00     0.057 C 
BRANCH   7   8
ATOM      8  C2' N4B d   1      -3.098  -0.020  -0.100  0.00  0.00     0.009 C 
BRANCH   8   9
ATOM      9  C3' N4B d   1      -3.665  -0.033  -1.509  0.00  0.00     0.004 C 
ATOM     10  C4' N4B d   1      -2.985   0.947  -2.418  0.00  0.00     0.003 C 
ENDBRANCH   8   9
ENDBRANCH   7   8
ENDBRANCH   1   7
TORSDOF 3
ENDMDL
