MODEL 1
REMARK minimizedAffinity 2.79113126
REMARK minimizedRMSD -1
REMARK  3 active torsions:
REMARK  status: ('A' for Active; 'I' for Inactive)
REMARK    1  A    between atoms: C3'_2  and  C2'_3 
REMARK    2  A    between atoms: C2'_3  and  C1'_4 
REMARK    3  A    between atoms: C1'_4  and  C1_5 
ROOT
ATOM      1  C1  N4B d   1      -1.559  -5.325  -2.469  0.00  0.00    -0.075 A 
ATOM      2  C2  N4B d   1      -2.746  -5.649  -3.160  0.00  0.00     0.002 A 
ATOM      3  C3  N4B d   1      -2.697  -5.983  -4.492  0.00  0.00     0.002 A 
ATOM      4  C4  N4B d   1      -1.478  -5.982  -5.154  0.00  0.00    -0.004 A 
ATOM      5  C5  N4B d   1      -0.332  -5.692  -4.473  0.00  0.00     0.002 A 
ATOM      6  C6  N4B d   1      -0.367  -5.358  -3.134  0.00  0.00     0.002 A 
ENDROOT
BRANCH   1   7
ATOM      7  C1' N4B d   1      -1.573  -4.869  -1.035  0.00  0.00     0.057 C 
BRANCH   7   8
ATOM      8  C2' N4B d   1      -0.598  -3.708  -0.869  0.00  0.00     0.009 C 
BRANCH   8   9
ATOM      9  C3' N4B d   1      -0.892  -2.894   0.380  0.00  0.00     0.004 C 
ATOM     10  C4' N4B d   1       0.351  -2.377   1.042  0.00  0.00     0.003 C 
ENDBRANCH   8   9
ENDBRANCH   7   8
ENDBRANCH   1   7
TORSDOF 3
ENDMDL
