MODEL 1
REMARK minimizedAffinity 7.07834673
REMARK minimizedRMSD -1
REMARK  3 active torsions:
REMARK  status: ('A' for Active; 'I' for Inactive)
REMARK    1  A    between atoms: C3'_2  and  C2'_3 
REMARK    2  A    between atoms: C2'_3  and  C1'_4 
REMARK    3  A    between atoms: C1'_4  and  C1_5 
ROOT
ATOM      1  C1  N4B d   1      -3.194   0.283  -0.466  0.00  0.00    -0.075 A 
ATOM      2  C2  N4B d   1      -3.086   1.263  -1.478  0.00  0.00     0.002 A 
ATOM      3  C3  N4B d   1      -3.910   1.210  -2.575  0.00  0.00     0.002 A 
ATOM      4  C4  N4B d   1      -4.832   0.181  -2.692  0.00  0.00    -0.004 A 
ATOM      5  C5  N4B d   1      -4.947  -0.747  -1.698  0.00  0.00     0.002 A 
ATOM      6  C6  N4B d   1      -4.129  -0.704  -0.588  0.00  0.00     0.002 A 
ENDROOT
BRANCH   1   7
ATOM      7  C1' N4B d   1      -2.258   0.250   0.711  0.00  0.00     0.057 C 
BRANCH   7   8
ATOM      8  C2' N4B d   1      -1.038  -0.595   0.356  0.00  0.00     0.009 C 
BRANCH   8   9
ATOM      9  C3' N4B d   1       0.263   0.129   0.660  0.00  0.00     0.004 C 
ATOM     10  C4' N4B d   1       1.316  -0.780   1.220  0.00  0.00     0.003 C 
ENDBRANCH   8   9
ENDBRANCH   7   8
ENDBRANCH   1   7
TORSDOF 3
ENDMDL
