MODEL 1
REMARK minimizedAffinity 6.34132528
REMARK minimizedRMSD -1
REMARK  3 active torsions:
REMARK  status: ('A' for Active; 'I' for Inactive)
REMARK    1  A    between atoms: C3'_2  and  C2'_3 
REMARK    2  A    between atoms: C2'_3  and  C1'_4 
REMARK    3  A    between atoms: C1'_4  and  C1_5 
ROOT
ATOM      1  C1  N4B d   1       0.270  -1.384   0.282  0.00  0.00    -0.075 A 
ATOM      2  C2  N4B d   1      -0.071  -0.128  -0.266  0.00  0.00     0.002 A 
ATOM      3  C3  N4B d   1       0.753   0.953  -0.070  0.00  0.00     0.002 A 
ATOM      4  C4  N4B d   1       1.909   0.807   0.683  0.00  0.00    -0.004 A 
ATOM      5  C5  N4B d   1       2.244  -0.416   1.187  0.00  0.00     0.002 A 
ATOM      6  C6  N4B d   1       1.427  -1.512   0.994  0.00  0.00     0.002 A 
ENDROOT
BRANCH   1   7
ATOM      7  C1' N4B d   1      -0.642  -2.575   0.167  0.00  0.00     0.057 C 
BRANCH   7   8
ATOM      8  C2' N4B d   1      -1.738  -2.470   1.223  0.00  0.00     0.009 C 
BRANCH   8   9
ATOM      9  C3' N4B d   1      -3.058  -2.011   0.627  0.00  0.00     0.004 C 
ATOM     10  C4' N4B d   1      -3.376  -0.582   0.952  0.00  0.00     0.003 C 
ENDBRANCH   8   9
ENDBRANCH   7   8
ENDBRANCH   1   7
TORSDOF 3
ENDMDL
