MODEL 1
REMARK minimizedAffinity -1.16324675
REMARK minimizedRMSD -1
REMARK  0 active torsions:
REMARK  status: ('A' for Active; 'I' for Inactive)
ROOT
ATOM      1  C   UNL d   1      -2.787   0.824   1.286  0.00  0.00     0.023 A 
ATOM      2  C1  UNL d   1      -1.478   0.690   1.749  0.00  0.00     0.003 A 
ATOM      3  C2  UNL d   1      -0.477   0.226   0.893  0.00  0.00     0.048 A 
ATOM      4  C3  UNL d   1      -0.792  -0.101  -0.425  0.00  0.00     0.023 A 
ATOM      5  C4  UNL d   1      -2.100   0.032  -0.894  0.00  0.00     0.048 A 
ATOM      6  C5  UNL d   1      -3.098   0.495  -0.034  0.00  0.00     0.003 A 
ATOM      7  I   UNL d   1       0.697  -0.791  -1.701  0.00  0.00    -0.146 I 
ENDROOT
TORSDOF 0
ENDMDL
