MODEL 1
REMARK minimizedAffinity 0.360305876
REMARK minimizedRMSD -1
REMARK  0 active torsions:
REMARK  status: ('A' for Active; 'I' for Inactive)
ROOT
ATOM      1  C   UNL d   1      -1.063   0.789   2.208  0.00  0.00     0.023 A 
ATOM      2  C1  UNL d   1      -0.089   1.663   1.725  0.00  0.00     0.003 A 
ATOM      3  C2  UNL d   1       0.255   1.648   0.371  0.00  0.00     0.048 A 
ATOM      4  C3  UNL d   1      -0.381   0.757  -0.493  0.00  0.00     0.023 A 
ATOM      5  C4  UNL d   1      -1.357  -0.118  -0.014  0.00  0.00     0.048 A 
ATOM      6  C5  UNL d   1      -1.696  -0.100   1.340  0.00  0.00     0.003 A 
ATOM      7  I   UNL d   1       0.128   0.733  -2.508  0.00  0.00    -0.146 I 
ENDROOT
TORSDOF 0
ENDMDL
