MODEL 1
REMARK minimizedAffinity -3.96621156
REMARK minimizedRMSD -1
REMARK  0 active torsions:
REMARK  status: ('A' for Active; 'I' for Inactive)
ROOT
ATOM      1  C   UNL d   1      -1.158   1.279   2.325  0.00  0.00     0.023 A 
ATOM      2  C1  UNL d   1      -1.968   0.517   1.482  0.00  0.00     0.003 A 
ATOM      3  C2  UNL d   1      -1.455   0.016   0.284  0.00  0.00     0.048 A 
ATOM      4  C3  UNL d   1      -0.131   0.280  -0.065  0.00  0.00     0.023 A 
ATOM      5  C4  UNL d   1       0.684   1.041   0.776  0.00  0.00     0.048 A 
ATOM      6  C5  UNL d   1       0.166   1.541   1.972  0.00  0.00     0.003 A 
ATOM      7  I   UNL d   1       0.636  -0.464  -1.848  0.00  0.00    -0.146 I 
ENDROOT
TORSDOF 0
ENDMDL
