MODEL 1
REMARK minimizedAffinity -1.28667593
REMARK minimizedRMSD -1
REMARK  0 active torsions:
REMARK  status: ('A' for Active; 'I' for Inactive)
ROOT
ATOM      1  C   UNL d   1      -1.333   1.118   2.580  0.00  0.00     0.023 A 
ATOM      2  C1  UNL d   1       0.034   1.231   2.328  0.00  0.00     0.003 A 
ATOM      3  C2  UNL d   1       0.567   0.751   1.129  0.00  0.00     0.048 A 
ATOM      4  C3  UNL d   1      -0.274   0.160   0.187  0.00  0.00     0.023 A 
ATOM      5  C4  UNL d   1      -1.643   0.046   0.434  0.00  0.00     0.048 A 
ATOM      6  C5  UNL d   1      -2.171   0.526   1.634  0.00  0.00     0.003 A 
ATOM      7  I   UNL d   1       0.516  -0.554  -1.598  0.00  0.00    -0.146 I 
ENDROOT
TORSDOF 0
ENDMDL
