MODEL 1
REMARK minimizedAffinity -3.80479074
REMARK minimizedRMSD -1
REMARK  0 active torsions:
REMARK  status: ('A' for Active; 'I' for Inactive)
ROOT
ATOM      1  C   UNL d   1      -0.632   1.114   3.012  0.00  0.00     0.023 A 
ATOM      2  C1  UNL d   1      -1.614   0.569   2.184  0.00  0.00     0.003 A 
ATOM      3  C2  UNL d   1      -1.251  -0.090   1.008  0.00  0.00     0.048 A 
ATOM      4  C3  UNL d   1       0.097  -0.202   0.666  0.00  0.00     0.023 A 
ATOM      5  C4  UNL d   1       1.083   0.340   1.492  0.00  0.00     0.048 A 
ATOM      6  C5  UNL d   1       0.714   1.000   2.666  0.00  0.00     0.003 A 
ATOM      7  I   UNL d   1       0.640  -1.184  -1.083  0.00  0.00    -0.146 I 
ENDROOT
TORSDOF 0
ENDMDL
