MODEL 1
REMARK minimizedAffinity -0.102743812
REMARK minimizedRMSD -1
REMARK  0 active torsions:
REMARK  status: ('A' for Active; 'I' for Inactive)
ROOT
ATOM      1  C   UNL d   1       3.309   1.179  -3.479  0.00  0.00     0.023 A 
ATOM      2  C1  UNL d   1       3.444   0.207  -4.470  0.00  0.00     0.003 A 
ATOM      3  C2  UNL d   1       2.314  -0.278  -5.133  0.00  0.00     0.048 A 
ATOM      4  C3  UNL d   1       1.053   0.216  -4.801  0.00  0.00     0.023 A 
ATOM      5  C4  UNL d   1       0.913   1.189  -3.811  0.00  0.00     0.048 A 
ATOM      6  C5  UNL d   1       2.045   1.670  -3.150  0.00  0.00     0.003 A 
ATOM      7  I   UNL d   1      -0.630  -0.503  -5.786  0.00  0.00    -0.146 I 
ENDROOT
TORSDOF 0
ENDMDL
