MODEL 1
REMARK minimizedAffinity -3.47611928
REMARK minimizedRMSD -1
REMARK  0 active torsions:
REMARK  status: ('A' for Active; 'I' for Inactive)
ROOT
ATOM      1  C   UNL d   1      -0.667   1.309   2.672  0.00  0.00     0.023 A 
ATOM      2  C1  UNL d   1      -1.602   0.841   1.748  0.00  0.00     0.003 A 
ATOM      3  C2  UNL d   1      -1.175   0.188   0.590  0.00  0.00     0.048 A 
ATOM      4  C3  UNL d   1       0.188   0.006   0.362  0.00  0.00     0.023 A 
ATOM      5  C4  UNL d   1       1.128   0.472   1.283  0.00  0.00     0.048 A 
ATOM      6  C5  UNL d   1       0.696   1.125   2.439  0.00  0.00     0.003 A 
ATOM      7  I   UNL d   1       0.826  -0.965  -1.361  0.00  0.00    -0.146 I 
ENDROOT
TORSDOF 0
ENDMDL
