MODEL 1
REMARK minimizedAffinity 13.6486855
REMARK minimizedRMSD -1
REMARK  1 active torsions:
REMARK  status: ('A' for Active; 'I' for Inactive)
REMARK    1  A    between atoms: C1_2  and  C2_3 
ROOT
ATOM      1  C2  UNL d   1       1.377   0.240   1.915  0.00  0.00    -0.076 A 
ATOM      2  C3  UNL d   1       2.464   0.303   1.027  0.00  0.00     0.004 A 
ATOM      3  C4  UNL d   1       3.182  -0.843   0.689  0.00  0.00    -0.003 A 
ATOM      4  C5  UNL d   1       2.824  -2.071   1.234  0.00  0.00     0.000 A 
ATOM      5  C6  UNL d   1       1.736  -2.155   2.103  0.00  0.00     0.000 A 
ATOM      6  C7  UNL d   1       0.992  -1.012   2.441  0.00  0.00    -0.073 A 
ATOM      7  C8  UNL d   1      -0.167  -1.159   3.388  0.00  0.00     0.078 C 
ENDROOT
BRANCH   1   8
ATOM      8  C1  UNL d   1       0.652   1.520   2.265  0.00  0.00     0.053 C 
ATOM      9  C   UNL d   1       1.567   2.549   2.911  0.00  0.00     0.018 C 
ENDBRANCH   1   8
TORSDOF 1
ENDMDL
