MODEL 1
REMARK minimizedAffinity 18.7237816
REMARK minimizedRMSD -1
REMARK  1 active torsions:
REMARK  status: ('A' for Active; 'I' for Inactive)
REMARK    1  A    between atoms: C1_2  and  C2_3 
ROOT
ATOM      1  C2  UNL d   1       1.056  -1.846   3.124  0.00  0.00    -0.076 A 
ATOM      2  C3  UNL d   1       0.726  -0.480   3.122  0.00  0.00     0.004 A 
ATOM      3  C4  UNL d   1       1.190   0.368   2.118  0.00  0.00    -0.003 A 
ATOM      4  C5  UNL d   1       1.990  -0.136   1.099  0.00  0.00     0.000 A 
ATOM      5  C6  UNL d   1       2.313  -1.492   1.075  0.00  0.00     0.000 A 
ATOM      6  C7  UNL d   1       1.840  -2.365   2.071  0.00  0.00    -0.073 A 
ATOM      7  C8  UNL d   1       2.224  -3.817   2.000  0.00  0.00     0.078 C 
ENDROOT
BRANCH   1   8
ATOM      8  C1  UNL d   1       0.547  -2.713   4.254  0.00  0.00     0.053 C 
ATOM      9  C   UNL d   1       1.279  -2.454   5.561  0.00  0.00     0.018 C 
ENDBRANCH   1   8
TORSDOF 1
ENDMDL
