MODEL 1
REMARK minimizedAffinity 11.7805758
REMARK minimizedRMSD -1
REMARK  1 active torsions:
REMARK  status: ('A' for Active; 'I' for Inactive)
REMARK    1  A    between atoms: C1_2  and  C2_3 
ROOT
ATOM      1  C2  UNL d   1      -3.245   1.181  -1.164  0.00  0.00    -0.076 A 
ATOM      2  C3  UNL d   1      -2.934   2.365  -1.856  0.00  0.00     0.004 A 
ATOM      3  C4  UNL d   1      -3.387   2.575  -3.158  0.00  0.00    -0.003 A 
ATOM      4  C5  UNL d   1      -4.157   1.605  -3.788  0.00  0.00     0.000 A 
ATOM      5  C6  UNL d   1      -4.490   0.432  -3.111  0.00  0.00     0.000 A 
ATOM      6  C7  UNL d   1      -4.055   0.212  -1.792  0.00  0.00    -0.073 A 
ATOM      7  C8  UNL d   1      -4.438  -1.074  -1.111  0.00  0.00     0.078 C 
ENDROOT
BRANCH   1   8
ATOM      8  C1  UNL d   1      -2.703   0.997   0.236  0.00  0.00     0.053 C 
ATOM      9  C   UNL d   1      -2.230   2.304   0.854  0.00  0.00     0.018 C 
ENDBRANCH   1   8
TORSDOF 1
ENDMDL
