MODEL 1
REMARK minimizedAffinity 6.84259987
REMARK minimizedRMSD -1
REMARK  1 active torsions:
REMARK  status: ('A' for Active; 'I' for Inactive)
REMARK    1  A    between atoms: C1_2  and  C2_3 
ROOT
ATOM      1  C2  UNL d   1       2.423  -0.784   0.811  0.00  0.00    -0.076 A 
ATOM      2  C3  UNL d   1       2.169  -2.119   1.171  0.00  0.00     0.004 A 
ATOM      3  C4  UNL d   1       1.527  -2.429   2.369  0.00  0.00    -0.003 A 
ATOM      4  C5  UNL d   1       1.128  -1.409   3.225  0.00  0.00     0.000 A 
ATOM      5  C6  UNL d   1       1.356  -0.079   2.876  0.00  0.00     0.000 A 
ATOM      6  C7  UNL d   1       1.987   0.252   1.665  0.00  0.00    -0.073 A 
ATOM      7  C8  UNL d   1       2.213   1.703   1.341  0.00  0.00     0.078 C 
ENDROOT
BRANCH   1   8
ATOM      8  C1  UNL d   1       3.148  -0.509  -0.487  0.00  0.00     0.053 C 
ATOM      9  C   UNL d   1       2.458  -1.143  -1.685  0.00  0.00     0.018 C 
ENDBRANCH   1   8
TORSDOF 1
ENDMDL
