MODEL 1
REMARK minimizedAffinity 16.588892
REMARK minimizedRMSD -1
REMARK  1 active torsions:
REMARK  status: ('A' for Active; 'I' for Inactive)
REMARK    1  A    between atoms: C1_2  and  C2_3 
ROOT
ATOM      1  C2  UNL d   1      -5.138   1.432  -3.598  0.00  0.00    -0.076 A 
ATOM      2  C3  UNL d   1      -4.678   0.205  -4.108  0.00  0.00     0.004 A 
ATOM      3  C4  UNL d   1      -4.535  -0.908  -3.282  0.00  0.00    -0.003 A 
ATOM      4  C5  UNL d   1      -4.851  -0.813  -1.931  0.00  0.00     0.000 A 
ATOM      5  C6  UNL d   1      -5.326   0.391  -1.411  0.00  0.00     0.000 A 
ATOM      6  C7  UNL d   1      -5.490   1.519  -2.234  0.00  0.00    -0.073 A 
ATOM      7  C8  UNL d   1      -6.000   2.793  -1.620  0.00  0.00     0.078 C 
ENDROOT
BRANCH   1   8
ATOM      8  C1  UNL d   1      -5.246   2.612  -4.537  0.00  0.00     0.053 C 
ATOM      9  C   UNL d   1      -5.204   2.198  -6.000  0.00  0.00     0.018 C 
ENDBRANCH   1   8
TORSDOF 1
ENDMDL
