MODEL 1
REMARK minimizedAffinity 16.8988705
REMARK minimizedRMSD -1
REMARK  1 active torsions:
REMARK  status: ('A' for Active; 'I' for Inactive)
REMARK    1  A    between atoms: C1_2  and  C2_3 
ROOT
ATOM      1  C2  UNL d   1       3.346  -3.438   2.754  0.00  0.00    -0.076 A 
ATOM      2  C3  UNL d   1       4.364  -2.471   2.818  0.00  0.00     0.004 A 
ATOM      3  C4  UNL d   1       5.680  -2.792   2.489  0.00  0.00    -0.003 A 
ATOM      4  C5  UNL d   1       5.999  -4.085   2.090  0.00  0.00     0.000 A 
ATOM      5  C6  UNL d   1       4.998  -5.053   2.004  0.00  0.00     0.000 A 
ATOM      6  C7  UNL d   1       3.664  -4.742   2.317  0.00  0.00    -0.073 A 
ATOM      7  C8  UNL d   1       2.627  -5.826   2.212  0.00  0.00     0.078 C 
ENDROOT
BRANCH   1   8
ATOM      8  C1  UNL d   1       1.942  -3.039   3.150  0.00  0.00     0.053 C 
ATOM      9  C   UNL d   1       1.409  -1.883   2.318  0.00  0.00     0.018 C 
ENDBRANCH   1   8
TORSDOF 1
ENDMDL
