MODEL 1
REMARK minimizedAffinity 14.7687922
REMARK minimizedRMSD -1
REMARK  1 active torsions:
REMARK  status: ('A' for Active; 'I' for Inactive)
REMARK    1  A    between atoms: C1_2  and  C2_3 
ROOT
ATOM      1  C2  UNL d   1      -3.284   2.378   0.873  0.00  0.00    -0.076 A 
ATOM      2  C3  UNL d   1      -3.936   2.723   2.069  0.00  0.00     0.004 A 
ATOM      3  C4  UNL d   1      -5.283   3.082   2.074  0.00  0.00    -0.003 A 
ATOM      4  C5  UNL d   1      -6.000   3.103   0.883  0.00  0.00     0.000 A 
ATOM      5  C6  UNL d   1      -5.373   2.747  -0.311  0.00  0.00     0.000 A 
ATOM      6  C7  UNL d   1      -4.020   2.366  -0.331  0.00  0.00    -0.073 A 
ATOM      7  C8  UNL d   1      -3.393   1.998  -1.648  0.00  0.00     0.078 C 
ENDROOT
BRANCH   1   8
ATOM      8  C1  UNL d   1      -1.815   2.023   0.925  0.00  0.00     0.053 C 
ATOM      9  C   UNL d   1      -1.580   0.521   0.949  0.00  0.00     0.018 C 
ENDBRANCH   1   8
TORSDOF 1
ENDMDL
