MODEL 1
REMARK minimizedAffinity 4.12008715
REMARK minimizedRMSD -1
REMARK  1 active torsions:
REMARK  status: ('A' for Active; 'I' for Inactive)
REMARK    1  A    between atoms: C1_2  and  C2_3 
ROOT
ATOM      1  C2  UNL d   1       1.141  -1.489   1.084  0.00  0.00    -0.076 A 
ATOM      2  C3  UNL d   1       0.120  -0.546   0.873  0.00  0.00     0.004 A 
ATOM      3  C4  UNL d   1      -1.204  -0.948   0.702  0.00  0.00    -0.003 A 
ATOM      4  C5  UNL d   1      -1.528  -2.300   0.739  0.00  0.00     0.000 A 
ATOM      5  C6  UNL d   1      -0.531  -3.248   0.965  0.00  0.00     0.000 A 
ATOM      6  C7  UNL d   1       0.806  -2.859   1.156  0.00  0.00    -0.073 A 
ATOM      7  C8  UNL d   1       1.842  -3.924   1.390  0.00  0.00     0.078 C 
ENDROOT
BRANCH   1   8
ATOM      8  C1  UNL d   1       2.562  -0.996   1.236  0.00  0.00     0.053 C 
ATOM      9  C   UNL d   1       2.639   0.356   1.928  0.00  0.00     0.018 C 
ENDBRANCH   1   8
TORSDOF 1
ENDMDL
