MODEL 1
REMARK minimizedAffinity -3.48861408
REMARK minimizedRMSD -1
REMARK  1 active torsions:
REMARK  status: ('A' for Active; 'I' for Inactive)
REMARK    1  A    between atoms: C1_2  and  C2_3 
ROOT
ATOM      1  C2  UNL d   1       0.077   0.273   0.104  0.00  0.00    -0.076 A 
ATOM      2  C3  UNL d   1      -0.843   1.154  -0.489  0.00  0.00     0.004 A 
ATOM      3  C4  UNL d   1      -1.563   2.065   0.281  0.00  0.00    -0.003 A 
ATOM      4  C5  UNL d   1      -1.374   2.111   1.658  0.00  0.00     0.000 A 
ATOM      5  C6  UNL d   1      -0.452   1.256   2.261  0.00  0.00     0.000 A 
ATOM      6  C7  UNL d   1       0.294   0.343   1.497  0.00  0.00    -0.073 A 
ATOM      7  C8  UNL d   1       1.270  -0.560   2.201  0.00  0.00     0.078 C 
ENDROOT
BRANCH   1   8
ATOM      8  C1  UNL d   1       0.809  -0.713  -0.779  0.00  0.00     0.053 C 
ATOM      9  C   UNL d   1       0.069  -2.034  -0.915  0.00  0.00     0.018 C 
ENDBRANCH   1   8
TORSDOF 1
ENDMDL
