MODEL 1
REMARK minimizedAffinity -2.66511798
REMARK minimizedRMSD -1
REMARK  1 active torsions:
REMARK  status: ('A' for Active; 'I' for Inactive)
REMARK    1  A    between atoms: C1_2  and  C2_3 
ROOT
ATOM      1  C2  UNL d   1      -0.593   0.844  -0.678  0.00  0.00    -0.076 A 
ATOM      2  C3  UNL d   1       0.163  -0.250  -1.135  0.00  0.00     0.004 A 
ATOM      3  C4  UNL d   1       0.926  -1.013  -0.252  0.00  0.00    -0.003 A 
ATOM      4  C5  UNL d   1       0.944  -0.695   1.101  0.00  0.00     0.000 A 
ATOM      5  C6  UNL d   1       0.187   0.375   1.574  0.00  0.00     0.000 A 
ATOM      6  C7  UNL d   1      -0.600   1.145   0.700  0.00  0.00    -0.073 A 
ATOM      7  C8  UNL d   1      -1.393   2.292   1.264  0.00  0.00     0.078 C 
ENDROOT
BRANCH   1   8
ATOM      8  C1  UNL d   1      -1.379   1.652  -1.686  0.00  0.00     0.053 C 
ATOM      9  C   UNL d   1      -0.527   2.106  -2.861  0.00  0.00     0.018 C 
ENDBRANCH   1   8
TORSDOF 1
ENDMDL
