MODEL 1
REMARK minimizedAffinity -5.40980244
REMARK minimizedRMSD -1
REMARK  1 active torsions:
REMARK  status: ('A' for Active; 'I' for Inactive)
REMARK    1  A    between atoms: C1_2  and  C2_3 
ROOT
ATOM      1  C2  UNL d   1      -0.401  -1.432  -0.300  0.00  0.00    -0.076 A 
ATOM      2  C3  UNL d   1       0.714  -2.282  -0.405  0.00  0.00     0.004 A 
ATOM      3  C4  UNL d   1       0.557  -3.642  -0.666  0.00  0.00    -0.003 A 
ATOM      4  C5  UNL d   1      -0.717  -4.175  -0.828  0.00  0.00     0.000 A 
ATOM      5  C6  UNL d   1      -1.833  -3.343  -0.745  0.00  0.00     0.000 A 
ATOM      6  C7  UNL d   1      -1.692  -1.967  -0.498  0.00  0.00    -0.073 A 
ATOM      7  C8  UNL d   1      -2.931  -1.118  -0.413  0.00  0.00     0.078 C 
ENDROOT
BRANCH   1   8
ATOM      8  C1  UNL d   1      -0.171   0.029   0.012  0.00  0.00     0.053 C 
ATOM      9  C   UNL d   1      -0.007   0.288   1.501  0.00  0.00     0.018 C 
ENDBRANCH   1   8
TORSDOF 1
ENDMDL
