MODEL 1
REMARK minimizedAffinity -5.18195391
REMARK minimizedRMSD -1
REMARK  1 active torsions:
REMARK  status: ('A' for Active; 'I' for Inactive)
REMARK    1  A    between atoms: C1_2  and  C2_3 
ROOT
ATOM      1  C2  UNL d   1      -0.302   0.109  -0.101  0.00  0.00    -0.076 A 
ATOM      2  C3  UNL d   1      -1.475   0.778  -0.491  0.00  0.00     0.004 A 
ATOM      3  C4  UNL d   1      -2.104   1.682   0.363  0.00  0.00    -0.003 A 
ATOM      4  C5  UNL d   1      -1.568   1.934   1.621  0.00  0.00     0.000 A 
ATOM      5  C6  UNL d   1      -0.395   1.293   2.018  0.00  0.00     0.000 A 
ATOM      6  C7  UNL d   1       0.260   0.390   1.163  0.00  0.00    -0.073 A 
ATOM      7  C8  UNL d   1       1.518  -0.278   1.645  0.00  0.00     0.078 C 
ENDROOT
BRANCH   1   8
ATOM      8  C1  UNL d   1       0.320  -0.881  -1.059  0.00  0.00     0.053 C 
ATOM      9  C   UNL d   1      -0.466  -2.180  -1.146  0.00  0.00     0.018 C 
ENDBRANCH   1   8
TORSDOF 1
ENDMDL
