MODEL 1
REMARK minimizedAffinity -1.85100794
REMARK minimizedRMSD -1
REMARK  1 active torsions:
REMARK  status: ('A' for Active; 'I' for Inactive)
REMARK    1  A    between atoms: C1_2  and  C2_3 
ROOT
ATOM      1  C2  UNL d   1       0.249   0.038  -0.235  0.00  0.00    -0.076 A 
ATOM      2  C3  UNL d   1       0.835  -0.408   0.962  0.00  0.00     0.004 A 
ATOM      3  C4  UNL d   1       0.648   0.288   2.155  0.00  0.00    -0.003 A 
ATOM      4  C5  UNL d   1      -0.129   1.441   2.171  0.00  0.00     0.000 A 
ATOM      5  C6  UNL d   1      -0.732   1.888   0.996  0.00  0.00     0.000 A 
ATOM      6  C7  UNL d   1      -0.567   1.189  -0.212  0.00  0.00    -0.073 A 
ATOM      7  C8  UNL d   1      -1.236   1.720  -1.450  0.00  0.00     0.078 C 
ENDROOT
BRANCH   1   8
ATOM      8  C1  UNL d   1       0.510  -0.742  -1.504  0.00  0.00     0.053 C 
ATOM      9  C   UNL d   1       0.368  -2.243  -1.304  0.00  0.00     0.018 C 
ENDBRANCH   1   8
TORSDOF 1
ENDMDL
