MODEL 1
REMARK minimizedAffinity -3.94285798
REMARK minimizedRMSD -1
REMARK  1 active torsions:
REMARK  status: ('A' for Active; 'I' for Inactive)
REMARK    1  A    between atoms: C1_2  and  C2_3 
ROOT
ATOM      1  C2  UNL d   1      -0.001   0.612   1.061  0.00  0.00    -0.076 A 
ATOM      2  C3  UNL d   1      -0.163   1.659   1.985  0.00  0.00     0.004 A 
ATOM      3  C4  UNL d   1      -0.998   2.740   1.706  0.00  0.00    -0.003 A 
ATOM      4  C5  UNL d   1      -1.685   2.791   0.498  0.00  0.00     0.000 A 
ATOM      5  C6  UNL d   1      -1.550   1.752  -0.423  0.00  0.00     0.000 A 
ATOM      6  C7  UNL d   1      -0.725   0.648  -0.150  0.00  0.00    -0.073 A 
ATOM      7  C8  UNL d   1      -0.612  -0.441  -1.182  0.00  0.00     0.078 C 
ENDROOT
BRANCH   1   8
ATOM      8  C1  UNL d   1       0.939  -0.520   1.407  0.00  0.00     0.053 C 
ATOM      9  C   UNL d   1       0.786  -0.986   2.847  0.00  0.00     0.018 C 
ENDBRANCH   1   8
TORSDOF 1
ENDMDL
