MODEL 1
REMARK minimizedAffinity -2.89391041
REMARK minimizedRMSD -1
REMARK  1 active torsions:
REMARK  status: ('A' for Active; 'I' for Inactive)
REMARK    1  A    between atoms: C1_2  and  C2_3 
ROOT
ATOM      1  C2  UNL d   1       0.446   1.012  -1.508  0.00  0.00    -0.081 A 
ATOM      2  C3  UNL d   1       0.850   1.232  -0.186  0.00  0.00     0.006 A 
ATOM      3  C4  UNL d   1       0.851   0.185   0.739  0.00  0.00     0.002 A 
ATOM      4  C5  UNL d   1       0.456  -1.101   0.354  0.00  0.00    -0.080 A 
ATOM      5  C6  UNL d   1       0.481  -2.241   1.329  0.00  0.00     0.076 C 
ATOM      6  C7  UNL d   1       0.036  -1.318  -0.962  0.00  0.00     0.002 A 
ATOM      7  C8  UNL d   1       0.034  -0.271  -1.887  0.00  0.00     0.006 A 
ENDROOT
BRANCH   1   8
ATOM      8  C1  UNL d   1       0.506   2.124  -2.523  0.00  0.00     0.054 C 
ATOM      9  C   UNL d   1       1.391   1.750  -3.703  0.00  0.00     0.018 C 
ENDBRANCH   1   8
TORSDOF 1
ENDMDL
