MODEL 1
REMARK minimizedAffinity -3.86139441
REMARK minimizedRMSD -1
REMARK  1 active torsions:
REMARK  status: ('A' for Active; 'I' for Inactive)
REMARK    1  A    between atoms: C1_2  and  C2_3 
ROOT
ATOM      1  C2  UNL d   1       0.420   0.595   0.160  0.00  0.00    -0.081 A 
ATOM      2  C3  UNL d   1      -0.726   1.087   0.798  0.00  0.00     0.006 A 
ATOM      3  C4  UNL d   1      -1.462   0.271   1.659  0.00  0.00     0.002 A 
ATOM      4  C5  UNL d   1      -1.062  -1.047   1.904  0.00  0.00    -0.080 A 
ATOM      5  C6  UNL d   1      -1.826  -1.924   2.850  0.00  0.00     0.076 C 
ATOM      6  C7  UNL d   1       0.073  -1.544   1.254  0.00  0.00     0.002 A 
ATOM      7  C8  UNL d   1       0.809  -0.729   0.391  0.00  0.00     0.006 A 
ENDROOT
BRANCH   1   8
ATOM      8  C1  UNL d   1       1.253   1.493  -0.719  0.00  0.00     0.054 C 
ATOM      9  C   UNL d   1       0.783   1.442  -2.165  0.00  0.00     0.018 C 
ENDBRANCH   1   8
TORSDOF 1
ENDMDL
