MODEL 1
REMARK minimizedAffinity -1.32231808
REMARK minimizedRMSD -1
REMARK  1 active torsions:
REMARK  status: ('A' for Active; 'I' for Inactive)
REMARK    1  A    between atoms: C1_2  and  C2_3 
ROOT
ATOM      1  C2  UNL d   1      -0.121  -1.541   1.611  0.00  0.00    -0.081 A 
ATOM      2  C3  UNL d   1       1.231  -1.456   1.255  0.00  0.00     0.006 A 
ATOM      3  C4  UNL d   1       1.652  -0.541   0.288  0.00  0.00     0.002 A 
ATOM      4  C5  UNL d   1       0.732   0.310  -0.333  0.00  0.00    -0.080 A 
ATOM      5  C6  UNL d   1       1.175   1.319  -1.350  0.00  0.00     0.076 C 
ATOM      6  C7  UNL d   1      -0.621   0.214   0.010  0.00  0.00     0.002 A 
ATOM      7  C8  UNL d   1      -1.043  -0.702   0.977  0.00  0.00     0.006 A 
ENDROOT
BRANCH   1   8
ATOM      8  C1  UNL d   1      -0.569  -2.482   2.700  0.00  0.00     0.054 C 
ATOM      9  C   UNL d   1       0.509  -2.655   3.760  0.00  0.00     0.018 C 
ENDBRANCH   1   8
TORSDOF 1
ENDMDL
