MODEL 1
REMARK minimizedAffinity -4.26749754
REMARK minimizedRMSD -1
REMARK  1 active torsions:
REMARK  status: ('A' for Active; 'I' for Inactive)
REMARK    1  A    between atoms: C1_2  and  C2_3 
ROOT
ATOM      1  C2  UNL d   1       1.103   0.878  -0.688  0.00  0.00    -0.081 A 
ATOM      2  C3  UNL d   1       2.265   1.545  -1.096  0.00  0.00     0.006 A 
ATOM      3  C4  UNL d   1       2.330   2.153  -2.352  0.00  0.00     0.002 A 
ATOM      4  C5  UNL d   1       1.232   2.111  -3.218  0.00  0.00    -0.080 A 
ATOM      5  C6  UNL d   1       1.277   2.786  -4.556  0.00  0.00     0.076 C 
ATOM      6  C7  UNL d   1       0.077   1.430  -2.818  0.00  0.00     0.002 A 
ATOM      7  C8  UNL d   1       0.012   0.821  -1.563  0.00  0.00     0.006 A 
ENDROOT
BRANCH   1   8
ATOM      8  C1  UNL d   1       1.008   0.277   0.691  0.00  0.00     0.054 C 
ATOM      9  C   UNL d   1      -0.028  -0.836   0.738  0.00  0.00     0.018 C 
ENDBRANCH   1   8
TORSDOF 1
ENDMDL
