MODEL 1
REMARK minimizedAffinity -5.63566113
REMARK minimizedRMSD -1
REMARK  1 active torsions:
REMARK  status: ('A' for Active; 'I' for Inactive)
REMARK    1  A    between atoms: C1_2  and  C2_3 
ROOT
ATOM      1  C2  UNL d   1       0.578   0.226  -1.277  0.00  0.00    -0.081 A 
ATOM      2  C3  UNL d   1       0.646  -1.126  -1.634  0.00  0.00     0.006 A 
ATOM      3  C4  UNL d   1       0.138  -2.110  -0.782  0.00  0.00     0.002 A 
ATOM      4  C5  UNL d   1      -0.453  -1.758   0.436  0.00  0.00    -0.080 A 
ATOM      5  C6  UNL d   1      -1.030  -2.802   1.345  0.00  0.00     0.076 C 
ATOM      6  C7  UNL d   1      -0.505  -0.409   0.801  0.00  0.00     0.002 A 
ATOM      7  C8  UNL d   1       0.003   0.575  -0.050  0.00  0.00     0.006 A 
ENDROOT
BRANCH   1   8
ATOM      8  C1  UNL d   1       1.067   1.294  -2.222  0.00  0.00     0.054 C 
ATOM      9  C   UNL d   1       2.213   0.786  -3.085  0.00  0.00     0.018 C 
ENDBRANCH   1   8
TORSDOF 1
ENDMDL
