MODEL 1
REMARK minimizedAffinity -5.19091177
REMARK minimizedRMSD -1
REMARK  1 active torsions:
REMARK  status: ('A' for Active; 'I' for Inactive)
REMARK    1  A    between atoms: C1_2  and  C2_3 
ROOT
ATOM      1  C2  UNL d   1       0.509   0.462  -0.860  0.00  0.00    -0.081 A 
ATOM      2  C3  UNL d   1      -0.020   0.684   0.417  0.00  0.00     0.006 A 
ATOM      3  C4  UNL d   1      -0.819  -0.284   1.030  0.00  0.00     0.002 A 
ATOM      4  C5  UNL d   1      -1.095  -1.493   0.381  0.00  0.00    -0.080 A 
ATOM      5  C6  UNL d   1      -1.926  -2.553   1.041  0.00  0.00     0.076 C 
ATOM      6  C7  UNL d   1      -0.580  -1.707  -0.902  0.00  0.00     0.002 A 
ATOM      7  C8  UNL d   1       0.218  -0.740  -1.516  0.00  0.00     0.006 A 
ENDROOT
BRANCH   1   8
ATOM      8  C1  UNL d   1       1.424   1.476  -1.497  0.00  0.00     0.054 C 
ATOM      9  C   UNL d   1       2.276   0.844  -2.589  0.00  0.00     0.018 C 
ENDBRANCH   1   8
TORSDOF 1
ENDMDL
