MODEL 1
REMARK minimizedAffinity -4.5855298
REMARK minimizedRMSD -1
REMARK  1 active torsions:
REMARK  status: ('A' for Active; 'I' for Inactive)
REMARK    1  A    between atoms: C1_2  and  C2_3 
ROOT
ATOM      1  C2  UNL d   1      -1.163  -0.575   1.542  0.00  0.00    -0.081 A 
ATOM      2  C3  UNL d   1      -1.478   0.784   1.419  0.00  0.00     0.006 A 
ATOM      3  C4  UNL d   1      -0.745   1.606   0.560  0.00  0.00     0.002 A 
ATOM      4  C5  UNL d   1       0.309   1.083  -0.196  0.00  0.00    -0.080 A 
ATOM      5  C6  UNL d   1       1.084   1.948  -1.145  0.00  0.00     0.076 C 
ATOM      6  C7  UNL d   1       0.635  -0.271  -0.061  0.00  0.00     0.002 A 
ATOM      7  C8  UNL d   1      -0.097  -1.094   0.798  0.00  0.00     0.006 A 
ENDROOT
BRANCH   1   8
ATOM      8  C1  UNL d   1      -1.992  -1.478   2.418  0.00  0.00     0.054 C 
ATOM      9  C   UNL d   1      -2.341  -2.775   1.703  0.00  0.00     0.018 C 
ENDBRANCH   1   8
TORSDOF 1
ENDMDL
