MODEL 1
REMARK minimizedAffinity -1.31624079
REMARK minimizedRMSD -1
REMARK  1 active torsions:
REMARK  status: ('A' for Active; 'I' for Inactive)
REMARK    1  A    between atoms: C1_2  and  C2_3 
ROOT
ATOM      1  C2  UNL d   1      -0.135  -2.020   2.212  0.00  0.00    -0.081 A 
ATOM      2  C3  UNL d   1      -1.422  -2.426   1.840  0.00  0.00     0.006 A 
ATOM      3  C4  UNL d   1      -2.012  -1.932   0.674  0.00  0.00     0.002 A 
ATOM      4  C5  UNL d   1      -1.322  -1.030  -0.143  0.00  0.00    -0.080 A 
ATOM      5  C6  UNL d   1      -1.932  -0.515  -1.413  0.00  0.00     0.076 C 
ATOM      6  C7  UNL d   1      -0.043  -0.611   0.237  0.00  0.00     0.002 A 
ATOM      7  C8  UNL d   1       0.547  -1.104   1.403  0.00  0.00     0.006 A 
ENDROOT
BRANCH   1   8
ATOM      8  C1  UNL d   1       0.529  -2.601   3.434  0.00  0.00     0.054 C 
ATOM      9  C   UNL d   1      -0.283  -2.322   4.690  0.00  0.00     0.018 C 
ENDBRANCH   1   8
TORSDOF 1
ENDMDL
