MODEL 1
REMARK minimizedAffinity -3.45529079
REMARK minimizedRMSD -1
REMARK  1 active torsions:
REMARK  status: ('A' for Active; 'I' for Inactive)
REMARK    1  A    between atoms: C1_2  and  C2_3 
ROOT
ATOM      1  C2  UNL d   1       0.613   0.378  -0.622  0.00  0.00    -0.081 A 
ATOM      2  C3  UNL d   1       1.773  -0.159  -0.049  0.00  0.00     0.006 A 
ATOM      3  C4  UNL d   1       1.685  -1.158   0.923  0.00  0.00     0.002 A 
ATOM      4  C5  UNL d   1       0.438  -1.643   1.332  0.00  0.00    -0.080 A 
ATOM      5  C6  UNL d   1       0.330  -2.737   2.352  0.00  0.00     0.076 C 
ATOM      6  C7  UNL d   1      -0.721  -1.095   0.772  0.00  0.00     0.002 A 
ATOM      7  C8  UNL d   1      -0.634  -0.095  -0.199  0.00  0.00     0.006 A 
ENDROOT
BRANCH   1   8
ATOM      8  C1  UNL d   1       0.707   1.410  -1.717  0.00  0.00     0.054 C 
ATOM      9  C   UNL d   1       0.037   0.924  -2.994  0.00  0.00     0.018 C 
ENDBRANCH   1   8
TORSDOF 1
ENDMDL
