MODEL 1
REMARK minimizedAffinity -4.05548906
REMARK minimizedRMSD -1
REMARK  1 active torsions:
REMARK  status: ('A' for Active; 'I' for Inactive)
REMARK    1  A    between atoms: C1_2  and  C2_3 
ROOT
ATOM      1  C2  UNL d   1       0.287  -2.209   1.451  0.00  0.00    -0.081 A 
ATOM      2  C3  UNL d   1       1.465  -1.538   1.101  0.00  0.00     0.006 A 
ATOM      3  C4  UNL d   1       1.428  -0.454   0.222  0.00  0.00     0.002 A 
ATOM      4  C5  UNL d   1       0.212  -0.017  -0.316  0.00  0.00    -0.080 A 
ATOM      5  C6  UNL d   1       0.155   1.165  -1.237  0.00  0.00     0.076 C 
ATOM      6  C7  UNL d   1      -0.963  -0.697   0.021  0.00  0.00     0.002 A 
ATOM      7  C8  UNL d   1      -0.926  -1.783   0.899  0.00  0.00     0.006 A 
ENDROOT
BRANCH   1   8
ATOM      8  C1  UNL d   1       0.316  -3.338   2.449  0.00  0.00     0.054 C 
ATOM      9  C   UNL d   1       0.709  -2.843   3.834  0.00  0.00     0.018 C 
ENDBRANCH   1   8
TORSDOF 1
ENDMDL
