MODEL 1
REMARK minimizedAffinity -4.10052586
REMARK minimizedRMSD -1
REMARK  1 active torsions:
REMARK  status: ('A' for Active; 'I' for Inactive)
REMARK    1  A    between atoms: C1_2  and  C2_3 
ROOT
ATOM      1  C2  UNL d   1       0.489   0.063  -0.378  0.00  0.00    -0.081 A 
ATOM      2  C3  UNL d   1       0.038  -0.271  -1.661  0.00  0.00     0.006 A 
ATOM      3  C4  UNL d   1       0.053   0.678  -2.686  0.00  0.00     0.002 A 
ATOM      4  C5  UNL d   1       0.525   1.973  -2.447  0.00  0.00    -0.080 A 
ATOM      5  C6  UNL d   1       0.575   2.993  -3.546  0.00  0.00     0.076 C 
ATOM      6  C7  UNL d   1       0.960   2.312  -1.161  0.00  0.00     0.002 A 
ATOM      7  C8  UNL d   1       0.945   1.363  -0.136  0.00  0.00     0.006 A 
ENDROOT
BRANCH   1   8
ATOM      8  C1  UNL d   1       0.535  -0.977   0.713  0.00  0.00     0.054 C 
ATOM      9  C   UNL d   1       1.969  -1.323   1.087  0.00  0.00     0.018 C 
ENDBRANCH   1   8
TORSDOF 1
ENDMDL
