MODEL 1
REMARK minimizedAffinity -1.26785016
REMARK minimizedRMSD -1
REMARK  1 active torsions:
REMARK  status: ('A' for Active; 'I' for Inactive)
REMARK    1  A    between atoms: C1_2  and  C2_3 
ROOT
ATOM      1  C2  UNL d   1       0.181   0.928  -1.227  0.00  0.00    -0.081 A 
ATOM      2  C3  UNL d   1      -0.296   1.005   0.087  0.00  0.00     0.006 A 
ATOM      3  C4  UNL d   1      -0.273  -0.120   0.915  0.00  0.00     0.002 A 
ATOM      4  C5  UNL d   1       0.233  -1.337   0.446  0.00  0.00    -0.080 A 
ATOM      5  C6  UNL d   1       0.291  -2.544   1.335  0.00  0.00     0.076 C 
ATOM      6  C7  UNL d   1       0.694  -1.418  -0.872  0.00  0.00     0.002 A 
ATOM      7  C8  UNL d   1       0.671  -0.294  -1.701  0.00  0.00     0.006 A 
ENDROOT
BRANCH   1   8
ATOM      8  C1  UNL d   1       0.218   2.155  -2.101  0.00  0.00     0.054 C 
ATOM      9  C   UNL d   1       1.563   2.297  -2.800  0.00  0.00     0.018 C 
ENDBRANCH   1   8
TORSDOF 1
ENDMDL
