MODEL 1
REMARK minimizedAffinity -3.35971689
REMARK minimizedRMSD -1
REMARK  1 active torsions:
REMARK  status: ('A' for Active; 'I' for Inactive)
REMARK    1  A    between atoms: C1_2  and  C2_3 
ROOT
ATOM      1  C2  UNL d   1       0.816   0.470  -0.874  0.00  0.00    -0.081 A 
ATOM      2  C3  UNL d   1       1.239   0.400   0.459  0.00  0.00     0.006 A 
ATOM      3  C4  UNL d   1       1.026  -0.759   1.209  0.00  0.00     0.002 A 
ATOM      4  C5  UNL d   1       0.394  -1.868   0.638  0.00  0.00    -0.080 A 
ATOM      5  C6  UNL d   1       0.186  -3.129   1.423  0.00  0.00     0.076 C 
ATOM      6  C7  UNL d   1      -0.045  -1.792  -0.689  0.00  0.00     0.002 A 
ATOM      7  C8  UNL d   1       0.167  -0.633  -1.439  0.00  0.00     0.006 A 
ENDROOT
BRANCH   1   8
ATOM      8  C1  UNL d   1       1.102   1.695  -1.705  0.00  0.00     0.054 C 
ATOM      9  C   UNL d   1       2.534   1.692  -2.220  0.00  0.00     0.018 C 
ENDBRANCH   1   8
TORSDOF 1
ENDMDL
