MODEL 1
REMARK minimizedAffinity -3.82772446
REMARK minimizedRMSD -1
REMARK  1 active torsions:
REMARK  status: ('A' for Active; 'I' for Inactive)
REMARK    1  A    between atoms: C1_2  and  C2_3 
ROOT
ATOM      1  C2  UNL d   1       0.883   0.892  -0.727  0.00  0.00    -0.081 A 
ATOM      2  C3  UNL d   1       1.784   0.427   0.238  0.00  0.00     0.006 A 
ATOM      3  C4  UNL d   1       1.588  -0.814   0.850  0.00  0.00     0.002 A 
ATOM      4  C5  UNL d   1       0.493  -1.612   0.502  0.00  0.00    -0.080 A 
ATOM      5  C6  UNL d   1       0.287  -2.958   1.130  0.00  0.00     0.076 C 
ATOM      6  C7  UNL d   1      -0.417  -1.139  -0.449  0.00  0.00     0.002 A 
ATOM      7  C8  UNL d   1      -0.222   0.101  -1.061  0.00  0.00     0.006 A 
ENDROOT
BRANCH   1   8
ATOM      8  C1  UNL d   1       1.126   2.200  -1.436  0.00  0.00     0.054 C 
ATOM      9  C   UNL d   1       0.311   2.296  -2.717  0.00  0.00     0.018 C 
ENDBRANCH   1   8
TORSDOF 1
ENDMDL
