MODEL 1
REMARK minimizedAffinity -4.77135563
REMARK minimizedRMSD -1
REMARK  1 active torsions:
REMARK  status: ('A' for Active; 'I' for Inactive)
REMARK    1  A    between atoms: C1_2  and  C2_3 
ROOT
ATOM      1  C2  UNL d   1      -0.214  -1.477   0.674  0.00  0.00    -0.081 A 
ATOM      2  C3  UNL d   1       1.047  -1.587   0.074  0.00  0.00     0.006 A 
ATOM      3  C4  UNL d   1       1.550  -0.549  -0.714  0.00  0.00     0.002 A 
ATOM      4  C5  UNL d   1       0.805   0.619  -0.908  0.00  0.00    -0.080 A 
ATOM      5  C6  UNL d   1       1.346   1.754  -1.726  0.00  0.00     0.076 C 
ATOM      6  C7  UNL d   1      -0.462   0.722  -0.323  0.00  0.00     0.002 A 
ATOM      7  C8  UNL d   1      -0.966  -0.316   0.464  0.00  0.00     0.006 A 
ENDROOT
BRANCH   1   8
ATOM      8  C1  UNL d   1      -0.731  -2.568   1.576  0.00  0.00     0.054 C 
ATOM      9  C   UNL d   1       0.266  -2.893   2.679  0.00  0.00     0.018 C 
ENDBRANCH   1   8
TORSDOF 1
ENDMDL
