MODEL 1
REMARK minimizedAffinity -3.83870411
REMARK minimizedRMSD -1
REMARK  1 active torsions:
REMARK  status: ('A' for Active; 'I' for Inactive)
REMARK    1  A    between atoms: C1_2  and  C2_3 
ROOT
ATOM      1  C2  UNL d   1       0.487  -0.909  -0.069  0.00  0.00    -0.081 A 
ATOM      2  C3  UNL d   1       0.531   0.419   0.373  0.00  0.00     0.006 A 
ATOM      3  C4  UNL d   1       0.505   1.471  -0.545  0.00  0.00     0.002 A 
ATOM      4  C5  UNL d   1       0.427   1.214  -1.918  0.00  0.00    -0.080 A 
ATOM      5  C6  UNL d   1       0.368   2.335  -2.913  0.00  0.00     0.076 C 
ATOM      6  C7  UNL d   1       0.401  -0.113  -2.360  0.00  0.00     0.002 A 
ATOM      7  C8  UNL d   1       0.427  -1.166  -1.443  0.00  0.00     0.006 A 
ENDROOT
BRANCH   1   8
ATOM      8  C1  UNL d   1       0.449  -2.045   0.922  0.00  0.00     0.054 C 
ATOM      9  C   UNL d   1      -0.657  -1.848   1.948  0.00  0.00     0.018 C 
ENDBRANCH   1   8
TORSDOF 1
ENDMDL
