MODEL 1
REMARK minimizedAffinity -2.4413681
REMARK minimizedRMSD -1
REMARK  0 active torsions:
REMARK  status: ('A' for Active; 'I' for Inactive)
ROOT
ATOM      1  C4' PXY d   1       1.143   2.859   0.055  0.00  0.00     0.077 C 
ATOM      2  C1' PXY d   1      -1.137  -2.399   0.806  0.00  0.00     0.077 C 
ATOM      3  C1  PXY d   1      -0.540  -1.022   0.596  0.00  0.00    -0.082 A 
ATOM      4  C2  PXY d   1       0.246  -0.501   1.524  0.00  0.00     0.003 A 
ATOM      5  C3  PXY d   1       0.769   0.757   1.365  0.00  0.00     0.003 A 
ATOM      6  C4  PXY d   1       0.526   1.468   0.220  0.00  0.00    -0.082 A 
ATOM      7  C5  PXY d   1      -0.267   0.939  -0.736  0.00  0.00     0.003 A 
ATOM      8  C6  PXY d   1      -0.821  -0.322  -0.537  0.00  0.00     0.003 A 
ENDROOT
TORSDOF 0
ENDMDL
