MODEL 1
REMARK minimizedAffinity -2.30812597
REMARK minimizedRMSD -1
REMARK  0 active torsions:
REMARK  status: ('A' for Active; 'I' for Inactive)
ROOT
ATOM      1  C4' PXY d   1       1.669   3.092   0.252  0.00  0.00     0.077 C 
ATOM      2  C1' PXY d   1      -1.130  -1.717   1.818  0.00  0.00     0.077 C 
ATOM      3  C1  PXY d   1      -0.396  -0.460   1.395  0.00  0.00    -0.082 A 
ATOM      4  C2  PXY d   1       0.351   0.188   2.273  0.00  0.00     0.003 A 
ATOM      5  C3  PXY d   1       0.996   1.344   1.916  0.00  0.00     0.003 A 
ATOM      6  C4  PXY d   1       0.918   1.813   0.632  0.00  0.00    -0.082 A 
ATOM      7  C5  PXY d   1       0.165   1.152  -0.273  0.00  0.00     0.003 A 
ATOM      8  C6  PXY d   1      -0.515   0.003   0.121  0.00  0.00     0.003 A 
ENDROOT
TORSDOF 0
ENDMDL
