MODEL 1
REMARK minimizedAffinity -2.20557714
REMARK minimizedRMSD -1
REMARK  0 active torsions:
REMARK  status: ('A' for Active; 'I' for Inactive)
ROOT
ATOM      1  C4' PXY d   1       1.616   3.210   0.126  0.00  0.00     0.077 C 
ATOM      2  C1' PXY d   1      -1.111  -1.794   1.098  0.00  0.00     0.077 C 
ATOM      3  C1  PXY d   1      -0.399  -0.482   0.830  0.00  0.00    -0.082 A 
ATOM      4  C2  PXY d   1       0.556  -0.077   1.651  0.00  0.00     0.003 A 
ATOM      5  C3  PXY d   1       1.188   1.121   1.442  0.00  0.00     0.003 A 
ATOM      6  C4  PXY d   1       0.876   1.888   0.351  0.00  0.00    -0.082 A 
ATOM      7  C5  PXY d   1      -0.090   1.476  -0.497  0.00  0.00     0.003 A 
ATOM      8  C6  PXY d   1      -0.748   0.276  -0.244  0.00  0.00     0.003 A 
ENDROOT
TORSDOF 0
ENDMDL
