MODEL 1
REMARK minimizedAffinity -3.10795951
REMARK minimizedRMSD -1
REMARK  0 active torsions:
REMARK  status: ('A' for Active; 'I' for Inactive)
ROOT
ATOM      1  C4' PXY d   1       1.963   3.062   0.164  0.00  0.00     0.077 C 
ATOM      2  C1' PXY d   1      -1.109  -1.778   0.909  0.00  0.00     0.077 C 
ATOM      3  C1  PXY d   1      -0.309  -0.507   0.702  0.00  0.00    -0.082 A 
ATOM      4  C2  PXY d   1       0.817  -0.326   1.373  0.00  0.00     0.003 A 
ATOM      5  C3  PXY d   1       1.537   0.831   1.222  0.00  0.00     0.003 A 
ATOM      6  C4  PXY d   1       1.128   1.790   0.335  0.00  0.00    -0.082 A 
ATOM      7  C5  PXY d   1      -0.014   1.609  -0.362  0.00  0.00     0.003 A 
ATOM      8  C6  PXY d   1      -0.752   0.445  -0.163  0.00  0.00     0.003 A 
ENDROOT
TORSDOF 0
ENDMDL
