MODEL 1
REMARK minimizedAffinity -1.32271349
REMARK minimizedRMSD -1
REMARK  0 active torsions:
REMARK  status: ('A' for Active; 'I' for Inactive)
ROOT
ATOM      1  C4' PXY d   1       1.625   3.180   0.015  0.00  0.00     0.077 C 
ATOM      2  C1' PXY d   1      -1.324  -1.713   0.899  0.00  0.00     0.077 C 
ATOM      3  C1  PXY d   1      -0.549  -0.433   0.655  0.00  0.00    -0.082 A 
ATOM      4  C2  PXY d   1       0.017   0.193   1.673  0.00  0.00     0.003 A 
ATOM      5  C3  PXY d   1       0.695   1.369   1.475  0.00  0.00     0.003 A 
ATOM      6  C4  PXY d   1       0.840   1.880   0.213  0.00  0.00    -0.082 A 
ATOM      7  C5  PXY d   1       0.275   1.241  -0.833  0.00  0.00     0.003 A 
ATOM      8  C6  PXY d   1      -0.444   0.071  -0.605  0.00  0.00     0.003 A 
ENDROOT
TORSDOF 0
ENDMDL
