MODEL 1
REMARK minimizedAffinity -4.6421504
REMARK minimizedRMSD -1
REMARK  0 active torsions:
REMARK  status: ('A' for Active; 'I' for Inactive)
ROOT
ATOM      1  C4' PXY d   1      -0.757  -1.734   0.357  0.00  0.00     0.077 C 
ATOM      2  C1' PXY d   1       1.910   3.389   0.584  0.00  0.00     0.077 C 
ATOM      3  C1  PXY d   1       1.222   2.039   0.526  0.00  0.00    -0.082 A 
ATOM      4  C2  PXY d   1       0.058   1.925  -0.092  0.00  0.00     0.003 A 
ATOM      5  C3  PXY d   1      -0.594   0.719  -0.126  0.00  0.00     0.003 A 
ATOM      6  C4  PXY d   1      -0.022  -0.393   0.432  0.00  0.00    -0.082 A 
ATOM      7  C5  PXY d   1       1.171  -0.287   1.056  0.00  0.00     0.003 A 
ATOM      8  C6  PXY d   1       1.796   0.955   1.115  0.00  0.00     0.003 A 
ENDROOT
TORSDOF 0
ENDMDL
