MODEL 1
REMARK minimizedAffinity -5.08869362
REMARK minimizedRMSD -1
REMARK  0 active torsions:
REMARK  status: ('A' for Active; 'I' for Inactive)
ROOT
ATOM      1  C4' PXY d   1       1.970   3.797  -0.106  0.00  0.00     0.077 C 
ATOM      2  C1' PXY d   1      -0.833  -1.217   0.543  0.00  0.00     0.077 C 
ATOM      3  C1  PXY d   1      -0.105   0.101   0.362  0.00  0.00    -0.082 A 
ATOM      4  C2  PXY d   1       1.118   0.244   0.846  0.00  0.00     0.003 A 
ATOM      5  C3  PXY d   1       1.778   1.440   0.720  0.00  0.00     0.003 A 
ATOM      6  C4  PXY d   1       1.201   2.481   0.045  0.00  0.00    -0.082 A 
ATOM      7  C5  PXY d   1      -0.042   2.339  -0.462  0.00  0.00     0.003 A 
ATOM      8  C6  PXY d   1      -0.712   1.132  -0.287  0.00  0.00     0.003 A 
ENDROOT
TORSDOF 0
ENDMDL
