MODEL 1
REMARK minimizedAffinity -2.87571335
REMARK minimizedRMSD -1
REMARK  0 active torsions:
REMARK  status: ('A' for Active; 'I' for Inactive)
ROOT
ATOM      1  C4' PXY d   1       0.232   2.987   0.541  0.00  0.00     0.077 C 
ATOM      2  C1' PXY d   1      -0.762  -2.676  -0.051  0.00  0.00     0.077 C 
ATOM      3  C1  PXY d   1      -0.495  -1.191   0.093  0.00  0.00    -0.082 A 
ATOM      4  C2  PXY d   1      -0.484  -0.642   1.296  0.00  0.00     0.003 A 
ATOM      5  C3  PXY d   1      -0.276   0.705   1.442  0.00  0.00     0.003 A 
ATOM      6  C4  PXY d   1      -0.024   1.490   0.349  0.00  0.00    -0.082 A 
ATOM      7  C5  PXY d   1      -0.023   0.935  -0.882  0.00  0.00     0.003 A 
ATOM      8  C6  PXY d   1      -0.277  -0.427  -1.012  0.00  0.00     0.003 A 
ENDROOT
TORSDOF 0
ENDMDL
