MODEL 1
REMARK minimizedAffinity -4.19002247
REMARK minimizedRMSD -1
REMARK  0 active torsions:
REMARK  status: ('A' for Active; 'I' for Inactive)
ROOT
ATOM      1  C4' PXY d   1      -0.905  -1.730   0.277  0.00  0.00     0.077 C 
ATOM      2  C1' PXY d   1       1.619   3.414   1.047  0.00  0.00     0.077 C 
ATOM      3  C1  PXY d   1       0.946   2.071   0.840  0.00  0.00    -0.082 A 
ATOM      4  C2  PXY d   1       1.325   1.031   1.566  0.00  0.00     0.003 A 
ATOM      5  C3  PXY d   1       0.749  -0.198   1.370  0.00  0.00     0.003 A 
ATOM      6  C4  PXY d   1      -0.260  -0.353   0.458  0.00  0.00    -0.082 A 
ATOM      7  C5  PXY d   1      -0.659   0.705  -0.279  0.00  0.00     0.003 A 
ATOM      8  C6  PXY d   1      -0.034   1.935  -0.094  0.00  0.00     0.003 A 
ENDROOT
TORSDOF 0
ENDMDL
