MODEL 1
REMARK minimizedAffinity -4.69620991
REMARK minimizedRMSD -1
REMARK  0 active torsions:
REMARK  status: ('A' for Active; 'I' for Inactive)
ROOT
ATOM      1  C4' PXY d   1       1.526   3.027   0.759  0.00  0.00     0.077 C 
ATOM      2  C1' PXY d   1      -0.876  -2.228   0.909  0.00  0.00     0.077 C 
ATOM      3  C1  PXY d   1      -0.246  -0.850   0.857  0.00  0.00    -0.082 A 
ATOM      4  C2  PXY d   1       0.460  -0.414   1.887  0.00  0.00     0.003 A 
ATOM      5  C3  PXY d   1       1.009   0.842   1.870  0.00  0.00     0.003 A 
ATOM      6  C4  PXY d   1       0.880   1.639   0.764  0.00  0.00    -0.082 A 
ATOM      7  C5  PXY d   1       0.170   1.197  -0.296  0.00  0.00     0.003 A 
ATOM      8  C6  PXY d   1      -0.415  -0.065  -0.241  0.00  0.00     0.003 A 
ENDROOT
TORSDOF 0
ENDMDL
