MODEL 1
REMARK minimizedAffinity -4.45164871
REMARK minimizedRMSD -1
REMARK  0 active torsions:
REMARK  status: ('A' for Active; 'I' for Inactive)
ROOT
ATOM      1  C4' PXY d   1       1.332   3.269   0.415  0.00  0.00     0.077 C 
ATOM      2  C1' PXY d   1      -1.179  -1.888   1.133  0.00  0.00     0.077 C 
ATOM      3  C1  PXY d   1      -0.521  -0.537   0.931  0.00  0.00    -0.082 A 
ATOM      4  C2  PXY d   1       0.281  -0.054   1.866  0.00  0.00     0.003 A 
ATOM      5  C3  PXY d   1       0.859   1.180   1.715  0.00  0.00     0.003 A 
ATOM      6  C4  PXY d   1       0.654   1.905   0.571  0.00  0.00    -0.082 A 
ATOM      7  C5  PXY d   1      -0.155   1.415  -0.391  0.00  0.00     0.003 A 
ATOM      8  C6  PXY d   1      -0.764   0.178  -0.201  0.00  0.00     0.003 A 
ENDROOT
TORSDOF 0
ENDMDL
