MODEL 1
REMARK minimizedAffinity -5.0642004
REMARK minimizedRMSD -1
REMARK  0 active torsions:
REMARK  status: ('A' for Active; 'I' for Inactive)
ROOT
ATOM      1  C4' PXY d   1       1.619   2.932   0.898  0.00  0.00     0.077 C 
ATOM      2  C1' PXY d   1      -1.189  -2.112   0.602  0.00  0.00     0.077 C 
ATOM      3  C1  PXY d   1      -0.450  -0.792   0.692  0.00  0.00    -0.082 A 
ATOM      4  C2  PXY d   1      -0.716   0.167  -0.179  0.00  0.00     0.003 A 
ATOM      5  C3  PXY d   1      -0.034   1.356  -0.132  0.00  0.00     0.003 A 
ATOM      6  C4  PXY d   1       0.891   1.586   0.851  0.00  0.00    -0.082 A 
ATOM      7  C5  PXY d   1       1.160   0.616   1.751  0.00  0.00     0.003 A 
ATOM      8  C6  PXY d   1       0.487  -0.599   1.660  0.00  0.00     0.003 A 
ENDROOT
TORSDOF 0
ENDMDL
