MODEL 1
REMARK minimizedAffinity -1.98305142
REMARK minimizedRMSD -1
REMARK  0 active torsions:
REMARK  status: ('A' for Active; 'I' for Inactive)
ROOT
ATOM      1  C4' PXY d   1       1.089   2.797   0.463  0.00  0.00     0.077 C 
ATOM      2  C1' PXY d   1      -1.556  -2.343   0.558  0.00  0.00     0.077 C 
ATOM      3  C1  PXY d   1      -0.873  -0.989   0.529  0.00  0.00    -0.082 A 
ATOM      4  C2  PXY d   1       0.446  -0.924   0.443  0.00  0.00     0.003 A 
ATOM      5  C3  PXY d   1       1.081   0.291   0.447  0.00  0.00     0.003 A 
ATOM      6  C4  PXY d   1       0.356   1.452   0.486  0.00  0.00    -0.082 A 
ATOM      7  C5  PXY d   1      -0.990   1.394   0.563  0.00  0.00     0.003 A 
ATOM      8  C6  PXY d   1      -1.614   0.150   0.599  0.00  0.00     0.003 A 
ENDROOT
TORSDOF 0
ENDMDL
