MODEL 1
REMARK minimizedAffinity -3.29686642
REMARK minimizedRMSD -1
REMARK  0 active torsions:
REMARK  status: ('A' for Active; 'I' for Inactive)
ROOT
ATOM      1  C4' PXY d   1       2.009   3.192   0.193  0.00  0.00     0.077 C 
ATOM      2  C1' PXY d   1      -1.751  -1.169   0.694  0.00  0.00     0.077 C 
ATOM      3  C1  PXY d   1      -0.772  -0.020   0.553  0.00  0.00    -0.082 A 
ATOM      4  C2  PXY d   1       0.473  -0.166   0.976  0.00  0.00     0.003 A 
ATOM      5  C3  PXY d   1       1.363   0.873   0.885  0.00  0.00     0.003 A 
ATOM      6  C4  PXY d   1       0.989   2.056   0.307  0.00  0.00    -0.082 A 
ATOM      7  C5  PXY d   1      -0.276   2.209  -0.137  0.00  0.00     0.003 A 
ATOM      8  C6  PXY d   1      -1.176   1.156   0.002  0.00  0.00     0.003 A 
ENDROOT
TORSDOF 0
ENDMDL
