MODEL 1
REMARK minimizedAffinity -0.13956058
REMARK minimizedRMSD -1
REMARK  0 active torsions:
REMARK  status: ('A' for Active; 'I' for Inactive)
ROOT
ATOM      1  C4' PXY d   1      -0.649  -2.848  -2.653  0.00  0.00     0.077 C 
ATOM      2  C1' PXY d   1      -0.875  -0.348   2.554  0.00  0.00     0.077 C 
ATOM      3  C1  PXY d   1      -0.814  -1.015   1.195  0.00  0.00    -0.082 A 
ATOM      4  C2  PXY d   1      -0.463  -0.307   0.134  0.00  0.00     0.003 A 
ATOM      5  C3  PXY d   1      -0.434  -0.887  -1.109  0.00  0.00     0.003 A 
ATOM      6  C4  PXY d   1      -0.715  -2.218  -1.259  0.00  0.00    -0.082 A 
ATOM      7  C5  PXY d   1      -1.064  -2.950  -0.179  0.00  0.00     0.003 A 
ATOM      8  C6  PXY d   1      -1.127  -2.333   1.067  0.00  0.00     0.003 A 
ENDROOT
TORSDOF 0
ENDMDL
