MODEL 1
REMARK minimizedAffinity -4.44647503
REMARK minimizedRMSD -1
REMARK  0 active torsions:
REMARK  status: ('A' for Active; 'I' for Inactive)
ROOT
ATOM      1  C4' PXY d   1       1.265   2.612   0.108  0.00  0.00     0.077 C 
ATOM      2  C1' PXY d   1      -1.018  -2.626   0.978  0.00  0.00     0.077 C 
ATOM      3  C1  PXY d   1      -0.421  -1.254   0.737  0.00  0.00    -0.082 A 
ATOM      4  C2  PXY d   1       0.403  -0.733   1.632  0.00  0.00     0.003 A 
ATOM      5  C3  PXY d   1       0.926   0.521   1.445  0.00  0.00     0.003 A 
ATOM      6  C4  PXY d   1       0.646   1.226   0.305  0.00  0.00    -0.082 A 
ATOM      7  C5  PXY d   1      -0.185   0.696  -0.617  0.00  0.00     0.003 A 
ATOM      8  C6  PXY d   1      -0.739  -0.560  -0.389  0.00  0.00     0.003 A 
ENDROOT
TORSDOF 0
ENDMDL
