MODEL 1
REMARK minimizedAffinity -2.30078912
REMARK minimizedRMSD -1
REMARK  0 active torsions:
REMARK  status: ('A' for Active; 'I' for Inactive)
ROOT
ATOM      1  C4' PXY d   1      -0.047  -1.869  -2.869  0.00  0.00     0.077 C 
ATOM      2  C1' PXY d   1      -1.250  -0.710   2.665  0.00  0.00     0.077 C 
ATOM      3  C1  PXY d   1      -0.934  -1.026   1.217  0.00  0.00    -0.082 A 
ATOM      4  C2  PXY d   1      -0.450  -0.078   0.430  0.00  0.00     0.003 A 
ATOM      5  C3  PXY d   1      -0.188  -0.339  -0.890  0.00  0.00     0.003 A 
ATOM      6  C4  PXY d   1      -0.373  -1.597  -1.398  0.00  0.00    -0.082 A 
ATOM      7  C5  PXY d   1      -0.856  -2.572  -0.599  0.00  0.00     0.003 A 
ATOM      8  C6  PXY d   1      -1.155  -2.277   0.728  0.00  0.00     0.003 A 
ENDROOT
TORSDOF 0
ENDMDL
