MODEL 1
REMARK minimizedAffinity -4.98830652
REMARK minimizedRMSD -1
REMARK  0 active torsions:
REMARK  status: ('A' for Active; 'I' for Inactive)
ROOT
ATOM      1  C4' PXY d   1       1.574   3.228   0.162  0.00  0.00     0.077 C 
ATOM      2  C1' PXY d   1      -1.053  -1.902   0.596  0.00  0.00     0.077 C 
ATOM      3  C1  PXY d   1      -0.367  -0.557   0.470  0.00  0.00    -0.082 A 
ATOM      4  C2  PXY d   1       0.515  -0.184   1.383  0.00  0.00     0.003 A 
ATOM      5  C3  PXY d   1       1.121   1.043   1.302  0.00  0.00     0.003 A 
ATOM      6  C4  PXY d   1       0.863   1.875   0.245  0.00  0.00    -0.082 A 
ATOM      7  C5  PXY d   1      -0.026   1.497  -0.697  0.00  0.00     0.003 A 
ATOM      8  C6  PXY d   1      -0.662   0.265  -0.574  0.00  0.00     0.003 A 
ENDROOT
TORSDOF 0
ENDMDL
