MODEL 1
REMARK minimizedAffinity 11.1498547
REMARK minimizedRMSD -1
REMARK  0 active torsions:
REMARK  status: ('A' for Active; 'I' for Inactive)
ROOT
ATOM      1  C   UNL d   1       2.175   2.504  -2.959  0.00  0.00     0.023 A 
ATOM      2  C1  UNL d   1       2.845   2.175  -4.138  0.00  0.00     0.003 A 
ATOM      3  C2  UNL d   1       3.942   2.932  -4.553  0.00  0.00     0.048 A 
ATOM      4  C3  UNL d   1       4.366   4.016  -3.784  0.00  0.00     0.023 A 
ATOM      5  C4  UNL d   1       3.699   4.347  -2.603  0.00  0.00     0.048 A 
ATOM      6  C5  UNL d   1       2.602   3.588  -2.192  0.00  0.00     0.003 A 
ATOM      7  I   UNL d   1       5.999   5.144  -4.400  0.00  0.00    -0.146 I 
ENDROOT
TORSDOF 0
ENDMDL
