MODEL 1
REMARK minimizedAffinity 3.91310143
REMARK minimizedRMSD -1
REMARK  0 active torsions:
REMARK  status: ('A' for Active; 'I' for Inactive)
ROOT
ATOM      1  C   UNL d   1       0.509  -5.006  -3.751  0.00  0.00     0.023 A 
ATOM      2  C1  UNL d   1      -0.701  -4.642  -3.160  0.00  0.00     0.003 A 
ATOM      3  C2  UNL d   1      -1.907  -4.925  -3.805  0.00  0.00     0.048 A 
ATOM      4  C3  UNL d   1      -1.896  -5.574  -5.039  0.00  0.00     0.023 A 
ATOM      5  C4  UNL d   1      -0.687  -5.941  -5.633  0.00  0.00     0.048 A 
ATOM      6  C5  UNL d   1       0.516  -5.654  -4.986  0.00  0.00     0.003 A 
ATOM      7  I   UNL d   1      -3.689  -5.997  -6.000  0.00  0.00    -0.146 I 
ENDROOT
TORSDOF 0
ENDMDL
