MODEL 1
REMARK minimizedAffinity 1.24015749
REMARK minimizedRMSD -1
REMARK  0 active torsions:
REMARK  status: ('A' for Active; 'I' for Inactive)
ROOT
ATOM      1  C   UNL d   1       0.237  -5.258  -4.141  0.00  0.00     0.023 A 
ATOM      2  C1  UNL d   1      -0.833  -4.952  -3.299  0.00  0.00     0.003 A 
ATOM      3  C2  UNL d   1      -2.144  -5.163  -3.730  0.00  0.00     0.048 A 
ATOM      4  C3  UNL d   1      -2.379  -5.680  -5.004  0.00  0.00     0.023 A 
ATOM      5  C4  UNL d   1      -1.312  -5.988  -5.849  0.00  0.00     0.048 A 
ATOM      6  C5  UNL d   1      -0.002  -5.775  -5.414  0.00  0.00     0.003 A 
ATOM      7  I   UNL d   1      -4.330  -5.994  -5.647  0.00  0.00    -0.146 I 
ENDROOT
TORSDOF 0
ENDMDL
