MODEL 1
REMARK minimizedAffinity 10.5940742
REMARK minimizedRMSD -1
REMARK  0 active torsions:
REMARK  status: ('A' for Active; 'I' for Inactive)
ROOT
ATOM      1  C   UNL d   1       6.000   4.416   0.487  0.00  0.00     0.023 A 
ATOM      2  C1  UNL d   1       5.351   4.245   1.710  0.00  0.00     0.003 A 
ATOM      3  C2  UNL d   1       4.700   3.043   1.995  0.00  0.00     0.048 A 
ATOM      4  C3  UNL d   1       4.703   2.015   1.052  0.00  0.00     0.023 A 
ATOM      5  C4  UNL d   1       5.351   2.181  -0.173  0.00  0.00     0.048 A 
ATOM      6  C5  UNL d   1       6.000   3.385  -0.453  0.00  0.00     0.003 A 
ATOM      7  I   UNL d   1       3.735   0.225   1.474  0.00  0.00    -0.146 I 
ENDROOT
TORSDOF 0
ENDMDL
