MODEL 1
REMARK minimizedAffinity 12.9668007
REMARK minimizedRMSD -1
REMARK  0 active torsions:
REMARK  status: ('A' for Active; 'I' for Inactive)
ROOT
ATOM      1  C   UNL d   1       2.097   1.500  -1.058  0.00  0.00     0.023 A 
ATOM      2  C1  UNL d   1       2.293   1.388   0.319  0.00  0.00     0.003 A 
ATOM      3  C2  UNL d   1       3.312   2.111   0.942  0.00  0.00     0.048 A 
ATOM      4  C3  UNL d   1       4.132   2.945   0.182  0.00  0.00     0.023 A 
ATOM      5  C4  UNL d   1       3.940   3.061  -1.196  0.00  0.00     0.048 A 
ATOM      6  C5  UNL d   1       2.920   2.335  -1.814  0.00  0.00     0.003 A 
ATOM      7  I   UNL d   1       5.650   4.022   1.107  0.00  0.00    -0.146 I 
ENDROOT
TORSDOF 0
ENDMDL
