MODEL 1
REMARK minimizedAffinity 13.6866932
REMARK minimizedRMSD -1
REMARK  0 active torsions:
REMARK  status: ('A' for Active; 'I' for Inactive)
ROOT
ATOM      1  C   UNL d   1      -1.858  -2.852  -2.293  0.00  0.00     0.023 A 
ATOM      2  C1  UNL d   1      -3.029  -3.010  -3.035  0.00  0.00     0.003 A 
ATOM      3  C2  UNL d   1      -3.065  -3.913  -4.100  0.00  0.00     0.048 A 
ATOM      4  C3  UNL d   1      -1.928  -4.655  -4.416  0.00  0.00     0.023 A 
ATOM      5  C4  UNL d   1      -0.755  -4.501  -3.676  0.00  0.00     0.048 A 
ATOM      6  C5  UNL d   1      -0.723  -3.596  -2.613  0.00  0.00     0.003 A 
ATOM      7  I   UNL d   1      -1.979  -6.000  -6.000  0.00  0.00    -0.146 I 
ENDROOT
TORSDOF 0
ENDMDL
