MODEL 1
REMARK minimizedAffinity 1.82105541
REMARK minimizedRMSD -1
REMARK  0 active torsions:
REMARK  status: ('A' for Active; 'I' for Inactive)
ROOT
ATOM      1  C   UNL d   1      -2.622  -0.730   1.537  0.00  0.00     0.023 A 
ATOM      2  C1  UNL d   1      -3.940  -0.327   1.320  0.00  0.00     0.003 A 
ATOM      3  C2  UNL d   1      -4.566   0.534   2.224  0.00  0.00     0.048 A 
ATOM      4  C3  UNL d   1      -3.868   0.990   3.341  0.00  0.00     0.023 A 
ATOM      5  C4  UNL d   1      -2.549   0.590   3.562  0.00  0.00     0.048 A 
ATOM      6  C5  UNL d   1      -1.927  -0.272   2.656  0.00  0.00     0.003 A 
ATOM      7  I   UNL d   1      -4.797   2.272   4.687  0.00  0.00    -0.146 I 
ENDROOT
TORSDOF 0
ENDMDL
