MODEL 1
REMARK minimizedAffinity 13.3800201
REMARK minimizedRMSD -1
REMARK  0 active torsions:
REMARK  status: ('A' for Active; 'I' for Inactive)
ROOT
ATOM      1  C   UNL d   1       3.306   0.932  -0.496  0.00  0.00     0.023 A 
ATOM      2  C1  UNL d   1       2.714   1.296   0.713  0.00  0.00     0.003 A 
ATOM      3  C2  UNL d   1       3.380   2.159   1.586  0.00  0.00     0.048 A 
ATOM      4  C3  UNL d   1       4.636   2.656   1.242  0.00  0.00     0.023 A 
ATOM      5  C4  UNL d   1       5.232   2.295   0.032  0.00  0.00     0.048 A 
ATOM      6  C5  UNL d   1       4.563   1.431  -0.837  0.00  0.00     0.003 A 
ATOM      7  I   UNL d   1       5.629   3.942   2.538  0.00  0.00    -0.146 I 
ENDROOT
TORSDOF 0
ENDMDL
