MODEL 1
REMARK minimizedAffinity 17.9193115
REMARK minimizedRMSD -1
REMARK  0 active torsions:
REMARK  status: ('A' for Active; 'I' for Inactive)
ROOT
ATOM      1  C   UNL d   1       1.777   3.992  -2.032  0.00  0.00     0.023 A 
ATOM      2  C1  UNL d   1       1.778   3.174  -3.161  0.00  0.00     0.003 A 
ATOM      3  C2  UNL d   1       0.835   3.374  -4.171  0.00  0.00     0.048 A 
ATOM      4  C3  UNL d   1      -0.105   4.396  -4.046  0.00  0.00     0.023 A 
ATOM      5  C4  UNL d   1      -0.110   5.218  -2.918  0.00  0.00     0.048 A 
ATOM      6  C5  UNL d   1       0.834   5.013  -1.910  0.00  0.00     0.003 A 
ATOM      7  I   UNL d   1      -1.510   4.697  -5.548  0.00  0.00    -0.146 I 
ENDROOT
TORSDOF 0
ENDMDL
