MODEL 1
REMARK minimizedAffinity 9.68248749
REMARK minimizedRMSD -1
REMARK  0 active torsions:
REMARK  status: ('A' for Active; 'I' for Inactive)
ROOT
ATOM      1  C   UNL d   1       3.880   3.508  -5.220  0.00  0.00     0.023 A 
ATOM      2  C1  UNL d   1       5.075   4.215  -5.084  0.00  0.00     0.003 A 
ATOM      3  C2  UNL d   1       5.336   4.929  -3.913  0.00  0.00     0.048 A 
ATOM      4  C3  UNL d   1       4.399   4.932  -2.881  0.00  0.00     0.023 A 
ATOM      5  C4  UNL d   1       3.202   4.225  -3.012  0.00  0.00     0.048 A 
ATOM      6  C5  UNL d   1       2.945   3.513  -4.185  0.00  0.00     0.003 A 
ATOM      7  I   UNL d   1       4.786   5.994  -1.137  0.00  0.00    -0.146 I 
ENDROOT
TORSDOF 0
ENDMDL
