MODEL 1
REMARK minimizedAffinity 14.3568649
REMARK minimizedRMSD -1
REMARK  0 active torsions:
REMARK  status: ('A' for Active; 'I' for Inactive)
ROOT
ATOM      1  C   UNL d   1       3.273   2.891  -4.676  0.00  0.00     0.023 A 
ATOM      2  C1  UNL d   1       4.549   3.412  -4.894  0.00  0.00     0.003 A 
ATOM      3  C2  UNL d   1       5.192   4.130  -3.884  0.00  0.00     0.048 A 
ATOM      4  C3  UNL d   1       4.555   4.323  -2.659  0.00  0.00     0.023 A 
ATOM      5  C4  UNL d   1       3.278   3.803  -2.437  0.00  0.00     0.048 A 
ATOM      6  C5  UNL d   1       2.638   3.087  -3.449  0.00  0.00     0.003 A 
ATOM      7  I   UNL d   1       5.511   5.392  -1.154  0.00  0.00    -0.146 I 
ENDROOT
TORSDOF 0
ENDMDL
