MODEL 1
REMARK minimizedAffinity 18.9617882
REMARK minimizedRMSD -1
REMARK  0 active torsions:
REMARK  status: ('A' for Active; 'I' for Inactive)
ROOT
ATOM      1  C   UNL d   1      -2.543  -0.396   1.889  0.00  0.00     0.023 A 
ATOM      2  C1  UNL d   1      -2.010  -1.527   1.271  0.00  0.00     0.003 A 
ATOM      3  C2  UNL d   1      -0.829  -2.096   1.752  0.00  0.00     0.048 A 
ATOM      4  C3  UNL d   1      -0.187  -1.529   2.852  0.00  0.00     0.023 A 
ATOM      5  C4  UNL d   1      -0.716  -0.398   3.474  0.00  0.00     0.048 A 
ATOM      6  C5  UNL d   1      -1.897   0.168   2.989  0.00  0.00     0.003 A 
ATOM      7  I   UNL d   1       1.571  -2.375   3.570  0.00  0.00    -0.146 I 
ENDROOT
TORSDOF 0
ENDMDL
