MODEL 1
REMARK minimizedAffinity 17.0838566
REMARK minimizedRMSD -1
REMARK  0 active torsions:
REMARK  status: ('A' for Active; 'I' for Inactive)
ROOT
ATOM      1  C   UNL d   1      -0.442  -0.994   3.381  0.00  0.00     0.023 A 
ATOM      2  C1  UNL d   1      -1.255   0.081   3.742  0.00  0.00     0.003 A 
ATOM      3  C2  UNL d   1      -2.319   0.459   2.921  0.00  0.00     0.048 A 
ATOM      4  C3  UNL d   1      -2.566  -0.243   1.741  0.00  0.00     0.023 A 
ATOM      5  C4  UNL d   1      -1.756  -1.319   1.377  0.00  0.00     0.048 A 
ATOM      6  C5  UNL d   1      -0.692  -1.693   2.200  0.00  0.00     0.003 A 
ATOM      7  I   UNL d   1      -4.150   0.318   0.518  0.00  0.00    -0.146 I 
ENDROOT
TORSDOF 0
ENDMDL
