MODEL 1
REMARK minimizedAffinity 9.25782013
REMARK minimizedRMSD -1
REMARK  0 active torsions:
REMARK  status: ('A' for Active; 'I' for Inactive)
ROOT
ATOM      1  C   UNL d   1       0.509   3.718  -2.680  0.00  0.00     0.023 A 
ATOM      2  C1  UNL d   1       1.504   2.753  -2.833  0.00  0.00     0.003 A 
ATOM      3  C2  UNL d   1       2.845   3.096  -2.651  0.00  0.00     0.048 A 
ATOM      4  C3  UNL d   1       3.184   4.406  -2.315  0.00  0.00     0.023 A 
ATOM      5  C4  UNL d   1       2.192   5.375  -2.160  0.00  0.00     0.048 A 
ATOM      6  C5  UNL d   1       0.852   5.028  -2.344  0.00  0.00     0.003 A 
ATOM      7  I   UNL d   1       5.180   4.919  -2.044  0.00  0.00    -0.146 I 
ENDROOT
TORSDOF 0
ENDMDL
