MODEL 1
REMARK minimizedAffinity 20.3820171
REMARK minimizedRMSD -1
REMARK  0 active torsions:
REMARK  status: ('A' for Active; 'I' for Inactive)
ROOT
ATOM      1  C   UNL d   1      -0.562  -1.145   2.969  0.00  0.00     0.023 A 
ATOM      2  C1  UNL d   1      -0.945  -1.943   1.891  0.00  0.00     0.003 A 
ATOM      3  C2  UNL d   1      -2.087  -1.621   1.154  0.00  0.00     0.048 A 
ATOM      4  C3  UNL d   1      -2.839  -0.499   1.500  0.00  0.00     0.023 A 
ATOM      5  C4  UNL d   1      -2.459   0.303   2.577  0.00  0.00     0.048 A 
ATOM      6  C5  UNL d   1      -1.317  -0.023   3.312  0.00  0.00     0.003 A 
ATOM      7  I   UNL d   1      -4.539  -0.018   0.404  0.00  0.00    -0.146 I 
ENDROOT
TORSDOF 0
ENDMDL
