MODEL 1
REMARK minimizedAffinity 18.5202618
REMARK minimizedRMSD -1
REMARK  0 active torsions:
REMARK  status: ('A' for Active; 'I' for Inactive)
ROOT
ATOM      1  C1  DEN d   1       4.330  -2.364  -0.702  0.00  0.00     0.130 A 
ATOM      2  C2  DEN d   1       4.005  -1.289   0.231  0.00  0.00    -0.031 A 
ATOM      3  C3  DEN d   1       2.590  -1.441   0.627  0.00  0.00     0.027 A 
ATOM      4  C4  DEN d   1       0.883  -3.229  -0.108  0.00  0.00     0.027 A 
ATOM      5  C5  DEN d   1       0.692  -4.341  -0.897  0.00  0.00    -0.003 A 
ATOM      6  C6  DEN d   1       1.682  -4.848  -1.697  0.00  0.00     0.001 A 
ATOM      7  C7  DEN d   1       2.923  -4.268  -1.690  0.00  0.00     0.017 A 
ATOM      8  C8  DEN d   1       3.121  -3.142  -0.902  0.00  0.00    -0.094 A 
ATOM      9  C9  DEN d   1       2.111  -2.652  -0.092  0.00  0.00    -0.072 A 
ENDROOT
TORSDOF 0
ENDMDL
