MODEL 1
REMARK minimizedAffinity 10.4454269
REMARK minimizedRMSD -1
REMARK  0 active torsions:
REMARK  status: ('A' for Active; 'I' for Inactive)
ROOT
ATOM      1  C1  DEN d   1       0.996   2.082   2.200  0.00  0.00     0.130 A 
ATOM      2  C2  DEN d   1      -0.187   1.817   3.015  0.00  0.00    -0.031 A 
ATOM      3  C3  DEN d   1      -1.379   2.142   2.207  0.00  0.00     0.027 A 
ATOM      4  C4  DEN d   1      -1.509   3.022  -0.214  0.00  0.00     0.027 A 
ATOM      5  C5  DEN d   1      -0.769   3.413  -1.307  0.00  0.00    -0.003 A 
ATOM      6  C6  DEN d   1       0.601   3.419  -1.297  0.00  0.00     0.001 A 
ATOM      7  C7  DEN d   1       1.273   2.985  -0.185  0.00  0.00     0.017 A 
ATOM      8  C8  DEN d   1       0.534   2.597   0.924  0.00  0.00    -0.094 A 
ATOM      9  C9  DEN d   1      -0.850   2.585   0.889  0.00  0.00    -0.072 A 
ENDROOT
TORSDOF 0
ENDMDL
