MODEL 1
REMARK minimizedAffinity 11.6264153
REMARK minimizedRMSD -1
REMARK  0 active torsions:
REMARK  status: ('A' for Active; 'I' for Inactive)
ROOT
ATOM      1  C1  DEN d   1      -2.349  -3.525  -4.570  0.00  0.00     0.130 A 
ATOM      2  C2  DEN d   1      -1.599  -4.720  -4.195  0.00  0.00    -0.031 A 
ATOM      3  C3  DEN d   1      -2.434  -5.899  -4.503  0.00  0.00     0.027 A 
ATOM      4  C4  DEN d   1      -4.801  -5.988  -5.523  0.00  0.00     0.027 A 
ATOM      5  C5  DEN d   1      -5.849  -5.230  -5.996  0.00  0.00    -0.003 A 
ATOM      6  C6  DEN d   1      -5.818  -3.860  -5.995  0.00  0.00     0.001 A 
ATOM      7  C7  DEN d   1      -4.698  -3.207  -5.554  0.00  0.00     0.017 A 
ATOM      8  C8  DEN d   1      -3.640  -3.965  -5.069  0.00  0.00    -0.094 A 
ATOM      9  C9  DEN d   1      -3.685  -5.348  -5.089  0.00  0.00    -0.072 A 
ENDROOT
TORSDOF 0
ENDMDL
