MODEL 1
REMARK minimizedAffinity 12.2138643
REMARK minimizedRMSD -1
REMARK  0 active torsions:
REMARK  status: ('A' for Active; 'I' for Inactive)
ROOT
ATOM      1  C1  DEN d   1       0.724   2.609   2.145  0.00  0.00     0.130 A 
ATOM      2  C2  DEN d   1      -0.566   1.943   1.984  0.00  0.00    -0.031 A 
ATOM      3  C3  DEN d   1      -0.962   2.052   0.566  0.00  0.00     0.027 A 
ATOM      4  C4  DEN d   1       0.291   3.178  -1.387  0.00  0.00     0.027 A 
ATOM      5  C5  DEN d   1       1.419   3.886  -1.737  0.00  0.00    -0.003 A 
ATOM      6  C6  DEN d   1       2.371   4.244  -0.820  0.00  0.00     0.001 A 
ATOM      7  C7  DEN d   1       2.234   3.856   0.487  0.00  0.00     0.017 A 
ATOM      8  C8  DEN d   1       1.095   3.149   0.849  0.00  0.00    -0.094 A 
ATOM      9  C9  DEN d   1       0.150   2.785  -0.096  0.00  0.00    -0.072 A 
ENDROOT
TORSDOF 0
ENDMDL
