MODEL 1
REMARK minimizedAffinity 12.6542196
REMARK minimizedRMSD -1
REMARK  0 active torsions:
REMARK  status: ('A' for Active; 'I' for Inactive)
ROOT
ATOM      1  C1  DEN d   1       2.846   3.029   1.306  0.00  0.00     0.130 A 
ATOM      2  C2  DEN d   1       2.530   2.347   2.558  0.00  0.00    -0.031 A 
ATOM      3  C3  DEN d   1       1.102   1.972   2.526  0.00  0.00     0.027 A 
ATOM      4  C4  DEN d   1      -0.640   2.374   0.667  0.00  0.00     0.027 A 
ATOM      5  C5  DEN d   1      -0.845   2.924  -0.579  0.00  0.00    -0.003 A 
ATOM      6  C6  DEN d   1       0.149   3.571  -1.264  0.00  0.00     0.001 A 
ATOM      7  C7  DEN d   1       1.407   3.646  -0.726  0.00  0.00     0.017 A 
ATOM      8  C8  DEN d   1       1.619   3.101   0.533  0.00  0.00    -0.094 A 
ATOM      9  C9  DEN d   1       0.605   2.440   1.204  0.00  0.00    -0.072 A 
ENDROOT
TORSDOF 0
ENDMDL
