MODEL 1
REMARK minimizedAffinity 12.1640615
REMARK minimizedRMSD -1
REMARK  0 active torsions:
REMARK  status: ('A' for Active; 'I' for Inactive)
ROOT
ATOM      1  C1  DEN d   1       1.065  -4.667  -0.913  0.00  0.00     0.130 A 
ATOM      2  C2  DEN d   1       0.070  -3.910  -1.667  0.00  0.00    -0.031 A 
ATOM      3  C3  DEN d   1       0.527  -3.824  -3.069  0.00  0.00     0.027 A 
ATOM      4  C4  DEN d   1       2.665  -4.791  -4.140  0.00  0.00     0.027 A 
ATOM      5  C5  DEN d   1       3.820  -5.501  -3.898  0.00  0.00    -0.003 A 
ATOM      6  C6  DEN d   1       4.152  -5.950  -2.647  0.00  0.00     0.001 A 
ATOM      7  C7  DEN d   1       3.297  -5.732  -1.599  0.00  0.00     0.017 A 
ATOM      8  C8  DEN d   1       2.134  -5.011  -1.834  0.00  0.00    -0.094 A 
ATOM      9  C9  DEN d   1       1.810  -4.576  -3.108  0.00  0.00    -0.072 A 
ENDROOT
TORSDOF 0
ENDMDL
