MODEL 1
REMARK minimizedAffinity 12.6947327
REMARK minimizedRMSD -1
REMARK  0 active torsions:
REMARK  status: ('A' for Active; 'I' for Inactive)
ROOT
ATOM      1  C1  DEN d   1       1.072  -5.909  -2.236  0.00  0.00     0.130 A 
ATOM      2  C2  DEN d   1       1.960  -5.732  -1.090  0.00  0.00    -0.031 A 
ATOM      3  C3  DEN d   1       1.834  -4.335  -0.626  0.00  0.00     0.027 A 
ATOM      4  C4  DEN d   1       0.355  -2.441  -1.564  0.00  0.00     0.027 A 
ATOM      5  C5  DEN d   1      -0.561  -2.110  -2.537  0.00  0.00    -0.003 A 
ATOM      6  C6  DEN d   1      -0.968  -3.004  -3.491  0.00  0.00     0.001 A 
ATOM      7  C7  DEN d   1      -0.492  -4.288  -3.465  0.00  0.00     0.017 A 
ATOM      8  C8  DEN d   1       0.438  -4.628  -2.491  0.00  0.00    -0.094 A 
ATOM      9  C9  DEN d   1       0.828  -3.713  -1.528  0.00  0.00    -0.072 A 
ENDROOT
TORSDOF 0
ENDMDL
