MODEL 1
REMARK minimizedAffinity -2.69368029
REMARK minimizedRMSD -1
REMARK  1 active torsions:
REMARK  status: ('A' for Active; 'I' for Inactive)
REMARK    1  A    between atoms: C1_2  and  C2_3 
ROOT
ATOM      1  C2  UNL d   1       1.210  -0.654  -0.131  0.00  0.00    -0.076 A 
ATOM      2  C3  UNL d   1       0.187  -1.493  -0.605  0.00  0.00     0.004 A 
ATOM      3  C4  UNL d   1      -1.129  -1.042  -0.693  0.00  0.00    -0.003 A 
ATOM      4  C5  UNL d   1      -1.443   0.258  -0.309  0.00  0.00     0.000 A 
ATOM      5  C6  UNL d   1      -0.437   1.110   0.146  0.00  0.00     0.000 A 
ATOM      6  C7  UNL d   1       0.897   0.675   0.226  0.00  0.00    -0.073 A 
ATOM      7  C8  UNL d   1       1.940   1.635   0.730  0.00  0.00     0.078 C 
ENDROOT
BRANCH   1   8
ATOM      8  C1  UNL d   1       2.613  -1.208  -0.032  0.00  0.00     0.053 C 
ATOM      9  C   UNL d   1       3.074  -1.862  -1.326  0.00  0.00     0.018 C 
ENDBRANCH   1   8
TORSDOF 1
ENDMDL
