MODEL 1
REMARK minimizedAffinity -4.42193556
REMARK minimizedRMSD -1
REMARK  1 active torsions:
REMARK  status: ('A' for Active; 'I' for Inactive)
REMARK    1  A    between atoms: C1_2  and  C2_3 
ROOT
ATOM      1  C2  UNL d   1       0.278  -0.166  -0.148  0.00  0.00    -0.076 A 
ATOM      2  C3  UNL d   1       0.190  -1.550  -0.378  0.00  0.00     0.004 A 
ATOM      3  C4  UNL d   1       1.230  -2.405  -0.016  0.00  0.00    -0.003 A 
ATOM      4  C5  UNL d   1       2.374  -1.890   0.583  0.00  0.00     0.000 A 
ATOM      5  C6  UNL d   1       2.471  -0.522   0.835  0.00  0.00     0.000 A 
ATOM      6  C7  UNL d   1       1.425   0.351   0.492  0.00  0.00    -0.073 A 
ATOM      7  C8  UNL d   1       1.585   1.819   0.782  0.00  0.00     0.078 C 
ENDROOT
BRANCH   1   8
ATOM      8  C1  UNL d   1      -0.869   0.715  -0.586  0.00  0.00     0.053 C 
ATOM      9  C   UNL d   1      -2.044   0.665   0.378  0.00  0.00     0.018 C 
ENDBRANCH   1   8
TORSDOF 1
ENDMDL
