MODEL 1
REMARK minimizedAffinity -4.54309702
REMARK minimizedRMSD -1
REMARK  1 active torsions:
REMARK  status: ('A' for Active; 'I' for Inactive)
REMARK    1  A    between atoms: C1_2  and  C2_3 
ROOT
ATOM      1  C2  UNL d   1       1.051   0.205   0.206  0.00  0.00    -0.076 A 
ATOM      2  C3  UNL d   1       0.984  -1.199   0.240  0.00  0.00     0.004 A 
ATOM      3  C4  UNL d   1       2.137  -1.969   0.385  0.00  0.00    -0.003 A 
ATOM      4  C5  UNL d   1       3.375  -1.348   0.498  0.00  0.00     0.000 A 
ATOM      5  C6  UNL d   1       3.459   0.044   0.484  0.00  0.00     0.000 A 
ATOM      6  C7  UNL d   1       2.304   0.836   0.356  0.00  0.00    -0.073 A 
ATOM      7  C8  UNL d   1       2.453   2.332   0.340  0.00  0.00     0.078 C 
ENDROOT
BRANCH   1   8
ATOM      8  C1  UNL d   1      -0.230   0.987   0.019  0.00  0.00     0.053 C 
ATOM      9  C   UNL d   1      -1.469   0.116   0.159  0.00  0.00     0.018 C 
ENDBRANCH   1   8
TORSDOF 1
ENDMDL
