MODEL 1
REMARK minimizedAffinity -0.872809887
REMARK minimizedRMSD -1
REMARK  1 active torsions:
REMARK  status: ('A' for Active; 'I' for Inactive)
REMARK    1  A    between atoms: C1_2  and  C2_3 
ROOT
ATOM      1  C2  UNL d   1       0.677  -0.991  -0.176  0.00  0.00    -0.076 A 
ATOM      2  C3  UNL d   1       1.801  -1.425  -0.899  0.00  0.00     0.004 A 
ATOM      3  C4  UNL d   1       2.968  -1.814  -0.245  0.00  0.00    -0.003 A 
ATOM      4  C5  UNL d   1       3.031  -1.776   1.143  0.00  0.00     0.000 A 
ATOM      5  C6  UNL d   1       1.919  -1.364   1.878  0.00  0.00     0.000 A 
ATOM      6  C7  UNL d   1       0.729  -0.984   1.235  0.00  0.00    -0.073 A 
ATOM      7  C8  UNL d   1      -0.437  -0.543   2.076  0.00  0.00     0.078 C 
ENDROOT
BRANCH   1   8
ATOM      8  C1  UNL d   1      -0.553  -0.555  -0.940  0.00  0.00     0.053 C 
ATOM      9  C   UNL d   1      -0.959   0.876  -0.625  0.00  0.00     0.018 C 
ENDBRANCH   1   8
TORSDOF 1
ENDMDL
