MODEL 1
REMARK minimizedAffinity -3.38988781
REMARK minimizedRMSD -1
REMARK  1 active torsions:
REMARK  status: ('A' for Active; 'I' for Inactive)
REMARK    1  A    between atoms: C1_2  and  C2_3 
ROOT
ATOM      1  C2  UNL d   1      -0.124  -0.127   0.086  0.00  0.00    -0.076 A 
ATOM      2  C3  UNL d   1      -0.357  -1.508  -0.040  0.00  0.00     0.004 A 
ATOM      3  C4  UNL d   1       0.644  -2.434   0.252  0.00  0.00    -0.003 A 
ATOM      4  C5  UNL d   1       1.893  -1.994   0.674  0.00  0.00     0.000 A 
ATOM      5  C6  UNL d   1       2.136  -0.629   0.821  0.00  0.00     0.000 A 
ATOM      6  C7  UNL d   1       1.133   0.317   0.547  0.00  0.00    -0.073 A 
ATOM      7  C8  UNL d   1       1.452   1.777   0.717  0.00  0.00     0.078 C 
ENDROOT
BRANCH   1   8
ATOM      8  C1  UNL d   1      -1.238   0.830  -0.271  0.00  0.00     0.053 C 
ATOM      9  C   UNL d   1      -2.186   1.080   0.892  0.00  0.00     0.018 C 
ENDBRANCH   1   8
TORSDOF 1
ENDMDL
