MODEL 1
REMARK minimizedAffinity -3.05006289
REMARK minimizedRMSD -1
REMARK  1 active torsions:
REMARK  status: ('A' for Active; 'I' for Inactive)
REMARK    1  A    between atoms: C1_2  and  C2_3 
ROOT
ATOM      1  C2  UNL d   1      -0.064   0.205  -0.024  0.00  0.00    -0.076 A 
ATOM      2  C3  UNL d   1      -0.383  -1.145  -0.249  0.00  0.00     0.004 A 
ATOM      3  C4  UNL d   1       0.554  -2.151  -0.023  0.00  0.00    -0.003 A 
ATOM      4  C5  UNL d   1       1.826  -1.824   0.433  0.00  0.00     0.000 A 
ATOM      5  C6  UNL d   1       2.154  -0.491   0.680  0.00  0.00     0.000 A 
ATOM      6  C7  UNL d   1       1.215   0.534   0.472  0.00  0.00    -0.073 A 
ATOM      7  C8  UNL d   1       1.625   1.955   0.748  0.00  0.00     0.078 C 
ENDROOT
BRANCH   1   8
ATOM      8  C1  UNL d   1      -1.113   1.255  -0.313  0.00  0.00     0.053 C 
ATOM      9  C   UNL d   1      -2.445   0.946   0.353  0.00  0.00     0.018 C 
ENDBRANCH   1   8
TORSDOF 1
ENDMDL
