MODEL 1
REMARK minimizedAffinity -5.7733655
REMARK minimizedRMSD -1
REMARK  1 active torsions:
REMARK  status: ('A' for Active; 'I' for Inactive)
REMARK    1  A    between atoms: C1_2  and  C2_3 
ROOT
ATOM      1  C2  UNL d   1       1.204  -0.023  -0.025  0.00  0.00    -0.076 A 
ATOM      2  C3  UNL d   1       1.152  -1.427   0.032  0.00  0.00     0.004 A 
ATOM      3  C4  UNL d   1       2.304  -2.178   0.258  0.00  0.00    -0.003 A 
ATOM      4  C5  UNL d   1       3.527  -1.538   0.430  0.00  0.00     0.000 A 
ATOM      5  C6  UNL d   1       3.593  -0.146   0.394  0.00  0.00     0.000 A 
ATOM      6  C7  UNL d   1       2.439   0.627   0.184  0.00  0.00    -0.073 A 
ATOM      7  C8  UNL d   1       2.569   2.125   0.148  0.00  0.00     0.078 C 
ENDROOT
BRANCH   1   8
ATOM      8  C1  UNL d   1      -0.074   0.737  -0.300  0.00  0.00     0.053 C 
ATOM      9  C   UNL d   1      -1.071  -0.073  -1.113  0.00  0.00     0.018 C 
ENDBRANCH   1   8
TORSDOF 1
ENDMDL
