MODEL 1
REMARK minimizedAffinity -5.50720549
REMARK minimizedRMSD -1
REMARK  1 active torsions:
REMARK  status: ('A' for Active; 'I' for Inactive)
REMARK    1  A    between atoms: C1_2  and  C2_3 
ROOT
ATOM      1  C2  UNL d   1       0.312   0.137   0.103  0.00  0.00    -0.076 A 
ATOM      2  C3  UNL d   1       0.069  -1.222  -0.163  0.00  0.00     0.004 A 
ATOM      3  C4  UNL d   1       1.041  -2.188   0.092  0.00  0.00    -0.003 A 
ATOM      4  C5  UNL d   1       2.272  -1.810   0.617  0.00  0.00     0.000 A 
ATOM      5  C6  UNL d   1       2.524  -0.469   0.904  0.00  0.00     0.000 A 
ATOM      6  C7  UNL d   1       1.548   0.515   0.668  0.00  0.00    -0.073 A 
ATOM      7  C8  UNL d   1       1.876   1.948   0.990  0.00  0.00     0.078 C 
ENDROOT
BRANCH   1   8
ATOM      8  C1  UNL d   1      -0.770   1.143  -0.219  0.00  0.00     0.053 C 
ATOM      9  C   UNL d   1      -2.064   0.867   0.531  0.00  0.00     0.018 C 
ENDBRANCH   1   8
TORSDOF 1
ENDMDL
