MODEL 1
REMARK minimizedAffinity -5.20973063
REMARK minimizedRMSD -1
REMARK  1 active torsions:
REMARK  status: ('A' for Active; 'I' for Inactive)
REMARK    1  A    between atoms: C1_2  and  C2_3 
ROOT
ATOM      1  C2  UNL d   1       0.470   0.163  -0.128  0.00  0.00    -0.076 A 
ATOM      2  C3  UNL d   1       0.041  -1.160  -0.328  0.00  0.00     0.004 A 
ATOM      3  C4  UNL d   1       0.949  -2.218  -0.320  0.00  0.00    -0.003 A 
ATOM      4  C5  UNL d   1       2.301  -1.968  -0.111  0.00  0.00     0.000 A 
ATOM      5  C6  UNL d   1       2.742  -0.663   0.107  0.00  0.00     0.000 A 
ATOM      6  C7  UNL d   1       1.837   0.412   0.118  0.00  0.00    -0.073 A 
ATOM      7  C8  UNL d   1       2.368   1.800   0.351  0.00  0.00     0.078 C 
ENDROOT
BRANCH   1   8
ATOM      8  C1  UNL d   1      -0.557   1.272  -0.175  0.00  0.00     0.053 C 
ATOM      9  C   UNL d   1      -1.923   0.823   0.321  0.00  0.00     0.018 C 
ENDBRANCH   1   8
TORSDOF 1
ENDMDL
