MODEL 1
REMARK minimizedAffinity -4.76377201
REMARK minimizedRMSD -1
REMARK  0 active torsions:
REMARK  status: ('A' for Active; 'I' for Inactive)
ROOT
ATOM      1  N1  IND d   1       1.714  -1.232   1.297  0.00  0.00    -0.196 N 
ATOM      2  C2  IND d   1       2.870  -0.631   1.712  0.00  0.00     0.054 A 
ATOM      3  C3  IND d   1       2.597   0.550   2.310  0.00  0.00    -0.031 A 
ATOM      4  C4  IND d   1       0.321   1.645   2.807  0.00  0.00     0.051 A 
ATOM      5  C5  IND d   1      -1.019   1.492   2.586  0.00  0.00    -0.031 A 
ATOM      6  C6  IND d   1      -1.527   0.399   1.914  0.00  0.00     0.015 A 
ATOM      7  C7  IND d   1      -0.711  -0.591   1.444  0.00  0.00    -0.016 A 
ATOM      8  C8  IND d   1       0.651  -0.435   1.660  0.00  0.00    -0.047 A 
ATOM      9  C9  IND d   1       1.176   0.693   2.305  0.00  0.00    -0.096 A 
ATOM     10  HN1 IND d   1       1.660  -1.982   0.879  0.00  0.00     0.298 HD
ENDROOT
TORSDOF 0
ENDMDL
