MODEL 1
REMARK minimizedAffinity -3.96836019
REMARK minimizedRMSD -1
REMARK  0 active torsions:
REMARK  status: ('A' for Active; 'I' for Inactive)
ROOT
ATOM      1  N1  IND d   1       1.464   2.087   2.170  0.00  0.00    -0.196 N 
ATOM      2  C2  IND d   1       2.287   1.919   1.092  0.00  0.00     0.054 A 
ATOM      3  C3  IND d   1       1.753   1.027   0.227  0.00  0.00    -0.031 A 
ATOM      4  C4  IND d   1      -0.507  -0.201   0.332  0.00  0.00     0.051 A 
ATOM      5  C5  IND d   1      -1.589  -0.399   1.142  0.00  0.00    -0.031 A 
ATOM      6  C6  IND d   1      -1.713   0.237   2.361  0.00  0.00     0.015 A 
ATOM      7  C7  IND d   1      -0.760   1.107   2.810  0.00  0.00    -0.016 A 
ATOM      8  C8  IND d   1       0.344   1.304   1.993  0.00  0.00    -0.047 A 
ATOM      9  C9  IND d   1       0.495   0.629   0.775  0.00  0.00    -0.096 A 
ATOM     10  HN1 IND d   1       1.619   2.595   2.846  0.00  0.00     0.298 HD
ENDROOT
TORSDOF 0
ENDMDL
