MODEL 1
REMARK minimizedAffinity 3.36303544
REMARK minimizedRMSD -1
REMARK  0 active torsions:
REMARK  status: ('A' for Active; 'I' for Inactive)
ROOT
ATOM      1  N1  IND d   1       1.186   1.593   0.284  0.00  0.00    -0.196 N 
ATOM      2  C2  IND d   1       1.499   2.328   1.394  0.00  0.00     0.054 A 
ATOM      3  C3  IND d   1       0.631   2.061   2.395  0.00  0.00    -0.031 A 
ATOM      4  C4  IND d   1      -1.316   0.378   2.466  0.00  0.00     0.051 A 
ATOM      5  C5  IND d   1      -2.014  -0.496   1.681  0.00  0.00    -0.031 A 
ATOM      6  C6  IND d   1      -1.671  -0.726   0.364  0.00  0.00     0.015 A 
ATOM      7  C7  IND d   1      -0.607  -0.095  -0.216  0.00  0.00    -0.016 A 
ATOM      8  C8  IND d   1       0.099   0.799   0.577  0.00  0.00    -0.047 A 
ATOM      9  C9  IND d   1      -0.270   1.068   1.901  0.00  0.00    -0.096 A 
ATOM     10  HN1 IND d   1       1.599   1.622  -0.470  0.00  0.00     0.298 HD
ENDROOT
TORSDOF 0
ENDMDL
