MODEL 1
REMARK minimizedAffinity -2.96668792
REMARK minimizedRMSD -1
REMARK  0 active torsions:
REMARK  status: ('A' for Active; 'I' for Inactive)
ROOT
ATOM      1  N1  IND d   1       1.733   1.187   2.243  0.00  0.00    -0.196 N 
ATOM      2  C2  IND d   1       2.588   0.791   1.252  0.00  0.00     0.054 A 
ATOM      3  C3  IND d   1       1.930   0.050   0.332  0.00  0.00    -0.031 A 
ATOM      4  C4  IND d   1      -0.570  -0.550   0.199  0.00  0.00     0.051 A 
ATOM      5  C5  IND d   1      -1.742  -0.445   0.895  0.00  0.00    -0.031 A 
ATOM      6  C6  IND d   1      -1.817   0.226   2.098  0.00  0.00     0.015 A 
ATOM      7  C7  IND d   1      -0.721   0.829   2.648  0.00  0.00    -0.016 A 
ATOM      8  C8  IND d   1       0.472   0.718   1.948  0.00  0.00    -0.047 A 
ATOM      9  C9  IND d   1       0.564   0.002   0.747  0.00  0.00    -0.096 A 
ATOM     10  HN1 IND d   1       1.947   1.652   2.934  0.00  0.00     0.298 HD
ENDROOT
TORSDOF 0
ENDMDL
