MODEL 1
REMARK minimizedAffinity -5.42648411
REMARK minimizedRMSD -1
REMARK  2 active torsions:
REMARK  status: ('A' for Active; 'I' for Inactive)
REMARK    1  A    between atoms: C1_2  and  C2_3 
REMARK    2  A    between atoms: C2_3  and  C3_4 
ROOT
ATOM      1  C3  UNL d   1       0.792  -0.369   0.240  0.00  0.00    -0.075 A 
ATOM      2  C4  UNL d   1       1.431   0.878   0.280  0.00  0.00     0.002 A 
ATOM      3  C5  UNL d   1       2.822   0.960   0.356  0.00  0.00     0.002 A 
ATOM      4  C6  UNL d   1       3.589  -0.202   0.403  0.00  0.00    -0.004 A 
ATOM      5  C7  UNL d   1       2.963  -1.447   0.381  0.00  0.00     0.002 A 
ATOM      6  C8  UNL d   1       1.572  -1.531   0.301  0.00  0.00     0.002 A 
ENDROOT
BRANCH   1   7
ATOM      7  C2  UNL d   1      -0.711  -0.464   0.129  0.00  0.00     0.056 C 
BRANCH   7   8
ATOM      8  C1  UNL d   1      -1.419   0.894   0.073  0.00  0.00     0.007 C 
ATOM      9  C   UNL d   1      -2.920   0.799   0.313  0.00  0.00     0.009 C 
ENDBRANCH   7   8
ENDBRANCH   1   7
TORSDOF 2
ENDMDL
