MODEL 1
REMARK minimizedAffinity -4.72588062
REMARK minimizedRMSD -1
REMARK  2 active torsions:
REMARK  status: ('A' for Active; 'I' for Inactive)
REMARK    1  A    between atoms: C1_2  and  C2_3 
REMARK    2  A    between atoms: C2_3  and  C3_4 
ROOT
ATOM      1  C3  UNL d   1      -0.003   0.180   0.114  0.00  0.00    -0.075 A 
ATOM      2  C4  UNL d   1       1.167   0.389   0.859  0.00  0.00     0.002 A 
ATOM      3  C5  UNL d   1       2.139  -0.609   0.945  0.00  0.00     0.002 A 
ATOM      4  C6  UNL d   1       1.950  -1.828   0.298  0.00  0.00    -0.004 A 
ATOM      5  C7  UNL d   1       0.783  -2.052  -0.431  0.00  0.00     0.002 A 
ATOM      6  C8  UNL d   1      -0.189  -1.055  -0.522  0.00  0.00     0.002 A 
ENDROOT
BRANCH   1   7
ATOM      7  C2  UNL d   1      -1.045   1.266  -0.007  0.00  0.00     0.056 C 
BRANCH   7   8
ATOM      8  C1  UNL d   1      -2.483   0.776   0.193  0.00  0.00     0.007 C 
ATOM      9  C   UNL d   1      -3.215   1.503   1.313  0.00  0.00     0.009 C 
ENDBRANCH   7   8
ENDBRANCH   1   7
TORSDOF 2
ENDMDL
