MODEL 1
REMARK minimizedAffinity -5.87525463
REMARK minimizedRMSD -1
REMARK  2 active torsions:
REMARK  status: ('A' for Active; 'I' for Inactive)
REMARK    1  A    between atoms: C1_2  and  C2_3 
REMARK    2  A    between atoms: C2_3  and  C3_4 
ROOT
ATOM      1  C3  UNL d   1       1.027  -0.725   0.052  0.00  0.00    -0.075 A 
ATOM      2  C4  UNL d   1       1.559   0.568   0.156  0.00  0.00     0.002 A 
ATOM      3  C5  UNL d   1       2.935   0.759   0.293  0.00  0.00     0.002 A 
ATOM      4  C6  UNL d   1       3.792  -0.338   0.338  0.00  0.00    -0.004 A 
ATOM      5  C7  UNL d   1       3.273  -1.628   0.252  0.00  0.00     0.002 A 
ATOM      6  C8  UNL d   1       1.898  -1.822   0.110  0.00  0.00     0.002 A 
ENDROOT
BRANCH   1   7
ATOM      7  C2  UNL d   1      -0.457  -0.938  -0.126  0.00  0.00     0.056 C 
BRANCH   7   8
ATOM      8  C1  UNL d   1      -1.168   0.205  -0.859  0.00  0.00     0.007 C 
ATOM      9  C   UNL d   1      -2.375   0.745  -0.104  0.00  0.00     0.009 C 
ENDBRANCH   7   8
ENDBRANCH   1   7
TORSDOF 2
ENDMDL
