MODEL 1
REMARK minimizedAffinity -4.23680496
REMARK minimizedRMSD -1
REMARK  2 active torsions:
REMARK  status: ('A' for Active; 'I' for Inactive)
REMARK    1  A    between atoms: C1_2  and  C2_3 
REMARK    2  A    between atoms: C2_3  and  C3_4 
ROOT
ATOM      1  C3  UNL d   1      -0.108  -0.378   0.173  0.00  0.00    -0.075 A 
ATOM      2  C4  UNL d   1       0.169  -1.532  -0.574  0.00  0.00     0.002 A 
ATOM      3  C5  UNL d   1       1.408  -2.164  -0.467  0.00  0.00     0.002 A 
ATOM      4  C6  UNL d   1       2.387  -1.647   0.378  0.00  0.00    -0.004 A 
ATOM      5  C7  UNL d   1       2.129  -0.491   1.112  0.00  0.00     0.002 A 
ATOM      6  C8  UNL d   1       0.888   0.141   1.011  0.00  0.00     0.002 A 
ENDROOT
BRANCH   1   7
ATOM      7  C2  UNL d   1      -1.457   0.294   0.085  0.00  0.00     0.056 C 
BRANCH   7   8
ATOM      8  C1  UNL d   1      -2.024   0.736   1.438  0.00  0.00     0.007 C 
ATOM      9  C   UNL d   1      -3.544   0.660   1.507  0.00  0.00     0.009 C 
ENDBRANCH   7   8
ENDBRANCH   1   7
TORSDOF 2
ENDMDL
