MODEL 1
REMARK minimizedAffinity 9.98279381
REMARK minimizedRMSD -1
REMARK  0 active torsions:
REMARK  status: ('A' for Active; 'I' for Inactive)
ROOT
ATOM      1  C2' OXE d   1      -0.352   1.470  -1.074  0.00  0.00     0.078 C 
ATOM      2  C1' OXE d   1       1.140  -0.051  -2.903  0.00  0.00     0.078 C 
ATOM      3  C1  OXE d   1       0.212  -0.786  -1.968  0.00  0.00    -0.078 A 
ATOM      4  C2  OXE d   1      -0.479  -0.038  -1.045  0.00  0.00    -0.078 A 
ATOM      5  C3  OXE d   1      -1.389  -0.660  -0.195  0.00  0.00     0.003 A 
ATOM      6  C4  OXE d   1      -1.493  -2.056  -0.168  0.00  0.00    -0.002 A 
ATOM      7  C5  OXE d   1      -0.768  -2.840  -1.072  0.00  0.00    -0.002 A 
ATOM      8  C6  OXE d   1       0.055  -2.219  -2.005  0.00  0.00     0.003 A 
ENDROOT
TORSDOF 0
ENDMDL
