MODEL 1
REMARK minimizedAffinity -1.71601832
REMARK minimizedRMSD -1
REMARK  0 active torsions:
REMARK  status: ('A' for Active; 'I' for Inactive)
ROOT
ATOM      1  C2' OXE d   1       6.000   0.677   2.117  0.00  0.00     0.078 C 
ATOM      2  C1' OXE d   1       5.828  -2.121   2.260  0.00  0.00     0.078 C 
ATOM      3  C1  OXE d   1       5.868  -1.351   3.557  0.00  0.00    -0.078 A 
ATOM      4  C2  OXE d   1       6.000   0.014   3.477  0.00  0.00    -0.078 A 
ATOM      5  C3  OXE d   1       5.988   0.777   4.642  0.00  0.00     0.003 A 
ATOM      6  C4  OXE d   1       5.997   0.155   5.896  0.00  0.00    -0.002 A 
ATOM      7  C5  OXE d   1       5.904  -1.237   6.000  0.00  0.00    -0.002 A 
ATOM      8  C6  OXE d   1       5.796  -2.000   4.842  0.00  0.00     0.003 A 
ENDROOT
TORSDOF 0
ENDMDL
