MODEL 1
REMARK minimizedAffinity 0.494581372
REMARK minimizedRMSD -1
REMARK  0 active torsions:
REMARK  status: ('A' for Active; 'I' for Inactive)
ROOT
ATOM      1  C2' OXE d   1       5.916   1.614   3.145  0.00  0.00     0.078 C 
ATOM      2  C1' OXE d   1       5.953   1.721   5.950  0.00  0.00     0.078 C 
ATOM      3  C1  OXE d   1       5.949   3.027   5.197  0.00  0.00    -0.078 A 
ATOM      4  C2  OXE d   1       5.978   2.966   3.824  0.00  0.00    -0.078 A 
ATOM      5  C3  OXE d   1       5.921   4.141   3.080  0.00  0.00     0.003 A 
ATOM      6  C4  OXE d   1       5.988   5.386   3.715  0.00  0.00    -0.002 A 
ATOM      7  C5  OXE d   1       5.999   5.471   5.112  0.00  0.00    -0.002 A 
ATOM      8  C6  OXE d   1       5.937   4.305   5.866  0.00  0.00     0.003 A 
ENDROOT
TORSDOF 0
ENDMDL
