MODEL 1
REMARK minimizedAffinity -2.15359449
REMARK minimizedRMSD -1
REMARK  0 active torsions:
REMARK  status: ('A' for Active; 'I' for Inactive)
ROOT
ATOM      1  C2' OXE d   1       5.092   3.803   3.456  0.00  0.00     0.078 C 
ATOM      2  C1' OXE d   1       4.139   1.507   2.152  0.00  0.00     0.078 C 
ATOM      3  C1  OXE d   1       4.772   1.333   3.510  0.00  0.00    -0.078 A 
ATOM      4  C2  OXE d   1       5.277   2.455   4.120  0.00  0.00    -0.078 A 
ATOM      5  C3  OXE d   1       5.822   2.359   5.397  0.00  0.00     0.003 A 
ATOM      6  C4  OXE d   1       5.999   1.107   6.000  0.00  0.00    -0.002 A 
ATOM      7  C5  OXE d   1       5.527  -0.053   5.378  0.00  0.00    -0.002 A 
ATOM      8  C6  OXE d   1       4.874   0.047   4.154  0.00  0.00     0.003 A 
ENDROOT
TORSDOF 0
ENDMDL
