MODEL 1
REMARK minimizedAffinity -1.51375937
REMARK minimizedRMSD -1
REMARK  0 active torsions:
REMARK  status: ('A' for Active; 'I' for Inactive)
ROOT
ATOM      1  C2' OXE d   1       6.000   5.228   2.618  0.00  0.00     0.078 C 
ATOM      2  C1' OXE d   1       5.985   5.318   5.424  0.00  0.00     0.078 C 
ATOM      3  C1  OXE d   1       5.983   3.962   4.764  0.00  0.00    -0.078 A 
ATOM      4  C2  OXE d   1       5.943   3.927   3.390  0.00  0.00    -0.078 A 
ATOM      5  C3  OXE d   1       5.995   2.703   2.730  0.00  0.00     0.003 A 
ATOM      6  C4  OXE d   1       5.933   1.505   3.452  0.00  0.00    -0.002 A 
ATOM      7  C5  OXE d   1       5.932   1.518   4.850  0.00  0.00    -0.002 A 
ATOM      8  C6  OXE d   1       6.000   2.735   5.521  0.00  0.00     0.003 A 
ENDROOT
TORSDOF 0
ENDMDL
