MODEL 1
REMARK minimizedAffinity 1.8661195
REMARK minimizedRMSD -1
REMARK  0 active torsions:
REMARK  status: ('A' for Active; 'I' for Inactive)
ROOT
ATOM      1  C2' OXE d   1       5.933   0.340   3.247  0.00  0.00     0.078 C 
ATOM      2  C1' OXE d   1       5.996   0.891   5.999  0.00  0.00     0.078 C 
ATOM      3  C1  OXE d   1       5.973   2.061   5.048  0.00  0.00    -0.078 A 
ATOM      4  C2  OXE d   1       5.989   1.783   3.702  0.00  0.00    -0.078 A 
ATOM      5  C3  OXE d   1       5.913   2.824   2.782  0.00  0.00     0.003 A 
ATOM      6  C4  OXE d   1       5.975   4.155   3.211  0.00  0.00    -0.002 A 
ATOM      7  C5  OXE d   1       5.999   4.461   4.576  0.00  0.00    -0.002 A 
ATOM      8  C6  OXE d   1       5.955   3.428   5.506  0.00  0.00     0.003 A 
ENDROOT
TORSDOF 0
ENDMDL
