MODEL 1
REMARK minimizedAffinity -1.26495349
REMARK minimizedRMSD -1
REMARK  0 active torsions:
REMARK  status: ('A' for Active; 'I' for Inactive)
ROOT
ATOM      1  C2' OXE d   1       6.000   4.051   5.696  0.00  0.00     0.078 C 
ATOM      2  C1' OXE d   1       5.636   3.694   2.935  0.00  0.00     0.078 C 
ATOM      3  C1  OXE d   1       5.689   2.462   3.803  0.00  0.00    -0.078 A 
ATOM      4  C2  OXE d   1       5.914   2.643   5.146  0.00  0.00    -0.078 A 
ATOM      5  C3  OXE d   1       5.917   1.544   6.000  0.00  0.00     0.003 A 
ATOM      6  C4  OXE d   1       5.847   0.245   5.482  0.00  0.00    -0.002 A 
ATOM      7  C5  OXE d   1       5.657   0.036   4.112  0.00  0.00    -0.002 A 
ATOM      8  C6  OXE d   1       5.534   1.132   3.266  0.00  0.00     0.003 A 
ENDROOT
TORSDOF 0
ENDMDL
