MODEL 1
REMARK minimizedAffinity 7.60459805
REMARK minimizedRMSD -1
REMARK  0 active torsions:
REMARK  status: ('A' for Active; 'I' for Inactive)
ROOT
ATOM      1  C2' OXE d   1       1.500   0.451  -5.097  0.00  0.00     0.078 C 
ATOM      2  C1' OXE d   1       3.312   2.053  -3.673  0.00  0.00     0.078 C 
ATOM      3  C1  OXE d   1       2.535   1.015  -2.903  0.00  0.00    -0.078 A 
ATOM      4  C2  OXE d   1       1.616   0.267  -3.599  0.00  0.00    -0.078 A 
ATOM      5  C3  OXE d   1       0.912  -0.742  -2.948  0.00  0.00     0.003 A 
ATOM      6  C4  OXE d   1       1.019  -0.898  -1.561  0.00  0.00    -0.002 A 
ATOM      7  C5  OXE d   1       1.919  -0.120  -0.825  0.00  0.00    -0.002 A 
ATOM      8  C6  OXE d   1       2.714   0.810  -1.486  0.00  0.00     0.003 A 
ENDROOT
TORSDOF 0
ENDMDL
