MODEL 1
REMARK minimizedAffinity -0.323155999
REMARK minimizedRMSD -1
REMARK  0 active torsions:
REMARK  status: ('A' for Active; 'I' for Inactive)
ROOT
ATOM      1  C2' OXE d   1       5.998   4.790   2.668  0.00  0.00     0.078 C 
ATOM      2  C1' OXE d   1       5.998   4.891   5.474  0.00  0.00     0.078 C 
ATOM      3  C1  OXE d   1       5.985   3.533   4.819  0.00  0.00    -0.078 A 
ATOM      4  C2  OXE d   1       5.938   3.493   3.446  0.00  0.00    -0.078 A 
ATOM      5  C3  OXE d   1       5.980   2.266   2.790  0.00  0.00     0.003 A 
ATOM      6  C4  OXE d   1       5.914   1.071   3.517  0.00  0.00    -0.002 A 
ATOM      7  C5  OXE d   1       5.922   1.090   4.916  0.00  0.00    -0.002 A 
ATOM      8  C6  OXE d   1       6.000   2.308   5.581  0.00  0.00     0.003 A 
ENDROOT
TORSDOF 0
ENDMDL
