MODEL 1
REMARK minimizedAffinity -4.18769503
REMARK minimizedRMSD -1
REMARK  0 active torsions:
REMARK  status: ('A' for Active; 'I' for Inactive)
ROOT
ATOM      1  C2' OXE d   1       5.992   4.920   3.171  0.00  0.00     0.078 C 
ATOM      2  C1' OXE d   1       5.973   4.902   5.978  0.00  0.00     0.078 C 
ATOM      3  C1  OXE d   1       5.977   3.572   5.266  0.00  0.00    -0.078 A 
ATOM      4  C2  OXE d   1       5.938   3.591   3.893  0.00  0.00    -0.078 A 
ATOM      5  C3  OXE d   1       5.995   2.393   3.185  0.00  0.00     0.003 A 
ATOM      6  C4  OXE d   1       5.935   1.168   3.860  0.00  0.00    -0.002 A 
ATOM      7  C5  OXE d   1       5.933   1.127   5.259  0.00  0.00    -0.002 A 
ATOM      8  C6  OXE d   1       5.997   2.317   5.975  0.00  0.00     0.003 A 
ENDROOT
TORSDOF 0
ENDMDL
