MODEL 1
REMARK minimizedAffinity -4.30509615
REMARK minimizedRMSD -1
REMARK  0 active torsions:
REMARK  status: ('A' for Active; 'I' for Inactive)
ROOT
ATOM      1  C2' OXE d   1       5.999  -0.401   2.443  0.00  0.00     0.078 C 
ATOM      2  C1' OXE d   1       5.573  -0.269   5.215  0.00  0.00     0.078 C 
ATOM      3  C1  OXE d   1       5.680   1.030   4.457  0.00  0.00    -0.078 A 
ATOM      4  C2  OXE d   1       5.935   0.957   3.108  0.00  0.00    -0.078 A 
ATOM      5  C3  OXE d   1       5.989   2.124   2.352  0.00  0.00     0.003 A 
ATOM      6  C4  OXE d   1       5.938   3.376   2.977  0.00  0.00    -0.002 A 
ATOM      7  C5  OXE d   1       5.719   3.474   4.355  0.00  0.00    -0.002 A 
ATOM      8  C6  OXE d   1       5.545   2.313   5.101  0.00  0.00     0.003 A 
ENDROOT
TORSDOF 0
ENDMDL
