MODEL 1
REMARK minimizedAffinity 0.431606323
REMARK minimizedRMSD -1
REMARK  0 active torsions:
REMARK  status: ('A' for Active; 'I' for Inactive)
ROOT
ATOM      1  C2' OXE d   1       6.000   0.406   2.791  0.00  0.00     0.078 C 
ATOM      2  C1' OXE d   1       4.518   0.391   5.175  0.00  0.00     0.078 C 
ATOM      3  C1  OXE d   1       4.900   1.729   4.592  0.00  0.00    -0.078 A 
ATOM      4  C2  OXE d   1       5.665   1.726   3.451  0.00  0.00    -0.078 A 
ATOM      5  C3  OXE d   1       5.999   2.932   2.842  0.00  0.00     0.003 A 
ATOM      6  C4  OXE d   1       5.693   4.149   3.464  0.00  0.00    -0.002 A 
ATOM      7  C5  OXE d   1       4.949   4.173   4.648  0.00  0.00    -0.002 A 
ATOM      8  C6  OXE d   1       4.509   2.976   5.201  0.00  0.00     0.003 A 
ENDROOT
TORSDOF 0
ENDMDL
