MODEL 1
REMARK minimizedAffinity -4.40968037
REMARK minimizedRMSD -1
REMARK  0 active torsions:
REMARK  status: ('A' for Active; 'I' for Inactive)
ROOT
ATOM      1  C2' OXE d   1       5.633  -3.272   2.931  0.00  0.00     0.078 C 
ATOM      2  C1' OXE d   1       5.553  -3.397   5.734  0.00  0.00     0.078 C 
ATOM      3  C1  OXE d   1       5.580  -2.033   5.091  0.00  0.00    -0.078 A 
ATOM      4  C2  OXE d   1       5.666  -1.981   3.721  0.00  0.00    -0.078 A 
ATOM      5  C3  OXE d   1       5.639  -0.749   3.074  0.00  0.00     0.003 A 
ATOM      6  C4  OXE d   1       5.680   0.440   3.813  0.00  0.00    -0.002 A 
ATOM      7  C5  OXE d   1       5.633   0.410   5.210  0.00  0.00    -0.002 A 
ATOM      8  C6  OXE d   1       5.540  -0.815   5.863  0.00  0.00     0.003 A 
ENDROOT
TORSDOF 0
ENDMDL
