MODEL 1
REMARK minimizedAffinity 1.82224417
REMARK minimizedRMSD -1
REMARK  0 active torsions:
REMARK  status: ('A' for Active; 'I' for Inactive)
ROOT
ATOM      1  C2' OXE d   1       6.000   4.016   4.800  0.00  0.00     0.078 C 
ATOM      2  C1' OXE d   1       4.483   3.213   2.579  0.00  0.00     0.078 C 
ATOM      3  C1  OXE d   1       4.873   2.158   3.583  0.00  0.00    -0.078 A 
ATOM      4  C2  OXE d   1       5.655   2.551   4.642  0.00  0.00    -0.078 A 
ATOM      5  C3  OXE d   1       5.998   1.628   5.626  0.00  0.00     0.003 A 
ATOM      6  C4  OXE d   1       5.684   0.273   5.468  0.00  0.00    -0.002 A 
ATOM      7  C5  OXE d   1       4.922  -0.156   4.376  0.00  0.00    -0.002 A 
ATOM      8  C6  OXE d   1       4.473   0.779   3.449  0.00  0.00     0.003 A 
ENDROOT
TORSDOF 0
ENDMDL
