MODEL 1
REMARK minimizedAffinity -0.740937471
REMARK minimizedRMSD -1
REMARK  0 active torsions:
REMARK  status: ('A' for Active; 'I' for Inactive)
ROOT
ATOM      1  C2' OXE d   1       5.995  -0.253   5.920  0.00  0.00     0.078 C 
ATOM      2  C1' OXE d   1       5.980  -0.141   3.115  0.00  0.00     0.078 C 
ATOM      3  C1  OXE d   1       5.980   1.164   3.871  0.00  0.00    -0.078 A 
ATOM      4  C2  OXE d   1       5.940   1.100   5.243  0.00  0.00    -0.078 A 
ATOM      5  C3  OXE d   1       5.993   2.273   5.990  0.00  0.00     0.003 A 
ATOM      6  C4  OXE d   1       5.932   3.520   5.356  0.00  0.00    -0.002 A 
ATOM      7  C5  OXE d   1       5.932   3.608   3.960  0.00  0.00    -0.002 A 
ATOM      8  C6  OXE d   1       5.999   2.443   3.204  0.00  0.00     0.003 A 
ENDROOT
TORSDOF 0
ENDMDL
