MODEL 1
REMARK minimizedAffinity -4.95330191
REMARK minimizedRMSD -1
REMARK  0 active torsions:
REMARK  status: ('A' for Active; 'I' for Inactive)
ROOT
ATOM      1  C2' OXE d   1       5.923   1.961   2.845  0.00  0.00     0.078 C 
ATOM      2  C1' OXE d   1       5.929   1.825   5.649  0.00  0.00     0.078 C 
ATOM      3  C1  OXE d   1       5.841   0.529   4.882  0.00  0.00    -0.078 A 
ATOM      4  C2  OXE d   1       5.791   0.609   3.511  0.00  0.00    -0.078 A 
ATOM      5  C3  OXE d   1       5.764  -0.559   2.754  0.00  0.00     0.003 A 
ATOM      6  C4  OXE d   1       5.633  -1.806   3.377  0.00  0.00    -0.002 A 
ATOM      7  C5  OXE d   1       5.641  -1.906   4.773  0.00  0.00    -0.002 A 
ATOM      8  C6  OXE d   1       5.787  -0.754   5.538  0.00  0.00     0.003 A 
ENDROOT
TORSDOF 0
ENDMDL
