MODEL 1
REMARK minimizedAffinity -1.19416177
REMARK minimizedRMSD -1
REMARK  0 active torsions:
REMARK  status: ('A' for Active; 'I' for Inactive)
ROOT
ATOM      1  C2' OXE d   1       5.674   1.664   5.625  0.00  0.00     0.078 C 
ATOM      2  C1' OXE d   1       5.277   1.104   2.903  0.00  0.00     0.078 C 
ATOM      3  C1  OXE d   1       5.545   2.536   3.295  0.00  0.00    -0.078 A 
ATOM      4  C2  OXE d   1       5.691   2.808   4.634  0.00  0.00    -0.078 A 
ATOM      5  C3  OXE d   1       5.994   4.103   5.045  0.00  0.00     0.003 A 
ATOM      6  C4  OXE d   1       5.999   5.157   4.123  0.00  0.00    -0.002 A 
ATOM      7  C5  OXE d   1       5.813   4.907   2.759  0.00  0.00    -0.002 A 
ATOM      8  C6  OXE d   1       5.627   3.600   2.325  0.00  0.00     0.003 A 
ENDROOT
TORSDOF 0
ENDMDL
