MODEL 1
REMARK minimizedAffinity -1.83660448
REMARK minimizedRMSD -1
REMARK  0 active torsions:
REMARK  status: ('A' for Active; 'I' for Inactive)
ROOT
ATOM      1  C2' OXE d   1       5.856   5.299   4.795  0.00  0.00     0.078 C 
ATOM      2  C1' OXE d   1       3.969   3.346   4.083  0.00  0.00     0.078 C 
ATOM      3  C1  OXE d   1       4.526   4.219   2.987  0.00  0.00    -0.078 A 
ATOM      4  C2  OXE d   1       5.414   5.203   3.351  0.00  0.00    -0.078 A 
ATOM      5  C3  OXE d   1       5.999   6.000   2.372  0.00  0.00     0.003 A 
ATOM      6  C4  OXE d   1       5.578   5.911   1.040  0.00  0.00    -0.002 A 
ATOM      7  C5  OXE d   1       4.645   4.943   0.653  0.00  0.00    -0.002 A 
ATOM      8  C6  OXE d   1       4.143   4.063   1.605  0.00  0.00     0.003 A 
ENDROOT
TORSDOF 0
ENDMDL
