MODEL 1
REMARK minimizedAffinity -0.784129322
REMARK minimizedRMSD -1
REMARK  0 active torsions:
REMARK  status: ('A' for Active; 'I' for Inactive)
ROOT
ATOM      1  C2' OXE d   1       6.000   5.683   4.136  0.00  0.00     0.078 C 
ATOM      2  C1' OXE d   1       5.632   4.849   1.481  0.00  0.00     0.078 C 
ATOM      3  C1  OXE d   1       5.730   3.785   2.545  0.00  0.00    -0.078 A 
ATOM      4  C2  OXE d   1       5.956   4.200   3.836  0.00  0.00    -0.078 A 
ATOM      5  C3  OXE d   1       6.000   3.263   4.864  0.00  0.00     0.003 A 
ATOM      6  C4  OXE d   1       5.969   1.893   4.576  0.00  0.00    -0.002 A 
ATOM      7  C5  OXE d   1       5.779   1.447   3.264  0.00  0.00    -0.002 A 
ATOM      8  C6  OXE d   1       5.615   2.379   2.245  0.00  0.00     0.003 A 
ENDROOT
TORSDOF 0
ENDMDL
