MODEL 1
REMARK minimizedAffinity 7.59816504
REMARK minimizedRMSD -1
REMARK  0 active torsions:
REMARK  status: ('A' for Active; 'I' for Inactive)
ROOT
ATOM      1  C   UNL d   1       1.829  -0.778  -4.125  0.00  0.00    -0.002 A 
ATOM      2  C1  UNL d   1       2.991  -0.300  -3.537  0.00  0.00     0.010 A 
ATOM      3  C2  UNL d   1       4.214  -0.935  -3.761  0.00  0.00     0.041 A 
ATOM      4  C3  UNL d   1       4.250  -2.069  -4.596  0.00  0.00    -0.075 A 
ATOM      5  S   UNL d   1       5.634  -3.009  -5.014  0.00  0.00     0.015 SA
ATOM      6  C4  UNL d   1       4.715  -4.067  -5.984  0.00  0.00     0.022 A 
ATOM      7  C5  UNL d   1       3.383  -3.726  -6.000  0.00  0.00     0.026 A 
ATOM      8  C6  UNL d   1       3.093  -2.569  -5.200  0.00  0.00    -0.082 A 
ATOM      9  C7  UNL d   1       1.869  -1.904  -4.953  0.00  0.00     0.045 A 
ENDROOT
TORSDOF 0
ENDMDL
