MODEL 1
REMARK minimizedAffinity 11.4543705
REMARK minimizedRMSD -1
REMARK  0 active torsions:
REMARK  status: ('A' for Active; 'I' for Inactive)
ROOT
ATOM      1  C   UNL d   1      -0.443  -1.463   2.348  0.00  0.00    -0.002 A 
ATOM      2  C1  UNL d   1      -1.716  -2.015   2.340  0.00  0.00     0.010 A 
ATOM      3  C2  UNL d   1      -1.890  -3.400   2.335  0.00  0.00     0.041 A 
ATOM      4  C3  UNL d   1      -0.752  -4.230   2.339  0.00  0.00    -0.075 A 
ATOM      5  S   UNL d   1      -0.723  -5.954   2.335  0.00  0.00     0.015 SA
ATOM      6  C4  UNL d   1       0.981  -5.999   2.344  0.00  0.00     0.022 A 
ATOM      7  C5  UNL d   1       1.530  -4.739   2.350  0.00  0.00     0.026 A 
ATOM      8  C6  UNL d   1       0.541  -3.698   2.348  0.00  0.00    -0.082 A 
ATOM      9  C7  UNL d   1       0.684  -2.290   2.352  0.00  0.00     0.045 A 
ENDROOT
TORSDOF 0
ENDMDL
