MODEL 1
REMARK minimizedAffinity 3.39184165
REMARK minimizedRMSD -1
REMARK  0 active torsions:
REMARK  status: ('A' for Active; 'I' for Inactive)
ROOT
ATOM      1  C   UNL d   1      -2.252  -2.691  -1.949  0.00  0.00    -0.002 A 
ATOM      2  C1  UNL d   1      -2.632  -1.759  -2.905  0.00  0.00     0.010 A 
ATOM      3  C2  UNL d   1      -2.140  -0.453  -2.859  0.00  0.00     0.041 A 
ATOM      4  C3  UNL d   1      -1.249  -0.096  -1.829  0.00  0.00    -0.075 A 
ATOM      5  S   UNL d   1      -0.518   1.444  -1.574  0.00  0.00     0.015 SA
ATOM      6  C4  UNL d   1       0.318   0.902  -0.191  0.00  0.00     0.022 A 
ATOM      7  C5  UNL d   1       0.057  -0.419   0.085  0.00  0.00     0.026 A 
ATOM      8  C6  UNL d   1      -0.850  -1.017  -0.855  0.00  0.00    -0.082 A 
ATOM      9  C7  UNL d   1      -1.367  -2.332  -0.928  0.00  0.00     0.045 A 
ENDROOT
TORSDOF 0
ENDMDL
