MODEL 1
REMARK minimizedAffinity 21.6837234
REMARK minimizedRMSD -1
REMARK  0 active torsions:
REMARK  status: ('A' for Active; 'I' for Inactive)
ROOT
ATOM      1  C   UNL d   1       4.193  -1.578   0.700  0.00  0.00    -0.002 A 
ATOM      2  C1  UNL d   1       3.077  -2.246   0.213  0.00  0.00     0.010 A 
ATOM      3  C2  UNL d   1       2.693  -3.475   0.753  0.00  0.00     0.041 A 
ATOM      4  C3  UNL d   1       3.455  -4.026   1.802  0.00  0.00    -0.075 A 
ATOM      5  S   UNL d   1       3.174  -5.519   2.618  0.00  0.00     0.015 SA
ATOM      6  C4  UNL d   1       4.526  -5.305   3.632  0.00  0.00     0.022 A 
ATOM      7  C5  UNL d   1       5.189  -4.130   3.368  0.00  0.00     0.026 A 
ATOM      8  C6  UNL d   1       4.582  -3.373   2.309  0.00  0.00    -0.082 A 
ATOM      9  C7  UNL d   1       4.946  -2.129   1.740  0.00  0.00     0.045 A 
ENDROOT
TORSDOF 0
ENDMDL
