MODEL 1
REMARK minimizedAffinity 19.0354443
REMARK minimizedRMSD -1
REMARK  0 active torsions:
REMARK  status: ('A' for Active; 'I' for Inactive)
ROOT
ATOM      1  C   UNL d   1      -0.403  -5.849   3.908  0.00  0.00    -0.002 A 
ATOM      2  C1  UNL d   1      -1.786  -5.948   3.966  0.00  0.00     0.010 A 
ATOM      3  C2  UNL d   1      -2.544  -5.999   2.794  0.00  0.00     0.041 A 
ATOM      4  C3  UNL d   1      -1.882  -5.951   1.552  0.00  0.00    -0.075 A 
ATOM      5  S   UNL d   1      -2.604  -6.000  -0.013  0.00  0.00     0.015 SA
ATOM      6  C4  UNL d   1      -1.093  -5.891  -0.795  0.00  0.00     0.022 A 
ATOM      7  C5  UNL d   1      -0.053  -5.818   0.101  0.00  0.00     0.026 A 
ATOM      8  C6  UNL d   1      -0.490  -5.852   1.468  0.00  0.00    -0.082 A 
ATOM      9  C7  UNL d   1       0.250  -5.801   2.674  0.00  0.00     0.045 A 
ENDROOT
TORSDOF 0
ENDMDL
