MODEL 1
REMARK minimizedAffinity 14.6666126
REMARK minimizedRMSD -1
REMARK  0 active torsions:
REMARK  status: ('A' for Active; 'I' for Inactive)
ROOT
ATOM      1  C   UNL d   1      -5.269  -2.333   5.204  0.00  0.00    -0.002 A 
ATOM      2  C1  UNL d   1      -5.246  -2.227   3.820  0.00  0.00     0.010 A 
ATOM      3  C2  UNL d   1      -5.273  -0.974   3.203  0.00  0.00     0.041 A 
ATOM      4  C3  UNL d   1      -5.321   0.181   4.008  0.00  0.00    -0.075 A 
ATOM      5  S   UNL d   1      -5.360   1.819   3.473  0.00  0.00     0.015 SA
ATOM      6  C4  UNL d   1      -5.406   2.417   5.068  0.00  0.00     0.022 A 
ATOM      7  C5  UNL d   1      -5.393   1.406   5.999  0.00  0.00     0.026 A 
ATOM      8  C6  UNL d   1      -5.344   0.100   5.403  0.00  0.00    -0.082 A 
ATOM      9  C7  UNL d   1      -5.316  -1.184   5.999  0.00  0.00     0.045 A 
ENDROOT
TORSDOF 0
ENDMDL
