MODEL 1
REMARK minimizedAffinity 5.28568983
REMARK minimizedRMSD -1
REMARK  0 active torsions:
REMARK  status: ('A' for Active; 'I' for Inactive)
ROOT
ATOM      1  C   UNL d   1       0.008  -0.280   1.826  0.00  0.00    -0.002 A 
ATOM      2  C1  UNL d   1       0.294   0.876   1.113  0.00  0.00     0.010 A 
ATOM      3  C2  UNL d   1      -0.235   1.071  -0.164  0.00  0.00     0.041 A 
ATOM      4  C3  UNL d   1      -1.066   0.077  -0.717  0.00  0.00    -0.075 A 
ATOM      5  S   UNL d   1      -1.827   0.100  -2.264  0.00  0.00     0.015 SA
ATOM      6  C4  UNL d   1      -2.549  -1.423  -2.014  0.00  0.00     0.022 A 
ATOM      7  C5  UNL d   1      -2.228  -1.951  -0.786  0.00  0.00     0.026 A 
ATOM      8  C6  UNL d   1      -1.368  -1.095  -0.018  0.00  0.00    -0.082 A 
ATOM      9  C7  UNL d   1      -0.816  -1.264   1.274  0.00  0.00     0.045 A 
ENDROOT
TORSDOF 0
ENDMDL
