MODEL 1
REMARK minimizedAffinity 8.12694836
REMARK minimizedRMSD -1
REMARK  0 active torsions:
REMARK  status: ('A' for Active; 'I' for Inactive)
ROOT
ATOM      1  C   UNL d   1      -2.536  -2.875  -1.621  0.00  0.00    -0.002 A 
ATOM      2  C1  UNL d   1      -1.792  -3.193  -0.493  0.00  0.00     0.010 A 
ATOM      3  C2  UNL d   1      -0.890  -2.273   0.045  0.00  0.00     0.041 A 
ATOM      4  C3  UNL d   1      -0.748  -1.016  -0.575  0.00  0.00    -0.075 A 
ATOM      5  S   UNL d   1       0.296   0.269  -0.091  0.00  0.00     0.015 SA
ATOM      6  C4  UNL d   1      -0.222   1.270  -1.369  0.00  0.00     0.022 A 
ATOM      7  C5  UNL d   1      -1.168   0.655  -2.156  0.00  0.00     0.026 A 
ATOM      8  C6  UNL d   1      -1.486  -0.672  -1.710  0.00  0.00    -0.082 A 
ATOM      9  C7  UNL d   1      -2.392  -1.627  -2.232  0.00  0.00     0.045 A 
ENDROOT
TORSDOF 0
ENDMDL
