MODEL 1
REMARK minimizedAffinity 9.60716248
REMARK minimizedRMSD -1
REMARK  0 active torsions:
REMARK  status: ('A' for Active; 'I' for Inactive)
ROOT
ATOM      1  C   UNL d   1      -2.133  -2.304  -1.875  0.00  0.00    -0.002 A 
ATOM      2  C1  UNL d   1      -0.949  -2.292  -2.598  0.00  0.00     0.010 A 
ATOM      3  C2  UNL d   1       0.104  -1.455  -2.223  0.00  0.00     0.041 A 
ATOM      4  C3  UNL d   1      -0.054  -0.624  -1.097  0.00  0.00    -0.075 A 
ATOM      5  S   UNL d   1       1.100   0.482  -0.451  0.00  0.00     0.015 SA
ATOM      6  C4  UNL d   1       0.049   0.963   0.801  0.00  0.00     0.022 A 
ATOM      7  C5  UNL d   1      -1.158   0.307   0.743  0.00  0.00     0.026 A 
ATOM      8  C6  UNL d   1      -1.237  -0.619  -0.352  0.00  0.00    -0.082 A 
ATOM      9  C7  UNL d   1      -2.286  -1.478  -0.758  0.00  0.00     0.045 A 
ENDROOT
TORSDOF 0
ENDMDL
