MODEL 1
REMARK minimizedAffinity 15.9780293
REMARK minimizedRMSD -1
REMARK  0 active torsions:
REMARK  status: ('A' for Active; 'I' for Inactive)
ROOT
ATOM      1  C   UNL d   1       1.970  -5.936   5.977  0.00  0.00    -0.002 A 
ATOM      2  C1  UNL d   1       2.733  -5.945   4.818  0.00  0.00     0.010 A 
ATOM      3  C2  UNL d   1       2.120  -5.964   3.564  0.00  0.00     0.041 A 
ATOM      4  C3  UNL d   1       0.713  -5.970   3.493  0.00  0.00    -0.075 A 
ATOM      5  S   UNL d   1      -0.256  -5.991   2.067  0.00  0.00     0.015 SA
ATOM      6  C4  UNL d   1      -1.706  -5.988   2.963  0.00  0.00     0.022 A 
ATOM      7  C5  UNL d   1      -1.475  -5.971   4.318  0.00  0.00     0.026 A 
ATOM      8  C6  UNL d   1      -0.077  -5.961   4.646  0.00  0.00    -0.082 A 
ATOM      9  C7  UNL d   1       0.575  -5.943   5.903  0.00  0.00     0.045 A 
ENDROOT
TORSDOF 0
ENDMDL
