MODEL 1
REMARK minimizedAffinity 15.9099703
REMARK minimizedRMSD -1
REMARK  0 active torsions:
REMARK  status: ('A' for Active; 'I' for Inactive)
ROOT
ATOM      1  C   UNL d   1       4.026   0.348  -5.972  0.00  0.00    -0.002 A 
ATOM      2  C1  UNL d   1       3.350   1.554  -5.845  0.00  0.00     0.010 A 
ATOM      3  C2  UNL d   1       3.014   2.050  -4.584  0.00  0.00     0.041 A 
ATOM      4  C3  UNL d   1       3.373   1.309  -3.442  0.00  0.00    -0.075 A 
ATOM      5  S   UNL d   1       3.066   1.721  -1.796  0.00  0.00     0.015 SA
ATOM      6  C4  UNL d   1       3.825   0.308  -1.222  0.00  0.00     0.022 A 
ATOM      7  C5  UNL d   1       4.307  -0.472  -2.247  0.00  0.00     0.026 A 
ATOM      8  C6  UNL d   1       4.054   0.093  -3.543  0.00  0.00    -0.082 A 
ATOM      9  C7  UNL d   1       4.381  -0.385  -4.836  0.00  0.00     0.045 A 
ENDROOT
TORSDOF 0
ENDMDL
