MODEL 1
REMARK minimizedAffinity 16.3023853
REMARK minimizedRMSD -1
REMARK  0 active torsions:
REMARK  status: ('A' for Active; 'I' for Inactive)
ROOT
ATOM      1  C   UNL d   1      -1.612  -2.980   1.603  0.00  0.00    -0.002 A 
ATOM      2  C1  UNL d   1      -2.286  -3.443   0.482  0.00  0.00     0.010 A 
ATOM      3  C2  UNL d   1      -3.649  -3.190   0.317  0.00  0.00     0.041 A 
ATOM      4  C3  UNL d   1      -4.330  -2.456   1.308  0.00  0.00    -0.075 A 
ATOM      5  S   UNL d   1      -6.000  -2.025   1.319  0.00  0.00     0.015 SA
ATOM      6  C4  UNL d   1      -5.858  -1.216   2.812  0.00  0.00     0.022 A 
ATOM      7  C5  UNL d   1      -4.575  -1.264   3.305  0.00  0.00     0.026 A 
ATOM      8  C6  UNL d   1      -3.674  -1.979   2.446  0.00  0.00    -0.082 A 
ATOM      9  C7  UNL d   1      -2.291  -2.252   2.584  0.00  0.00     0.045 A 
ENDROOT
TORSDOF 0
ENDMDL
