MODEL 1
REMARK minimizedAffinity 3.42990494
REMARK minimizedRMSD -1
REMARK  0 active torsions:
REMARK  status: ('A' for Active; 'I' for Inactive)
ROOT
ATOM      1  C   UNL d   1       0.063  -5.998   1.662  0.00  0.00     0.020 A 
ATOM      2  C1  UNL d   1      -0.777  -5.946   2.774  0.00  0.00     0.020 A 
ATOM      3  C2  UNL d   1      -0.233  -5.890   4.058  0.00  0.00     0.034 A 
ATOM      4  C3  UNL d   1       1.155  -5.887   4.235  0.00  0.00     0.017 A 
ATOM      5  C4  UNL d   1       1.998  -5.938   3.119  0.00  0.00     0.017 A 
ATOM      6  C5  UNL d   1       1.448  -5.994   1.835  0.00  0.00     0.034 A 
ATOM      7 Cl   UNL d   1       3.721  -5.937   3.258  0.00  0.00    -0.070 Cl
ATOM      8 Cl1  UNL d   1       1.759  -5.816   5.853  0.00  0.00    -0.070 Cl
ENDROOT
TORSDOF 0
ENDMDL
