MODEL 1
REMARK minimizedAffinity 12.3755035
REMARK minimizedRMSD -1
REMARK  0 active torsions:
REMARK  status: ('A' for Active; 'I' for Inactive)
ROOT
ATOM      1  C   UNL d   1       1.963  -5.996   3.773  0.00  0.00     0.020 A 
ATOM      2  C1  UNL d   1       2.235  -5.995   2.405  0.00  0.00     0.020 A 
ATOM      3  C2  UNL d   1       1.184  -5.995   1.485  0.00  0.00     0.034 A 
ATOM      4  C3  UNL d   1      -0.142  -5.997   1.931  0.00  0.00     0.017 A 
ATOM      5  C4  UNL d   1      -0.414  -5.998   3.304  0.00  0.00     0.017 A 
ATOM      6  C5  UNL d   1       0.641  -5.997   4.221  0.00  0.00     0.034 A 
ATOM      7 Cl   UNL d   1      -2.025  -5.999   3.930  0.00  0.00    -0.070 Cl
ATOM      8 Cl1  UNL d   1      -1.391  -5.997   0.737  0.00  0.00    -0.070 Cl
ENDROOT
TORSDOF 0
ENDMDL
