MODEL 1
REMARK minimizedAffinity 4.26807213
REMARK minimizedRMSD -1
REMARK  0 active torsions:
REMARK  status: ('A' for Active; 'I' for Inactive)
ROOT
ATOM      1  C   UNL d   1      -3.709  -5.991   1.066  0.00  0.00     0.020 A 
ATOM      2  C1  UNL d   1      -4.183  -5.995   2.377  0.00  0.00     0.020 A 
ATOM      3  C2  UNL d   1      -3.283  -5.997   3.445  0.00  0.00     0.034 A 
ATOM      4  C3  UNL d   1      -1.904  -5.996   3.203  0.00  0.00     0.017 A 
ATOM      5  C4  UNL d   1      -1.430  -5.993   1.886  0.00  0.00     0.017 A 
ATOM      6  C5  UNL d   1      -2.335  -5.990   0.821  0.00  0.00     0.034 A 
ATOM      7 Cl   UNL d   1       0.257  -5.991   1.509  0.00  0.00    -0.070 Cl
ATOM      8 Cl1  UNL d   1      -0.849  -5.999   4.571  0.00  0.00    -0.070 Cl
ENDROOT
TORSDOF 0
ENDMDL
