MODEL 1
REMARK minimizedAffinity 4.68300867
REMARK minimizedRMSD -1
REMARK  0 active torsions:
REMARK  status: ('A' for Active; 'I' for Inactive)
ROOT
ATOM      1  C   UNL d   1      -1.062  -5.999   2.394  0.00  0.00     0.020 A 
ATOM      2  C1  UNL d   1      -0.112  -5.999   1.373  0.00  0.00     0.020 A 
ATOM      3  C2  UNL d   1       1.249  -5.998   1.687  0.00  0.00     0.034 A 
ATOM      4  C3  UNL d   1       1.664  -5.998   3.023  0.00  0.00     0.017 A 
ATOM      5  C4  UNL d   1       0.709  -5.998   4.047  0.00  0.00     0.017 A 
ATOM      6  C5  UNL d   1      -0.652  -5.999   3.728  0.00  0.00     0.034 A 
ATOM      7 Cl   UNL d   1       1.144  -5.998   5.720  0.00  0.00    -0.070 Cl
ATOM      8 Cl1  UNL d   1       3.363  -5.998   3.338  0.00  0.00    -0.070 Cl
ENDROOT
TORSDOF 0
ENDMDL
