MODEL 1
REMARK minimizedAffinity 1.54588926
REMARK minimizedRMSD -1
REMARK  0 active torsions:
REMARK  status: ('A' for Active; 'I' for Inactive)
ROOT
ATOM      1  C   UNL d   1       0.497  -5.997   1.534  0.00  0.00     0.020 A 
ATOM      2  C1  UNL d   1      -0.508  -5.997   2.500  0.00  0.00     0.020 A 
ATOM      3  C2  UNL d   1      -0.173  -5.997   3.856  0.00  0.00     0.034 A 
ATOM      4  C3  UNL d   1       1.170  -5.997   4.249  0.00  0.00     0.017 A 
ATOM      5  C4  UNL d   1       2.178  -5.998   3.278  0.00  0.00     0.017 A 
ATOM      6  C5  UNL d   1       1.837  -5.998   1.922  0.00  0.00     0.034 A 
ATOM      7 Cl   UNL d   1       3.858  -5.998   3.686  0.00  0.00    -0.070 Cl
ATOM      8 Cl1  UNL d   1       1.511  -5.997   5.943  0.00  0.00    -0.070 Cl
ENDROOT
TORSDOF 0
ENDMDL
