MODEL 1
REMARK minimizedAffinity 6.3206811
REMARK minimizedRMSD -1
REMARK  0 active torsions:
REMARK  status: ('A' for Active; 'I' for Inactive)
ROOT
ATOM      1  C   UNL d   1      -0.584  -5.990   1.971  0.00  0.00     0.020 A 
ATOM      2  C1  UNL d   1      -1.248  -5.997   3.197  0.00  0.00     0.020 A 
ATOM      3  C2  UNL d   1      -0.517  -5.997   4.387  0.00  0.00     0.034 A 
ATOM      4  C3  UNL d   1       0.882  -5.991   4.353  0.00  0.00     0.017 A 
ATOM      5  C4  UNL d   1       1.548  -5.984   3.122  0.00  0.00     0.017 A 
ATOM      6  C5  UNL d   1       0.811  -5.984   1.934  0.00  0.00     0.034 A 
ATOM      7 Cl   UNL d   1       3.272  -5.976   3.001  0.00  0.00    -0.070 Cl
ATOM      8 Cl1  UNL d   1       1.722  -5.991   5.863  0.00  0.00    -0.070 Cl
ENDROOT
TORSDOF 0
ENDMDL
