MODEL 1
REMARK minimizedAffinity 8.88940334
REMARK minimizedRMSD -1
REMARK  0 active torsions:
REMARK  status: ('A' for Active; 'I' for Inactive)
ROOT
ATOM      1  C   UNL d   1       3.147  -6.000   3.148  0.00  0.00     0.020 A 
ATOM      2  C1  UNL d   1       3.344  -5.962   4.527  0.00  0.00     0.020 A 
ATOM      3  C2  UNL d   1       2.246  -5.888   5.387  0.00  0.00     0.034 A 
ATOM      4  C3  UNL d   1       0.946  -5.853   4.869  0.00  0.00     0.017 A 
ATOM      5  C4  UNL d   1       0.750  -5.891   3.483  0.00  0.00     0.017 A 
ATOM      6  C5  UNL d   1       1.853  -5.964   2.627  0.00  0.00     0.034 A 
ATOM      7 Cl   UNL d   1      -0.823  -5.850   2.769  0.00  0.00    -0.070 Cl
ATOM      8 Cl1  UNL d   1      -0.364  -5.762   5.991  0.00  0.00    -0.070 Cl
ENDROOT
TORSDOF 0
ENDMDL
