MODEL 1
REMARK minimizedAffinity 1.38709986
REMARK minimizedRMSD -1
REMARK  0 active torsions:
REMARK  status: ('A' for Active; 'I' for Inactive)
ROOT
ATOM      1  C   UNL d   1      -0.876  -5.999   1.713  0.00  0.00     0.020 A 
ATOM      2  C1  UNL d   1      -1.521  -5.999   2.949  0.00  0.00     0.020 A 
ATOM      3  C2  UNL d   1      -0.770  -6.000   4.127  0.00  0.00     0.034 A 
ATOM      4  C3  UNL d   1       0.628  -6.000   4.071  0.00  0.00     0.017 A 
ATOM      5  C4  UNL d   1       1.274  -6.000   2.829  0.00  0.00     0.017 A 
ATOM      6  C5  UNL d   1       0.518  -5.999   1.653  0.00  0.00     0.034 A 
ATOM      7 Cl   UNL d   1       2.996  -6.000   2.680  0.00  0.00    -0.070 Cl
ATOM      8 Cl1  UNL d   1       1.492  -6.000   5.568  0.00  0.00    -0.070 Cl
ENDROOT
TORSDOF 0
ENDMDL
