MODEL 1
REMARK minimizedAffinity 8.14599514
REMARK minimizedRMSD -1
REMARK  0 active torsions:
REMARK  status: ('A' for Active; 'I' for Inactive)
ROOT
ATOM      1  C   UNL d   1      -5.505  -0.506   6.000  0.00  0.00     0.020 A 
ATOM      2  C1  UNL d   1      -5.880   0.807   5.718  0.00  0.00     0.020 A 
ATOM      3  C2  UNL d   1      -5.309   1.479   4.635  0.00  0.00     0.034 A 
ATOM      4  C3  UNL d   1      -4.360   0.837   3.830  0.00  0.00     0.017 A 
ATOM      5  C4  UNL d   1      -3.985  -0.481   4.114  0.00  0.00     0.017 A 
ATOM      6  C5  UNL d   1      -4.560  -1.148   5.200  0.00  0.00     0.034 A 
ATOM      7 Cl   UNL d   1      -2.821  -1.338   3.166  0.00  0.00    -0.070 Cl
ATOM      8 Cl1  UNL d   1      -3.695   1.728   2.507  0.00  0.00    -0.070 Cl
ENDROOT
TORSDOF 0
ENDMDL
