MODEL 1
REMARK minimizedAffinity 5.52976418
REMARK minimizedRMSD -1
REMARK  0 active torsions:
REMARK  status: ('A' for Active; 'I' for Inactive)
ROOT
ATOM      1  C   UNL d   1       3.298  -5.984   3.848  0.00  0.00     0.020 A 
ATOM      2  C1  UNL d   1       2.443  -5.984   4.950  0.00  0.00     0.020 A 
ATOM      3  C2  UNL d   1       1.060  -5.989   4.760  0.00  0.00     0.034 A 
ATOM      4  C3  UNL d   1       0.527  -5.994   3.465  0.00  0.00     0.017 A 
ATOM      5  C4  UNL d   1       1.386  -5.994   2.360  0.00  0.00     0.017 A 
ATOM      6  C5  UNL d   1       2.771  -5.989   2.557  0.00  0.00     0.034 A 
ATOM      7 Cl   UNL d   1       0.804  -6.000   0.733  0.00  0.00    -0.070 Cl
ATOM      8 Cl1  UNL d   1      -1.193  -6.000   3.304  0.00  0.00    -0.070 Cl
ENDROOT
TORSDOF 0
ENDMDL
