MODEL 1
REMARK minimizedAffinity 3.62242699
REMARK minimizedRMSD -1
REMARK  0 active torsions:
REMARK  status: ('A' for Active; 'I' for Inactive)
ROOT
ATOM      1  C   UNL d   1      -0.095  -5.985   1.292  0.00  0.00     0.020 A 
ATOM      2  C1  UNL d   1      -0.949  -5.983   2.394  0.00  0.00     0.020 A 
ATOM      3  C2  UNL d   1      -0.421  -5.985   3.687  0.00  0.00     0.034 A 
ATOM      4  C3  UNL d   1       0.965  -5.989   3.881  0.00  0.00     0.017 A 
ATOM      5  C4  UNL d   1       1.821  -5.991   2.774  0.00  0.00     0.017 A 
ATOM      6  C5  UNL d   1       1.287  -5.989   1.482  0.00  0.00     0.034 A 
ATOM      7 Cl   UNL d   1       3.542  -5.996   2.933  0.00  0.00    -0.070 Cl
ATOM      8 Cl1  UNL d   1       1.549  -5.991   5.507  0.00  0.00    -0.070 Cl
ENDROOT
TORSDOF 0
ENDMDL
