MODEL 1
REMARK minimizedAffinity 5.21552944
REMARK minimizedRMSD -1
REMARK  0 active torsions:
REMARK  status: ('A' for Active; 'I' for Inactive)
ROOT
ATOM      1  C   UNL d   1       1.917  -5.989   1.654  0.00  0.00     0.020 A 
ATOM      2  C1  UNL d   1       2.847  -5.612   2.623  0.00  0.00     0.020 A 
ATOM      3  C2  UNL d   1       2.415  -5.244   3.899  0.00  0.00     0.034 A 
ATOM      4  C3  UNL d   1       1.051  -5.254   4.211  0.00  0.00     0.017 A 
ATOM      5  C4  UNL d   1       0.119  -5.633   3.238  0.00  0.00     0.017 A 
ATOM      6  C5  UNL d   1       0.556  -6.000   1.961  0.00  0.00     0.034 A 
ATOM      7 Cl   UNL d   1      -1.582  -5.670   3.548  0.00  0.00    -0.070 Cl
ATOM      8 Cl1  UNL d   1       0.588  -4.788   5.809  0.00  0.00    -0.070 Cl
ENDROOT
TORSDOF 0
ENDMDL
