MODEL 1
REMARK minimizedAffinity 2.86148596
REMARK minimizedRMSD -1
REMARK  0 active torsions:
REMARK  status: ('A' for Active; 'I' for Inactive)
ROOT
ATOM      1  C   UNL d   1      -4.835  -5.995   0.000  0.00  0.00     0.020 A 
ATOM      2  C1  UNL d   1      -3.484  -5.995  -0.346  0.00  0.00     0.020 A 
ATOM      3  C2  UNL d   1      -2.508  -5.997   0.652  0.00  0.00     0.034 A 
ATOM      4  C3  UNL d   1      -2.880  -5.997   2.001  0.00  0.00     0.017 A 
ATOM      5  C4  UNL d   1      -4.236  -5.997   2.348  0.00  0.00     0.017 A 
ATOM      6  C5  UNL d   1      -5.210  -5.995   1.344  0.00  0.00     0.034 A 
ATOM      7 Cl   UNL d   1      -4.773  -5.997   3.991  0.00  0.00    -0.070 Cl
ATOM      8 Cl1  UNL d   1      -1.620  -5.999   3.183  0.00  0.00    -0.070 Cl
ENDROOT
TORSDOF 0
ENDMDL
