MODEL 1
REMARK minimizedAffinity 8.72820473
REMARK minimizedRMSD -1
REMARK  0 active torsions:
REMARK  status: ('A' for Active; 'I' for Inactive)
ROOT
ATOM      1  C   UNL d   1       1.206  -5.762   5.940  0.00  0.00     0.020 A 
ATOM      2  C1  UNL d   1      -0.178  -5.928   5.964  0.00  0.00     0.020 A 
ATOM      3  C2  UNL d   1      -0.893  -5.997   4.766  0.00  0.00     0.034 A 
ATOM      4  C3  UNL d   1      -0.224  -5.899   3.540  0.00  0.00     0.017 A 
ATOM      5  C4  UNL d   1       1.165  -5.732   3.518  0.00  0.00     0.017 A 
ATOM      6  C5  UNL d   1       1.876  -5.664   4.720  0.00  0.00     0.034 A 
ATOM      7 Cl   UNL d   1       2.060  -5.604   2.045  0.00  0.00    -0.070 Cl
ATOM      8 Cl1  UNL d   1      -1.172  -5.993   2.098  0.00  0.00    -0.070 Cl
ENDROOT
TORSDOF 0
ENDMDL
