MODEL 1
REMARK minimizedAffinity 11.56563
REMARK minimizedRMSD -1
REMARK  0 active torsions:
REMARK  status: ('A' for Active; 'I' for Inactive)
ROOT
ATOM      1  C   UNL d   1       0.088  -1.200   0.534  0.00  0.00     0.020 A 
ATOM      2  C1  UNL d   1      -1.228  -1.575   0.264  0.00  0.00     0.020 A 
ATOM      3  C2  UNL d   1      -1.627  -1.824  -1.051  0.00  0.00     0.034 A 
ATOM      4  C3  UNL d   1      -0.711  -1.697  -2.101  0.00  0.00     0.017 A 
ATOM      5  C4  UNL d   1       0.610  -1.320  -1.829  0.00  0.00     0.017 A 
ATOM      6  C5  UNL d   1       1.004  -1.073  -0.511  0.00  0.00     0.034 A 
ATOM      7 Cl   UNL d   1       1.797  -1.143  -3.072  0.00  0.00    -0.070 Cl
ATOM      8 Cl1  UNL d   1      -1.274  -2.020  -3.702  0.00  0.00    -0.070 Cl
ENDROOT
TORSDOF 0
ENDMDL
