MODEL 1
REMARK minimizedAffinity 9.29125977
REMARK minimizedRMSD -1
REMARK  0 active torsions:
REMARK  status: ('A' for Active; 'I' for Inactive)
ROOT
ATOM      1  C   UNL d   1      -1.506  -0.206  -3.509  0.00  0.00     0.020 A 
ATOM      2  C1  UNL d   1      -2.176  -0.955  -2.542  0.00  0.00     0.020 A 
ATOM      3  C2  UNL d   1      -2.203  -2.348  -2.633  0.00  0.00     0.034 A 
ATOM      4  C3  UNL d   1      -1.559  -2.997  -3.693  0.00  0.00     0.017 A 
ATOM      5  C4  UNL d   1      -0.887  -2.244  -4.662  0.00  0.00     0.017 A 
ATOM      6  C5  UNL d   1      -0.863  -0.849  -4.566  0.00  0.00     0.034 A 
ATOM      7 Cl   UNL d   1      -0.069  -2.973  -5.999  0.00  0.00    -0.070 Cl
ATOM      8 Cl1  UNL d   1      -1.633  -4.722  -3.742  0.00  0.00    -0.070 Cl
ENDROOT
TORSDOF 0
ENDMDL
