MODEL 1
REMARK minimizedAffinity 3.89131951
REMARK minimizedRMSD -1
REMARK  2 active torsions:
REMARK  status: ('A' for Active; 'I' for Inactive)
REMARK    1  A    between atoms: C2'_3  and  C1'_4 
REMARK    2  A    between atoms: C1'_4  and  C1_5 
ROOT
ATOM      1  C1  I4B d   1      -2.245   1.672  -3.792  0.00  0.00    -0.075 A 
ATOM      2  C2  I4B d   1      -3.555   1.799  -3.400  0.00  0.00     0.003 A 
ATOM      3  C3  I4B d   1      -3.962   2.910  -2.623  0.00  0.00     0.002 A 
ATOM      4  C4  I4B d   1      -3.024   3.838  -2.220  0.00  0.00    -0.004 A 
ATOM      5  C5  I4B d   1      -1.701   3.720  -2.637  0.00  0.00     0.002 A 
ATOM      6  C6  I4B d   1      -1.311   2.637  -3.438  0.00  0.00     0.003 A 
ENDROOT
BRANCH   1   7
ATOM      7  C1' I4B d   1      -1.843   0.469  -4.584  0.00  0.00     0.060 C 
BRANCH   7   8
ATOM      8  C2' I4B d   1      -1.277  -0.555  -3.622  0.00  0.00    -0.013 C 
ATOM      9  C4' I4B d   1      -2.325  -1.555  -3.211  0.00  0.00     0.013 C 
ATOM     10  C3' I4B d   1      -0.118  -1.231  -4.293  0.00  0.00     0.013 C 
ENDBRANCH   7   8
ENDBRANCH   1   7
TORSDOF 2
ENDMDL
