MODEL 1
REMARK minimizedAffinity 0.642715871
REMARK minimizedRMSD -1
REMARK  2 active torsions:
REMARK  status: ('A' for Active; 'I' for Inactive)
REMARK    1  A    between atoms: C2'_3  and  C1'_4 
REMARK    2  A    between atoms: C1'_4  and  C1_5 
ROOT
ATOM      1  C1  I4B d   1      -2.809   0.550   2.548  0.00  0.00    -0.075 A 
ATOM      2  C2  I4B d   1      -2.262  -0.328   3.449  0.00  0.00     0.003 A 
ATOM      3  C3  I4B d   1      -1.191  -1.171   3.063  0.00  0.00     0.002 A 
ATOM      4  C4  I4B d   1      -0.737  -1.138   1.761  0.00  0.00    -0.004 A 
ATOM      5  C5  I4B d   1      -1.278  -0.231   0.855  0.00  0.00     0.002 A 
ATOM      6  C6  I4B d   1      -2.312   0.627   1.253  0.00  0.00     0.003 A 
ENDROOT
BRANCH   1   7
ATOM      7  C1' I4B d   1      -3.960   1.402   2.980  0.00  0.00     0.060 C 
BRANCH   7   8
ATOM      8  C2' I4B d   1      -5.104   0.484   3.359  0.00  0.00    -0.013 C 
ATOM      9  C4' I4B d   1      -6.000   1.124   4.388  0.00  0.00     0.013 C 
ATOM     10  C3' I4B d   1      -5.865   0.153   2.110  0.00  0.00     0.013 C 
ENDBRANCH   7   8
ENDBRANCH   1   7
TORSDOF 2
ENDMDL
