MODEL 1
REMARK minimizedAffinity -1.50860572
REMARK minimizedRMSD -1
REMARK  2 active torsions:
REMARK  status: ('A' for Active; 'I' for Inactive)
REMARK    1  A    between atoms: C2'_3  and  C1'_4 
REMARK    2  A    between atoms: C1'_4  and  C1_5 
ROOT
ATOM      1  C1  I4B d   1       0.674  -2.014   1.157  0.00  0.00    -0.075 A 
ATOM      2  C2  I4B d   1       0.601  -1.133   0.108  0.00  0.00     0.003 A 
ATOM      3  C3  I4B d   1      -0.326  -0.063   0.139  0.00  0.00     0.002 A 
ATOM      4  C4  I4B d   1      -1.189   0.057   1.209  0.00  0.00    -0.004 A 
ATOM      5  C5  I4B d   1      -1.098  -0.824   2.282  0.00  0.00     0.002 A 
ATOM      6  C6  I4B d   1      -0.152  -1.859   2.262  0.00  0.00     0.003 A 
ENDROOT
BRANCH   1   7
ATOM      7  C1' I4B d   1       1.642  -3.152   1.077  0.00  0.00     0.060 C 
BRANCH   7   8
ATOM      8  C2' I4B d   1       1.481  -3.992   2.328  0.00  0.00    -0.013 C 
ATOM      9  C4' I4B d   1       0.343  -4.968   2.186  0.00  0.00     0.013 C 
ATOM     10  C3' I4B d   1       2.777  -4.704   2.578  0.00  0.00     0.013 C 
ENDBRANCH   7   8
ENDBRANCH   1   7
TORSDOF 2
ENDMDL
