MODEL 1
REMARK minimizedAffinity -0.302959025
REMARK minimizedRMSD -1
REMARK  2 active torsions:
REMARK  status: ('A' for Active; 'I' for Inactive)
REMARK    1  A    between atoms: C2'_3  and  C1'_4 
REMARK    2  A    between atoms: C1'_4  and  C1_5 
ROOT
ATOM      1  C1  I4B d   1      -0.062  -2.523   2.721  0.00  0.00    -0.075 A 
ATOM      2  C2  I4B d   1      -0.839  -3.546   3.204  0.00  0.00     0.003 A 
ATOM      3  C3  I4B d   1      -0.392  -4.886   3.112  0.00  0.00     0.002 A 
ATOM      4  C4  I4B d   1       0.808  -5.161   2.489  0.00  0.00    -0.004 A 
ATOM      5  C5  I4B d   1       1.606  -4.121   2.020  0.00  0.00     0.002 A 
ATOM      6  C6  I4B d   1       1.174  -2.793   2.148  0.00  0.00     0.003 A 
ENDROOT
BRANCH   1   7
ATOM      7  C1' I4B d   1      -0.580  -1.123   2.805  0.00  0.00     0.060 C 
BRANCH   7   8
ATOM      8  C2' I4B d   1      -1.120  -0.742   1.441  0.00  0.00    -0.013 C 
ATOM      9  C4' I4B d   1      -2.238   0.260   1.558  0.00  0.00     0.013 C 
ATOM     10  C3' I4B d   1       0.016  -0.195   0.630  0.00  0.00     0.013 C 
ENDBRANCH   7   8
ENDBRANCH   1   7
TORSDOF 2
ENDMDL
