MODEL 1
REMARK minimizedAffinity 0.566086948
REMARK minimizedRMSD -1
REMARK  2 active torsions:
REMARK  status: ('A' for Active; 'I' for Inactive)
REMARK    1  A    between atoms: C2'_3  and  C1'_4 
REMARK    2  A    between atoms: C1'_4  and  C1_5 
ROOT
ATOM      1  C1  I4B d   1       0.063  -0.426  -0.036  0.00  0.00    -0.075 A 
ATOM      2  C2  I4B d   1       0.698   0.790   0.005  0.00  0.00     0.003 A 
ATOM      3  C3  I4B d   1       2.065   0.893  -0.348  0.00  0.00     0.002 A 
ATOM      4  C4  I4B d   1       2.767  -0.246  -0.685  0.00  0.00    -0.004 A 
ATOM      5  C5  I4B d   1       2.116  -1.475  -0.748  0.00  0.00     0.002 A 
ATOM      6  C6  I4B d   1       0.753  -1.564  -0.434  0.00  0.00     0.003 A 
ENDROOT
BRANCH   1   7
ATOM      7  C1' I4B d   1      -1.373  -0.504   0.376  0.00  0.00     0.060 C 
BRANCH   7   8
ATOM      8  C2' I4B d   1      -1.465  -0.089   1.830  0.00  0.00    -0.013 C 
ATOM      9  C4' I4B d   1      -2.870   0.314   2.194  0.00  0.00     0.013 C 
ATOM     10  C3' I4B d   1      -0.996  -1.239   2.670  0.00  0.00     0.013 C 
ENDBRANCH   7   8
ENDBRANCH   1   7
TORSDOF 2
ENDMDL
