MODEL 1
REMARK minimizedAffinity 8.12856865
REMARK minimizedRMSD -1
REMARK  0 active torsions:
REMARK  status: ('A' for Active; 'I' for Inactive)
ROOT
ATOM      1  C   UNL d   1       2.778   1.366  -1.917  0.00  0.00     0.020 A 
ATOM      2  C1  UNL d   1       2.632   0.006  -2.187  0.00  0.00     0.020 A 
ATOM      3  C2  UNL d   1       2.004  -0.827  -1.259  0.00  0.00     0.034 A 
ATOM      4  C3  UNL d   1       1.518  -0.301  -0.056  0.00  0.00     0.017 A 
ATOM      5  C4  UNL d   1       1.665   1.065   0.214  0.00  0.00     0.017 A 
ATOM      6  C5  UNL d   1       2.295   1.894  -0.719  0.00  0.00     0.034 A 
ATOM      7 Cl   UNL d   1       1.091   1.787   1.676  0.00  0.00    -0.070 Cl
ATOM      8 Cl1  UNL d   1       0.752  -1.389   1.046  0.00  0.00    -0.070 Cl
ENDROOT
TORSDOF 0
ENDMDL
