MODEL 1
REMARK minimizedAffinity 10.0042086
REMARK minimizedRMSD -1
REMARK  0 active torsions:
REMARK  status: ('A' for Active; 'I' for Inactive)
ROOT
ATOM      1  C   UNL d   1       1.478   1.016   0.933  0.00  0.00     0.020 A 
ATOM      2  C1  UNL d   1       2.440   1.905   1.411  0.00  0.00     0.020 A 
ATOM      3  C2  UNL d   1       3.523   2.262   0.605  0.00  0.00     0.034 A 
ATOM      4  C3  UNL d   1       3.647   1.729  -0.683  0.00  0.00     0.017 A 
ATOM      5  C4  UNL d   1       2.682   0.836  -1.162  0.00  0.00     0.017 A 
ATOM      6  C5  UNL d   1       1.599   0.482  -0.351  0.00  0.00     0.034 A 
ATOM      7 Cl   UNL d   1       2.768   0.137  -2.741  0.00  0.00    -0.070 Cl
ATOM      8 Cl1  UNL d   1       5.012   2.215  -1.625  0.00  0.00    -0.070 Cl
ENDROOT
TORSDOF 0
ENDMDL
