MODEL 1
REMARK minimizedAffinity 10.6415539
REMARK minimizedRMSD -1
REMARK  0 active torsions:
REMARK  status: ('A' for Active; 'I' for Inactive)
ROOT
ATOM      1  C   UNL d   1       1.406  -0.718  -1.941  0.00  0.00     0.020 A 
ATOM      2  C1  UNL d   1       2.708  -0.564  -2.415  0.00  0.00     0.020 A 
ATOM      3  C2  UNL d   1       3.043   0.552  -3.185  0.00  0.00     0.034 A 
ATOM      4  C3  UNL d   1       2.075   1.518  -3.483  0.00  0.00     0.017 A 
ATOM      5  C4  UNL d   1       0.768   1.362  -3.007  0.00  0.00     0.017 A 
ATOM      6  C5  UNL d   1       0.438   0.243  -2.236  0.00  0.00     0.034 A 
ATOM      7 Cl   UNL d   1      -0.480   2.512  -3.333  0.00  0.00    -0.070 Cl
ATOM      8 Cl1  UNL d   1       2.560   2.873  -4.440  0.00  0.00    -0.070 Cl
ENDROOT
TORSDOF 0
ENDMDL
