MODEL 1
REMARK minimizedAffinity 7.70575571
REMARK minimizedRMSD -1
REMARK  0 active torsions:
REMARK  status: ('A' for Active; 'I' for Inactive)
ROOT
ATOM      1  C   UNL d   1       2.203   1.707   1.670  0.00  0.00     0.020 A 
ATOM      2  C1  UNL d   1       1.420   0.690   1.127  0.00  0.00     0.020 A 
ATOM      3  C2  UNL d   1       1.715   0.183  -0.141  0.00  0.00     0.034 A 
ATOM      4  C3  UNL d   1       2.796   0.693  -0.869  0.00  0.00     0.017 A 
ATOM      5  C4  UNL d   1       3.582   1.714  -0.322  0.00  0.00     0.017 A 
ATOM      6  C5  UNL d   1       3.282   2.218   0.947  0.00  0.00     0.034 A 
ATOM      7 Cl   UNL d   1       4.932   2.394  -1.160  0.00  0.00    -0.070 Cl
ATOM      8 Cl1  UNL d   1       3.103   0.019  -2.430  0.00  0.00    -0.070 Cl
ENDROOT
TORSDOF 0
ENDMDL
