MODEL 1
REMARK minimizedAffinity 14.7472677
REMARK minimizedRMSD -1
REMARK  0 active torsions:
REMARK  status: ('A' for Active; 'I' for Inactive)
ROOT
ATOM      1  C   UNL d   1       3.014   3.011   2.893  0.00  0.00     0.020 A 
ATOM      2  C1  UNL d   1       3.925   2.727   1.877  0.00  0.00     0.020 A 
ATOM      3  C2  UNL d   1       3.489   2.113   0.700  0.00  0.00     0.034 A 
ATOM      4  C3  UNL d   1       2.139   1.782   0.538  0.00  0.00     0.017 A 
ATOM      5  C4  UNL d   1       1.225   2.068   1.558  0.00  0.00     0.017 A 
ATOM      6  C5  UNL d   1       1.667   2.683   2.734  0.00  0.00     0.034 A 
ATOM      7 Cl   UNL d   1      -0.456   1.689   1.430  0.00  0.00    -0.070 Cl
ATOM      8 Cl1  UNL d   1       1.670   1.025  -0.943  0.00  0.00    -0.070 Cl
ENDROOT
TORSDOF 0
ENDMDL
