MODEL 1
REMARK minimizedAffinity 1.8028791
REMARK minimizedRMSD -1
REMARK  0 active torsions:
REMARK  status: ('A' for Active; 'I' for Inactive)
ROOT
ATOM      1  C   UNL d   1       1.168   0.879   0.725  0.00  0.00     0.020 A 
ATOM      2  C1  UNL d   1       2.454   1.238   0.320  0.00  0.00     0.020 A 
ATOM      3  C2  UNL d   1       3.206   2.125   1.093  0.00  0.00     0.034 A 
ATOM      4  C3  UNL d   1       2.674   2.657   2.273  0.00  0.00     0.017 A 
ATOM      5  C4  UNL d   1       1.384   2.296   2.678  0.00  0.00     0.017 A 
ATOM      6  C5  UNL d   1       0.635   1.407   1.901  0.00  0.00     0.034 A 
ATOM      7 Cl   UNL d   1       0.659   2.910   4.122  0.00  0.00    -0.070 Cl
ATOM      8 Cl1  UNL d   1       3.660   3.749   3.179  0.00  0.00    -0.070 Cl
ENDROOT
TORSDOF 0
ENDMDL
