MODEL 1
REMARK minimizedAffinity 13.0038662
REMARK minimizedRMSD -1
REMARK  0 active torsions:
REMARK  status: ('A' for Active; 'I' for Inactive)
ROOT
ATOM      1  C   UNL d   1       0.027   1.886   1.146  0.00  0.00     0.020 A 
ATOM      2  C1  UNL d   1       1.073   1.014   1.447  0.00  0.00     0.020 A 
ATOM      3  C2  UNL d   1       1.910   0.551   0.429  0.00  0.00     0.034 A 
ATOM      4  C3  UNL d   1       1.702   0.959  -0.894  0.00  0.00     0.017 A 
ATOM      5  C4  UNL d   1       0.652   1.834  -1.194  0.00  0.00     0.017 A 
ATOM      6  C5  UNL d   1      -0.182   2.295  -0.171  0.00  0.00     0.034 A 
ATOM      7 Cl   UNL d   1       0.334   2.382  -2.802  0.00  0.00    -0.070 Cl
ATOM      8 Cl1  UNL d   1       2.776   0.347  -2.101  0.00  0.00    -0.070 Cl
ENDROOT
TORSDOF 0
ENDMDL
