MODEL 1
REMARK minimizedAffinity 6.44476032
REMARK minimizedRMSD -1
REMARK  0 active torsions:
REMARK  status: ('A' for Active; 'I' for Inactive)
ROOT
ATOM      1  C   UNL d   1       2.637   2.270   2.325  0.00  0.00     0.020 A 
ATOM      2  C1  UNL d   1       1.711   1.358   1.821  0.00  0.00     0.020 A 
ATOM      3  C2  UNL d   1       1.873   0.836   0.536  0.00  0.00     0.034 A 
ATOM      4  C3  UNL d   1       2.963   1.227  -0.250  0.00  0.00     0.017 A 
ATOM      5  C4  UNL d   1       3.893   2.142   0.257  0.00  0.00     0.017 A 
ATOM      6  C5  UNL d   1       3.725   2.661   1.545  0.00  0.00     0.034 A 
ATOM      7 Cl   UNL d   1       5.264   2.672  -0.653  0.00  0.00    -0.070 Cl
ATOM      8 Cl1  UNL d   1       3.102   0.541  -1.830  0.00  0.00    -0.070 Cl
ENDROOT
TORSDOF 0
ENDMDL
