MODEL 1
REMARK minimizedAffinity 11.3212738
REMARK minimizedRMSD -1
REMARK  0 active torsions:
REMARK  status: ('A' for Active; 'I' for Inactive)
ROOT
ATOM      1  C   UNL d   1       2.012  -0.186  -2.320  0.00  0.00     0.020 A 
ATOM      2  C1  UNL d   1       2.678   1.010  -2.052  0.00  0.00     0.020 A 
ATOM      3  C2  UNL d   1       2.675   1.535  -0.758  0.00  0.00     0.034 A 
ATOM      4  C3  UNL d   1       2.006   0.865   0.272  0.00  0.00     0.017 A 
ATOM      5  C4  UNL d   1       1.338  -0.335   0.002  0.00  0.00     0.017 A 
ATOM      6  C5  UNL d   1       1.344  -0.857  -1.295  0.00  0.00     0.034 A 
ATOM      7 Cl   UNL d   1       0.491  -1.219   1.222  0.00  0.00    -0.070 Cl
ATOM      8 Cl1  UNL d   1       2.044   1.573   1.848  0.00  0.00    -0.070 Cl
ENDROOT
TORSDOF 0
ENDMDL
