MODEL 1
REMARK minimizedAffinity 4.84637642
REMARK minimizedRMSD -1
REMARK  0 active torsions:
REMARK  status: ('A' for Active; 'I' for Inactive)
ROOT
ATOM      1  C   UNL d   1       2.255   1.706   1.743  0.00  0.00     0.020 A 
ATOM      2  C1  UNL d   1       1.799   0.905   0.697  0.00  0.00     0.020 A 
ATOM      3  C2  UNL d   1       0.430   0.806   0.439  0.00  0.00     0.034 A 
ATOM      4  C3  UNL d   1      -0.487   1.510   1.228  0.00  0.00     0.017 A 
ATOM      5  C4  UNL d   1      -0.028   2.313   2.278  0.00  0.00     0.017 A 
ATOM      6  C5  UNL d   1       1.343   2.409   2.532  0.00  0.00     0.034 A 
ATOM      7 Cl   UNL d   1      -1.100   3.211   3.295  0.00  0.00    -0.070 Cl
ATOM      8 Cl1  UNL d   1      -2.165   1.341   0.852  0.00  0.00    -0.070 Cl
ENDROOT
TORSDOF 0
ENDMDL
