MODEL 1
REMARK minimizedAffinity 11.7658052
REMARK minimizedRMSD -1
REMARK  0 active torsions:
REMARK  status: ('A' for Active; 'I' for Inactive)
ROOT
ATOM      1  C   UNL d   1       3.060  -0.655  -1.595  0.00  0.00     0.020 A 
ATOM      2  C1  UNL d   1       2.829  -0.384  -2.943  0.00  0.00     0.020 A 
ATOM      3  C2  UNL d   1       1.880   0.572  -3.310  0.00  0.00     0.034 A 
ATOM      4  C3  UNL d   1       1.158   1.260  -2.329  0.00  0.00     0.017 A 
ATOM      5  C4  UNL d   1       1.391   0.987  -0.976  0.00  0.00     0.017 A 
ATOM      6  C5  UNL d   1       2.343   0.029  -0.613  0.00  0.00     0.034 A 
ATOM      7 Cl   UNL d   1       0.539   1.796   0.293  0.00  0.00    -0.070 Cl
ATOM      8 Cl1  UNL d   1      -0.000   2.429  -2.855  0.00  0.00    -0.070 Cl
ENDROOT
TORSDOF 0
ENDMDL
