MODEL 1
REMARK minimizedAffinity 9.32660961
REMARK minimizedRMSD -1
REMARK  0 active torsions:
REMARK  status: ('A' for Active; 'I' for Inactive)
ROOT
ATOM      1  C   UNL d   1      -1.950   2.430   3.030  0.00  0.00     0.020 A 
ATOM      2  C1  UNL d   1      -0.845   1.875   3.674  0.00  0.00     0.020 A 
ATOM      3  C2  UNL d   1       0.302   1.557   2.944  0.00  0.00     0.034 A 
ATOM      4  C3  UNL d   1       0.347   1.795   1.566  0.00  0.00     0.017 A 
ATOM      5  C4  UNL d   1      -0.762   2.353   0.920  0.00  0.00     0.017 A 
ATOM      6  C5  UNL d   1      -1.909   2.669   1.656  0.00  0.00     0.034 A 
ATOM      7 Cl   UNL d   1      -0.781   2.675  -0.778  0.00  0.00    -0.070 Cl
ATOM      8 Cl1  UNL d   1       1.798   1.378   0.726  0.00  0.00    -0.070 Cl
ENDROOT
TORSDOF 0
ENDMDL
