MODEL 1
REMARK minimizedAffinity 8.54469776
REMARK minimizedRMSD -1
REMARK  0 active torsions:
REMARK  status: ('A' for Active; 'I' for Inactive)
ROOT
ATOM      1  C   UNL d   1      -5.326   3.758   0.754  0.00  0.00     0.020 A 
ATOM      2  C1  UNL d   1      -5.997   2.555   0.535  0.00  0.00     0.020 A 
ATOM      3  C2  UNL d   1      -5.337   1.341   0.739  0.00  0.00     0.034 A 
ATOM      4  C3  UNL d   1      -4.003   1.327   1.162  0.00  0.00     0.017 A 
ATOM      5  C4  UNL d   1      -3.331   2.535   1.381  0.00  0.00     0.017 A 
ATOM      6  C5  UNL d   1      -3.996   3.747   1.176  0.00  0.00     0.034 A 
ATOM      7 Cl   UNL d   1      -1.684   2.597   1.903  0.00  0.00    -0.070 Cl
ATOM      8 Cl1  UNL d   1      -3.250  -0.211   1.394  0.00  0.00    -0.070 Cl
ENDROOT
TORSDOF 0
ENDMDL
