MODEL 1
REMARK minimizedAffinity 10.6835384
REMARK minimizedRMSD -1
REMARK  0 active torsions:
REMARK  status: ('A' for Active; 'I' for Inactive)
ROOT
ATOM      1  C   UNL d   1       3.053   0.289  -1.696  0.00  0.00     0.020 A 
ATOM      2  C1  UNL d   1       2.884  -1.095  -1.692  0.00  0.00     0.020 A 
ATOM      3  C2  UNL d   1       2.163  -1.707  -0.665  0.00  0.00     0.034 A 
ATOM      4  C3  UNL d   1       1.608  -0.936   0.363  0.00  0.00     0.017 A 
ATOM      5  C4  UNL d   1       1.778   0.453   0.358  0.00  0.00     0.017 A 
ATOM      6  C5  UNL d   1       2.501   1.061  -0.673  0.00  0.00     0.034 A 
ATOM      7 Cl   UNL d   1       1.123   1.472   1.591  0.00  0.00    -0.070 Cl
ATOM      8 Cl1  UNL d   1       0.728  -1.760   1.601  0.00  0.00    -0.070 Cl
ENDROOT
TORSDOF 0
ENDMDL
