MODEL 1
REMARK minimizedAffinity 8.48878765
REMARK minimizedRMSD -1
REMARK  0 active torsions:
REMARK  status: ('A' for Active; 'I' for Inactive)
ROOT
ATOM      1  C   UNL d   1       1.008   1.348  -4.375  0.00  0.00     0.020 A 
ATOM      2  C1  UNL d   1       0.345   2.157  -3.453  0.00  0.00     0.020 A 
ATOM      3  C2  UNL d   1       0.665   2.077  -2.096  0.00  0.00     0.034 A 
ATOM      4  C3  UNL d   1       1.650   1.185  -1.657  0.00  0.00     0.017 A 
ATOM      5  C4  UNL d   1       2.315   0.372  -2.582  0.00  0.00     0.017 A 
ATOM      6  C5  UNL d   1       1.990   0.457  -3.940  0.00  0.00     0.034 A 
ATOM      7 Cl   UNL d   1       3.541  -0.752  -2.116  0.00  0.00    -0.070 Cl
ATOM      8 Cl1  UNL d   1       1.994   1.138   0.036  0.00  0.00    -0.070 Cl
ENDROOT
TORSDOF 0
ENDMDL
