MODEL 1
REMARK minimizedAffinity 4.83678579
REMARK minimizedRMSD -1
REMARK  0 active torsions:
REMARK  status: ('A' for Active; 'I' for Inactive)
ROOT
ATOM      1  C   UNL d   1       1.669   0.031   0.863  0.00  0.00     0.020 A 
ATOM      2  C1  UNL d   1       2.258   1.112   1.518  0.00  0.00     0.020 A 
ATOM      3  C2  UNL d   1       3.207   1.896   0.858  0.00  0.00     0.034 A 
ATOM      4  C3  UNL d   1       3.571   1.599  -0.461  0.00  0.00     0.017 A 
ATOM      5  C4  UNL d   1       2.979   0.513  -1.117  0.00  0.00     0.017 A 
ATOM      6  C5  UNL d   1       2.029  -0.268  -0.451  0.00  0.00     0.034 A 
ATOM      7 Cl   UNL d   1       3.376   0.085  -2.744  0.00  0.00    -0.070 Cl
ATOM      8 Cl1  UNL d   1       4.751   2.610  -1.216  0.00  0.00    -0.070 Cl
ENDROOT
TORSDOF 0
ENDMDL
