MODEL 1
REMARK minimizedAffinity 8.77689934
REMARK minimizedRMSD -1
REMARK  0 active torsions:
REMARK  status: ('A' for Active; 'I' for Inactive)
ROOT
ATOM      1  C   UNL d   1      -0.147   1.949   3.628  0.00  0.00     0.020 A 
ATOM      2  C1  UNL d   1      -1.311   2.623   3.261  0.00  0.00     0.020 A 
ATOM      3  C2  UNL d   1      -1.570   2.885   1.914  0.00  0.00     0.034 A 
ATOM      4  C3  UNL d   1      -0.664   2.474   0.929  0.00  0.00     0.017 A 
ATOM      5  C4  UNL d   1       0.504   1.798   1.299  0.00  0.00     0.017 A 
ATOM      6  C5  UNL d   1       0.758   1.537   2.649  0.00  0.00     0.034 A 
ATOM      7 Cl   UNL d   1       1.669   1.260   0.141  0.00  0.00    -0.070 Cl
ATOM      8 Cl1  UNL d   1      -1.049   2.832  -0.717  0.00  0.00    -0.070 Cl
ENDROOT
TORSDOF 0
ENDMDL
