MODEL 1
REMARK minimizedAffinity 10.827857
REMARK minimizedRMSD -1
REMARK  0 active torsions:
REMARK  status: ('A' for Active; 'I' for Inactive)
ROOT
ATOM      1  C   UNL d   1       2.419  -0.057  -1.557  0.00  0.00     0.020 A 
ATOM      2  C1  UNL d   1       1.607  -0.264  -0.442  0.00  0.00     0.020 A 
ATOM      3  C2  UNL d   1       1.852   0.437   0.740  0.00  0.00     0.034 A 
ATOM      4  C3  UNL d   1       2.912   1.349   0.811  0.00  0.00     0.017 A 
ATOM      5  C4  UNL d   1       3.726   1.556  -0.309  0.00  0.00     0.017 A 
ATOM      6  C5  UNL d   1       3.476   0.851  -1.490  0.00  0.00     0.034 A 
ATOM      7 Cl   UNL d   1       5.053   2.664  -0.298  0.00  0.00    -0.070 Cl
ATOM      8 Cl1  UNL d   1       3.158   2.181   2.305  0.00  0.00    -0.070 Cl
ENDROOT
TORSDOF 0
ENDMDL
