MODEL 1
REMARK minimizedAffinity 2.57731318
REMARK minimizedRMSD -1
REMARK  3 active torsions:
REMARK  status: ('A' for Active; 'I' for Inactive)
REMARK    1  A    between atoms: C3'_2  and  C2'_3 
REMARK    2  A    between atoms: C2'_3  and  C1'_4 
REMARK    3  A    between atoms: C1'_4  and  C1_5 
ROOT
ATOM      1  C1  N4B d   1       4.392  -3.414  -1.344  0.00  0.00    -0.075 A 
ATOM      2  C2  N4B d   1       4.923  -2.107  -1.282  0.00  0.00     0.002 A 
ATOM      3  C3  N4B d   1       4.717  -1.334  -0.166  0.00  0.00     0.002 A 
ATOM      4  C4  N4B d   1       3.969  -1.837   0.888  0.00  0.00    -0.004 A 
ATOM      5  C5  N4B d   1       3.480  -3.110   0.831  0.00  0.00     0.002 A 
ATOM      6  C6  N4B d   1       3.684  -3.899  -0.283  0.00  0.00     0.002 A 
ENDROOT
BRANCH   1   7
ATOM      7  C1' N4B d   1       4.518  -4.265  -2.577  0.00  0.00     0.057 C 
BRANCH   7   8
ATOM      8  C2' N4B d   1       3.225  -4.176  -3.382  0.00  0.00     0.009 C 
BRANCH   8   9
ATOM      9  C3' N4B d   1       2.696  -5.549  -3.760  0.00  0.00     0.004 C 
ATOM     10  C4' N4B d   1       1.568  -5.999  -2.880  0.00  0.00     0.003 C 
ENDBRANCH   8   9
ENDBRANCH   7   8
ENDBRANCH   1   7
TORSDOF 3
ENDMDL
