MODEL 1
REMARK minimizedAffinity 3.08984327
REMARK minimizedRMSD -1
REMARK  3 active torsions:
REMARK  status: ('A' for Active; 'I' for Inactive)
REMARK    1  A    between atoms: C3'_2  and  C2'_3 
REMARK    2  A    between atoms: C2'_3  and  C1'_4 
REMARK    3  A    between atoms: C1'_4  and  C1_5 
ROOT
ATOM      1  C1  N4B d   1       4.137  -4.344  -1.093  0.00  0.00    -0.075 A 
ATOM      2  C2  N4B d   1       5.519  -4.074  -1.193  0.00  0.00     0.002 A 
ATOM      3  C3  N4B d   1       5.998  -2.823  -0.889  0.00  0.00     0.002 A 
ATOM      4  C4  N4B d   1       5.115  -1.826  -0.503  0.00  0.00    -0.004 A 
ATOM      5  C5  N4B d   1       3.785  -2.102  -0.384  0.00  0.00     0.002 A 
ATOM      6  C6  N4B d   1       3.290  -3.356  -0.682  0.00  0.00     0.002 A 
ENDROOT
BRANCH   1   7
ATOM      7  C1' N4B d   1       3.556  -5.671  -1.497  0.00  0.00     0.057 C 
BRANCH   7   8
ATOM      8  C2' N4B d   1       3.169  -5.621  -2.972  0.00  0.00     0.009 C 
BRANCH   8   9
ATOM      9  C3' N4B d   1       4.203  -4.884  -3.806  0.00  0.00     0.004 C 
ATOM     10  C4' N4B d   1       3.764  -3.502  -4.187  0.00  0.00     0.003 C 
ENDBRANCH   8   9
ENDBRANCH   7   8
ENDBRANCH   1   7
TORSDOF 3
ENDMDL
