MODEL 1
REMARK minimizedAffinity -1.66030252
REMARK minimizedRMSD -1
REMARK  3 active torsions:
REMARK  status: ('A' for Active; 'I' for Inactive)
REMARK    1  A    between atoms: C3'_2  and  C2'_3 
REMARK    2  A    between atoms: C2'_3  and  C1'_4 
REMARK    3  A    between atoms: C1'_4  and  C1_5 
ROOT
ATOM      1  C1  N4B d   1      -5.785  -1.702   3.654  0.00  0.00    -0.075 A 
ATOM      2  C2  N4B d   1      -5.999  -1.315   4.995  0.00  0.00     0.002 A 
ATOM      3  C3  N4B d   1      -5.987  -2.259   5.992  0.00  0.00     0.002 A 
ATOM      4  C4  N4B d   1      -5.783  -3.593   5.671  0.00  0.00    -0.004 A 
ATOM      5  C5  N4B d   1      -5.552  -3.955   4.377  0.00  0.00     0.002 A 
ATOM      6  C6  N4B d   1      -5.557  -3.016   3.365  0.00  0.00     0.002 A 
ENDROOT
BRANCH   1   7
ATOM      7  C1' N4B d   1      -5.874  -0.718   2.519  0.00  0.00     0.057 C 
BRANCH   7   8
ATOM      8  C2' N4B d   1      -5.248  -1.334   1.272  0.00  0.00     0.009 C 
BRANCH   8   9
ATOM      9  C3' N4B d   1      -5.537  -0.512   0.027  0.00  0.00     0.004 C 
ATOM     10  C4' N4B d   1      -4.462  -0.635  -1.012  0.00  0.00     0.003 C 
ENDBRANCH   8   9
ENDBRANCH   7   8
ENDBRANCH   1   7
TORSDOF 3
ENDMDL
