MODEL 1
REMARK minimizedAffinity 1.47703302
REMARK minimizedRMSD -1
REMARK  3 active torsions:
REMARK  status: ('A' for Active; 'I' for Inactive)
REMARK    1  A    between atoms: C3'_2  and  C2'_3 
REMARK    2  A    between atoms: C2'_3  and  C1'_4 
REMARK    3  A    between atoms: C1'_4  and  C1_5 
ROOT
ATOM      1  C1  N4B d   1       3.756  -4.194  -2.158  0.00  0.00    -0.075 A 
ATOM      2  C2  N4B d   1       4.820  -4.907  -1.562  0.00  0.00     0.002 A 
ATOM      3  C3  N4B d   1       5.745  -4.243  -0.793  0.00  0.00     0.002 A 
ATOM      4  C4  N4B d   1       5.637  -2.871  -0.622  0.00  0.00    -0.004 A 
ATOM      5  C5  N4B d   1       4.592  -2.195  -1.180  0.00  0.00     0.002 A 
ATOM      6  C6  N4B d   1       3.653  -2.849  -1.952  0.00  0.00     0.002 A 
ENDROOT
BRANCH   1   7
ATOM      7  C1' N4B d   1       2.770  -4.862  -3.078  0.00  0.00     0.057 C 
BRANCH   7   8
ATOM      8  C2' N4B d   1       3.043  -4.418  -4.512  0.00  0.00     0.009 C 
BRANCH   8   9
ATOM      9  C3' N4B d   1       4.508  -4.571  -4.885  0.00  0.00     0.004 C 
ATOM     10  C4' N4B d   1       4.906  -6.000  -5.104  0.00  0.00     0.003 C 
ENDBRANCH   8   9
ENDBRANCH   7   8
ENDBRANCH   1   7
TORSDOF 3
ENDMDL
