MODEL 1
REMARK minimizedAffinity -3.98049855
REMARK minimizedRMSD -1
REMARK  3 active torsions:
REMARK  status: ('A' for Active; 'I' for Inactive)
REMARK    1  A    between atoms: C3'_2  and  C2'_3 
REMARK    2  A    between atoms: C2'_3  and  C1'_4 
REMARK    3  A    between atoms: C1'_4  and  C1_5 
ROOT
ATOM      1  C1  N4B d   1       4.065  -3.938  -1.062  0.00  0.00    -0.075 A 
ATOM      2  C2  N4B d   1       5.228  -3.138  -1.023  0.00  0.00     0.002 A 
ATOM      3  C3  N4B d   1       5.211  -1.933  -0.365  0.00  0.00     0.002 A 
ATOM      4  C4  N4B d   1       4.041  -1.500   0.243  0.00  0.00    -0.004 A 
ATOM      5  C5  N4B d   1       2.930  -2.290   0.222  0.00  0.00     0.002 A 
ATOM      6  C6  N4B d   1       2.934  -3.506  -0.432  0.00  0.00     0.002 A 
ENDROOT
BRANCH   1   7
ATOM      7  C1' N4B d   1       4.011  -5.224  -1.842  0.00  0.00     0.057 C 
BRANCH   7   8
ATOM      8  C2' N4B d   1       4.162  -4.914  -3.328  0.00  0.00     0.009 C 
BRANCH   8   9
ATOM      9  C3' N4B d   1       2.998  -4.094  -3.859  0.00  0.00     0.004 C 
ATOM     10  C4' N4B d   1       3.304  -2.627  -3.925  0.00  0.00     0.003 C 
ENDBRANCH   8   9
ENDBRANCH   7   8
ENDBRANCH   1   7
TORSDOF 3
ENDMDL
