MODEL 1
REMARK minimizedAffinity 1.78035736
REMARK minimizedRMSD -1
REMARK  3 active torsions:
REMARK  status: ('A' for Active; 'I' for Inactive)
REMARK    1  A    between atoms: C3'_2  and  C2'_3 
REMARK    2  A    between atoms: C2'_3  and  C1'_4 
REMARK    3  A    between atoms: C1'_4  and  C1_5 
ROOT
ATOM      1  C1  N4B d   1       4.715  -3.865  -1.685  0.00  0.00    -0.075 A 
ATOM      2  C2  N4B d   1       4.873  -5.218  -2.058  0.00  0.00     0.002 A 
ATOM      3  C3  N4B d   1       4.239  -5.700  -3.176  0.00  0.00     0.002 A 
ATOM      4  C4  N4B d   1       3.430  -4.856  -3.924  0.00  0.00    -0.004 A 
ATOM      5  C5  N4B d   1       3.303  -3.545  -3.571  0.00  0.00     0.002 A 
ATOM      6  C6  N4B d   1       3.938  -3.045  -2.451  0.00  0.00     0.002 A 
ENDROOT
BRANCH   1   7
ATOM      7  C1' N4B d   1       5.319  -3.313  -0.422  0.00  0.00     0.057 C 
BRANCH   7   8
ATOM      8  C2' N4B d   1       4.609  -2.015  -0.053  0.00  0.00     0.009 C 
BRANCH   8   9
ATOM      9  C3' N4B d   1       3.098  -2.174  -0.051  0.00  0.00     0.004 C 
ATOM     10  C4' N4B d   1       2.591  -2.888   1.167  0.00  0.00     0.003 C 
ENDBRANCH   8   9
ENDBRANCH   7   8
ENDBRANCH   1   7
TORSDOF 3
ENDMDL
