MODEL 1
REMARK minimizedAffinity 0.246400937
REMARK minimizedRMSD -1
REMARK  3 active torsions:
REMARK  status: ('A' for Active; 'I' for Inactive)
REMARK    1  A    between atoms: C3'_2  and  C2'_3 
REMARK    2  A    between atoms: C2'_3  and  C1'_4 
REMARK    3  A    between atoms: C1'_4  and  C1_5 
ROOT
ATOM      1  C1  N4B d   1       4.047  -3.765  -1.592  0.00  0.00    -0.075 A 
ATOM      2  C2  N4B d   1       5.375  -3.975  -1.158  0.00  0.00     0.002 A 
ATOM      3  C3  N4B d   1       5.992  -3.043  -0.360  0.00  0.00     0.002 A 
ATOM      4  C4  N4B d   1       5.311  -1.890  -0.000  0.00  0.00    -0.004 A 
ATOM      5  C5  N4B d   1       4.020  -1.707  -0.402  0.00  0.00     0.002 A 
ATOM      6  C6  N4B d   1       3.386  -2.637  -1.201  0.00  0.00     0.002 A 
ENDROOT
BRANCH   1   7
ATOM      7  C1' N4B d   1       3.360  -4.715  -2.536  0.00  0.00     0.057 C 
BRANCH   7   8
ATOM      8  C2' N4B d   1       3.015  -6.000  -1.790  0.00  0.00     0.009 C 
BRANCH   8   9
ATOM      9  C3' N4B d   1       1.609  -5.963  -1.215  0.00  0.00     0.004 C 
ATOM     10  C4' N4B d   1       1.416  -4.856  -0.223  0.00  0.00     0.003 C 
ENDBRANCH   8   9
ENDBRANCH   7   8
ENDBRANCH   1   7
TORSDOF 3
ENDMDL
