MODEL 1
REMARK minimizedAffinity 2.78896046
REMARK minimizedRMSD -1
REMARK  3 active torsions:
REMARK  status: ('A' for Active; 'I' for Inactive)
REMARK    1  A    between atoms: C3'_2  and  C2'_3 
REMARK    2  A    between atoms: C2'_3  and  C1'_4 
REMARK    3  A    between atoms: C1'_4  and  C1_5 
ROOT
ATOM      1  C1  N4B d   1      -0.074   2.513   2.034  0.00  0.00    -0.075 A 
ATOM      2  C2  N4B d   1      -0.622   2.488   0.733  0.00  0.00     0.002 A 
ATOM      3  C3  N4B d   1      -0.040   3.221  -0.271  0.00  0.00     0.002 A 
ATOM      4  C4  N4B d   1       1.075   3.998   0.005  0.00  0.00    -0.004 A 
ATOM      5  C5  N4B d   1       1.614   3.997   1.258  0.00  0.00     0.002 A 
ATOM      6  C6  N4B d   1       1.041   3.261   2.277  0.00  0.00     0.002 A 
ENDROOT
BRANCH   1   7
ATOM      7  C1' N4B d   1      -0.726   1.795   3.184  0.00  0.00     0.057 C 
BRANCH   7   8
ATOM      8  C2' N4B d   1       0.181   0.658   3.644  0.00  0.00     0.009 C 
BRANCH   8   9
ATOM      9  C3' N4B d   1      -0.371  -0.049   4.871  0.00  0.00     0.004 C 
ATOM     10  C4' N4B d   1       0.368  -1.314   5.193  0.00  0.00     0.003 C 
ENDBRANCH   8   9
ENDBRANCH   7   8
ENDBRANCH   1   7
TORSDOF 3
ENDMDL
