MODEL 1
REMARK minimizedAffinity 7.66414928
REMARK minimizedRMSD -1
REMARK  3 active torsions:
REMARK  status: ('A' for Active; 'I' for Inactive)
REMARK    1  A    between atoms: C3'_2  and  C2'_3 
REMARK    2  A    between atoms: C2'_3  and  C1'_4 
REMARK    3  A    between atoms: C1'_4  and  C1_5 
ROOT
ATOM      1  C1  N4B d   1      -1.158   0.610  -1.115  0.00  0.00    -0.075 A 
ATOM      2  C2  N4B d   1      -0.981  -0.707  -1.592  0.00  0.00     0.002 A 
ATOM      3  C3  N4B d   1      -2.068  -1.532  -1.749  0.00  0.00     0.002 A 
ATOM      4  C4  N4B d   1      -3.333  -1.069  -1.420  0.00  0.00    -0.004 A 
ATOM      5  C5  N4B d   1      -3.498   0.213  -0.985  0.00  0.00     0.002 A 
ATOM      6  C6  N4B d   1      -2.415   1.054  -0.825  0.00  0.00     0.002 A 
ENDROOT
BRANCH   1   7
ATOM      7  C1' N4B d   1       0.009   1.521  -0.846  0.00  0.00     0.057 C 
BRANCH   7   8
ATOM      8  C2' N4B d   1      -0.478   2.966  -0.821  0.00  0.00     0.009 C 
BRANCH   8   9
ATOM      9  C3' N4B d   1       0.084   3.735   0.362  0.00  0.00     0.004 C 
ATOM     10  C4' N4B d   1       0.003   2.966   1.647  0.00  0.00     0.003 C 
ENDBRANCH   8   9
ENDBRANCH   7   8
ENDBRANCH   1   7
TORSDOF 3
ENDMDL
