MODEL 1
REMARK minimizedAffinity 2.97592497
REMARK minimizedRMSD -1
REMARK  3 active torsions:
REMARK  status: ('A' for Active; 'I' for Inactive)
REMARK    1  A    between atoms: C3'_2  and  C2'_3 
REMARK    2  A    between atoms: C2'_3  and  C1'_4 
REMARK    3  A    between atoms: C1'_4  and  C1_5 
ROOT
ATOM      1  C1  N4B d   1      -3.500  -1.100  -0.882  0.00  0.00    -0.075 A 
ATOM      2  C2  N4B d   1      -3.788  -1.553   0.425  0.00  0.00     0.002 A 
ATOM      3  C3  N4B d   1      -4.223  -0.666   1.379  0.00  0.00     0.002 A 
ATOM      4  C4  N4B d   1      -4.359   0.676   1.056  0.00  0.00    -0.004 A 
ATOM      5  C5  N4B d   1      -4.104   1.101  -0.215  0.00  0.00     0.002 A 
ATOM      6  C6  N4B d   1      -3.670   0.220  -1.185  0.00  0.00     0.002 A 
ENDROOT
BRANCH   1   7
ATOM      7  C1' N4B d   1      -2.940  -2.016  -1.935  0.00  0.00     0.057 C 
BRANCH   7   8
ATOM      8  C2' N4B d   1      -1.650  -1.417  -2.486  0.00  0.00     0.009 C 
BRANCH   8   9
ATOM      9  C3' N4B d   1      -0.447  -1.771  -1.629  0.00  0.00     0.004 C 
ATOM     10  C4' N4B d   1       0.564  -0.666  -1.562  0.00  0.00     0.003 C 
ENDBRANCH   8   9
ENDBRANCH   7   8
ENDBRANCH   1   7
TORSDOF 3
ENDMDL
