MODEL 1
REMARK minimizedAffinity 2.1397953
REMARK minimizedRMSD -1
REMARK  1 active torsions:
REMARK  status: ('A' for Active; 'I' for Inactive)
REMARK    1  A    between atoms: C1_2  and  C2_3 
ROOT
ATOM      1  C2  UNL d   1       2.321  -0.354  -5.278  0.00  0.00    -0.073 A 
ATOM      2  C3  UNL d   1       2.380  -0.766  -3.942  0.00  0.00    -0.002 A 
ATOM      3  C4  UNL d   1       3.606  -0.834  -3.279  0.00  0.00     0.004 A 
ATOM      4  C5  UNL d   1       4.783  -0.484  -3.941  0.00  0.00    -0.004 A 
ATOM      5  C6  UNL d   1       4.743  -0.058  -5.272  0.00  0.00    -0.075 A 
ATOM      6  C7  UNL d   1       6.000   0.319  -6.000  0.00  0.00     0.076 C 
ATOM      7  C8  UNL d   1       3.508   0.004  -5.932  0.00  0.00     0.001 A 
ENDROOT
BRANCH   1   8
ATOM      8  C1  UNL d   1       0.999  -0.273  -5.996  0.00  0.00     0.053 C 
ATOM      9  C   UNL d   1      -0.100  -1.015  -5.252  0.00  0.00     0.018 C 
ENDBRANCH   1   8
TORSDOF 1
ENDMDL
