MODEL 1
REMARK minimizedAffinity 2.73697066
REMARK minimizedRMSD -1
REMARK  1 active torsions:
REMARK  status: ('A' for Active; 'I' for Inactive)
REMARK    1  A    between atoms: C1_2  and  C2_3 
ROOT
ATOM      1  C2  UNL d   1       0.344  -0.921  -4.884  0.00  0.00    -0.073 A 
ATOM      2  C3  UNL d   1       0.994  -0.378  -5.998  0.00  0.00    -0.002 A 
ATOM      3  C4  UNL d   1       2.377  -0.198  -5.989  0.00  0.00     0.004 A 
ATOM      4  C5  UNL d   1       3.125  -0.566  -4.870  0.00  0.00    -0.004 A 
ATOM      5  C6  UNL d   1       2.495  -1.121  -3.752  0.00  0.00    -0.075 A 
ATOM      6  C7  UNL d   1       3.285  -1.520  -2.540  0.00  0.00     0.076 C 
ATOM      7  C8  UNL d   1       1.105  -1.296  -3.768  0.00  0.00     0.001 A 
ENDROOT
BRANCH   1   8
ATOM      8  C1  UNL d   1      -1.150  -1.123  -4.892  0.00  0.00     0.053 C 
ATOM      9  C   UNL d   1      -1.880  -0.001  -4.173  0.00  0.00     0.018 C 
ENDBRANCH   1   8
TORSDOF 1
ENDMDL
