MODEL 1
REMARK minimizedAffinity -0.279901147
REMARK minimizedRMSD -1
REMARK  1 active torsions:
REMARK  status: ('A' for Active; 'I' for Inactive)
REMARK    1  A    between atoms: C1_2  and  C2_3 
ROOT
ATOM      1  C2  UNL d   1       0.980  -0.669  -5.261  0.00  0.00    -0.073 A 
ATOM      2  C3  UNL d   1       1.001  -1.139  -3.942  0.00  0.00    -0.002 A 
ATOM      3  C4  UNL d   1       2.216  -1.371  -3.297  0.00  0.00     0.004 A 
ATOM      4  C5  UNL d   1       3.420  -1.131  -3.959  0.00  0.00    -0.004 A 
ATOM      5  C6  UNL d   1       3.419  -0.651  -5.272  0.00  0.00    -0.075 A 
ATOM      6  C7  UNL d   1       4.706  -0.390  -5.999  0.00  0.00     0.076 C 
ATOM      7  C8  UNL d   1       2.195  -0.422  -5.915  0.00  0.00     0.001 A 
ENDROOT
BRANCH   1   8
ATOM      8  C1  UNL d   1      -0.330  -0.411  -5.960  0.00  0.00     0.053 C 
ATOM      9  C   UNL d   1      -1.498  -0.370  -4.986  0.00  0.00     0.018 C 
ENDBRANCH   1   8
TORSDOF 1
ENDMDL
