MODEL 1
REMARK minimizedAffinity 9.49500656
REMARK minimizedRMSD -1
REMARK  0 active torsions:
REMARK  status: ('A' for Active; 'I' for Inactive)
ROOT
ATOM      1  O1  BZF d   1      -2.935   0.658   5.105  0.00  0.00    -0.204 OA
ATOM      2  C2  BZF d   1      -4.151   0.359   5.687  0.00  0.00     0.174 A 
ATOM      3  C3  BZF d   1      -4.887  -0.432   4.879  0.00  0.00    -0.012 A 
ATOM      4  C3A BZF d   1      -4.042  -0.716   3.760  0.00  0.00    -0.107 A 
ATOM      5  C4  BZF d   1      -4.202  -1.463   2.628  0.00  0.00     0.055 A 
ATOM      6  C5  BZF d   1      -3.212  -1.475   1.698  0.00  0.00    -0.016 A 
ATOM      7  C6  BZF d   1      -2.051  -0.748   1.865  0.00  0.00     0.022 A 
ATOM      8  C7  BZF d   1      -1.844   0.004   2.973  0.00  0.00     0.029 A 
ATOM      9  C7A BZF d   1      -2.830  -0.008   3.930  0.00  0.00     0.058 A 
ENDROOT
TORSDOF 0
ENDMDL
