MODEL 1
REMARK minimizedAffinity 6.46183014
REMARK minimizedRMSD -1
REMARK  0 active torsions:
REMARK  status: ('A' for Active; 'I' for Inactive)
ROOT
ATOM      1  O1  BZF d   1      -0.666  -3.175   0.764  0.00  0.00    -0.204 OA
ATOM      2  C2  BZF d   1       0.685  -3.137   1.051  0.00  0.00     0.174 A 
ATOM      3  C3  BZF d   1       0.969  -2.115   1.883  0.00  0.00    -0.012 A 
ATOM      4  C3A BZF d   1      -0.296  -1.530   2.206  0.00  0.00    -0.107 A 
ATOM      5  C4  BZF d   1      -0.672  -0.486   3.002  0.00  0.00     0.055 A 
ATOM      6  C5  BZF d   1      -1.981  -0.124   3.042  0.00  0.00    -0.016 A 
ATOM      7  C6  BZF d   1      -2.939  -0.779   2.296  0.00  0.00     0.022 A 
ATOM      8  C7  BZF d   1      -2.615  -1.823   1.495  0.00  0.00     0.029 A 
ATOM      9  C7A BZF d   1      -1.298  -2.213   1.478  0.00  0.00     0.058 A 
ENDROOT
TORSDOF 0
ENDMDL
