MODEL 1
REMARK minimizedAffinity 9.03702545
REMARK minimizedRMSD -1
REMARK  0 active torsions:
REMARK  status: ('A' for Active; 'I' for Inactive)
ROOT
ATOM      1  O1  BZF d   1       3.266   1.426   2.279  0.00  0.00    -0.204 OA
ATOM      2  C2  BZF d   1       2.848   0.670   1.201  0.00  0.00     0.174 A 
ATOM      3  C3  BZF d   1       3.460   1.071   0.069  0.00  0.00    -0.012 A 
ATOM      4  C3A BZF d   1       4.383   2.085   0.479  0.00  0.00    -0.107 A 
ATOM      5  C4  BZF d   1       5.292   2.854  -0.190  0.00  0.00     0.055 A 
ATOM      6  C5  BZF d   1       5.985   3.802   0.493  0.00  0.00    -0.016 A 
ATOM      7  C6  BZF d   1       5.792   4.011   1.843  0.00  0.00     0.022 A 
ATOM      8  C7  BZF d   1       4.906   3.269   2.551  0.00  0.00     0.029 A 
ATOM      9  C7A BZF d   1       4.227   2.288   1.870  0.00  0.00     0.058 A 
ENDROOT
TORSDOF 0
ENDMDL
