MODEL 1
REMARK minimizedAffinity 12.0016842
REMARK minimizedRMSD -1
REMARK  0 active torsions:
REMARK  status: ('A' for Active; 'I' for Inactive)
ROOT
ATOM      1  O1  BZF d   1      -0.227  -2.808   1.609  0.00  0.00    -0.204 OA
ATOM      2  C2  BZF d   1       0.670  -2.576   2.633  0.00  0.00     0.174 A 
ATOM      3  C3  BZF d   1       0.416  -1.396   3.234  0.00  0.00    -0.012 A 
ATOM      4  C3A BZF d   1      -0.768  -0.900   2.602  0.00  0.00    -0.107 A 
ATOM      5  C4  BZF d   1      -1.524   0.225   2.775  0.00  0.00     0.055 A 
ATOM      6  C5  BZF d   1      -2.578   0.446   1.946  0.00  0.00    -0.016 A 
ATOM      7  C6  BZF d   1      -2.901  -0.432   0.932  0.00  0.00     0.022 A 
ATOM      8  C7  BZF d   1      -2.184  -1.563   0.725  0.00  0.00     0.029 A 
ATOM      9  C7A BZF d   1      -1.138  -1.806   1.582  0.00  0.00     0.058 A 
ENDROOT
TORSDOF 0
ENDMDL
