MODEL 1
REMARK minimizedAffinity 12.1773958
REMARK minimizedRMSD -1
REMARK  0 active torsions:
REMARK  status: ('A' for Active; 'I' for Inactive)
ROOT
ATOM      1  O1  BZF d   1       0.356  -4.920  -4.744  0.00  0.00    -0.204 OA
ATOM      2  C2  BZF d   1       0.472  -3.861  -3.864  0.00  0.00     0.174 A 
ATOM      3  C3  BZF d   1      -0.732  -3.301  -3.629  0.00  0.00    -0.012 A 
ATOM      4  C3A BZF d   1      -1.671  -4.116  -4.338  0.00  0.00    -0.107 A 
ATOM      5  C4  BZF d   1      -3.029  -4.078  -4.478  0.00  0.00     0.055 A 
ATOM      6  C5  BZF d   1      -3.633  -4.976  -5.300  0.00  0.00    -0.016 A 
ATOM      7  C6  BZF d   1      -2.911  -5.920  -6.000  0.00  0.00     0.022 A 
ATOM      8  C7  BZF d   1      -1.562  -6.000  -5.889  0.00  0.00     0.029 A 
ATOM      9  C7A BZF d   1      -0.952  -5.115  -5.034  0.00  0.00     0.058 A 
ENDROOT
TORSDOF 0
ENDMDL
