MODEL 1
REMARK minimizedAffinity 9.08574104
REMARK minimizedRMSD -1
REMARK  0 active torsions:
REMARK  status: ('A' for Active; 'I' for Inactive)
ROOT
ATOM      1  O1  BZF d   1      -2.134  -0.760  -0.199  0.00  0.00    -0.204 OA
ATOM      2  C2  BZF d   1      -1.843  -0.660   1.148  0.00  0.00     0.174 A 
ATOM      3  C3  BZF d   1      -2.778   0.074   1.786  0.00  0.00    -0.012 A 
ATOM      4  C3A BZF d   1      -3.760   0.379   0.791  0.00  0.00    -0.107 A 
ATOM      5  C4  BZF d   1      -4.938   1.069   0.815  0.00  0.00     0.055 A 
ATOM      6  C5  BZF d   1      -5.624   1.247  -0.345  0.00  0.00    -0.016 A 
ATOM      7  C6  BZF d   1      -5.158   0.754  -1.546  0.00  0.00     0.022 A 
ATOM      8  C7  BZF d   1      -3.996   0.059  -1.619  0.00  0.00     0.029 A 
ATOM      9  C7A BZF d   1      -3.318  -0.151  -0.444  0.00  0.00     0.058 A 
ENDROOT
TORSDOF 0
ENDMDL
