MODEL 1
REMARK minimizedAffinity 10.859189
REMARK minimizedRMSD -1
REMARK  0 active torsions:
REMARK  status: ('A' for Active; 'I' for Inactive)
ROOT
ATOM      1  O1  BZF d   1      -0.996   6.000  -2.450  0.00  0.00    -0.204 OA
ATOM      2  C2  BZF d   1       0.280   5.481  -2.555  0.00  0.00     0.174 A 
ATOM      3  C3  BZF d   1       0.431   4.812  -3.716  0.00  0.00    -0.012 A 
ATOM      4  C3A BZF d   1      -0.801   4.997  -4.420  0.00  0.00    -0.107 A 
ATOM      5  C4  BZF d   1      -1.256   4.586  -5.640  0.00  0.00     0.055 A 
ATOM      6  C5  BZF d   1      -2.534   4.875  -5.999  0.00  0.00    -0.016 A 
ATOM      7  C6  BZF d   1      -3.385   5.567  -5.163  0.00  0.00     0.022 A 
ATOM      8  C7  BZF d   1      -2.978   6.000  -3.945  0.00  0.00     0.029 A 
ATOM      9  C7A BZF d   1      -1.676   5.738  -3.592  0.00  0.00     0.058 A 
ENDROOT
TORSDOF 0
ENDMDL
