MODEL 1
REMARK minimizedAffinity 11.5354939
REMARK minimizedRMSD -1
REMARK  0 active torsions:
REMARK  status: ('A' for Active; 'I' for Inactive)
ROOT
ATOM      1  O1  BZF d   1       4.880   5.687  -2.310  0.00  0.00    -0.204 OA
ATOM      2  C2  BZF d   1       5.947   6.000  -3.130  0.00  0.00     0.174 A 
ATOM      3  C3  BZF d   1       6.000   5.163  -4.186  0.00  0.00    -0.012 A 
ATOM      4  C3A BZF d   1       4.843   4.330  -4.065  0.00  0.00    -0.107 A 
ATOM      5  C4  BZF d   1       4.335   3.313  -4.822  0.00  0.00     0.055 A 
ATOM      6  C5  BZF d   1       3.227   2.657  -4.388  0.00  0.00    -0.016 A 
ATOM      7  C6  BZF d   1       2.604   2.988  -3.202  0.00  0.00     0.022 A 
ATOM      8  C7  BZF d   1       3.068   3.993  -2.420  0.00  0.00     0.029 A 
ATOM      9  C7A BZF d   1       4.169   4.680  -2.872  0.00  0.00     0.058 A 
ENDROOT
TORSDOF 0
ENDMDL
