MODEL 1
REMARK minimizedAffinity 6.60813332
REMARK minimizedRMSD -1
REMARK  0 active torsions:
REMARK  status: ('A' for Active; 'I' for Inactive)
ROOT
ATOM      1  O1  BZF d   1      -0.209   5.968  -3.844  0.00  0.00    -0.204 OA
ATOM      2  C2  BZF d   1      -0.313   5.954  -2.467  0.00  0.00     0.174 A 
ATOM      3  C3  BZF d   1      -1.606   6.000  -2.084  0.00  0.00    -0.012 A 
ATOM      4  C3A BZF d   1      -2.360   5.952  -3.299  0.00  0.00    -0.107 A 
ATOM      5  C4  BZF d   1      -3.697   5.949  -3.574  0.00  0.00     0.055 A 
ATOM      6  C5  BZF d   1      -4.105   5.970  -4.871  0.00  0.00    -0.016 A 
ATOM      7  C6  BZF d   1      -3.204   5.998  -5.915  0.00  0.00     0.022 A 
ATOM      8  C7  BZF d   1      -1.867   5.997  -5.691  0.00  0.00     0.029 A 
ATOM      9  C7A BZF d   1      -1.452   5.943  -4.383  0.00  0.00     0.058 A 
ENDROOT
TORSDOF 0
ENDMDL
