MODEL 1
REMARK minimizedAffinity 10.7677164
REMARK minimizedRMSD -1
REMARK  0 active torsions:
REMARK  status: ('A' for Active; 'I' for Inactive)
ROOT
ATOM      1  O1  BZF d   1      -2.086   0.881   2.992  0.00  0.00    -0.204 OA
ATOM      2  C2  BZF d   1      -3.309   1.227   2.451  0.00  0.00     0.174 A 
ATOM      3  C3  BZF d   1      -3.604   0.441   1.395  0.00  0.00    -0.012 A 
ATOM      4  C3A BZF d   1      -2.540  -0.512   1.326  0.00  0.00    -0.107 A 
ATOM      5  C4  BZF d   1      -2.276  -1.566   0.498  0.00  0.00     0.055 A 
ATOM      6  C5  BZF d   1      -1.114  -2.252   0.654  0.00  0.00    -0.016 A 
ATOM      7  C6  BZF d   1      -0.192  -1.910   1.621  0.00  0.00     0.022 A 
ATOM      8  C7  BZF d   1      -0.412  -0.876   2.469  0.00  0.00     0.029 A 
ATOM      9  C7A BZF d   1      -1.601  -0.201   2.336  0.00  0.00     0.058 A 
ENDROOT
TORSDOF 0
ENDMDL
