MODEL 1
REMARK minimizedAffinity 3.472574
REMARK minimizedRMSD -1
REMARK  0 active torsions:
REMARK  status: ('A' for Active; 'I' for Inactive)
ROOT
ATOM      1  O1  BZF d   1      -2.252  -0.427  -0.347  0.00  0.00    -0.204 OA
ATOM      2  C2  BZF d   1      -3.360   0.380  -0.521  0.00  0.00     0.174 A 
ATOM      3  C3  BZF d   1      -3.885   0.735   0.669  0.00  0.00    -0.012 A 
ATOM      4  C3A BZF d   1      -2.999   0.188   1.650  0.00  0.00    -0.107 A 
ATOM      5  C4  BZF d   1      -2.976   0.216   3.015  0.00  0.00     0.055 A 
ATOM      6  C5  BZF d   1      -2.013  -0.480   3.674  0.00  0.00    -0.016 A 
ATOM      7  C6  BZF d   1      -1.062  -1.218   3.001  0.00  0.00     0.022 A 
ATOM      8  C7  BZF d   1      -1.040  -1.272   1.647  0.00  0.00     0.029 A 
ATOM      9  C7A BZF d   1      -1.992  -0.543   0.978  0.00  0.00     0.058 A 
ENDROOT
TORSDOF 0
ENDMDL
