MODEL 1
REMARK minimizedAffinity 12.6460934
REMARK minimizedRMSD -1
REMARK  0 active torsions:
REMARK  status: ('A' for Active; 'I' for Inactive)
ROOT
ATOM      1  O1  BZF d   1      -4.944   2.177   1.370  0.00  0.00    -0.204 OA
ATOM      2  C2  BZF d   1      -5.508   1.716   0.196  0.00  0.00     0.174 A 
ATOM      3  C3  BZF d   1      -4.852   0.627  -0.253  0.00  0.00    -0.012 A 
ATOM      4  C3A BZF d   1      -3.872   0.338   0.748  0.00  0.00    -0.107 A 
ATOM      5  C4  BZF d   1      -2.924  -0.637   0.880  0.00  0.00     0.055 A 
ATOM      6  C5  BZF d   1      -2.077  -0.594   1.941  0.00  0.00    -0.016 A 
ATOM      7  C6  BZF d   1      -2.146   0.409   2.886  0.00  0.00     0.022 A 
ATOM      8  C7  BZF d   1      -3.072   1.394   2.800  0.00  0.00     0.029 A 
ATOM      9  C7A BZF d   1      -3.951   1.336   1.746  0.00  0.00     0.058 A 
ENDROOT
TORSDOF 0
ENDMDL
