MODEL 1
REMARK minimizedAffinity 14.5652723
REMARK minimizedRMSD -1
REMARK  0 active torsions:
REMARK  status: ('A' for Active; 'I' for Inactive)
ROOT
ATOM      1  O1  BZF d   1       3.859   5.355  -1.841  0.00  0.00    -0.204 OA
ATOM      2  C2  BZF d   1       5.098   5.942  -1.671  0.00  0.00     0.174 A 
ATOM      3  C3  BZF d   1       5.967   5.503  -2.604  0.00  0.00    -0.012 A 
ATOM      4  C3A BZF d   1       5.200   4.655  -3.464  0.00  0.00    -0.107 A 
ATOM      5  C4  BZF d   1       5.500   3.937  -4.586  0.00  0.00     0.055 A 
ATOM      6  C5  BZF d   1       4.541   3.153  -5.146  0.00  0.00    -0.016 A 
ATOM      7  C6  BZF d   1       3.274   3.061  -4.608  0.00  0.00     0.022 A 
ATOM      8  C7  BZF d   1       2.927   3.759  -3.499  0.00  0.00     0.029 A 
ATOM      9  C7A BZF d   1       3.885   4.577  -2.950  0.00  0.00     0.058 A 
ENDROOT
TORSDOF 0
ENDMDL
