MODEL 1
REMARK minimizedAffinity 7.01076555
REMARK minimizedRMSD -1
REMARK  0 active torsions:
REMARK  status: ('A' for Active; 'I' for Inactive)
ROOT
ATOM      1  O1  BZF d   1      -3.928   5.951  -5.695  0.00  0.00    -0.204 OA
ATOM      2  C2  BZF d   1      -2.588   5.806  -6.000  0.00  0.00     0.174 A 
ATOM      3  C3  BZF d   1      -1.850   5.706  -4.876  0.00  0.00    -0.012 A 
ATOM      4  C3A BZF d   1      -2.796   5.701  -3.803  0.00  0.00    -0.107 A 
ATOM      5  C4  BZF d   1      -2.677   5.608  -2.445  0.00  0.00     0.055 A 
ATOM      6  C5  BZF d   1      -3.792   5.708  -1.676  0.00  0.00    -0.016 A 
ATOM      7  C6  BZF d   1      -5.040   5.906  -2.228  0.00  0.00     0.022 A 
ATOM      8  C7  BZF d   1      -5.210   6.000  -3.570  0.00  0.00     0.029 A 
ATOM      9  C7A BZF d   1      -4.089   5.866  -4.352  0.00  0.00     0.058 A 
ENDROOT
TORSDOF 0
ENDMDL
