MODEL 1
REMARK minimizedAffinity 12.3392286
REMARK minimizedRMSD -1
REMARK  0 active torsions:
REMARK  status: ('A' for Active; 'I' for Inactive)
ROOT
ATOM      1  O1  BZF d   1       3.315   4.490  -2.347  0.00  0.00    -0.204 OA
ATOM      2  C2  BZF d   1       2.234   3.669  -2.602  0.00  0.00     0.174 A 
ATOM      3  C3  BZF d   1       2.306   3.157  -3.848  0.00  0.00    -0.012 A 
ATOM      4  C3A BZF d   1       3.555   3.618  -4.372  0.00  0.00    -0.107 A 
ATOM      5  C4  BZF d   1       4.200   3.431  -5.561  0.00  0.00     0.055 A 
ATOM      6  C5  BZF d   1       5.373   4.080  -5.786  0.00  0.00    -0.016 A 
ATOM      7  C6  BZF d   1       5.926   4.926  -4.847  0.00  0.00     0.022 A 
ATOM      8  C7  BZF d   1       5.325   5.139  -3.651  0.00  0.00     0.029 A 
ATOM      9  C7A BZF d   1       4.156   4.459  -3.408  0.00  0.00     0.058 A 
ENDROOT
TORSDOF 0
ENDMDL
