MODEL 1
REMARK minimizedAffinity 6.4749403
REMARK minimizedRMSD -1
REMARK  0 active torsions:
REMARK  status: ('A' for Active; 'I' for Inactive)
ROOT
ATOM      1  O1  BZF d   1      -5.982   5.000   3.756  0.00  0.00    -0.204 OA
ATOM      2  C2  BZF d   1      -5.953   5.712   4.940  0.00  0.00     0.174 A 
ATOM      3  C3  BZF d   1      -5.946   4.878   6.000  0.00  0.00    -0.012 A 
ATOM      4  C3A BZF d   1      -5.877   3.562   5.442  0.00  0.00    -0.107 A 
ATOM      5  C4  BZF d   1      -5.824   2.312   5.989  0.00  0.00     0.055 A 
ATOM      6  C5  BZF d   1      -5.838   1.230   5.167  0.00  0.00    -0.016 A 
ATOM      7  C6  BZF d   1      -5.910   1.361   3.796  0.00  0.00     0.022 A 
ATOM      8  C7  BZF d   1      -5.959   2.580   3.207  0.00  0.00     0.029 A 
ATOM      9  C7A BZF d   1      -5.911   3.676   4.033  0.00  0.00     0.058 A 
ENDROOT
TORSDOF 0
ENDMDL
