MODEL 1
REMARK minimizedAffinity 5.95057154
REMARK minimizedRMSD -1
REMARK  0 active torsions:
REMARK  status: ('A' for Active; 'I' for Inactive)
ROOT
ATOM      1  O1  BZF d   1       2.363   3.650  -3.123  0.00  0.00    -0.204 OA
ATOM      2  C2  BZF d   1       1.400   4.597  -2.832  0.00  0.00     0.174 A 
ATOM      3  C3  BZF d   1       0.850   4.364  -1.623  0.00  0.00    -0.012 A 
ATOM      4  C3A BZF d   1       1.574   3.252  -1.088  0.00  0.00    -0.107 A 
ATOM      5  C4  BZF d   1       1.504   2.564   0.090  0.00  0.00     0.055 A 
ATOM      6  C5  BZF d   1       2.305   1.482   0.272  0.00  0.00    -0.016 A 
ATOM      7  C6  BZF d   1       3.184   1.058  -0.703  0.00  0.00     0.022 A 
ATOM      8  C7  BZF d   1       3.294   1.711  -1.885  0.00  0.00     0.029 A 
ATOM      9  C7A BZF d   1       2.509   2.824  -2.059  0.00  0.00     0.058 A 
ENDROOT
TORSDOF 0
ENDMDL
