MODEL 1
REMARK minimizedAffinity -4.62506628
REMARK minimizedRMSD -1
REMARK  0 active torsions:
REMARK  status: ('A' for Active; 'I' for Inactive)
ROOT
ATOM      1  O1  BZF d   1      -0.215   4.400  -1.993  0.00  0.00    -0.204 OA
ATOM      2  C2  BZF d   1      -0.630   5.044  -0.843  0.00  0.00     0.174 A 
ATOM      3  C3  BZF d   1       0.121   4.670   0.212  0.00  0.00    -0.012 A 
ATOM      4  C3A BZF d   1       1.124   3.804  -0.328  0.00  0.00    -0.107 A 
ATOM      5  C4  BZF d   1       2.175   3.127   0.222  0.00  0.00     0.055 A 
ATOM      6  C5  BZF d   1       2.920   2.310  -0.568  0.00  0.00    -0.016 A 
ATOM      7  C6  BZF d   1       2.640   2.143  -1.908  0.00  0.00     0.022 A 
ATOM      8  C7  BZF d   1       1.612   2.798  -2.500  0.00  0.00     0.029 A 
ATOM      9  C7A BZF d   1       0.877   3.650  -1.711  0.00  0.00     0.058 A 
ENDROOT
TORSDOF 0
ENDMDL
