MODEL 1
REMARK minimizedAffinity -3.84379435
REMARK minimizedRMSD -1
REMARK  0 active torsions:
REMARK  status: ('A' for Active; 'I' for Inactive)
ROOT
ATOM      1  C   UNL d   1       0.581   0.315   2.820  0.00  0.00     0.078 C 
ATOM      2  C1  UNL d   1       0.443   0.054   1.350  0.00  0.00    -0.077 A 
ATOM      3  C2  UNL d   1      -0.019  -1.180   0.877  0.00  0.00    -0.001 A 
ATOM      4  C3  UNL d   1      -0.133  -1.412  -0.495  0.00  0.00     0.003 A 
ATOM      5  C4  UNL d   1       0.216  -0.416  -1.404  0.00  0.00    -0.005 A 
ATOM      6  C5  UNL d   1       0.679   0.814  -0.943  0.00  0.00     0.003 A 
ATOM      7  C6  UNL d   1       0.793   1.048   0.428  0.00  0.00    -0.001 A 
ENDROOT
TORSDOF 0
ENDMDL
