MODEL 1
REMARK minimizedAffinity -4.51294327
REMARK minimizedRMSD -1
REMARK  0 active torsions:
REMARK  status: ('A' for Active; 'I' for Inactive)
ROOT
ATOM      1  C   UNL d   1       0.372  -0.009  -1.390  0.00  0.00     0.078 C 
ATOM      2  C1  UNL d   1      -0.174   0.221  -0.013  0.00  0.00    -0.077 A 
ATOM      3  C2  UNL d   1       0.650   0.124   1.115  0.00  0.00    -0.001 A 
ATOM      4  C3  UNL d   1       0.126   0.331   2.392  0.00  0.00     0.003 A 
ATOM      5  C4  UNL d   1      -1.225   0.635   2.553  0.00  0.00    -0.005 A 
ATOM      6  C5  UNL d   1      -2.053   0.731   1.437  0.00  0.00     0.003 A 
ATOM      7  C6  UNL d   1      -1.530   0.525   0.159  0.00  0.00    -0.001 A 
ENDROOT
TORSDOF 0
ENDMDL
