MODEL 1
REMARK minimizedAffinity -5.65631676
REMARK minimizedRMSD -1
REMARK  0 active torsions:
REMARK  status: ('A' for Active; 'I' for Inactive)
ROOT
ATOM      1  C   UNL d   1      -1.500  -0.412   3.113  0.00  0.00     0.078 C 
ATOM      2  C1  UNL d   1      -0.651  -0.195   1.896  0.00  0.00    -0.077 A 
ATOM      3  C2  UNL d   1      -1.233   0.054   0.647  0.00  0.00    -0.001 A 
ATOM      4  C3  UNL d   1      -0.431   0.244  -0.480  0.00  0.00     0.003 A 
ATOM      5  C4  UNL d   1       0.957   0.186  -0.369  0.00  0.00    -0.005 A 
ATOM      6  C5  UNL d   1       1.544  -0.064   0.870  0.00  0.00     0.003 A 
ATOM      7  C6  UNL d   1       0.744  -0.254   1.997  0.00  0.00    -0.001 A 
ENDROOT
TORSDOF 0
ENDMDL
