MODEL 1
REMARK minimizedAffinity -4.24205494
REMARK minimizedRMSD -1
REMARK  0 active torsions:
REMARK  status: ('A' for Active; 'I' for Inactive)
ROOT
ATOM      1  C   UNL d   1      -1.133  -0.629   2.807  0.00  0.00     0.078 C 
ATOM      2  C1  UNL d   1      -0.304  -0.310   1.599  0.00  0.00    -0.077 A 
ATOM      3  C2  UNL d   1       1.026   0.108   1.726  0.00  0.00    -0.001 A 
ATOM      4  C3  UNL d   1       1.782   0.411   0.593  0.00  0.00     0.003 A 
ATOM      5  C4  UNL d   1       1.217   0.299  -0.676  0.00  0.00    -0.005 A 
ATOM      6  C5  UNL d   1      -0.106  -0.115  -0.813  0.00  0.00     0.003 A 
ATOM      7  C6  UNL d   1      -0.864  -0.418   0.320  0.00  0.00    -0.001 A 
ENDROOT
TORSDOF 0
ENDMDL
