MODEL 1
REMARK minimizedAffinity -4.15045118
REMARK minimizedRMSD -1
REMARK  0 active torsions:
REMARK  status: ('A' for Active; 'I' for Inactive)
ROOT
ATOM      1  C   UNL d   1       1.094   0.016   0.184  0.00  0.00     0.078 C 
ATOM      2  C1  UNL d   1      -0.109   0.073   1.078  0.00  0.00    -0.077 A 
ATOM      3  C2  UNL d   1      -1.393   0.253   0.549  0.00  0.00    -0.001 A 
ATOM      4  C3  UNL d   1      -2.502   0.313   1.394  0.00  0.00     0.003 A 
ATOM      5  C4  UNL d   1      -2.339   0.196   2.773  0.00  0.00    -0.005 A 
ATOM      6  C5  UNL d   1      -1.065   0.019   3.309  0.00  0.00     0.003 A 
ATOM      7  C6  UNL d   1       0.045  -0.042   2.466  0.00  0.00    -0.001 A 
ENDROOT
TORSDOF 0
ENDMDL
