MODEL 1
REMARK minimizedAffinity -5.835042
REMARK minimizedRMSD -1
REMARK  0 active torsions:
REMARK  status: ('A' for Active; 'I' for Inactive)
ROOT
ATOM      1  C   UNL d   1       1.427   0.366   1.571  0.00  0.00     0.078 C 
ATOM      2  C1  UNL d   1      -0.017  -0.004   1.726  0.00  0.00    -0.077 A 
ATOM      3  C2  UNL d   1      -1.003   0.589   0.928  0.00  0.00    -0.001 A 
ATOM      4  C3  UNL d   1      -2.345   0.242   1.089  0.00  0.00     0.003 A 
ATOM      5  C4  UNL d   1      -2.714  -0.699   2.048  0.00  0.00    -0.005 A 
ATOM      6  C5  UNL d   1      -1.740  -1.293   2.849  0.00  0.00     0.003 A 
ATOM      7  C6  UNL d   1      -0.398  -0.947   2.689  0.00  0.00    -0.001 A 
ENDROOT
TORSDOF 0
ENDMDL
