MODEL 1
REMARK minimizedAffinity -4.81691504
REMARK minimizedRMSD -1
REMARK  0 active torsions:
REMARK  status: ('A' for Active; 'I' for Inactive)
ROOT
ATOM      1  C   UNL d   1       1.286   0.024   0.785  0.00  0.00     0.078 C 
ATOM      2  C1  UNL d   1       0.162  -0.420   1.673  0.00  0.00    -0.077 A 
ATOM      3  C2  UNL d   1       0.413  -0.932   2.952  0.00  0.00    -0.001 A 
ATOM      4  C3  UNL d   1      -0.642  -1.351   3.764  0.00  0.00     0.003 A 
ATOM      5  C4  UNL d   1      -1.955  -1.264   3.306  0.00  0.00    -0.005 A 
ATOM      6  C5  UNL d   1      -2.214  -0.758   2.034  0.00  0.00     0.003 A 
ATOM      7  C6  UNL d   1      -1.161  -0.338   1.220  0.00  0.00    -0.001 A 
ENDROOT
TORSDOF 0
ENDMDL
