MODEL 1
REMARK minimizedAffinity -4.44728565
REMARK minimizedRMSD -1
REMARK  0 active torsions:
REMARK  status: ('A' for Active; 'I' for Inactive)
ROOT
ATOM      1  C   UNL d   1       1.137  -0.416   1.692  0.00  0.00     0.078 C 
ATOM      2  C1  UNL d   1      -0.269   0.104   1.663  0.00  0.00    -0.077 A 
ATOM      3  C2  UNL d   1      -0.969   0.358   2.850  0.00  0.00    -0.001 A 
ATOM      4  C3  UNL d   1      -2.280   0.833   2.808  0.00  0.00     0.003 A 
ATOM      5  C4  UNL d   1      -2.905   1.057   1.583  0.00  0.00    -0.005 A 
ATOM      6  C5  UNL d   1      -2.218   0.805   0.397  0.00  0.00     0.003 A 
ATOM      7  C6  UNL d   1      -0.906   0.330   0.437  0.00  0.00    -0.001 A 
ENDROOT
TORSDOF 0
ENDMDL
