MODEL 1
REMARK minimizedAffinity -2.7105782
REMARK minimizedRMSD -1
REMARK  0 active torsions:
REMARK  status: ('A' for Active; 'I' for Inactive)
ROOT
ATOM      1  C   UNL d   1      -0.033   0.308   0.362  0.00  0.00     0.078 C 
ATOM      2  C1  UNL d   1       0.383  -0.214  -0.981  0.00  0.00    -0.077 A 
ATOM      3  C2  UNL d   1       0.180  -1.555  -1.328  0.00  0.00    -0.001 A 
ATOM      4  C3  UNL d   1       0.581  -2.029  -2.578  0.00  0.00     0.003 A 
ATOM      5  C4  UNL d   1       1.189  -1.168  -3.490  0.00  0.00    -0.005 A 
ATOM      6  C5  UNL d   1       1.397   0.167  -3.153  0.00  0.00     0.003 A 
ATOM      7  C6  UNL d   1       0.996   0.643  -1.903  0.00  0.00    -0.001 A 
ENDROOT
TORSDOF 0
ENDMDL
