MODEL 1
REMARK minimizedAffinity -2.99382114
REMARK minimizedRMSD -1
REMARK  0 active torsions:
REMARK  status: ('A' for Active; 'I' for Inactive)
ROOT
ATOM      1  C   UNL d   1      -2.672   0.754   1.199  0.00  0.00     0.078 C 
ATOM      2  C1  UNL d   1      -1.249   0.493   0.804  0.00  0.00    -0.077 A 
ATOM      3  C2  UNL d   1      -0.884   0.376  -0.543  0.00  0.00    -0.001 A 
ATOM      4  C3  UNL d   1       0.442   0.123  -0.896  0.00  0.00     0.003 A 
ATOM      5  C4  UNL d   1       1.415  -0.016   0.092  0.00  0.00    -0.005 A 
ATOM      6  C5  UNL d   1       1.061   0.096   1.435  0.00  0.00     0.003 A 
ATOM      7  C6  UNL d   1      -0.265   0.349   1.790  0.00  0.00    -0.001 A 
ENDROOT
TORSDOF 0
ENDMDL
