MODEL 1
REMARK minimizedAffinity -5.97019815
REMARK minimizedRMSD -1
REMARK  0 active torsions:
REMARK  status: ('A' for Active; 'I' for Inactive)
ROOT
ATOM      1  C   UNL d   1      -0.354   0.540  -0.317  0.00  0.00     0.078 C 
ATOM      2  C1  UNL d   1      -1.142   0.242   0.924  0.00  0.00    -0.077 A 
ATOM      3  C2  UNL d   1      -2.520   0.484   0.979  0.00  0.00    -0.001 A 
ATOM      4  C3  UNL d   1      -3.238   0.211   2.144  0.00  0.00     0.003 A 
ATOM      5  C4  UNL d   1      -2.588  -0.304   3.263  0.00  0.00    -0.005 A 
ATOM      6  C5  UNL d   1      -1.216  -0.546   3.219  0.00  0.00     0.003 A 
ATOM      7  C6  UNL d   1      -0.496  -0.274   2.055  0.00  0.00    -0.001 A 
ENDROOT
TORSDOF 0
ENDMDL
