MODEL 1
REMARK minimizedAffinity -6.26761627
REMARK minimizedRMSD -1
REMARK  0 active torsions:
REMARK  status: ('A' for Active; 'I' for Inactive)
ROOT
ATOM      1  C   UNL d   1      -0.227  -0.240   0.102  0.00  0.00     0.078 C 
ATOM      2  C1  UNL d   1      -1.164  -0.227   1.272  0.00  0.00    -0.077 A 
ATOM      3  C2  UNL d   1      -2.451   0.311   1.160  0.00  0.00    -0.001 A 
ATOM      4  C3  UNL d   1      -3.309   0.325   2.261  0.00  0.00     0.003 A 
ATOM      5  C4  UNL d   1      -2.889  -0.197   3.482  0.00  0.00    -0.005 A 
ATOM      6  C5  UNL d   1      -1.609  -0.734   3.604  0.00  0.00     0.003 A 
ATOM      7  C6  UNL d   1      -0.749  -0.748   2.505  0.00  0.00    -0.001 A 
ENDROOT
TORSDOF 0
ENDMDL
