MODEL 1
REMARK minimizedAffinity -5.40032244
REMARK minimizedRMSD -1
REMARK  0 active torsions:
REMARK  status: ('A' for Active; 'I' for Inactive)
ROOT
ATOM      1  C   UNL d   1       0.229   0.030   0.117  0.00  0.00     0.078 C 
ATOM      2  C1  UNL d   1      -0.787  -0.074   1.214  0.00  0.00    -0.077 A 
ATOM      3  C2  UNL d   1      -2.098   0.381   1.029  0.00  0.00    -0.001 A 
ATOM      4  C3  UNL d   1      -3.031   0.287   2.062  0.00  0.00     0.003 A 
ATOM      5  C4  UNL d   1      -2.663  -0.261   3.289  0.00  0.00    -0.005 A 
ATOM      6  C5  UNL d   1      -1.360  -0.715   3.484  0.00  0.00     0.003 A 
ATOM      7  C6  UNL d   1      -0.426  -0.622   2.452  0.00  0.00    -0.001 A 
ENDROOT
TORSDOF 0
ENDMDL
