MODEL 1
REMARK minimizedAffinity 7.64860916
REMARK minimizedRMSD -1
REMARK  2 active torsions:
REMARK  status: ('A' for Active; 'I' for Inactive)
REMARK    1  A    between atoms: C2'_3  and  C1'_4 
REMARK    2  A    between atoms: C1'_4  and  C1_5 
ROOT
ATOM      1  C1  I4B d   1      -3.028   3.339   0.007  0.00  0.00    -0.075 A 
ATOM      2  C2  I4B d   1      -3.811   4.297  -0.587  0.00  0.00     0.003 A 
ATOM      3  C3  I4B d   1      -3.973   5.565   0.023  0.00  0.00     0.002 A 
ATOM      4  C4  I4B d   1      -3.378   5.812   1.243  0.00  0.00    -0.004 A 
ATOM      5  C5  I4B d   1      -2.565   4.848   1.833  0.00  0.00     0.002 A 
ATOM      6  C6  I4B d   1      -2.379   3.608   1.205  0.00  0.00     0.003 A 
ENDROOT
BRANCH   1   7
ATOM      7  C1' I4B d   1      -2.906   2.000  -0.648  0.00  0.00     0.060 C 
BRANCH   7   8
ATOM      8  C2' I4B d   1      -2.661   0.971   0.436  0.00  0.00    -0.013 C 
ATOM      9  C4' I4B d   1      -3.941   0.286   0.837  0.00  0.00     0.013 C 
ATOM     10  C3' I4B d   1      -1.658  -0.017  -0.082  0.00  0.00     0.013 C 
ENDBRANCH   7   8
ENDBRANCH   1   7
TORSDOF 2
ENDMDL
