MODEL 1
REMARK minimizedAffinity 16.5864716
REMARK minimizedRMSD -1
REMARK  2 active torsions:
REMARK  status: ('A' for Active; 'I' for Inactive)
REMARK    1  A    between atoms: C2'_3  and  C1'_4 
REMARK    2  A    between atoms: C1'_4  and  C1_5 
ROOT
ATOM      1  C1  I4B d   1       4.645  -3.828  -2.883  0.00  0.00    -0.075 A 
ATOM      2  C2  I4B d   1       5.688  -3.980  -2.004  0.00  0.00     0.003 A 
ATOM      3  C3  I4B d   1       5.990  -2.956  -1.073  0.00  0.00     0.002 A 
ATOM      4  C4  I4B d   1       5.260  -1.785  -1.090  0.00  0.00    -0.004 A 
ATOM      5  C5  I4B d   1       4.189  -1.642  -1.967  0.00  0.00     0.002 A 
ATOM      6  C6  I4B d   1       3.871  -2.675  -2.861  0.00  0.00     0.003 A 
ENDROOT
BRANCH   1   7
ATOM      7  C1' I4B d   1       4.374  -4.915  -3.875  0.00  0.00     0.060 C 
BRANCH   7   8
ATOM      8  C2' I4B d   1       4.998  -4.509  -5.194  0.00  0.00    -0.013 C 
ATOM      9  C4' I4B d   1       5.530  -5.706  -5.937  0.00  0.00     0.013 C 
ATOM     10  C3' I4B d   1       3.955  -3.792  -5.998  0.00  0.00     0.013 C 
ENDBRANCH   7   8
ENDBRANCH   1   7
TORSDOF 2
ENDMDL
