MODEL 1
REMARK minimizedAffinity 11.6935883
REMARK minimizedRMSD -1
REMARK  2 active torsions:
REMARK  status: ('A' for Active; 'I' for Inactive)
REMARK    1  A    between atoms: C2'_3  and  C1'_4 
REMARK    2  A    between atoms: C1'_4  and  C1_5 
ROOT
ATOM      1  C1  I4B d   1      -2.759   3.818  -0.001  0.00  0.00    -0.075 A 
ATOM      2  C2  I4B d   1      -3.727   3.927  -0.967  0.00  0.00     0.003 A 
ATOM      3  C3  I4B d   1      -4.595   5.046  -0.983  0.00  0.00     0.002 A 
ATOM      4  C4  I4B d   1      -4.492   6.000   0.009  0.00  0.00    -0.004 A 
ATOM      5  C5  I4B d   1      -3.495   5.899   0.974  0.00  0.00     0.002 A 
ATOM      6  C6  I4B d   1      -2.614   4.808   0.963  0.00  0.00     0.003 A 
ENDROOT
BRANCH   1   7
ATOM      7  C1' I4B d   1      -1.881   2.606   0.006  0.00  0.00     0.060 C 
BRANCH   7   8
ATOM      8  C2' I4B d   1      -0.852   2.782   1.104  0.00  0.00    -0.013 C 
ATOM      9  C4' I4B d   1       0.017   3.986   0.849  0.00  0.00     0.013 C 
ATOM     10  C3' I4B d   1      -1.582   2.907   2.408  0.00  0.00     0.013 C 
ENDBRANCH   7   8
ENDBRANCH   1   7
TORSDOF 2
ENDMDL
