MODEL 1
REMARK minimizedAffinity 13.028079
REMARK minimizedRMSD -1
REMARK  2 active torsions:
REMARK  status: ('A' for Active; 'I' for Inactive)
REMARK    1  A    between atoms: C2'_3  and  C1'_4 
REMARK    2  A    between atoms: C1'_4  and  C1_5 
ROOT
ATOM      1  C1  I4B d   1       5.224   4.323  -3.377  0.00  0.00    -0.075 A 
ATOM      2  C2  I4B d   1       5.990   4.978  -2.445  0.00  0.00     0.003 A 
ATOM      3  C3  I4B d   1       5.378   5.808  -1.475  0.00  0.00     0.002 A 
ATOM      4  C4  I4B d   1       4.011   5.994  -1.505  0.00  0.00    -0.004 A 
ATOM      5  C5  I4B d   1       3.233   5.311  -2.436  0.00  0.00     0.002 A 
ATOM      6  C6  I4B d   1       3.842   4.461  -3.370  0.00  0.00     0.003 A 
ENDROOT
BRANCH   1   7
ATOM      7  C1' I4B d   1       5.906   3.480  -4.407  0.00  0.00     0.060 C 
BRANCH   7   8
ATOM      8  C2' I4B d   1       4.954   2.371  -4.807  0.00  0.00    -0.013 C 
ATOM      9  C4' I4B d   1       3.930   2.862  -5.796  0.00  0.00     0.013 C 
ATOM     10  C3' I4B d   1       5.767   1.249  -5.381  0.00  0.00     0.013 C 
ENDBRANCH   7   8
ENDBRANCH   1   7
TORSDOF 2
ENDMDL
