MODEL 1
REMARK minimizedAffinity 18.5954323
REMARK minimizedRMSD -1
REMARK  2 active torsions:
REMARK  status: ('A' for Active; 'I' for Inactive)
REMARK    1  A    between atoms: C2'_3  and  C1'_4 
REMARK    2  A    between atoms: C1'_4  and  C1_5 
ROOT
ATOM      1  C1  I4B d   1       4.987  -1.026  -5.273  0.00  0.00    -0.075 A 
ATOM      2  C2  I4B d   1       4.408  -2.061  -5.963  0.00  0.00     0.003 A 
ATOM      3  C3  I4B d   1       3.474  -2.911  -5.322  0.00  0.00     0.002 A 
ATOM      4  C4  I4B d   1       3.188  -2.721  -3.985  0.00  0.00    -0.004 A 
ATOM      5  C5  I4B d   1       3.758  -1.656  -3.294  0.00  0.00     0.002 A 
ATOM      6  C6  I4B d   1       4.654  -0.795  -3.944  0.00  0.00     0.003 A 
ENDROOT
BRANCH   1   7
ATOM      7  C1' I4B d   1       5.994  -0.168  -5.971  0.00  0.00     0.060 C 
BRANCH   7   8
ATOM      8  C2' I4B d   1       5.551   1.275  -5.839  0.00  0.00    -0.013 C 
ATOM      9  C4' I4B d   1       4.059   1.404  -5.998  0.00  0.00     0.013 C 
ATOM     10  C3' I4B d   1       5.998   1.775  -4.497  0.00  0.00     0.013 C 
ENDBRANCH   7   8
ENDBRANCH   1   7
TORSDOF 2
ENDMDL
