MODEL 1
REMARK minimizedAffinity 24.5405102
REMARK minimizedRMSD -1
REMARK  2 active torsions:
REMARK  status: ('A' for Active; 'I' for Inactive)
REMARK    1  A    between atoms: C2'_3  and  C1'_4 
REMARK    2  A    between atoms: C1'_4  and  C1_5 
ROOT
ATOM      1  C1  I4B d   1      -1.285   2.595   0.711  0.00  0.00    -0.075 A 
ATOM      2  C2  I4B d   1      -1.550   1.261   0.897  0.00  0.00     0.003 A 
ATOM      3  C3  I4B d   1      -2.797   0.720   0.500  0.00  0.00     0.002 A 
ATOM      4  C4  I4B d   1      -3.762   1.552  -0.029  0.00  0.00    -0.004 A 
ATOM      5  C5  I4B d   1      -3.483   2.900  -0.238  0.00  0.00     0.002 A 
ATOM      6  C6  I4B d   1      -2.233   3.422   0.122  0.00  0.00     0.003 A 
ENDROOT
BRANCH   1   7
ATOM      7  C1' I4B d   1       0.029   3.140   1.172  0.00  0.00     0.060 C 
BRANCH   7   8
ATOM      8  C2' I4B d   1       0.030   4.634   0.918  0.00  0.00    -0.013 C 
ATOM      9  C4' I4B d   1       1.012   5.339   1.815  0.00  0.00     0.013 C 
ATOM     10  C3' I4B d   1       0.360   4.858  -0.528  0.00  0.00     0.013 C 
ENDBRANCH   7   8
ENDBRANCH   1   7
TORSDOF 2
ENDMDL
