MODEL 1
REMARK minimizedAffinity 26.1120968
REMARK minimizedRMSD -1
REMARK  2 active torsions:
REMARK  status: ('A' for Active; 'I' for Inactive)
REMARK    1  A    between atoms: C2'_3  and  C1'_4 
REMARK    2  A    between atoms: C1'_4  and  C1_5 
ROOT
ATOM      1  C1  I4B d   1      -1.891  -0.734   0.347  0.00  0.00    -0.075 A 
ATOM      2  C2  I4B d   1      -0.853  -0.655  -0.547  0.00  0.00     0.003 A 
ATOM      3  C3  I4B d   1       0.011  -1.761  -0.736  0.00  0.00     0.002 A 
ATOM      4  C4  I4B d   1      -0.169  -2.901   0.021  0.00  0.00    -0.004 A 
ATOM      5  C5  I4B d   1      -1.237  -2.988   0.910  0.00  0.00     0.002 A 
ATOM      6  C6  I4B d   1      -2.111  -1.902   1.065  0.00  0.00     0.003 A 
ENDROOT
BRANCH   1   7
ATOM      7  C1' I4B d   1      -2.764   0.465   0.546  0.00  0.00     0.060 C 
BRANCH   7   8
ATOM      8  C2' I4B d   1      -1.919   1.701   0.311  0.00  0.00    -0.013 C 
ATOM      9  C4' I4B d   1      -2.541   2.597  -0.727  0.00  0.00     0.013 C 
ATOM     10  C3' I4B d   1      -1.768   2.414   1.622  0.00  0.00     0.013 C 
ENDBRANCH   7   8
ENDBRANCH   1   7
TORSDOF 2
ENDMDL
