MODEL 1
REMARK minimizedAffinity 16.4986477
REMARK minimizedRMSD -1
REMARK  2 active torsions:
REMARK  status: ('A' for Active; 'I' for Inactive)
REMARK    1  A    between atoms: C2'_3  and  C1'_4 
REMARK    2  A    between atoms: C1'_4  and  C1_5 
ROOT
ATOM      1  C1  I4B d   1      -1.191  -0.823   0.204  0.00  0.00    -0.075 A 
ATOM      2  C2  I4B d   1      -0.634  -0.840  -1.050  0.00  0.00     0.003 A 
ATOM      3  C3  I4B d   1       0.173  -1.930  -1.458  0.00  0.00     0.002 A 
ATOM      4  C4  I4B d   1       0.436  -2.951  -0.567  0.00  0.00    -0.004 A 
ATOM      5  C5  I4B d   1      -0.149  -2.944   0.696  0.00  0.00     0.002 A 
ATOM      6  C6  I4B d   1      -0.977  -1.879   1.080  0.00  0.00     0.003 A 
ENDROOT
BRANCH   1   7
ATOM      7  C1' I4B d   1      -2.011   0.359   0.613  0.00  0.00     0.060 C 
BRANCH   7   8
ATOM      8  C2' I4B d   1      -1.303   1.608   0.128  0.00  0.00    -0.013 C 
ATOM      9  C4' I4B d   1      -2.275   2.582  -0.485  0.00  0.00     0.013 C 
ATOM     10  C3' I4B d   1      -0.589   2.219   1.297  0.00  0.00     0.013 C 
ENDBRANCH   7   8
ENDBRANCH   1   7
TORSDOF 2
ENDMDL
