MODEL 1
REMARK minimizedAffinity 1.41974401
REMARK minimizedRMSD -1
REMARK  0 active torsions:
REMARK  status: ('A' for Active; 'I' for Inactive)
ROOT
ATOM      1  C   UNL d   1       2.279  -5.903  -4.964  0.00  0.00     0.077 C 
ATOM      2  C1  UNL d   1       0.784  -5.927  -4.856  0.00  0.00    -0.074 A 
ATOM      3  C2  UNL d   1      -0.020  -5.967  -6.000  0.00  0.00    -0.005 A 
ATOM      4  C3  UNL d   1      -1.409  -5.999  -5.883  0.00  0.00     0.006 A 
ATOM      5  C4  UNL d   1      -2.008  -5.991  -4.623  0.00  0.00    -0.005 A 
ATOM      6  C5  UNL d   1      -1.221  -5.952  -3.467  0.00  0.00    -0.074 A 
ATOM      7  C6  UNL d   1      -1.849  -5.953  -2.105  0.00  0.00     0.077 C 
ATOM      8  C7  UNL d   1       0.174  -5.927  -3.593  0.00  0.00    -0.001 A 
ENDROOT
TORSDOF 0
ENDMDL
