MODEL 1
REMARK minimizedAffinity 1.07017291
REMARK minimizedRMSD -1
REMARK  0 active torsions:
REMARK  status: ('A' for Active; 'I' for Inactive)
ROOT
ATOM      1  C   UNL d   1      -0.402  -5.978  -6.000  0.00  0.00     0.077 C 
ATOM      2  C1  UNL d   1      -0.601  -5.991  -4.513  0.00  0.00    -0.074 A 
ATOM      3  C2  UNL d   1       0.493  -5.985  -3.642  0.00  0.00    -0.005 A 
ATOM      4  C3  UNL d   1       0.292  -5.988  -2.261  0.00  0.00     0.006 A 
ATOM      5  C4  UNL d   1      -1.002  -5.995  -1.740  0.00  0.00    -0.005 A 
ATOM      6  C5  UNL d   1      -2.108  -6.000  -2.596  0.00  0.00    -0.074 A 
ATOM      7  C6  UNL d   1      -3.506  -5.998  -2.051  0.00  0.00     0.077 C 
ATOM      8  C7  UNL d   1      -1.898  -5.990  -3.981  0.00  0.00    -0.001 A 
ENDROOT
TORSDOF 0
ENDMDL
