MODEL 1
REMARK minimizedAffinity -1.84624517
REMARK minimizedRMSD -1
REMARK  0 active torsions:
REMARK  status: ('A' for Active; 'I' for Inactive)
ROOT
ATOM      1  C   UNL d   1       2.080  -5.982  -3.444  0.00  0.00     0.077 C 
ATOM      2  C1  UNL d   1       0.690  -5.981  -4.006  0.00  0.00    -0.074 A 
ATOM      3  C2  UNL d   1       0.473  -5.990  -5.388  0.00  0.00    -0.005 A 
ATOM      4  C3  UNL d   1      -0.826  -5.999  -5.896  0.00  0.00     0.006 A 
ATOM      5  C4  UNL d   1      -1.919  -5.998  -5.030  0.00  0.00    -0.005 A 
ATOM      6  C5  UNL d   1      -1.723  -5.990  -3.645  0.00  0.00    -0.074 A 
ATOM      7  C6  UNL d   1      -2.887  -5.999  -2.700  0.00  0.00     0.077 C 
ATOM      8  C7  UNL d   1      -0.414  -5.988  -3.142  0.00  0.00    -0.001 A 
ENDROOT
TORSDOF 0
ENDMDL
