MODEL 1
REMARK minimizedAffinity -0.119043
REMARK minimizedRMSD -1
REMARK  0 active torsions:
REMARK  status: ('A' for Active; 'I' for Inactive)
ROOT
ATOM      1  C   UNL d   1      -3.067  -5.998  -2.644  0.00  0.00     0.077 C 
ATOM      2  C1  UNL d   1      -1.985  -5.972  -3.682  0.00  0.00    -0.074 A 
ATOM      3  C2  UNL d   1      -2.296  -5.905  -5.044  0.00  0.00    -0.005 A 
ATOM      4  C3  UNL d   1      -1.278  -5.872  -5.997  0.00  0.00     0.006 A 
ATOM      5  C4  UNL d   1       0.059  -5.906  -5.599  0.00  0.00    -0.005 A 
ATOM      6  C5  UNL d   1       0.389  -5.971  -4.241  0.00  0.00    -0.074 A 
ATOM      7  C6  UNL d   1       1.821  -5.998  -3.796  0.00  0.00     0.077 C 
ATOM      8  C7  UNL d   1      -0.639  -5.997  -3.289  0.00  0.00    -0.001 A 
ENDROOT
TORSDOF 0
ENDMDL
