MODEL 1
REMARK minimizedAffinity 2.32919908
REMARK minimizedRMSD -1
REMARK  0 active torsions:
REMARK  status: ('A' for Active; 'I' for Inactive)
ROOT
ATOM      1  C   UNL d   1       0.356  -3.015   1.448  0.00  0.00     0.077 C 
ATOM      2  C1  UNL d   1       0.822  -1.716   0.862  0.00  0.00    -0.074 A 
ATOM      3  C2  UNL d   1       1.964  -1.074   1.352  0.00  0.00    -0.005 A 
ATOM      4  C3  UNL d   1       2.391   0.129   0.791  0.00  0.00     0.006 A 
ATOM      5  C4  UNL d   1       1.680   0.703  -0.264  0.00  0.00    -0.005 A 
ATOM      6  C5  UNL d   1       0.536   0.076  -0.768  0.00  0.00    -0.074 A 
ATOM      7  C6  UNL d   1      -0.234   0.674  -1.908  0.00  0.00     0.077 C 
ATOM      8  C7  UNL d   1       0.118  -1.137  -0.203  0.00  0.00    -0.001 A 
ENDROOT
TORSDOF 0
ENDMDL
