MODEL 1
REMARK minimizedAffinity 1.89374816
REMARK minimizedRMSD -1
REMARK  0 active torsions:
REMARK  status: ('A' for Active; 'I' for Inactive)
ROOT
ATOM      1  C   UNL d   1       1.808   3.372   0.004  0.00  0.00     0.077 C 
ATOM      2  C1  UNL d   1       3.269   3.352  -0.334  0.00  0.00    -0.074 A 
ATOM      3  C2  UNL d   1       4.100   4.424   0.009  0.00  0.00    -0.005 A 
ATOM      4  C3  UNL d   1       5.459   4.387  -0.303  0.00  0.00     0.006 A 
ATOM      5  C4  UNL d   1       6.000   3.281  -0.960  0.00  0.00    -0.005 A 
ATOM      6  C5  UNL d   1       5.184   2.200  -1.310  0.00  0.00    -0.074 A 
ATOM      7  C6  UNL d   1       5.751   1.000  -2.008  0.00  0.00     0.077 C 
ATOM      8  C7  UNL d   1       3.821   2.242  -0.987  0.00  0.00    -0.001 A 
ENDROOT
TORSDOF 0
ENDMDL
