MODEL 1
REMARK minimizedAffinity -0.823393881
REMARK minimizedRMSD -1
REMARK  0 active torsions:
REMARK  status: ('A' for Active; 'I' for Inactive)
ROOT
ATOM      1  C   UNL d   1      -1.040  -5.999  -1.739  0.00  0.00     0.077 C 
ATOM      2  C1  UNL d   1      -0.841  -5.987  -3.226  0.00  0.00    -0.074 A 
ATOM      3  C2  UNL d   1      -1.935  -5.998  -4.098  0.00  0.00    -0.005 A 
ATOM      4  C3  UNL d   1      -1.735  -5.977  -5.478  0.00  0.00     0.006 A 
ATOM      5  C4  UNL d   1      -0.441  -5.945  -5.999  0.00  0.00    -0.005 A 
ATOM      6  C5  UNL d   1       0.665  -5.932  -5.143  0.00  0.00    -0.074 A 
ATOM      7  C6  UNL d   1       2.062  -5.887  -5.687  0.00  0.00     0.077 C 
ATOM      8  C7  UNL d   1       0.455  -5.946  -3.758  0.00  0.00    -0.001 A 
ENDROOT
TORSDOF 0
ENDMDL
