MODEL 1
REMARK minimizedAffinity 3.25608349
REMARK minimizedRMSD -1
REMARK  0 active torsions:
REMARK  status: ('A' for Active; 'I' for Inactive)
ROOT
ATOM      1  C   UNL d   1       2.720  -5.368  -4.818  0.00  0.00     0.077 C 
ATOM      2  C1  UNL d   1       1.236  -5.581  -4.796  0.00  0.00    -0.074 A 
ATOM      3  C2  UNL d   1       0.508  -5.693  -5.985  0.00  0.00    -0.005 A 
ATOM      4  C3  UNL d   1      -0.871  -5.900  -5.948  0.00  0.00     0.006 A 
ATOM      5  C4  UNL d   1      -1.535  -5.997  -4.725  0.00  0.00    -0.005 A 
ATOM      6  C5  UNL d   1      -0.824  -5.888  -3.526  0.00  0.00    -0.074 A 
ATOM      7  C6  UNL d   1      -1.521  -5.999  -2.202  0.00  0.00     0.077 C 
ATOM      8  C7  UNL d   1       0.562  -5.687  -3.570  0.00  0.00    -0.001 A 
ENDROOT
TORSDOF 0
ENDMDL
