MODEL 1
REMARK minimizedAffinity -2.09538388
REMARK minimizedRMSD -1
REMARK  0 active torsions:
REMARK  status: ('A' for Active; 'I' for Inactive)
ROOT
ATOM      1  C   UNL d   1      -2.499  -5.997  -2.640  0.00  0.00     0.077 C 
ATOM      2  C1  UNL d   1      -1.432  -5.905  -3.690  0.00  0.00    -0.074 A 
ATOM      3  C2  UNL d   1      -1.762  -5.716  -5.036  0.00  0.00    -0.005 A 
ATOM      4  C3  UNL d   1      -0.759  -5.624  -6.000  0.00  0.00     0.006 A 
ATOM      5  C4  UNL d   1       0.583  -5.718  -5.629  0.00  0.00    -0.005 A 
ATOM      6  C5  UNL d   1       0.933  -5.906  -4.288  0.00  0.00    -0.074 A 
ATOM      7  C6  UNL d   1       2.370  -6.000  -3.871  0.00  0.00     0.077 C 
ATOM      8  C7  UNL d   1      -0.081  -5.991  -3.324  0.00  0.00    -0.001 A 
ENDROOT
TORSDOF 0
ENDMDL
