MODEL 1
REMARK minimizedAffinity 3.21207023
REMARK minimizedRMSD -1
REMARK  0 active torsions:
REMARK  status: ('A' for Active; 'I' for Inactive)
ROOT
ATOM      1  C   UNL d   1       0.370  -0.036  -0.089  0.00  0.00     0.077 C 
ATOM      2  C1  UNL d   1       1.301  -0.253   1.067  0.00  0.00    -0.074 A 
ATOM      3  C2  UNL d   1       2.591   0.287   1.061  0.00  0.00    -0.005 A 
ATOM      4  C3  UNL d   1       3.443   0.086   2.146  0.00  0.00     0.006 A 
ATOM      5  C4  UNL d   1       3.015  -0.657   3.247  0.00  0.00    -0.005 A 
ATOM      6  C5  UNL d   1       1.728  -1.204   3.272  0.00  0.00    -0.074 A 
ATOM      7  C6  UNL d   1       1.248  -1.996   4.451  0.00  0.00     0.077 C 
ATOM      8  C7  UNL d   1       0.875  -0.991   2.180  0.00  0.00    -0.001 A 
ENDROOT
TORSDOF 0
ENDMDL
