MODEL 1
REMARK minimizedAffinity 2.52255464
REMARK minimizedRMSD -1
REMARK  0 active torsions:
REMARK  status: ('A' for Active; 'I' for Inactive)
ROOT
ATOM      1  C   UNL d   1      -0.505  -5.984  -6.000  0.00  0.00     0.077 C 
ATOM      2  C1  UNL d   1      -1.087  -5.996  -4.617  0.00  0.00    -0.074 A 
ATOM      3  C2  UNL d   1      -0.260  -5.995  -3.489  0.00  0.00    -0.005 A 
ATOM      4  C3  UNL d   1      -0.816  -5.996  -2.210  0.00  0.00     0.006 A 
ATOM      5  C4  UNL d   1      -2.202  -5.999  -2.046  0.00  0.00    -0.005 A 
ATOM      6  C5  UNL d   1      -3.044  -6.000  -3.162  0.00  0.00    -0.074 A 
ATOM      7  C6  UNL d   1      -4.536  -5.993  -3.003  0.00  0.00     0.077 C 
ATOM      8  C7  UNL d   1      -2.479  -5.991  -4.444  0.00  0.00    -0.001 A 
ENDROOT
TORSDOF 0
ENDMDL
