MODEL 1
REMARK minimizedAffinity -2.70245123
REMARK minimizedRMSD -1
REMARK  0 active torsions:
REMARK  status: ('A' for Active; 'I' for Inactive)
ROOT
ATOM      1  C   UNL d   1       1.754  -5.999  -4.847  0.00  0.00     0.077 C 
ATOM      2  C1  UNL d   1       0.254  -5.991  -4.813  0.00  0.00    -0.074 A 
ATOM      3  C2  UNL d   1      -0.492  -5.995  -5.996  0.00  0.00    -0.005 A 
ATOM      4  C3  UNL d   1      -1.886  -5.996  -5.948  0.00  0.00     0.006 A 
ATOM      5  C4  UNL d   1      -2.547  -5.993  -4.719  0.00  0.00    -0.005 A 
ATOM      6  C5  UNL d   1      -1.818  -5.990  -3.526  0.00  0.00    -0.074 A 
ATOM      7  C6  UNL d   1      -2.512  -5.997  -2.197  0.00  0.00     0.077 C 
ATOM      8  C7  UNL d   1      -0.417  -5.996  -3.582  0.00  0.00    -0.001 A 
ENDROOT
TORSDOF 0
ENDMDL
