MODEL 1
REMARK minimizedAffinity -2.16762805
REMARK minimizedRMSD -1
REMARK  0 active torsions:
REMARK  status: ('A' for Active; 'I' for Inactive)
ROOT
ATOM      1  C   UNL d   1      -0.104  -5.976  -6.000  0.00  0.00     0.077 C 
ATOM      2  C1  UNL d   1      -0.807  -5.990  -4.675  0.00  0.00    -0.074 A 
ATOM      3  C2  UNL d   1      -0.084  -5.987  -3.478  0.00  0.00    -0.005 A 
ATOM      4  C3  UNL d   1      -0.752  -5.989  -2.253  0.00  0.00     0.006 A 
ATOM      5  C4  UNL d   1      -2.147  -5.995  -2.214  0.00  0.00    -0.005 A 
ATOM      6  C5  UNL d   1      -2.886  -5.997  -3.400  0.00  0.00    -0.074 A 
ATOM      7  C6  UNL d   1      -4.386  -5.994  -3.376  0.00  0.00     0.077 C 
ATOM      8  C7  UNL d   1      -2.208  -5.988  -4.627  0.00  0.00    -0.001 A 
ENDROOT
TORSDOF 0
ENDMDL
