MODEL 1
REMARK minimizedAffinity 1.9661833
REMARK minimizedRMSD -1
REMARK  0 active torsions:
REMARK  status: ('A' for Active; 'I' for Inactive)
ROOT
ATOM      1  C   UNL d   1      -3.111  -5.994  -2.210  0.00  0.00     0.077 C 
ATOM      2  C1  UNL d   1      -3.822  -5.735  -0.915  0.00  0.00    -0.074 A 
ATOM      3  C2  UNL d   1      -5.189  -6.000  -0.781  0.00  0.00    -0.005 A 
ATOM      4  C3  UNL d   1      -5.835  -5.764   0.432  0.00  0.00     0.006 A 
ATOM      5  C4  UNL d   1      -5.123  -5.261   1.522  0.00  0.00    -0.005 A 
ATOM      6  C5  UNL d   1      -3.755  -4.991   1.406  0.00  0.00    -0.074 A 
ATOM      7  C6  UNL d   1      -2.972  -4.460   2.570  0.00  0.00     0.077 C 
ATOM      8  C7  UNL d   1      -3.112  -5.238   0.186  0.00  0.00    -0.001 A 
ENDROOT
TORSDOF 0
ENDMDL
