MODEL 1
REMARK minimizedAffinity 0.263640076
REMARK minimizedRMSD -1
REMARK  0 active torsions:
REMARK  status: ('A' for Active; 'I' for Inactive)
ROOT
ATOM      1  C   UNL d   1      -0.469  -5.986  -6.000  0.00  0.00     0.077 C 
ATOM      2  C1  UNL d   1      -0.862  -5.995  -4.553  0.00  0.00    -0.074 A 
ATOM      3  C2  UNL d   1       0.106  -5.990  -3.544  0.00  0.00    -0.005 A 
ATOM      4  C3  UNL d   1      -0.275  -5.989  -2.202  0.00  0.00     0.006 A 
ATOM      5  C4  UNL d   1      -1.627  -5.994  -1.856  0.00  0.00    -0.005 A 
ATOM      6  C5  UNL d   1      -2.610  -5.998  -2.851  0.00  0.00    -0.074 A 
ATOM      7  C6  UNL d   1      -4.067  -5.993  -2.496  0.00  0.00     0.077 C 
ATOM      8  C7  UNL d   1      -2.218  -5.992  -4.197  0.00  0.00    -0.001 A 
ENDROOT
TORSDOF 0
ENDMDL
