MODEL 1
REMARK minimizedAffinity -0.101453215
REMARK minimizedRMSD -1
REMARK  0 active torsions:
REMARK  status: ('A' for Active; 'I' for Inactive)
ROOT
ATOM      1  C   UNL d   1      -1.671  -5.992  -1.846  0.00  0.00     0.077 C 
ATOM      2  C1  UNL d   1      -1.290  -5.984  -3.296  0.00  0.00    -0.074 A 
ATOM      3  C2  UNL d   1      -2.268  -5.999  -4.296  0.00  0.00    -0.005 A 
ATOM      4  C3  UNL d   1      -1.898  -5.981  -5.641  0.00  0.00     0.006 A 
ATOM      5  C4  UNL d   1      -0.550  -5.949  -5.999  0.00  0.00    -0.005 A 
ATOM      6  C5  UNL d   1       0.441  -5.933  -5.013  0.00  0.00    -0.074 A 
ATOM      7  C6  UNL d   1       1.895  -5.889  -5.380  0.00  0.00     0.077 C 
ATOM      8  C7  UNL d   1       0.062  -5.944  -3.664  0.00  0.00    -0.001 A 
ENDROOT
TORSDOF 0
ENDMDL
