MODEL 1
REMARK minimizedAffinity 2.38801265
REMARK minimizedRMSD -1
REMARK  0 active torsions:
REMARK  status: ('A' for Active; 'I' for Inactive)
ROOT
ATOM      1  C   UNL d   1      -5.975  -1.080   1.663  0.00  0.00     0.077 C 
ATOM      2  C1  UNL d   1      -5.257  -0.163   0.718  0.00  0.00    -0.074 A 
ATOM      3  C2  UNL d   1      -4.241   0.684   1.172  0.00  0.00    -0.005 A 
ATOM      4  C3  UNL d   1      -3.575   1.524   0.280  0.00  0.00     0.006 A 
ATOM      5  C4  UNL d   1      -3.918   1.526  -1.073  0.00  0.00    -0.005 A 
ATOM      6  C5  UNL d   1      -4.930   0.685  -1.545  0.00  0.00    -0.074 A 
ATOM      7  C6  UNL d   1      -5.304   0.667  -2.997  0.00  0.00     0.077 C 
ATOM      8  C7  UNL d   1      -5.590  -0.162  -0.643  0.00  0.00    -0.001 A 
ENDROOT
TORSDOF 0
ENDMDL
