MODEL 1
REMARK minimizedAffinity -2.3798418
REMARK minimizedRMSD -1
REMARK  0 active torsions:
REMARK  status: ('A' for Active; 'I' for Inactive)
ROOT
ATOM      1  C   UNL d   1       1.309   0.362  -0.444  0.00  0.00     0.020 A 
ATOM      2  C1  UNL d   1       0.302   0.586  -1.381  0.00  0.00     0.020 A 
ATOM      3  C2  UNL d   1      -1.034   0.369  -1.036  0.00  0.00     0.034 A 
ATOM      4  C3  UNL d   1      -1.365  -0.074   0.250  0.00  0.00     0.017 A 
ATOM      5  C4  UNL d   1      -0.353  -0.299   1.190  0.00  0.00     0.017 A 
ATOM      6  C5  UNL d   1       0.983  -0.079   0.839  0.00  0.00     0.034 A 
ATOM      7 Cl   UNL d   1      -0.684  -0.845   2.796  0.00  0.00    -0.070 Cl
ATOM      8 Cl1  UNL d   1      -3.037  -0.322   0.608  0.00  0.00    -0.070 Cl
ENDROOT
TORSDOF 0
ENDMDL
