MODEL 1
REMARK minimizedAffinity -3.82191396
REMARK minimizedRMSD -1
REMARK  0 active torsions:
REMARK  status: ('A' for Active; 'I' for Inactive)
ROOT
ATOM      1  C   UNL d   1      -1.438  -0.580   1.758  0.00  0.00     0.020 A 
ATOM      2  C1  UNL d   1      -0.567  -0.233   2.790  0.00  0.00     0.020 A 
ATOM      3  C2  UNL d   1       0.684   0.312   2.494  0.00  0.00     0.034 A 
ATOM      4  C3  UNL d   1       1.068   0.511   1.163  0.00  0.00     0.017 A 
ATOM      5  C4  UNL d   1       0.193   0.162   0.127  0.00  0.00     0.017 A 
ATOM      6  C5  UNL d   1      -1.059  -0.383   0.429  0.00  0.00     0.034 A 
ATOM      7 Cl   UNL d   1       0.596   0.379  -1.539  0.00  0.00    -0.070 Cl
ATOM      8 Cl1  UNL d   1       2.630   1.189   0.870  0.00  0.00    -0.070 Cl
ENDROOT
TORSDOF 0
ENDMDL
