MODEL 1
REMARK minimizedAffinity -4.63653088
REMARK minimizedRMSD -1
REMARK  0 active torsions:
REMARK  status: ('A' for Active; 'I' for Inactive)
ROOT
ATOM      1  C   UNL d   1      -1.886  -0.023   3.497  0.00  0.00     0.020 A 
ATOM      2  C1  UNL d   1      -2.892   0.102   2.541  0.00  0.00     0.020 A 
ATOM      3  C2  UNL d   1      -2.560   0.323   1.202  0.00  0.00     0.034 A 
ATOM      4  C3  UNL d   1      -1.218   0.421   0.817  0.00  0.00     0.017 A 
ATOM      5  C4  UNL d   1      -0.208   0.296   1.778  0.00  0.00     0.017 A 
ATOM      6  C5  UNL d   1      -0.547   0.074   3.117  0.00  0.00     0.034 A 
ATOM      7 Cl   UNL d   1       1.470   0.405   1.379  0.00  0.00    -0.070 Cl
ATOM      8 Cl1  UNL d   1      -0.880   0.696  -0.855  0.00  0.00    -0.070 Cl
ENDROOT
TORSDOF 0
ENDMDL
