MODEL 1
REMARK minimizedAffinity -3.96671462
REMARK minimizedRMSD -1
REMARK  0 active torsions:
REMARK  status: ('A' for Active; 'I' for Inactive)
ROOT
ATOM      1  C   UNL d   1      -1.316  -1.368   2.188  0.00  0.00     0.020 A 
ATOM      2  C1  UNL d   1      -0.389  -0.938   3.136  0.00  0.00     0.020 A 
ATOM      3  C2  UNL d   1       0.660  -0.098   2.756  0.00  0.00     0.034 A 
ATOM      4  C3  UNL d   1       0.785   0.314   1.425  0.00  0.00     0.017 A 
ATOM      5  C4  UNL d   1      -0.147  -0.118   0.473  0.00  0.00     0.017 A 
ATOM      6  C5  UNL d   1      -1.195  -0.959   0.859  0.00  0.00     0.034 A 
ATOM      7 Cl   UNL d   1      -0.059   0.349  -1.188  0.00  0.00    -0.070 Cl
ATOM      8 Cl1  UNL d   1       2.106   1.354   1.025  0.00  0.00    -0.070 Cl
ENDROOT
TORSDOF 0
ENDMDL
