MODEL 1
REMARK minimizedAffinity -3.37925982
REMARK minimizedRMSD -1
REMARK  0 active torsions:
REMARK  status: ('A' for Active; 'I' for Inactive)
ROOT
ATOM      1  C   UNL d   1      -0.674   0.033   1.975  0.00  0.00     0.020 A 
ATOM      2  C1  UNL d   1       0.244   0.609   2.853  0.00  0.00     0.020 A 
ATOM      3  C2  UNL d   1       1.445   1.127   2.366  0.00  0.00     0.034 A 
ATOM      4  C3  UNL d   1       1.733   1.071   0.997  0.00  0.00     0.017 A 
ATOM      5  C4  UNL d   1       0.811   0.493   0.117  0.00  0.00     0.017 A 
ATOM      6  C5  UNL d   1      -0.391  -0.024   0.610  0.00  0.00     0.034 A 
ATOM      7 Cl   UNL d   1       1.096   0.388  -1.585  0.00  0.00    -0.070 Cl
ATOM      8 Cl1  UNL d   1       3.238   1.732   0.465  0.00  0.00    -0.070 Cl
ENDROOT
TORSDOF 0
ENDMDL
