MODEL 1
REMARK minimizedAffinity -2.3161974
REMARK minimizedRMSD -1
REMARK  0 active torsions:
REMARK  status: ('A' for Active; 'I' for Inactive)
ROOT
ATOM      1  C   UNL d   1      -0.122  -0.368   2.990  0.00  0.00     0.020 A 
ATOM      2  C1  UNL d   1       1.013  -0.202   2.198  0.00  0.00     0.020 A 
ATOM      3  C2  UNL d   1       0.881   0.131   0.849  0.00  0.00     0.034 A 
ATOM      4  C3  UNL d   1      -0.390   0.299   0.287  0.00  0.00     0.017 A 
ATOM      5  C4  UNL d   1      -1.529   0.133   1.083  0.00  0.00     0.017 A 
ATOM      6  C5  UNL d   1      -1.391  -0.200   2.433  0.00  0.00     0.034 A 
ATOM      7 Cl   UNL d   1      -3.130   0.324   0.460  0.00  0.00    -0.070 Cl
ATOM      8 Cl1  UNL d   1      -0.479   0.711  -1.389  0.00  0.00    -0.070 Cl
ENDROOT
TORSDOF 0
ENDMDL
