MODEL 1
REMARK minimizedAffinity 3.60499096
REMARK minimizedRMSD -1
REMARK  0 active torsions:
REMARK  status: ('A' for Active; 'I' for Inactive)
ROOT
ATOM      1  C   UNL d   1      -0.884  -0.268   2.267  0.00  0.00     0.020 A 
ATOM      2  C1  UNL d   1       0.099   0.363   3.028  0.00  0.00     0.020 A 
ATOM      3  C2  UNL d   1       0.997   1.242   2.419  0.00  0.00     0.034 A 
ATOM      4  C3  UNL d   1       0.914   1.493   1.045  0.00  0.00     0.017 A 
ATOM      5  C4  UNL d   1      -0.074   0.859   0.282  0.00  0.00     0.017 A 
ATOM      6  C5  UNL d   1      -0.970  -0.020   0.897  0.00  0.00     0.034 A 
ATOM      7 Cl   UNL d   1      -0.240   1.118  -1.419  0.00  0.00    -0.070 Cl
ATOM      8 Cl1  UNL d   1       2.056   2.591   0.357  0.00  0.00    -0.070 Cl
ENDROOT
TORSDOF 0
ENDMDL
