MODEL 1
REMARK minimizedAffinity -2.98915219
REMARK minimizedRMSD -1
REMARK  0 active torsions:
REMARK  status: ('A' for Active; 'I' for Inactive)
ROOT
ATOM      1  C   UNL d   1      -1.348  -0.953   1.801  0.00  0.00     0.020 A 
ATOM      2  C1  UNL d   1      -0.395  -0.791   2.805  0.00  0.00     0.020 A 
ATOM      3  C2  UNL d   1       0.822  -0.168   2.517  0.00  0.00     0.034 A 
ATOM      4  C3  UNL d   1       1.088   0.294   1.223  0.00  0.00     0.017 A 
ATOM      5  C4  UNL d   1       0.130   0.130   0.216  0.00  0.00     0.017 A 
ATOM      6  C5  UNL d   1      -1.087  -0.494   0.509  0.00  0.00     0.034 A 
ATOM      7 Cl   UNL d   1       0.386   0.674  -1.404  0.00  0.00    -0.070 Cl
ATOM      8 Cl1  UNL d   1       2.613   1.055   0.939  0.00  0.00    -0.070 Cl
ENDROOT
TORSDOF 0
ENDMDL
