MODEL 1
REMARK minimizedAffinity -4.76486731
REMARK minimizedRMSD -1
REMARK  0 active torsions:
REMARK  status: ('A' for Active; 'I' for Inactive)
ROOT
ATOM      1  C   UNL d   1      -0.729  -0.861   3.443  0.00  0.00     0.020 A 
ATOM      2  C1  UNL d   1      -2.097  -0.652   3.615  0.00  0.00     0.020 A 
ATOM      3  C2  UNL d   1      -2.873  -0.197   2.547  0.00  0.00     0.034 A 
ATOM      4  C3  UNL d   1      -2.283   0.050   1.302  0.00  0.00     0.017 A 
ATOM      5  C4  UNL d   1      -0.910  -0.161   1.130  0.00  0.00     0.017 A 
ATOM      6  C5  UNL d   1      -0.137  -0.616   2.203  0.00  0.00     0.034 A 
ATOM      7 Cl   UNL d   1      -0.111   0.122  -0.376  0.00  0.00    -0.070 Cl
ATOM      8 Cl1  UNL d   1      -3.304   0.610   0.026  0.00  0.00    -0.070 Cl
ENDROOT
TORSDOF 0
ENDMDL
