MODEL 1
REMARK minimizedAffinity -4.67912388
REMARK minimizedRMSD -1
REMARK  0 active torsions:
REMARK  status: ('A' for Active; 'I' for Inactive)
ROOT
ATOM      1  C   UNL d   1      -1.181  -0.340   3.271  0.00  0.00     0.020 A 
ATOM      2  C1  UNL d   1      -2.217  -0.053   2.383  0.00  0.00     0.020 A 
ATOM      3  C2  UNL d   1      -1.927   0.342   1.075  0.00  0.00     0.034 A 
ATOM      4  C3  UNL d   1      -0.597   0.452   0.652  0.00  0.00     0.017 A 
ATOM      5  C4  UNL d   1       0.442   0.164   1.544  0.00  0.00     0.017 A 
ATOM      6  C5  UNL d   1       0.145  -0.232   2.852  0.00  0.00     0.034 A 
ATOM      7 Cl   UNL d   1       2.107   0.277   1.095  0.00  0.00    -0.070 Cl
ATOM      8 Cl1  UNL d   1      -0.312   0.946  -0.979  0.00  0.00    -0.070 Cl
ENDROOT
TORSDOF 0
ENDMDL
