MODEL 1
REMARK minimizedAffinity -1.5382818
REMARK minimizedRMSD -1
REMARK  0 active torsions:
REMARK  status: ('A' for Active; 'I' for Inactive)
ROOT
ATOM      1  C   UNL d   1      -3.191   0.258   1.498  0.00  0.00     0.020 A 
ATOM      2  C1  UNL d   1      -2.307   0.064   2.558  0.00  0.00     0.020 A 
ATOM      3  C2  UNL d   1      -0.931   0.034   2.324  0.00  0.00     0.034 A 
ATOM      4  C3  UNL d   1      -0.434   0.199   1.026  0.00  0.00     0.017 A 
ATOM      5  C4  UNL d   1      -1.322   0.394  -0.038  0.00  0.00     0.017 A 
ATOM      6  C5  UNL d   1      -2.699   0.424   0.202  0.00  0.00     0.034 A 
ATOM      7 Cl   UNL d   1      -0.784   0.606  -1.667  0.00  0.00    -0.070 Cl
ATOM      8 Cl1  UNL d   1       1.280   0.151   0.810  0.00  0.00    -0.070 Cl
ENDROOT
TORSDOF 0
ENDMDL
