MODEL 1
REMARK minimizedAffinity -3.82541251
REMARK minimizedRMSD -1
REMARK  0 active torsions:
REMARK  status: ('A' for Active; 'I' for Inactive)
ROOT
ATOM      1  C   UNL d   1       0.033  -0.403   0.108  0.00  0.00     0.020 A 
ATOM      2  C1  UNL d   1       0.829   0.741   0.153  0.00  0.00     0.020 A 
ATOM      3  C2  UNL d   1       0.976   1.443   1.351  0.00  0.00     0.034 A 
ATOM      4  C3  UNL d   1       0.325   1.002   2.509  0.00  0.00     0.017 A 
ATOM      5  C4  UNL d   1      -0.474  -0.146   2.463  0.00  0.00     0.017 A 
ATOM      6  C5  UNL d   1      -0.617  -0.845   1.261  0.00  0.00     0.034 A 
ATOM      7 Cl   UNL d   1      -1.308  -0.751   3.851  0.00  0.00    -0.070 Cl
ATOM      8 Cl1  UNL d   1       0.551   1.919   3.956  0.00  0.00    -0.070 Cl
ENDROOT
TORSDOF 0
ENDMDL
