MODEL 1
REMARK minimizedAffinity 3.47929573
REMARK minimizedRMSD -1
REMARK  0 active torsions:
REMARK  status: ('A' for Active; 'I' for Inactive)
ROOT
ATOM      1  C   UNL d   1      -2.660  -2.688   1.298  0.00  0.00     0.020 A 
ATOM      2  C1  UNL d   1      -2.391  -2.874  -0.057  0.00  0.00     0.020 A 
ATOM      3  C2  UNL d   1      -1.698  -1.895  -0.773  0.00  0.00     0.034 A 
ATOM      4  C3  UNL d   1      -1.273  -0.725  -0.133  0.00  0.00     0.017 A 
ATOM      5  C4  UNL d   1      -1.544  -0.539   1.227  0.00  0.00     0.017 A 
ATOM      6  C5  UNL d   1      -2.238  -1.522   1.939  0.00  0.00     0.034 A 
ATOM      7 Cl   UNL d   1      -1.051   0.879   2.085  0.00  0.00    -0.070 Cl
ATOM      8 Cl1  UNL d   1      -0.422   0.443  -1.079  0.00  0.00    -0.070 Cl
ENDROOT
TORSDOF 0
ENDMDL
