MODEL 1
REMARK minimizedAffinity -5.31584311
REMARK minimizedRMSD -1
REMARK  0 active torsions:
REMARK  status: ('A' for Active; 'I' for Inactive)
ROOT
ATOM      1  C   UNL d   1      -1.817  -0.332   2.965  0.00  0.00     0.020 A 
ATOM      2  C1  UNL d   1      -2.616  -0.344   1.822  0.00  0.00     0.020 A 
ATOM      3  C2  UNL d   1      -2.049  -0.097   0.570  0.00  0.00     0.034 A 
ATOM      4  C3  UNL d   1      -0.679   0.164   0.457  0.00  0.00     0.017 A 
ATOM      5  C4  UNL d   1       0.123   0.177   1.604  0.00  0.00     0.017 A 
ATOM      6  C5  UNL d   1      -0.450  -0.072   2.856  0.00  0.00     0.034 A 
ATOM      7 Cl   UNL d   1       1.821   0.491   1.545  0.00  0.00    -0.070 Cl
ATOM      8 Cl1  UNL d   1      -0.045   0.461  -1.122  0.00  0.00    -0.070 Cl
ENDROOT
TORSDOF 0
ENDMDL
