MODEL 1
REMARK minimizedAffinity 3.60092425
REMARK minimizedRMSD -1
REMARK  1 active torsions:
REMARK  status: ('A' for Active; 'I' for Inactive)
REMARK    1  A    between atoms: C1_2  and  C2_3 
ROOT
ATOM      1  C2  UNL d   1       0.047  -0.265  -1.530  0.00  0.00    -0.076 A 
ATOM      2  C3  UNL d   1       1.025  -0.567  -0.567  0.00  0.00     0.004 A 
ATOM      3  C4  UNL d   1       1.074   0.118   0.646  0.00  0.00    -0.003 A 
ATOM      4  C5  UNL d   1       0.143   1.116   0.916  0.00  0.00     0.000 A 
ATOM      5  C6  UNL d   1      -0.845   1.416  -0.021  0.00  0.00     0.000 A 
ATOM      6  C7  UNL d   1      -0.918   0.724  -1.242  0.00  0.00    -0.073 A 
ATOM      7  C8  UNL d   1      -2.002   1.093  -2.218  0.00  0.00     0.078 C 
ENDROOT
BRANCH   1   8
ATOM      8  C1  UNL d   1       0.060  -1.023  -2.839  0.00  0.00     0.053 C 
ATOM      9  C   UNL d   1      -0.676  -2.351  -2.751  0.00  0.00     0.018 C 
ENDBRANCH   1   8
TORSDOF 1
ENDMDL
