MODEL 1
REMARK minimizedAffinity -0.852645218
REMARK minimizedRMSD -1
REMARK  1 active torsions:
REMARK  status: ('A' for Active; 'I' for Inactive)
REMARK    1  A    between atoms: C1_2  and  C2_3 
ROOT
ATOM      1  C2  UNL d   1       0.302   4.662  -5.969  0.00  0.00    -0.076 A 
ATOM      2  C3  UNL d   1       1.445   5.479  -5.990  0.00  0.00     0.004 A 
ATOM      3  C4  UNL d   1       2.724   4.924  -5.999  0.00  0.00    -0.003 A 
ATOM      4  C5  UNL d   1       2.880   3.543  -5.987  0.00  0.00     0.000 A 
ATOM      5  C6  UNL d   1       1.756   2.716  -5.983  0.00  0.00     0.000 A 
ATOM      6  C7  UNL d   1       0.460   3.260  -5.991  0.00  0.00    -0.073 A 
ATOM      7  C8  UNL d   1      -0.716   2.322  -5.981  0.00  0.00     0.078 C 
ENDROOT
BRANCH   1   8
ATOM      8  C1  UNL d   1      -1.059   5.320  -5.933  0.00  0.00     0.053 C 
ATOM      9  C   UNL d   1      -2.196   4.312  -5.983  0.00  0.00     0.018 C 
ENDBRANCH   1   8
TORSDOF 1
ENDMDL
