MODEL 1
REMARK minimizedAffinity -3.65382838
REMARK minimizedRMSD -1
REMARK  1 active torsions:
REMARK  status: ('A' for Active; 'I' for Inactive)
REMARK    1  A    between atoms: C1_2  and  C2_3 
ROOT
ATOM      1  C2  UNL d   1      -1.150   3.527  -5.968  0.00  0.00    -0.076 A 
ATOM      2  C3  UNL d   1      -2.549   3.396  -5.954  0.00  0.00     0.004 A 
ATOM      3  C4  UNL d   1      -3.375   4.518  -5.904  0.00  0.00    -0.003 A 
ATOM      4  C5  UNL d   1      -2.814   5.790  -5.868  0.00  0.00     0.000 A 
ATOM      5  C6  UNL d   1      -1.428   5.939  -5.899  0.00  0.00     0.000 A 
ATOM      6  C7  UNL d   1      -0.582   4.819  -5.965  0.00  0.00    -0.073 A 
ATOM      7  C8  UNL d   1       0.906   5.039  -5.990  0.00  0.00     0.078 C 
ENDROOT
BRANCH   1   8
ATOM      8  C1  UNL d   1      -0.305   2.273  -5.995  0.00  0.00     0.053 C 
ATOM      9  C   UNL d   1       1.186   2.575  -5.967  0.00  0.00     0.018 C 
ENDBRANCH   1   8
TORSDOF 1
ENDMDL
