MODEL 1
REMARK minimizedAffinity -0.535164416
REMARK minimizedRMSD -1
REMARK  1 active torsions:
REMARK  status: ('A' for Active; 'I' for Inactive)
REMARK    1  A    between atoms: C1_2  and  C2_3 
ROOT
ATOM      1  C2  UNL d   1      -1.839   3.783  -5.981  0.00  0.00    -0.076 A 
ATOM      2  C3  UNL d   1      -0.612   3.097  -5.961  0.00  0.00     0.004 A 
ATOM      3  C4  UNL d   1       0.598   3.790  -5.968  0.00  0.00    -0.003 A 
ATOM      4  C5  UNL d   1       0.600   5.180  -5.994  0.00  0.00     0.000 A 
ATOM      5  C6  UNL d   1      -0.607   5.877  -5.996  0.00  0.00     0.000 A 
ATOM      6  C7  UNL d   1      -1.835   5.195  -5.973  0.00  0.00    -0.073 A 
ATOM      7  C8  UNL d   1      -3.108   5.997  -5.982  0.00  0.00     0.078 C 
ENDROOT
BRANCH   1   8
ATOM      8  C1  UNL d   1      -3.118   2.979  -6.000  0.00  0.00     0.053 C 
ATOM      9  C   UNL d   1      -4.061   3.356  -4.867  0.00  0.00     0.018 C 
ENDBRANCH   1   8
TORSDOF 1
ENDMDL
