MODEL 1
REMARK minimizedAffinity 1.13596761
REMARK minimizedRMSD -1
REMARK  1 active torsions:
REMARK  status: ('A' for Active; 'I' for Inactive)
REMARK    1  A    between atoms: C1_2  and  C2_3 
ROOT
ATOM      1  C2  UNL d   1       1.912   4.280  -5.990  0.00  0.00    -0.076 A 
ATOM      2  C3  UNL d   1       2.310   5.628  -5.996  0.00  0.00     0.004 A 
ATOM      3  C4  UNL d   1       3.659   5.978  -5.974  0.00  0.00    -0.003 A 
ATOM      4  C5  UNL d   1       4.632   4.985  -5.945  0.00  0.00     0.000 A 
ATOM      5  C6  UNL d   1       4.255   3.642  -5.956  0.00  0.00     0.000 A 
ATOM      6  C7  UNL d   1       2.900   3.273  -5.995  0.00  0.00    -0.073 A 
ATOM      7  C8  UNL d   1       2.550   1.810  -5.999  0.00  0.00     0.078 C 
ENDROOT
BRANCH   1   8
ATOM      8  C1  UNL d   1       0.433   3.962  -5.988  0.00  0.00     0.053 C 
ATOM      9  C   UNL d   1      -0.194   4.118  -4.611  0.00  0.00     0.018 C 
ENDBRANCH   1   8
TORSDOF 1
ENDMDL
