MODEL 1
REMARK minimizedAffinity 4.8623271
REMARK minimizedRMSD -1
REMARK  1 active torsions:
REMARK  status: ('A' for Active; 'I' for Inactive)
REMARK    1  A    between atoms: C1_2  and  C2_3 
ROOT
ATOM      1  C2  UNL d   1      -1.143   3.962  -5.306  0.00  0.00    -0.076 A 
ATOM      2  C3  UNL d   1      -1.587   5.104  -5.995  0.00  0.00     0.004 A 
ATOM      3  C4  UNL d   1      -2.507   5.978  -5.417  0.00  0.00    -0.003 A 
ATOM      4  C5  UNL d   1      -2.998   5.724  -4.141  0.00  0.00     0.000 A 
ATOM      5  C6  UNL d   1      -2.554   4.605  -3.436  0.00  0.00     0.000 A 
ATOM      6  C7  UNL d   1      -1.615   3.723  -3.998  0.00  0.00    -0.073 A 
ATOM      7  C8  UNL d   1      -1.177   2.529  -3.195  0.00  0.00     0.078 C 
ENDROOT
BRANCH   1   8
ATOM      8  C1  UNL d   1      -0.165   3.037  -5.994  0.00  0.00     0.053 C 
ATOM      9  C   UNL d   1       1.253   3.586  -5.997  0.00  0.00     0.018 C 
ENDBRANCH   1   8
TORSDOF 1
ENDMDL
