MODEL 1
REMARK minimizedAffinity 8.01646328
REMARK minimizedRMSD -1
REMARK  1 active torsions:
REMARK  status: ('A' for Active; 'I' for Inactive)
REMARK    1  A    between atoms: C1_2  and  C2_3 
ROOT
ATOM      1  C2  UNL d   1       0.617   2.301  -5.977  0.00  0.00    -0.076 A 
ATOM      2  C3  UNL d   1       1.946   1.843  -5.987  0.00  0.00     0.004 A 
ATOM      3  C4  UNL d   1       3.013   2.740  -5.997  0.00  0.00    -0.003 A 
ATOM      4  C5  UNL d   1       2.769   4.108  -5.998  0.00  0.00     0.000 A 
ATOM      5  C6  UNL d   1       1.457   4.580  -5.971  0.00  0.00     0.000 A 
ATOM      6  C7  UNL d   1       0.370   3.690  -5.943  0.00  0.00    -0.073 A 
ATOM      7  C8  UNL d   1      -1.024   4.255  -5.921  0.00  0.00     0.078 C 
ENDROOT
BRANCH   1   8
ATOM      8  C1  UNL d   1      -0.500   1.283  -5.994  0.00  0.00     0.053 C 
ATOM      9  C   UNL d   1      -0.011  -0.124  -5.684  0.00  0.00     0.018 C 
ENDBRANCH   1   8
TORSDOF 1
ENDMDL
