MODEL 1
REMARK minimizedAffinity 13.72229
REMARK minimizedRMSD -1
REMARK  1 active torsions:
REMARK  status: ('A' for Active; 'I' for Inactive)
REMARK    1  A    between atoms: C1_2  and  C2_3 
ROOT
ATOM      1  C2  UNL d   1       3.927   4.368   0.737  0.00  0.00    -0.076 A 
ATOM      2  C3  UNL d   1       3.771   3.748   1.989  0.00  0.00     0.004 A 
ATOM      3  C4  UNL d   1       4.659   4.003   3.032  0.00  0.00    -0.003 A 
ATOM      4  C5  UNL d   1       5.718   4.884   2.841  0.00  0.00     0.000 A 
ATOM      5  C6  UNL d   1       5.878   5.522   1.611  0.00  0.00     0.000 A 
ATOM      6  C7  UNL d   1       4.982   5.288   0.554  0.00  0.00    -0.073 A 
ATOM      7  C8  UNL d   1       5.206   5.998  -0.753  0.00  0.00     0.078 C 
ENDROOT
BRANCH   1   8
ATOM      8  C1  UNL d   1       2.949   4.031  -0.366  0.00  0.00     0.053 C 
ATOM      9  C   UNL d   1       3.358   2.794  -1.150  0.00  0.00     0.018 C 
ENDBRANCH   1   8
TORSDOF 1
ENDMDL
