MODEL 1
REMARK minimizedAffinity 2.91424656
REMARK minimizedRMSD -1
REMARK  1 active torsions:
REMARK  status: ('A' for Active; 'I' for Inactive)
REMARK    1  A    between atoms: C1_2  and  C2_3 
ROOT
ATOM      1  C2  UNL d   1      -3.526  -5.237  -1.519  0.00  0.00    -0.076 A 
ATOM      2  C3  UNL d   1      -2.532  -5.950  -2.212  0.00  0.00     0.004 A 
ATOM      3  C4  UNL d   1      -2.525  -6.000  -3.605  0.00  0.00    -0.003 A 
ATOM      4  C5  UNL d   1      -3.511  -5.337  -4.328  0.00  0.00     0.000 A 
ATOM      5  C6  UNL d   1      -4.494  -4.611  -3.657  0.00  0.00     0.000 A 
ATOM      6  C7  UNL d   1      -4.507  -4.537  -2.254  0.00  0.00    -0.073 A 
ATOM      7  C8  UNL d   1      -5.595  -3.744  -1.583  0.00  0.00     0.078 C 
ENDROOT
BRANCH   1   8
ATOM      8  C1  UNL d   1      -3.499  -5.240  -0.007  0.00  0.00     0.053 C 
ATOM      9  C   UNL d   1      -4.681  -5.985   0.595  0.00  0.00     0.018 C 
ENDBRANCH   1   8
TORSDOF 1
ENDMDL
