MODEL 1
REMARK minimizedAffinity 3.54835653
REMARK minimizedRMSD -1
REMARK  1 active torsions:
REMARK  status: ('A' for Active; 'I' for Inactive)
REMARK    1  A    between atoms: C1_2  and  C2_3 
ROOT
ATOM      1  C2  UNL d   1      -0.047   1.428  -0.350  0.00  0.00    -0.076 A 
ATOM      2  C3  UNL d   1       0.267   0.073  -0.559  0.00  0.00     0.004 A 
ATOM      3  C4  UNL d   1       1.284  -0.300  -1.436  0.00  0.00    -0.003 A 
ATOM      4  C5  UNL d   1       2.006   0.675  -2.116  0.00  0.00     0.000 A 
ATOM      5  C6  UNL d   1       1.720   2.023  -1.907  0.00  0.00     0.000 A 
ATOM      6  C7  UNL d   1       0.708   2.418  -1.015  0.00  0.00    -0.073 A 
ATOM      7  C8  UNL d   1       0.438   3.886  -0.833  0.00  0.00     0.078 C 
ENDROOT
BRANCH   1   8
ATOM      8  C1  UNL d   1      -1.179   1.772   0.591  0.00  0.00     0.053 C 
ATOM      9  C   UNL d   1      -1.215   0.868   1.814  0.00  0.00     0.018 C 
ENDBRANCH   1   8
TORSDOF 1
ENDMDL
