MODEL 1
REMARK minimizedAffinity 4.36729431
REMARK minimizedRMSD -1
REMARK  1 active torsions:
REMARK  status: ('A' for Active; 'I' for Inactive)
REMARK    1  A    between atoms: C1_2  and  C2_3 
ROOT
ATOM      1  C2  UNL d   1      -1.789  -0.912   1.861  0.00  0.00    -0.076 A 
ATOM      2  C3  UNL d   1      -2.795   0.057   1.704  0.00  0.00     0.004 A 
ATOM      3  C4  UNL d   1      -4.050  -0.110   2.287  0.00  0.00    -0.003 A 
ATOM      4  C5  UNL d   1      -4.319  -1.249   3.037  0.00  0.00     0.000 A 
ATOM      5  C6  UNL d   1      -3.328  -2.213   3.218  0.00  0.00     0.000 A 
ATOM      6  C7  UNL d   1      -2.052  -2.052   2.651  0.00  0.00    -0.073 A 
ATOM      7  C8  UNL d   1      -1.022  -3.125   2.873  0.00  0.00     0.078 C 
ENDROOT
BRANCH   1   8
ATOM      8  C1  UNL d   1      -0.456  -0.689   1.183  0.00  0.00     0.053 C 
ATOM      9  C   UNL d   1       0.045   0.738   1.338  0.00  0.00     0.018 C 
ENDBRANCH   1   8
TORSDOF 1
ENDMDL
