MODEL 1
REMARK minimizedAffinity 6.17152405
REMARK minimizedRMSD -1
REMARK  1 active torsions:
REMARK  status: ('A' for Active; 'I' for Inactive)
REMARK    1  A    between atoms: C1_2  and  C2_3 
ROOT
ATOM      1  C2  UNL d   1       1.635  -0.915  -2.346  0.00  0.00    -0.076 A 
ATOM      2  C3  UNL d   1       2.215  -1.242  -1.108  0.00  0.00     0.004 A 
ATOM      3  C4  UNL d   1       3.331  -2.074  -1.035  0.00  0.00    -0.003 A 
ATOM      4  C5  UNL d   1       3.886  -2.593  -2.200  0.00  0.00     0.000 A 
ATOM      5  C6  UNL d   1       3.335  -2.265  -3.438  0.00  0.00     0.000 A 
ATOM      6  C7  UNL d   1       2.220  -1.414  -3.530  0.00  0.00    -0.073 A 
ATOM      7  C8  UNL d   1       1.663  -1.099  -4.891  0.00  0.00     0.078 C 
ENDROOT
BRANCH   1   8
ATOM      8  C1  UNL d   1       0.409  -0.030  -2.361  0.00  0.00     0.053 C 
ATOM      9  C   UNL d   1      -0.885  -0.828  -2.341  0.00  0.00     0.018 C 
ENDBRANCH   1   8
TORSDOF 1
ENDMDL
