MODEL 1
REMARK minimizedAffinity 7.53572035
REMARK minimizedRMSD -1
REMARK  1 active torsions:
REMARK  status: ('A' for Active; 'I' for Inactive)
REMARK    1  A    between atoms: C1_2  and  C2_3 
ROOT
ATOM      1  C2  UNL d   1      -2.623  -1.908   2.755  0.00  0.00    -0.076 A 
ATOM      2  C3  UNL d   1      -3.812  -2.298   3.395  0.00  0.00     0.004 A 
ATOM      3  C4  UNL d   1      -4.971  -1.531   3.285  0.00  0.00    -0.003 A 
ATOM      4  C5  UNL d   1      -4.959  -0.361   2.533  0.00  0.00     0.000 A 
ATOM      5  C6  UNL d   1      -3.793   0.031   1.876  0.00  0.00     0.000 A 
ATOM      6  C7  UNL d   1      -2.621  -0.740   1.963  0.00  0.00    -0.073 A 
ATOM      7  C8  UNL d   1      -1.390  -0.266   1.240  0.00  0.00     0.078 C 
ENDROOT
BRANCH   1   8
ATOM      8  C1  UNL d   1      -1.390  -2.766   2.932  0.00  0.00     0.053 C 
ATOM      9  C   UNL d   1      -1.270  -3.841   1.863  0.00  0.00     0.018 C 
ENDBRANCH   1   8
TORSDOF 1
ENDMDL
