MODEL 1
REMARK minimizedAffinity 6.33730555
REMARK minimizedRMSD -1
REMARK  3 active torsions:
REMARK  status: ('A' for Active; 'I' for Inactive)
REMARK    1  A    between atoms: C3'_2  and  C2'_3 
REMARK    2  A    between atoms: C2'_3  and  C1'_4 
REMARK    3  A    between atoms: C1'_4  and  C1_5 
ROOT
ATOM      1  C1  N4B d   1       2.496  -2.746   2.954  0.00  0.00    -0.075 A 
ATOM      2  C2  N4B d   1       3.101  -1.953   1.955  0.00  0.00     0.002 A 
ATOM      3  C3  N4B d   1       2.618  -0.696   1.689  0.00  0.00     0.002 A 
ATOM      4  C4  N4B d   1       1.523  -0.219   2.394  0.00  0.00    -0.004 A 
ATOM      5  C5  N4B d   1       0.960  -0.980   3.376  0.00  0.00     0.002 A 
ATOM      6  C6  N4B d   1       1.438  -2.245   3.656  0.00  0.00     0.002 A 
ENDROOT
BRANCH   1   7
ATOM      7  C1' N4B d   1       2.935  -4.160   3.221  0.00  0.00     0.057 C 
BRANCH   7   8
ATOM      8  C2' N4B d   1       3.557  -4.237   4.612  0.00  0.00     0.009 C 
BRANCH   8   9
ATOM      9  C3' N4B d   1       4.591  -3.146   4.834  0.00  0.00     0.004 C 
ATOM     10  C4' N4B d   1       5.648  -3.124   3.771  0.00  0.00     0.003 C 
ENDBRANCH   8   9
ENDBRANCH   7   8
ENDBRANCH   1   7
TORSDOF 3
ENDMDL
