MODEL 1
REMARK minimizedAffinity 6.43924427
REMARK minimizedRMSD -1
REMARK  3 active torsions:
REMARK  status: ('A' for Active; 'I' for Inactive)
REMARK    1  A    between atoms: C3'_2  and  C2'_3 
REMARK    2  A    between atoms: C2'_3  and  C1'_4 
REMARK    3  A    between atoms: C1'_4  and  C1_5 
ROOT
ATOM      1  C1  N4B d   1       1.777  -2.041   2.694  0.00  0.00    -0.075 A 
ATOM      2  C2  N4B d   1       1.250  -3.325   2.430  0.00  0.00     0.002 A 
ATOM      3  C3  N4B d   1       1.410  -4.334   3.348  0.00  0.00     0.002 A 
ATOM      4  C4  N4B d   1       2.106  -4.089   4.523  0.00  0.00    -0.004 A 
ATOM      5  C5  N4B d   1       2.589  -2.840   4.781  0.00  0.00     0.002 A 
ATOM      6  C6  N4B d   1       2.433  -1.815   3.870  0.00  0.00     0.002 A 
ENDROOT
BRANCH   1   7
ATOM      7  C1' N4B d   1       1.702  -0.929   1.684  0.00  0.00     0.057 C 
BRANCH   7   8
ATOM      8  C2' N4B d   1       2.511   0.262   2.189  0.00  0.00     0.009 C 
BRANCH   8   9
ATOM      9  C3' N4B d   1       2.519   1.408   1.191  0.00  0.00     0.004 C 
ATOM     10  C4' N4B d   1       3.411   1.147   0.014  0.00  0.00     0.003 C 
ENDBRANCH   8   9
ENDBRANCH   7   8
ENDBRANCH   1   7
TORSDOF 3
ENDMDL
