MODEL 1
REMARK minimizedAffinity 6.83091831
REMARK minimizedRMSD -1
REMARK  3 active torsions:
REMARK  status: ('A' for Active; 'I' for Inactive)
REMARK    1  A    between atoms: C3'_2  and  C2'_3 
REMARK    2  A    between atoms: C2'_3  and  C1'_4 
REMARK    3  A    between atoms: C1'_4  and  C1_5 
ROOT
ATOM      1  C1  N4B d   1       3.704  -5.967  -3.565  0.00  0.00    -0.075 A 
ATOM      2  C2  N4B d   1       2.965  -5.868  -4.764  0.00  0.00     0.002 A 
ATOM      3  C3  N4B d   1       3.620  -5.764  -5.967  0.00  0.00     0.002 A 
ATOM      4  C4  N4B d   1       5.006  -5.737  -5.994  0.00  0.00    -0.004 A 
ATOM      5  C5  N4B d   1       5.713  -5.859  -4.833  0.00  0.00     0.002 A 
ATOM      6  C6  N4B d   1       5.068  -5.969  -3.618  0.00  0.00     0.002 A 
ENDROOT
BRANCH   1   7
ATOM      7  C1' N4B d   1       3.033  -5.997  -2.219  0.00  0.00     0.057 C 
BRANCH   7   8
ATOM      8  C2' N4B d   1       3.336  -4.697  -1.480  0.00  0.00     0.009 C 
BRANCH   8   9
ATOM      9  C3' N4B d   1       3.330  -3.498  -2.413  0.00  0.00     0.004 C 
ATOM     10  C4' N4B d   1       2.769  -2.265  -1.771  0.00  0.00     0.003 C 
ENDBRANCH   8   9
ENDBRANCH   7   8
ENDBRANCH   1   7
TORSDOF 3
ENDMDL
