MODEL 1
REMARK minimizedAffinity 3.9663887
REMARK minimizedRMSD -1
REMARK  3 active torsions:
REMARK  status: ('A' for Active; 'I' for Inactive)
REMARK    1  A    between atoms: C3'_2  and  C2'_3 
REMARK    2  A    between atoms: C2'_3  and  C1'_4 
REMARK    3  A    between atoms: C1'_4  and  C1_5 
ROOT
ATOM      1  C1  N4B d   1       1.552  -2.534   3.447  0.00  0.00    -0.075 A 
ATOM      2  C2  N4B d   1       1.244  -2.554   4.825  0.00  0.00     0.002 A 
ATOM      3  C3  N4B d   1       1.389  -3.714   5.545  0.00  0.00     0.002 A 
ATOM      4  C4  N4B d   1       1.820  -4.868   4.906  0.00  0.00    -0.004 A 
ATOM      5  C5  N4B d   1       2.140  -4.834   3.580  0.00  0.00     0.002 A 
ATOM      6  C6  N4B d   1       2.003  -3.673   2.846  0.00  0.00     0.002 A 
ENDROOT
BRANCH   1   7
ATOM      7  C1' N4B d   1       1.328  -1.311   2.601  0.00  0.00     0.057 C 
BRANCH   7   8
ATOM      8  C2' N4B d   1       2.347  -1.294   1.465  0.00  0.00     0.009 C 
BRANCH   8   9
ATOM      9  C3' N4B d   1       2.721   0.121   1.058  0.00  0.00     0.004 C 
ATOM     10  C4' N4B d   1       3.871   0.164   0.097  0.00  0.00     0.003 C 
ENDBRANCH   8   9
ENDBRANCH   7   8
ENDBRANCH   1   7
TORSDOF 3
ENDMDL
