MODEL 1
REMARK minimizedAffinity 6.76689911
REMARK minimizedRMSD -1
REMARK  3 active torsions:
REMARK  status: ('A' for Active; 'I' for Inactive)
REMARK    1  A    between atoms: C3'_2  and  C2'_3 
REMARK    2  A    between atoms: C2'_3  and  C1'_4 
REMARK    3  A    between atoms: C1'_4  and  C1_5 
ROOT
ATOM      1  C1  N4B d   1       1.485  -1.916   2.160  0.00  0.00    -0.075 A 
ATOM      2  C2  N4B d   1       1.487  -2.812   1.068  0.00  0.00     0.002 A 
ATOM      3  C3  N4B d   1       1.814  -4.132   1.264  0.00  0.00     0.002 A 
ATOM      4  C4  N4B d   1       2.161  -4.572   2.532  0.00  0.00    -0.004 A 
ATOM      5  C5  N4B d   1       2.132  -3.706   3.586  0.00  0.00     0.002 A 
ATOM      6  C6  N4B d   1       1.801  -2.378   3.405  0.00  0.00     0.002 A 
ENDROOT
BRANCH   1   7
ATOM      7  C1' N4B d   1       1.217  -0.447   1.981  0.00  0.00     0.057 C 
BRANCH   7   8
ATOM      8  C2' N4B d   1       2.502   0.246   1.536  0.00  0.00     0.009 C 
BRANCH   8   9
ATOM      9  C3' N4B d   1       2.300   1.736   1.325  0.00  0.00     0.004 C 
ATOM     10  C4' N4B d   1       2.916   2.231   0.050  0.00  0.00     0.003 C 
ENDBRANCH   8   9
ENDBRANCH   7   8
ENDBRANCH   1   7
TORSDOF 3
ENDMDL
