MODEL 1
REMARK minimizedAffinity 1.13514292
REMARK minimizedRMSD -1
REMARK  3 active torsions:
REMARK  status: ('A' for Active; 'I' for Inactive)
REMARK    1  A    between atoms: C3'_2  and  C2'_3 
REMARK    2  A    between atoms: C2'_3  and  C1'_4 
REMARK    3  A    between atoms: C1'_4  and  C1_5 
ROOT
ATOM      1  C1  N4B d   1       1.809  -2.603   3.404  0.00  0.00    -0.075 A 
ATOM      2  C2  N4B d   1       2.635  -2.360   2.284  0.00  0.00     0.002 A 
ATOM      3  C3  N4B d   1       2.802  -1.079   1.819  0.00  0.00     0.002 A 
ATOM      4  C4  N4B d   1       2.141  -0.031   2.444  0.00  0.00    -0.004 A 
ATOM      5  C5  N4B d   1       1.366  -0.271   3.540  0.00  0.00     0.002 A 
ATOM      6  C6  N4B d   1       1.192  -1.554   4.021  0.00  0.00     0.002 A 
ENDROOT
BRANCH   1   7
ATOM      7  C1' N4B d   1       1.528  -3.997   3.896  0.00  0.00     0.057 C 
BRANCH   7   8
ATOM      8  C2' N4B d   1       1.124  -3.937   5.366  0.00  0.00     0.009 C 
BRANCH   8   9
ATOM      9  C3' N4B d   1       1.080  -5.316   6.000  0.00  0.00     0.004 C 
ATOM     10  C4' N4B d   1      -0.296  -5.913   5.999  0.00  0.00     0.003 C 
ENDBRANCH   8   9
ENDBRANCH   7   8
ENDBRANCH   1   7
TORSDOF 3
ENDMDL
