MODEL 1
REMARK minimizedAffinity 6.9588213
REMARK minimizedRMSD -1
REMARK  3 active torsions:
REMARK  status: ('A' for Active; 'I' for Inactive)
REMARK    1  A    between atoms: C3'_2  and  C2'_3 
REMARK    2  A    between atoms: C2'_3  and  C1'_4 
REMARK    3  A    between atoms: C1'_4  and  C1_5 
ROOT
ATOM      1  C1  N4B d   1       1.825  -1.591   2.923  0.00  0.00    -0.075 A 
ATOM      2  C2  N4B d   1       1.766  -1.623   4.334  0.00  0.00     0.002 A 
ATOM      3  C3  N4B d   1       1.845  -2.823   4.997  0.00  0.00     0.002 A 
ATOM      4  C4  N4B d   1       1.965  -4.000   4.273  0.00  0.00    -0.004 A 
ATOM      5  C5  N4B d   1       2.047  -3.958   2.912  0.00  0.00     0.002 A 
ATOM      6  C6  N4B d   1       1.973  -2.759   2.233  0.00  0.00     0.002 A 
ENDROOT
BRANCH   1   7
ATOM      7  C1' N4B d   1       1.656  -0.312   2.150  0.00  0.00     0.057 C 
BRANCH   7   8
ATOM      8  C2' N4B d   1       2.981   0.051   1.486  0.00  0.00     0.009 C 
BRANCH   8   9
ATOM      9  C3' N4B d   1       3.087   1.540   1.204  0.00  0.00     0.004 C 
ATOM     10  C4' N4B d   1       3.974   1.848   0.035  0.00  0.00     0.003 C 
ENDBRANCH   8   9
ENDBRANCH   7   8
ENDBRANCH   1   7
TORSDOF 3
ENDMDL
