MODEL 1
REMARK minimizedAffinity 6.31298733
REMARK minimizedRMSD -1
REMARK  3 active torsions:
REMARK  status: ('A' for Active; 'I' for Inactive)
REMARK    1  A    between atoms: C3'_2  and  C2'_3 
REMARK    2  A    between atoms: C2'_3  and  C1'_4 
REMARK    3  A    between atoms: C1'_4  and  C1_5 
ROOT
ATOM      1  C1  N4B d   1       1.889  -2.282   3.096  0.00  0.00    -0.075 A 
ATOM      2  C2  N4B d   1       2.462  -1.812   1.894  0.00  0.00     0.002 A 
ATOM      3  C3  N4B d   1       2.268  -0.509   1.505  0.00  0.00     0.002 A 
ATOM      4  C4  N4B d   1       1.494   0.333   2.289  0.00  0.00    -0.004 A 
ATOM      5  C5  N4B d   1       0.965  -0.121   3.461  0.00  0.00     0.002 A 
ATOM      6  C6  N4B d   1       1.155  -1.427   3.867  0.00  0.00     0.002 A 
ENDROOT
BRANCH   1   7
ATOM      7  C1' N4B d   1       2.001  -3.721   3.520  0.00  0.00     0.057 C 
BRANCH   7   8
ATOM      8  C2' N4B d   1       3.463  -4.152   3.446  0.00  0.00     0.009 C 
BRANCH   8   9
ATOM      9  C3' N4B d   1       4.333  -3.380   4.423  0.00  0.00     0.004 C 
ATOM     10  C4' N4B d   1       5.751  -3.241   3.953  0.00  0.00     0.003 C 
ENDBRANCH   8   9
ENDBRANCH   7   8
ENDBRANCH   1   7
TORSDOF 3
ENDMDL
