MODEL 1
REMARK minimizedAffinity 20.7527294
REMARK minimizedRMSD -1
REMARK  0 active torsions:
REMARK  status: ('A' for Active; 'I' for Inactive)
ROOT
ATOM      1  C   UNL d   1      -1.939   3.533   0.127  0.00  0.00     0.124 A 
ATOM      2  C1  UNL d   1      -1.949   3.788   1.491  0.00  0.00     0.062 A 
ATOM      3  C2  UNL d   1      -1.203   2.994   2.357  0.00  0.00     0.162 A 
ATOM      4  C3  UNL d   1      -0.440   1.937   1.861  0.00  0.00    -0.034 A 
ATOM      5  C4  UNL d   1      -0.435   1.686   0.488  0.00  0.00     0.162 A 
ATOM      6  C5  UNL d   1      -1.182   2.483  -0.373  0.00  0.00     0.062 A 
ATOM      7  F   UNL d   1      -1.172   2.235  -1.691  0.00  0.00    -0.097 F 
ATOM      8  F1  UNL d   1       0.287   0.678  -0.022  0.00  0.00    -0.096 F 
ATOM      9  I   UNL d   1       0.677   0.747   3.153  0.00  0.00    -0.060 I 
ATOM     10  F2  UNL d   1      -1.231   3.263   3.671  0.00  0.00    -0.096 F 
ATOM     11  F3  UNL d   1      -2.679   4.802   1.977  0.00  0.00    -0.097 F 
ATOM     12  F4  UNL d   1      -2.658   4.299  -0.704  0.00  0.00    -0.092 F 
ENDROOT
TORSDOF 0
ENDMDL
