MODEL 1
REMARK minimizedAffinity 18.2731342
REMARK minimizedRMSD -1
REMARK  0 active torsions:
REMARK  status: ('A' for Active; 'I' for Inactive)
ROOT
ATOM      1  C   UNL d   1      -1.248   2.298   1.872  0.00  0.00     0.124 A 
ATOM      2  C1  UNL d   1      -1.250   2.013   0.513  0.00  0.00     0.062 A 
ATOM      3  C2  UNL d   1      -0.411   1.026   0.004  0.00  0.00     0.162 A 
ATOM      4  C3  UNL d   1       0.437   0.316   0.854  0.00  0.00    -0.034 A 
ATOM      5  C4  UNL d   1       0.434   0.608   2.219  0.00  0.00     0.162 A 
ATOM      6  C5  UNL d   1      -0.407   1.596   2.723  0.00  0.00     0.062 A 
ATOM      7  F   UNL d   1      -0.403   1.870   4.036  0.00  0.00    -0.097 F 
ATOM      8  F1  UNL d   1       1.236  -0.056   3.064  0.00  0.00    -0.096 F 
ATOM      9  I   UNL d   1       1.692  -1.161   0.096  0.00  0.00    -0.060 I 
ATOM     10  F2  UNL d   1      -0.434   0.772  -1.313  0.00  0.00    -0.096 F 
ATOM     11  F3  UNL d   1      -2.061   2.691  -0.311  0.00  0.00    -0.097 F 
ATOM     12  F4  UNL d   1      -2.055   3.249   2.359  0.00  0.00    -0.092 F 
ENDROOT
TORSDOF 0
ENDMDL
