MODEL 1
REMARK minimizedAffinity 15.3687668
REMARK minimizedRMSD -1
REMARK  0 active torsions:
REMARK  status: ('A' for Active; 'I' for Inactive)
ROOT
ATOM      1  C   UNL d   1      -3.260   0.166  -2.897  0.00  0.00     0.124 A 
ATOM      2  C1  UNL d   1      -4.277   0.552  -2.035  0.00  0.00     0.062 A 
ATOM      3  C2  UNL d   1      -5.021   1.699  -2.299  0.00  0.00     0.162 A 
ATOM      4  C3  UNL d   1      -4.750   2.469  -3.430  0.00  0.00    -0.034 A 
ATOM      5  C4  UNL d   1      -3.724   2.075  -4.292  0.00  0.00     0.162 A 
ATOM      6  C5  UNL d   1      -2.984   0.928  -4.024  0.00  0.00     0.062 A 
ATOM      7  F   UNL d   1      -2.001   0.557  -4.857  0.00  0.00    -0.097 F 
ATOM      8  F1  UNL d   1      -3.437   2.791  -5.389  0.00  0.00    -0.096 F 
ATOM      9  I   UNL d   1      -5.859   4.184  -3.828  0.00  0.00    -0.060 I 
ATOM     10  F2  UNL d   1      -5.998   2.048  -1.449  0.00  0.00    -0.096 F 
ATOM     11  F3  UNL d   1      -4.545  -0.181  -0.945  0.00  0.00    -0.097 F 
ATOM     12  F4  UNL d   1      -2.545  -0.937  -2.640  0.00  0.00    -0.092 F 
ENDROOT
TORSDOF 0
ENDMDL
