MODEL 1
REMARK minimizedAffinity 13.7514505
REMARK minimizedRMSD -1
REMARK  0 active torsions:
REMARK  status: ('A' for Active; 'I' for Inactive)
ROOT
ATOM      1  C   UNL d   1       2.938  -1.493  -0.814  0.00  0.00     0.124 A 
ATOM      2  C1  UNL d   1       2.037  -2.125   0.033  0.00  0.00     0.062 A 
ATOM      3  C2  UNL d   1       1.524  -1.452   1.137  0.00  0.00     0.162 A 
ATOM      4  C3  UNL d   1       1.909  -0.138   1.403  0.00  0.00    -0.034 A 
ATOM      5  C4  UNL d   1       2.816   0.491   0.548  0.00  0.00     0.162 A 
ATOM      6  C5  UNL d   1       3.326  -0.186  -0.555  0.00  0.00     0.062 A 
ATOM      7  F   UNL d   1       4.196   0.427  -1.372  0.00  0.00    -0.097 F 
ATOM      8  F1  UNL d   1       3.208   1.754   0.773  0.00  0.00    -0.096 F 
ATOM      9  I   UNL d   1       1.144   0.872   3.054  0.00  0.00    -0.060 I 
ATOM     10  F2  UNL d   1       0.655  -2.087   1.938  0.00  0.00    -0.096 F 
ATOM     11  F3  UNL d   1       1.661  -3.388  -0.214  0.00  0.00    -0.097 F 
ATOM     12  F4  UNL d   1       3.430  -2.143  -1.875  0.00  0.00    -0.092 F 
ENDROOT
TORSDOF 0
ENDMDL
