MODEL 1
REMARK minimizedAffinity 5.21991587
REMARK minimizedRMSD -1
REMARK  0 active torsions:
REMARK  status: ('A' for Active; 'I' for Inactive)
ROOT
ATOM      1  C   UNL d   1       0.163   1.236   0.308  0.00  0.00     0.124 A 
ATOM      2  C1  UNL d   1       1.147   0.268   0.448  0.00  0.00     0.062 A 
ATOM      3  C2  UNL d   1       1.374  -0.325   1.687  0.00  0.00     0.162 A 
ATOM      4  C3  UNL d   1       0.614   0.049   2.796  0.00  0.00    -0.034 A 
ATOM      5  C4  UNL d   1      -0.374   1.024   2.647  0.00  0.00     0.162 A 
ATOM      6  C5  UNL d   1      -0.596   1.613   1.406  0.00  0.00     0.062 A 
ATOM      7  F   UNL d   1      -1.548   2.549   1.272  0.00  0.00    -0.097 F 
ATOM      8  F1  UNL d   1      -1.122   1.407   3.692  0.00  0.00    -0.096 F 
ATOM      9  I   UNL d   1       0.950  -0.835   4.650  0.00  0.00    -0.060 I 
ATOM     10  F2  UNL d   1       2.331  -1.258   1.794  0.00  0.00    -0.096 F 
ATOM     11  F3  UNL d   1       1.883  -0.097  -0.611  0.00  0.00    -0.097 F 
ATOM     12  F4  UNL d   1      -0.053   1.806  -0.885  0.00  0.00    -0.092 F 
ENDROOT
TORSDOF 0
ENDMDL
