MODEL 1
REMARK minimizedAffinity 13.5212126
REMARK minimizedRMSD -1
REMARK  0 active torsions:
REMARK  status: ('A' for Active; 'I' for Inactive)
ROOT
ATOM      1  C   UNL d   1       2.708  -2.485  -0.871  0.00  0.00     0.124 A 
ATOM      2  C1  UNL d   1       2.325  -1.774   0.258  0.00  0.00     0.062 A 
ATOM      3  C2  UNL d   1       2.869  -0.518   0.513  0.00  0.00     0.162 A 
ATOM      4  C3  UNL d   1       3.802   0.036  -0.365  0.00  0.00    -0.034 A 
ATOM      5  C4  UNL d   1       4.182  -0.686  -1.498  0.00  0.00     0.162 A 
ATOM      6  C5  UNL d   1       3.635  -1.940  -1.747  0.00  0.00     0.062 A 
ATOM      7  F   UNL d   1       4.006  -2.625  -2.839  0.00  0.00    -0.097 F 
ATOM      8  F1  UNL d   1       5.076  -0.183  -2.362  0.00  0.00    -0.096 F 
ATOM      9  I   UNL d   1       4.618   1.913   0.012  0.00  0.00    -0.060 I 
ATOM     10  F2  UNL d   1       2.482   0.146   1.612  0.00  0.00    -0.096 F 
ATOM     11  F3  UNL d   1       1.430  -2.298   1.107  0.00  0.00    -0.097 F 
ATOM     12  F4  UNL d   1       2.183  -3.693  -1.113  0.00  0.00    -0.092 F 
ENDROOT
TORSDOF 0
ENDMDL
