MODEL 1
REMARK minimizedAffinity 7.84723186
REMARK minimizedRMSD -1
REMARK  0 active torsions:
REMARK  status: ('A' for Active; 'I' for Inactive)
ROOT
ATOM      1  C   UNL d   1      -0.945   1.204   2.443  0.00  0.00     0.124 A 
ATOM      2  C1  UNL d   1      -0.816   1.082   1.067  0.00  0.00     0.062 A 
ATOM      3  C2  UNL d   1       0.433   1.215   0.466  0.00  0.00     0.162 A 
ATOM      4  C3  UNL d   1       1.563   1.471   1.242  0.00  0.00    -0.034 A 
ATOM      5  C4  UNL d   1       1.426   1.595   2.625  0.00  0.00     0.162 A 
ATOM      6  C5  UNL d   1       0.176   1.461   3.221  0.00  0.00     0.062 A 
ATOM      7  F   UNL d   1       0.053   1.580   4.551  0.00  0.00    -0.097 F 
ATOM      8  F1  UNL d   1       2.492   1.841   3.401  0.00  0.00    -0.096 F 
ATOM      9  I   UNL d   1       3.432   1.671   0.347  0.00  0.00    -0.060 I 
ATOM     10  F2  UNL d   1       0.528   1.091  -0.866  0.00  0.00    -0.096 F 
ATOM     11  F3  UNL d   1      -1.897   0.835   0.313  0.00  0.00    -0.097 F 
ATOM     12  F4  UNL d   1      -2.147   1.077   3.019  0.00  0.00    -0.092 F 
ENDROOT
TORSDOF 0
ENDMDL
