MODEL 1
REMARK minimizedAffinity 18.2906818
REMARK minimizedRMSD -1
REMARK  0 active torsions:
REMARK  status: ('A' for Active; 'I' for Inactive)
ROOT
ATOM      1  C   UNL d   1       2.549  -1.808  -1.047  0.00  0.00     0.124 A 
ATOM      2  C1  UNL d   1       1.871  -2.395   0.012  0.00  0.00     0.062 A 
ATOM      3  C2  UNL d   1       1.500  -1.630   1.115  0.00  0.00     0.162 A 
ATOM      4  C3  UNL d   1       1.805  -0.270   1.163  0.00  0.00    -0.034 A 
ATOM      5  C4  UNL d   1       2.487   0.313   0.093  0.00  0.00     0.162 A 
ATOM      6  C5  UNL d   1       2.856  -0.455  -1.006  0.00  0.00     0.062 A 
ATOM      7  F   UNL d   1       3.510   0.113  -2.029  0.00  0.00    -0.097 F 
ATOM      8  F1  UNL d   1       2.796   1.618   0.107  0.00  0.00    -0.096 F 
ATOM      9  I   UNL d   1       1.251   0.876   2.810  0.00  0.00    -0.060 I 
ATOM     10  F2  UNL d   1       0.846  -2.223   2.125  0.00  0.00    -0.096 F 
ATOM     11  F3  UNL d   1       1.574  -3.701  -0.025  0.00  0.00    -0.097 F 
ATOM     12  F4  UNL d   1       2.905  -2.546  -2.107  0.00  0.00    -0.092 F 
ENDROOT
TORSDOF 0
ENDMDL
