MODEL 1
REMARK minimizedAffinity 3.99851608
REMARK minimizedRMSD -1
REMARK  0 active torsions:
REMARK  status: ('A' for Active; 'I' for Inactive)
ROOT
ATOM      1  C   UNL d   1       3.341  -1.545  -1.103  0.00  0.00     0.124 A 
ATOM      2  C1  UNL d   1       3.601  -0.196  -0.902  0.00  0.00     0.062 A 
ATOM      3  C2  UNL d   1       2.941   0.501   0.106  0.00  0.00     0.162 A 
ATOM      4  C3  UNL d   1       2.015  -0.150   0.922  0.00  0.00    -0.034 A 
ATOM      5  C4  UNL d   1       1.758  -1.506   0.713  0.00  0.00     0.162 A 
ATOM      6  C5  UNL d   1       2.421  -2.198  -0.296  0.00  0.00     0.062 A 
ATOM      7  F   UNL d   1       2.168  -3.501  -0.489  0.00  0.00    -0.097 F 
ATOM      8  F1  UNL d   1       0.874  -2.162   1.479  0.00  0.00    -0.096 F 
ATOM      9  I   UNL d   1       1.026   0.889   2.430  0.00  0.00    -0.060 I 
ATOM     10  F2  UNL d   1       3.211   1.803   0.278  0.00  0.00    -0.096 F 
ATOM     11  F3  UNL d   1       4.489   0.437  -1.681  0.00  0.00    -0.097 F 
ATOM     12  F4  UNL d   1       3.977  -2.213  -2.074  0.00  0.00    -0.092 F 
ENDROOT
TORSDOF 0
ENDMDL
