MODEL 1
REMARK minimizedAffinity 12.3335619
REMARK minimizedRMSD -1
REMARK  0 active torsions:
REMARK  status: ('A' for Active; 'I' for Inactive)
ROOT
ATOM      1  C   UNL d   1      -1.567   2.372   1.787  0.00  0.00     0.124 A 
ATOM      2  C1  UNL d   1      -1.533   2.258   0.404  0.00  0.00     0.062 A 
ATOM      3  C2  UNL d   1      -0.523   1.527  -0.214  0.00  0.00     0.162 A 
ATOM      4  C3  UNL d   1       0.462   0.902   0.551  0.00  0.00    -0.034 A 
ATOM      5  C4  UNL d   1       0.423   1.022   1.941  0.00  0.00     0.162 A 
ATOM      6  C5  UNL d   1      -0.589   1.754   2.554  0.00  0.00     0.062 A 
ATOM      7  F   UNL d   1      -0.620   1.863   3.890  0.00  0.00    -0.097 F 
ATOM      8  F1  UNL d   1       1.354   0.435   2.707  0.00  0.00    -0.096 F 
ATOM      9  I   UNL d   1       1.974  -0.192  -0.369  0.00  0.00    -0.060 I 
ATOM     10  F2  UNL d   1      -0.516   1.434  -1.552  0.00  0.00    -0.096 F 
ATOM     11  F3  UNL d   1      -2.476   2.855  -0.339  0.00  0.00    -0.097 F 
ATOM     12  F4  UNL d   1      -2.539   3.078   2.379  0.00  0.00    -0.092 F 
ENDROOT
TORSDOF 0
ENDMDL
