MODEL 1
REMARK minimizedAffinity 10.3618431
REMARK minimizedRMSD -1
REMARK  0 active torsions:
REMARK  status: ('A' for Active; 'I' for Inactive)
ROOT
ATOM      1  C   UNL d   1      -0.762   1.807   2.237  0.00  0.00     0.124 A 
ATOM      2  C1  UNL d   1      -0.905   1.455   0.902  0.00  0.00     0.062 A 
ATOM      3  C2  UNL d   1      -0.124   0.440   0.359  0.00  0.00     0.162 A 
ATOM      4  C3  UNL d   1       0.808  -0.232   1.150  0.00  0.00    -0.034 A 
ATOM      5  C4  UNL d   1       0.947   0.128   2.492  0.00  0.00     0.162 A 
ATOM      6  C5  UNL d   1       0.164   1.144   3.030  0.00  0.00     0.062 A 
ATOM      7  F   UNL d   1       0.304   1.483   4.320  0.00  0.00    -0.097 F 
ATOM      8  F1  UNL d   1       1.833  -0.497   3.281  0.00  0.00    -0.096 F 
ATOM      9  I   UNL d   1       1.978  -1.751   0.341  0.00  0.00    -0.060 I 
ATOM     10  F2  UNL d   1      -0.283   0.121  -0.934  0.00  0.00    -0.096 F 
ATOM     11  F3  UNL d   1      -1.798   2.096   0.134  0.00  0.00    -0.097 F 
ATOM     12  F4  UNL d   1      -1.514   2.786   2.758  0.00  0.00    -0.092 F 
ENDROOT
TORSDOF 0
ENDMDL
