MODEL 1
REMARK minimizedAffinity 12.9203062
REMARK minimizedRMSD -1
REMARK  0 active torsions:
REMARK  status: ('A' for Active; 'I' for Inactive)
ROOT
ATOM      1  C   UNL d   1       1.154   1.239   2.942  0.00  0.00     0.124 A 
ATOM      2  C1  UNL d   1       1.645   1.420   1.656  0.00  0.00     0.062 A 
ATOM      3  C2  UNL d   1       0.792   1.326   0.561  0.00  0.00     0.162 A 
ATOM      4  C3  UNL d   1      -0.563   1.051   0.747  0.00  0.00    -0.034 A 
ATOM      5  C4  UNL d   1      -1.050   0.870   2.043  0.00  0.00     0.162 A 
ATOM      6  C5  UNL d   1      -0.192   0.964   3.134  0.00  0.00     0.062 A 
ATOM      7  F   UNL d   1      -0.669   0.790   4.375  0.00  0.00    -0.097 F 
ATOM      8  F1  UNL d   1      -2.347   0.604   2.257  0.00  0.00    -0.096 F 
ATOM      9  I   UNL d   1      -1.844   0.910  -0.888  0.00  0.00    -0.060 I 
ATOM     10  F2  UNL d   1       1.293   1.505  -0.670  0.00  0.00    -0.096 F 
ATOM     11  F3  UNL d   1       2.946   1.685   1.468  0.00  0.00    -0.097 F 
ATOM     12  F4  UNL d   1       1.978   1.329   3.994  0.00  0.00    -0.092 F 
ENDROOT
TORSDOF 0
ENDMDL
