MODEL 1
REMARK minimizedAffinity -6.27959633
REMARK minimizedRMSD -1
REMARK  0 active torsions:
REMARK  status: ('A' for Active; 'I' for Inactive)
ROOT
ATOM      1  C1  DEN d   1       2.892  -2.045   1.169  0.00  0.00     0.130 A 
ATOM      2  C2  DEN d   1       2.478  -3.196   1.968  0.00  0.00    -0.031 A 
ATOM      3  C3  DEN d   1       1.011  -3.132   2.133  0.00  0.00     0.027 A 
ATOM      4  C4  DEN d   1      -0.649  -1.377   1.230  0.00  0.00     0.027 A 
ATOM      5  C5  DEN d   1      -0.766  -0.210   0.508  0.00  0.00    -0.003 A 
ATOM      6  C6  DEN d   1       0.322   0.440  -0.011  0.00  0.00     0.001 A 
ATOM      7  C7  DEN d   1       1.572  -0.097   0.146  0.00  0.00     0.017 A 
ATOM      8  C8  DEN d   1       1.699  -1.270   0.879  0.00  0.00    -0.094 A 
ATOM      9  C9  DEN d   1       0.586  -1.918   1.385  0.00  0.00    -0.072 A 
ENDROOT
TORSDOF 0
ENDMDL
