MODEL 1
REMARK minimizedAffinity -5.19612694
REMARK minimizedRMSD -1
REMARK  0 active torsions:
REMARK  status: ('A' for Active; 'I' for Inactive)
ROOT
ATOM      1  C1  DEN d   1      -0.780  -1.956   1.841  0.00  0.00     0.130 A 
ATOM      2  C2  DEN d   1       0.355  -2.875   1.843  0.00  0.00    -0.031 A 
ATOM      3  C3  DEN d   1       1.346  -2.380   0.866  0.00  0.00     0.027 A 
ATOM      4  C4  DEN d   1       1.235  -0.287  -0.637  0.00  0.00     0.027 A 
ATOM      5  C5  DEN d   1       0.464   0.796  -0.999  0.00  0.00    -0.003 A 
ATOM      6  C6  DEN d   1      -0.779   1.017  -0.470  0.00  0.00     0.001 A 
ATOM      7  C7  DEN d   1      -1.271   0.167   0.486  0.00  0.00     0.017 A 
ATOM      8  C8  DEN d   1      -0.502  -0.931   0.851  0.00  0.00    -0.094 A 
ATOM      9  C9  DEN d   1       0.758  -1.130   0.313  0.00  0.00    -0.072 A 
ENDROOT
TORSDOF 0
ENDMDL
