MODEL 1
REMARK minimizedAffinity -4.43311834
REMARK minimizedRMSD -1
REMARK  0 active torsions:
REMARK  status: ('A' for Active; 'I' for Inactive)
ROOT
ATOM      1  C1  DEN d   1      -1.204   0.489   0.367  0.00  0.00     0.130 A 
ATOM      2  C2  DEN d   1      -0.529   1.547  -0.381  0.00  0.00    -0.031 A 
ATOM      3  C3  DEN d   1       0.836   1.081  -0.699  0.00  0.00     0.027 A 
ATOM      4  C4  DEN d   1       1.962  -1.164  -0.113  0.00  0.00     0.027 A 
ATOM      5  C5  DEN d   1       1.791  -2.374   0.522  0.00  0.00    -0.003 A 
ATOM      6  C6  DEN d   1       0.630  -2.698   1.174  0.00  0.00     0.001 A 
ATOM      7  C7  DEN d   1      -0.421  -1.820   1.166  0.00  0.00     0.017 A 
ATOM      8  C8  DEN d   1      -0.252  -0.595   0.534  0.00  0.00    -0.094 A 
ATOM      9  C9  DEN d   1       0.924  -0.290  -0.129  0.00  0.00    -0.072 A 
ENDROOT
TORSDOF 0
ENDMDL
