MODEL 1
REMARK minimizedAffinity -5.37980986
REMARK minimizedRMSD -1
REMARK  0 active torsions:
REMARK  status: ('A' for Active; 'I' for Inactive)
ROOT
ATOM      1  C1  DEN d   1       1.180  -0.528  -0.841  0.00  0.00     0.130 A 
ATOM      2  C2  DEN d   1       0.119   0.462  -0.678  0.00  0.00    -0.031 A 
ATOM      3  C3  DEN d   1      -0.647   0.114   0.535  0.00  0.00     0.027 A 
ATOM      4  C4  DEN d   1      -0.291  -1.847   2.172  0.00  0.00     0.027 A 
ATOM      5  C5  DEN d   1       0.477  -2.958   2.443  0.00  0.00    -0.003 A 
ATOM      6  C6  DEN d   1       1.504  -3.353   1.626  0.00  0.00     0.001 A 
ATOM      7  C7  DEN d   1       1.819  -2.605   0.522  0.00  0.00     0.017 A 
ATOM      8  C8  DEN d   1       1.044  -1.488   0.239  0.00  0.00    -0.094 A 
ATOM      9  C9  DEN d   1       0.019  -1.098   1.084  0.00  0.00    -0.072 A 
ENDROOT
TORSDOF 0
ENDMDL
