MODEL 1
REMARK minimizedAffinity -3.21194124
REMARK minimizedRMSD -1
REMARK  0 active torsions:
REMARK  status: ('A' for Active; 'I' for Inactive)
ROOT
ATOM      1  C1  DEN d   1       0.176   4.508  -2.977  0.00  0.00     0.130 A 
ATOM      2  C2  DEN d   1       0.142   4.800  -4.407  0.00  0.00    -0.031 A 
ATOM      3  C3  DEN d   1      -0.899   3.952  -5.022  0.00  0.00     0.027 A 
ATOM      4  C4  DEN d   1      -2.455   2.226  -3.902  0.00  0.00     0.027 A 
ATOM      5  C5  DEN d   1      -2.789   1.623  -2.710  0.00  0.00    -0.003 A 
ATOM      6  C6  DEN d   1      -2.141   1.912  -1.539  0.00  0.00     0.001 A 
ATOM      7  C7  DEN d   1      -1.154   2.862  -1.526  0.00  0.00     0.017 A 
ATOM      8  C8  DEN d   1      -0.807   3.469  -2.726  0.00  0.00    -0.094 A 
ATOM      9  C9  DEN d   1      -1.482   3.172  -3.897  0.00  0.00    -0.072 A 
ENDROOT
TORSDOF 0
ENDMDL
