MODEL 1
REMARK minimizedAffinity -1.50164473
REMARK minimizedRMSD -1
REMARK  0 active torsions:
REMARK  status: ('A' for Active; 'I' for Inactive)
ROOT
ATOM      1  C1  DEN d   1       0.360  -0.394  -2.735  0.00  0.00     0.130 A 
ATOM      2  C2  DEN d   1      -0.919   0.244  -3.036  0.00  0.00    -0.031 A 
ATOM      3  C3  DEN d   1      -1.677   0.362  -1.774  0.00  0.00     0.027 A 
ATOM      4  C4  DEN d   1      -0.996  -0.371   0.603  0.00  0.00     0.027 A 
ATOM      5  C5  DEN d   1      -0.008  -0.969   1.354  0.00  0.00    -0.003 A 
ATOM      6  C6  DEN d   1       1.148  -1.444   0.793  0.00  0.00     0.001 A 
ATOM      7  C7  DEN d   1       1.365  -1.288  -0.551  0.00  0.00     0.017 A 
ATOM      8  C8  DEN d   1       0.370  -0.693  -1.315  0.00  0.00    -0.094 A 
ATOM      9  C9  DEN d   1      -0.787  -0.208  -0.728  0.00  0.00    -0.072 A 
ENDROOT
TORSDOF 0
ENDMDL
