MODEL 1
REMARK minimizedAffinity -4.02328634
REMARK minimizedRMSD -1
REMARK  0 active torsions:
REMARK  status: ('A' for Active; 'I' for Inactive)
ROOT
ATOM      1  C1  DEN d   1      -1.349   0.610   1.540  0.00  0.00     0.130 A 
ATOM      2  C2  DEN d   1      -1.491   1.435   0.344  0.00  0.00    -0.031 A 
ATOM      3  C3  DEN d   1      -0.345   1.152  -0.544  0.00  0.00     0.027 A 
ATOM      4  C4  DEN d   1       1.621  -0.478  -0.187  0.00  0.00     0.027 A 
ATOM      5  C5  DEN d   1       2.180  -1.389   0.682  0.00  0.00    -0.003 A 
ATOM      6  C6  DEN d   1       1.626  -1.669   1.903  0.00  0.00     0.001 A 
ATOM      7  C7  DEN d   1       0.452  -1.066   2.269  0.00  0.00     0.017 A 
ATOM      8  C8  DEN d   1      -0.115  -0.141   1.402  0.00  0.00    -0.094 A 
ATOM      9  C9  DEN d   1       0.455   0.120   0.167  0.00  0.00    -0.072 A 
ENDROOT
TORSDOF 0
ENDMDL
