MODEL 1
REMARK minimizedAffinity -3.01579309
REMARK minimizedRMSD -1
REMARK  0 active torsions:
REMARK  status: ('A' for Active; 'I' for Inactive)
ROOT
ATOM      1  C1  DEN d   1      -1.163   0.697   0.838  0.00  0.00     0.130 A 
ATOM      2  C2  DEN d   1      -0.566   1.110  -0.430  0.00  0.00    -0.031 A 
ATOM      3  C3  DEN d   1       0.553   0.194  -0.728  0.00  0.00     0.027 A 
ATOM      4  C4  DEN d   1       1.413  -1.816   0.641  0.00  0.00     0.027 A 
ATOM      5  C5  DEN d   1       1.234  -2.548   1.794  0.00  0.00    -0.003 A 
ATOM      6  C6  DEN d   1       0.273  -2.232   2.718  0.00  0.00     0.001 A 
ATOM      7  C7  DEN d   1      -0.575  -1.182   2.483  0.00  0.00     0.017 A 
ATOM      8  C8  DEN d   1      -0.396  -0.435   1.326  0.00  0.00    -0.094 A 
ATOM      9  C9  DEN d   1       0.573  -0.778   0.399  0.00  0.00    -0.072 A 
ENDROOT
TORSDOF 0
ENDMDL
