MODEL 1
REMARK minimizedAffinity -3.14704823
REMARK minimizedRMSD -1
REMARK  0 active torsions:
REMARK  status: ('A' for Active; 'I' for Inactive)
ROOT
ATOM      1  C1  DEN d   1      -0.271   1.478  -0.230  0.00  0.00     0.130 A 
ATOM      2  C2  DEN d   1       0.165   0.108   0.030  0.00  0.00    -0.031 A 
ATOM      3  C3  DEN d   1      -0.463  -0.769  -0.978  0.00  0.00     0.027 A 
ATOM      4  C4  DEN d   1      -2.057  -0.144  -2.907  0.00  0.00     0.027 A 
ATOM      5  C5  DEN d   1      -2.723   0.893  -3.521  0.00  0.00    -0.003 A 
ATOM      6  C6  DEN d   1      -2.647   2.182  -3.064  0.00  0.00     0.001 A 
ATOM      7  C7  DEN d   1      -1.851   2.475  -1.988  0.00  0.00     0.017 A 
ATOM      8  C8  DEN d   1      -1.182   1.433  -1.360  0.00  0.00    -0.094 A 
ATOM      9  C9  DEN d   1      -1.262   0.139  -1.844  0.00  0.00    -0.072 A 
ENDROOT
TORSDOF 0
ENDMDL
