MODEL 1
REMARK minimizedAffinity -4.54750824
REMARK minimizedRMSD -1
REMARK  0 active torsions:
REMARK  status: ('A' for Active; 'I' for Inactive)
ROOT
ATOM      1  C1  DEN d   1       1.256  -2.261   2.277  0.00  0.00     0.130 A 
ATOM      2  C2  DEN d   1       0.025  -2.113   3.049  0.00  0.00    -0.031 A 
ATOM      3  C3  DEN d   1      -0.850  -1.161   2.335  0.00  0.00     0.027 A 
ATOM      4  C4  DEN d   1      -0.422   0.088   0.120  0.00  0.00     0.027 A 
ATOM      5  C5  DEN d   1       0.486   0.293  -0.896  0.00  0.00    -0.003 A 
ATOM      6  C6  DEN d   1       1.717  -0.307  -0.908  0.00  0.00     0.001 A 
ATOM      7  C7  DEN d   1       2.057  -1.178   0.094  0.00  0.00     0.017 A 
ATOM      8  C8  DEN d   1       1.150  -1.384   1.125  0.00  0.00    -0.094 A 
ATOM      9  C9  DEN d   1      -0.094  -0.777   1.112  0.00  0.00    -0.072 A 
ENDROOT
TORSDOF 0
ENDMDL
