MODEL 1
REMARK minimizedAffinity -6.37447119
REMARK minimizedRMSD -1
REMARK  0 active torsions:
REMARK  status: ('A' for Active; 'I' for Inactive)
ROOT
ATOM      1  C1  DEN d   1      -0.894   0.321   0.369  0.00  0.00     0.130 A 
ATOM      2  C2  DEN d   1      -0.038   0.802  -0.711  0.00  0.00    -0.031 A 
ATOM      3  C3  DEN d   1       1.119  -0.110  -0.817  0.00  0.00     0.027 A 
ATOM      4  C4  DEN d   1       1.660  -2.212   0.576  0.00  0.00     0.027 A 
ATOM      5  C5  DEN d   1       1.235  -3.011   1.614  0.00  0.00    -0.003 A 
ATOM      6  C6  DEN d   1       0.097  -2.739   2.326  0.00  0.00     0.001 A 
ATOM      7  C7  DEN d   1      -0.679  -1.664   1.980  0.00  0.00     0.017 A 
ATOM      8  C8  DEN d   1      -0.253  -0.850   0.939  0.00  0.00    -0.094 A 
ATOM      9  C9  DEN d   1       0.894  -1.149   0.223  0.00  0.00    -0.072 A 
ENDROOT
TORSDOF 0
ENDMDL
