MODEL 1
REMARK minimizedAffinity -3.58962083
REMARK minimizedRMSD -1
REMARK  0 active torsions:
REMARK  status: ('A' for Active; 'I' for Inactive)
ROOT
ATOM      1  C1  DEN d   1      -0.853  -0.404  -0.145  0.00  0.00     0.130 A 
ATOM      2  C2  DEN d   1       0.096   0.031  -1.166  0.00  0.00    -0.031 A 
ATOM      3  C3  DEN d   1       1.429  -0.491  -0.804  0.00  0.00     0.027 A 
ATOM      4  C4  DEN d   1       2.112  -1.928   1.226  0.00  0.00     0.027 A 
ATOM      5  C5  DEN d   1       1.656  -2.538   2.374  0.00  0.00    -0.003 A 
ATOM      6  C6  DEN d   1       0.349  -2.452   2.777  0.00  0.00     0.001 A 
ATOM      7  C7  DEN d   1      -0.557  -1.778   2.002  0.00  0.00     0.017 A 
ATOM      8  C8  DEN d   1      -0.103  -1.153   0.848  0.00  0.00    -0.094 A 
ATOM      9  C9  DEN d   1       1.219  -1.262   0.451  0.00  0.00    -0.072 A 
ENDROOT
TORSDOF 0
ENDMDL
