MODEL 1
REMARK minimizedAffinity 0.522616446
REMARK minimizedRMSD -1
REMARK  0 active torsions:
REMARK  status: ('A' for Active; 'I' for Inactive)
ROOT
ATOM      1  C1  DEN d   1      -0.698   0.196   0.378  0.00  0.00     0.130 A 
ATOM      2  C2  DEN d   1       0.142   0.614  -0.741  0.00  0.00    -0.031 A 
ATOM      3  C3  DEN d   1       1.435  -0.090  -0.629  0.00  0.00     0.027 A 
ATOM      4  C4  DEN d   1       2.212  -1.783   1.155  0.00  0.00     0.027 A 
ATOM      5  C5  DEN d   1       1.850  -2.443   2.309  0.00  0.00    -0.003 A 
ATOM      6  C6  DEN d   1       0.637  -2.246   2.913  0.00  0.00     0.001 A 
ATOM      7  C7  DEN d   1      -0.277  -1.401   2.342  0.00  0.00     0.017 A 
ATOM      8  C8  DEN d   1       0.083  -0.726   1.182  0.00  0.00    -0.094 A 
ATOM      9  C9  DEN d   1       1.310  -0.948   0.580  0.00  0.00    -0.072 A 
ENDROOT
TORSDOF 0
ENDMDL
