MODEL 1
REMARK minimizedAffinity 5.57330942
REMARK minimizedRMSD -1
REMARK  1 active torsions:
REMARK  status: ('A' for Active; 'I' for Inactive)
REMARK    1  A    between atoms: N_2  and  C1_3 
ROOT
ATOM      1  C1  UNL d   1      -3.496  -3.056   5.270  0.00  0.00     0.143 A 
ATOM      2  C2  UNL d   1      -4.658  -2.783   6.000  0.00  0.00    -0.057 A 
ATOM      3  C3  UNL d   1      -5.896  -3.314   5.619  0.00  0.00     0.033 A 
ATOM      4  C4  UNL d   1      -5.999  -4.107   4.481  0.00  0.00    -0.042 A 
ATOM      5  C5  UNL d   1      -4.862  -4.371   3.726  0.00  0.00     0.033 A 
ATOM      6  C6  UNL d   1      -3.627  -3.843   4.115  0.00  0.00    -0.057 A 
ENDROOT
BRANCH   1   7
ATOM      7  N   UNL d   1      -2.253  -2.478   5.541  0.00  0.00    -0.732 N 
ATOM      8  C   UNL d   1      -1.119  -3.303   5.897  0.00  0.00     0.284 C 
ATOM      9  H3  UNL d   1      -2.031  -1.718   4.902  0.00  0.00     0.395 HD
ENDBRANCH   1   7
TORSDOF 1
ENDMDL
