MODEL 1
REMARK minimizedAffinity 15.3599482
REMARK minimizedRMSD -1
REMARK  1 active torsions:
REMARK  status: ('A' for Active; 'I' for Inactive)
REMARK    1  A    between atoms: N_2  and  C1_3 
ROOT
ATOM      1  C1  UNL d   1       2.769  -2.203  -5.956  0.00  0.00     0.143 A 
ATOM      2  C2  UNL d   1       1.990  -3.364  -5.961  0.00  0.00    -0.057 A 
ATOM      3  C3  UNL d   1       0.592  -3.301  -5.995  0.00  0.00     0.033 A 
ATOM      4  C4  UNL d   1      -0.054  -2.069  -5.996  0.00  0.00    -0.042 A 
ATOM      5  C5  UNL d   1       0.700  -0.901  -5.966  0.00  0.00     0.033 A 
ATOM      6  C6  UNL d   1       2.096  -0.971  -5.939  0.00  0.00    -0.057 A 
ENDROOT
BRANCH   1   7
ATOM      7  N   UNL d   1       4.160  -2.200  -5.823  0.00  0.00    -0.732 N 
ATOM      8  C   UNL d   1       4.915  -3.429  -5.943  0.00  0.00     0.284 C 
ATOM      9  H3  UNL d   1       4.592  -1.400  -6.281  0.00  0.00     0.395 HD
ENDBRANCH   1   7
TORSDOF 1
ENDMDL
