MODEL 1
REMARK minimizedAffinity 12.469512
REMARK minimizedRMSD -1
REMARK  1 active torsions:
REMARK  status: ('A' for Active; 'I' for Inactive)
REMARK    1  A    between atoms: N_2  and  C1_3 
ROOT
ATOM      1  C1  UNL d   1      -5.123   5.871   1.295  0.00  0.00     0.143 A 
ATOM      2  C2  UNL d   1      -3.783   5.517   1.105  0.00  0.00    -0.057 A 
ATOM      3  C3  UNL d   1      -3.254   5.335  -0.178  0.00  0.00     0.033 A 
ATOM      4  C4  UNL d   1      -4.067   5.476  -1.298  0.00  0.00    -0.042 A 
ATOM      5  C5  UNL d   1      -5.409   5.802  -1.133  0.00  0.00     0.033 A 
ATOM      6  C6  UNL d   1      -5.929   5.989   0.151  0.00  0.00    -0.057 A 
ENDROOT
BRANCH   1   7
ATOM      7  N   UNL d   1      -5.732   5.970   2.548  0.00  0.00    -0.732 N 
ATOM      8  C   UNL d   1      -4.934   5.990   3.755  0.00  0.00     0.284 C 
ATOM      9  H3  UNL d   1      -6.509   6.627   2.552  0.00  0.00     0.395 HD
ENDBRANCH   1   7
TORSDOF 1
ENDMDL
