MODEL 1
REMARK minimizedAffinity 12.7884092
REMARK minimizedRMSD -1
REMARK  1 active torsions:
REMARK  status: ('A' for Active; 'I' for Inactive)
REMARK    1  A    between atoms: N_2  and  C1_3 
ROOT
ATOM      1  C1  UNL d   1       0.772   3.818  -2.180  0.00  0.00     0.143 A 
ATOM      2  C2  UNL d   1       0.656   3.273  -0.897  0.00  0.00    -0.057 A 
ATOM      3  C3  UNL d   1      -0.518   2.633  -0.483  0.00  0.00     0.033 A 
ATOM      4  C4  UNL d   1      -1.612   2.551  -1.338  0.00  0.00    -0.042 A 
ATOM      5  C5  UNL d   1      -1.529   3.108  -2.609  0.00  0.00     0.033 A 
ATOM      6  C6  UNL d   1      -0.351   3.740  -3.019  0.00  0.00    -0.057 A 
ENDROOT
BRANCH   1   7
ATOM      7  N   UNL d   1       1.877   4.553  -2.617  0.00  0.00    -0.732 N 
ATOM      8  C   UNL d   1       1.698   5.812  -3.307  0.00  0.00     0.284 C 
ATOM      9  H3  UNL d   1       2.635   4.554  -1.938  0.00  0.00     0.395 HD
ENDBRANCH   1   7
TORSDOF 1
ENDMDL
