MODEL 1
REMARK minimizedAffinity 16.9506989
REMARK minimizedRMSD -1
REMARK  1 active torsions:
REMARK  status: ('A' for Active; 'I' for Inactive)
REMARK    1  A    between atoms: N_2  and  C1_3 
ROOT
ATOM      1  C1  UNL d   1       3.189  -2.605  -5.936  0.00  0.00     0.143 A 
ATOM      2  C2  UNL d   1       2.402  -3.761  -5.939  0.00  0.00    -0.057 A 
ATOM      3  C3  UNL d   1       1.004  -3.688  -5.985  0.00  0.00     0.033 A 
ATOM      4  C4  UNL d   1       0.367  -2.452  -5.998  0.00  0.00    -0.042 A 
ATOM      5  C5  UNL d   1       1.129  -1.289  -5.970  0.00  0.00     0.033 A 
ATOM      6  C6  UNL d   1       2.524  -1.369  -5.931  0.00  0.00    -0.057 A 
ENDROOT
BRANCH   1   7
ATOM      7  N   UNL d   1       4.579  -2.611  -5.792  0.00  0.00    -0.732 N 
ATOM      8  C   UNL d   1       5.259  -3.766  -5.246  0.00  0.00     0.284 C 
ATOM      9  H3  UNL d   1       5.053  -2.186  -6.586  0.00  0.00     0.395 HD
ENDBRANCH   1   7
TORSDOF 1
ENDMDL
