MODEL 1
REMARK minimizedAffinity 12.9113722
REMARK minimizedRMSD -1
REMARK  1 active torsions:
REMARK  status: ('A' for Active; 'I' for Inactive)
REMARK    1  A    between atoms: N_2  and  C1_3 
ROOT
ATOM      1  C1  UNL d   1      -5.305   5.829   1.083  0.00  0.00     0.143 A 
ATOM      2  C2  UNL d   1      -5.997   5.866   2.298  0.00  0.00    -0.057 A 
ATOM      3  C3  UNL d   1      -5.317   5.965   3.518  0.00  0.00     0.033 A 
ATOM      4  C4  UNL d   1      -3.926   5.999   3.545  0.00  0.00    -0.042 A 
ATOM      5  C5  UNL d   1      -3.217   5.938   2.351  0.00  0.00     0.033 A 
ATOM      6  C6  UNL d   1      -3.903   5.846   1.136  0.00  0.00    -0.057 A 
ENDROOT
BRANCH   1   7
ATOM      7  N   UNL d   1      -5.920   5.632  -0.156  0.00  0.00    -0.732 N 
ATOM      8  C   UNL d   1      -5.129   5.345  -1.334  0.00  0.00     0.284 C 
ATOM      9  H3  UNL d   1      -6.773   5.082  -0.083  0.00  0.00     0.395 HD
ENDBRANCH   1   7
TORSDOF 1
ENDMDL
