MODEL 1
REMARK minimizedAffinity 4.65061331
REMARK minimizedRMSD -1
REMARK  1 active torsions:
REMARK  status: ('A' for Active; 'I' for Inactive)
REMARK    1  A    between atoms: N_2  and  C1_3 
ROOT
ATOM      1  C1  UNL d   1       2.237  -3.511  -3.727  0.00  0.00     0.143 A 
ATOM      2  C2  UNL d   1       3.628  -3.496  -3.870  0.00  0.00    -0.057 A 
ATOM      3  C3  UNL d   1       4.237  -2.912  -4.988  0.00  0.00     0.033 A 
ATOM      4  C4  UNL d   1       3.461  -2.358  -6.000  0.00  0.00    -0.042 A 
ATOM      5  C5  UNL d   1       2.075  -2.385  -5.891  0.00  0.00     0.033 A 
ATOM      6  C6  UNL d   1       1.473  -2.963  -4.769  0.00  0.00    -0.057 A 
ENDROOT
BRANCH   1   7
ATOM      7  N   UNL d   1       1.569  -4.163  -2.688  0.00  0.00    -0.732 N 
ATOM      8  C   UNL d   1       1.302  -3.480  -1.440  0.00  0.00     0.284 C 
ATOM      9  H3  UNL d   1       0.797  -4.736  -3.021  0.00  0.00     0.395 HD
ENDBRANCH   1   7
TORSDOF 1
ENDMDL
