MODEL 1
REMARK minimizedAffinity 10.6855068
REMARK minimizedRMSD -1
REMARK  1 active torsions:
REMARK  status: ('A' for Active; 'I' for Inactive)
REMARK    1  A    between atoms: N_2  and  C1_3 
ROOT
ATOM      1  C1  UNL d   1      -5.149   5.973  -0.638  0.00  0.00     0.143 A 
ATOM      2  C2  UNL d   1      -5.999   5.975   0.473  0.00  0.00    -0.057 A 
ATOM      3  C3  UNL d   1      -5.490   5.999   1.777  0.00  0.00     0.033 A 
ATOM      4  C4  UNL d   1      -4.117   5.991   1.994  0.00  0.00    -0.042 A 
ATOM      5  C5  UNL d   1      -3.252   5.964   0.905  0.00  0.00     0.033 A 
ATOM      6  C6  UNL d   1      -3.767   5.947  -0.395  0.00  0.00    -0.057 A 
ENDROOT
BRANCH   1   7
ATOM      7  N   UNL d   1      -5.592   5.850  -1.957  0.00  0.00    -0.732 N 
ATOM      8  C   UNL d   1      -4.720   5.316  -2.981  0.00  0.00     0.284 C 
ATOM      9  H3  UNL d   1      -6.553   5.519  -2.015  0.00  0.00     0.395 HD
ENDBRANCH   1   7
TORSDOF 1
ENDMDL
