MODEL 1
REMARK minimizedAffinity 13.1326265
REMARK minimizedRMSD -1
REMARK  1 active torsions:
REMARK  status: ('A' for Active; 'I' for Inactive)
REMARK    1  A    between atoms: N_2  and  C1_3 
ROOT
ATOM      1  C1  UNL d   1      -4.608   5.716   1.663  0.00  0.00     0.143 A 
ATOM      2  C2  UNL d   1      -5.818   5.995   1.017  0.00  0.00    -0.057 A 
ATOM      3  C3  UNL d   1      -5.932   5.912  -0.376  0.00  0.00     0.033 A 
ATOM      4  C4  UNL d   1      -4.827   5.577  -1.152  0.00  0.00    -0.042 A 
ATOM      5  C5  UNL d   1      -3.609   5.320  -0.533  0.00  0.00     0.033 A 
ATOM      6  C6  UNL d   1      -3.503   5.398   0.859  0.00  0.00    -0.057 A 
ENDROOT
BRANCH   1   7
ATOM      7  N   UNL d   1      -4.406   5.877   3.036  0.00  0.00    -0.732 N 
ATOM      8  C   UNL d   1      -5.528   5.905   3.949  0.00  0.00     0.284 C 
ATOM      9  H3  UNL d   1      -3.607   5.345   3.375  0.00  0.00     0.395 HD
ENDBRANCH   1   7
TORSDOF 1
ENDMDL
