MODEL 1
REMARK minimizedAffinity 14.5312204
REMARK minimizedRMSD -1
REMARK  1 active torsions:
REMARK  status: ('A' for Active; 'I' for Inactive)
REMARK    1  A    between atoms: N_2  and  C1_3 
ROOT
ATOM      1  C1  UNL d   1      -3.204   3.677   0.514  0.00  0.00     0.143 A 
ATOM      2  C2  UNL d   1      -4.176   3.308   1.450  0.00  0.00    -0.057 A 
ATOM      3  C3  UNL d   1      -5.029   4.258   2.025  0.00  0.00     0.033 A 
ATOM      4  C4  UNL d   1      -4.904   5.603   1.694  0.00  0.00    -0.042 A 
ATOM      5  C5  UNL d   1      -3.928   5.997   0.785  0.00  0.00     0.033 A 
ATOM      6  C6  UNL d   1      -3.084   5.042   0.210  0.00  0.00    -0.057 A 
ENDROOT
BRANCH   1   7
ATOM      7  N   UNL d   1      -2.261   2.794  -0.018  0.00  0.00    -0.732 N 
ATOM      8  C   UNL d   1      -2.261   1.398   0.363  0.00  0.00     0.284 C 
ATOM      9  H3  UNL d   1      -2.095   2.954  -1.009  0.00  0.00     0.395 HD
ENDBRANCH   1   7
TORSDOF 1
ENDMDL
