MODEL 1
REMARK minimizedAffinity 5.76977825
REMARK minimizedRMSD -1
REMARK  1 active torsions:
REMARK  status: ('A' for Active; 'I' for Inactive)
REMARK    1  A    between atoms: N_2  and  C1_3 
ROOT
ATOM      1  C1  UNL d   1      -1.156   3.489  -2.379  0.00  0.00     0.143 A 
ATOM      2  C2  UNL d   1      -0.445   2.837  -1.366  0.00  0.00    -0.057 A 
ATOM      3  C3  UNL d   1       0.151   3.553  -0.321  0.00  0.00     0.033 A 
ATOM      4  C4  UNL d   1       0.070   4.941  -0.285  0.00  0.00    -0.042 A 
ATOM      5  C5  UNL d   1      -0.611   5.612  -1.294  0.00  0.00     0.033 A 
ATOM      6  C6  UNL d   1      -1.209   4.891  -2.333  0.00  0.00    -0.057 A 
ENDROOT
BRANCH   1   7
ATOM      7  N   UNL d   1      -1.686   2.842  -3.498  0.00  0.00    -0.732 N 
ATOM      8  C   UNL d   1      -2.872   2.021  -3.381  0.00  0.00     0.284 C 
ATOM      9  H3  UNL d   1      -1.666   3.427  -4.331  0.00  0.00     0.395 HD
ENDBRANCH   1   7
TORSDOF 1
ENDMDL
