MODEL 1
REMARK minimizedAffinity 4.76671886
REMARK minimizedRMSD -1
REMARK  1 active torsions:
REMARK  status: ('A' for Active; 'I' for Inactive)
REMARK    1  A    between atoms: N_2  and  C1_3 
ROOT
ATOM      1  C1  UNL d   1      -0.168   2.903  -0.447  0.00  0.00     0.143 A 
ATOM      2  C2  UNL d   1      -0.962   2.728  -1.585  0.00  0.00    -0.057 A 
ATOM      3  C3  UNL d   1      -1.188   3.779  -2.481  0.00  0.00     0.033 A 
ATOM      4  C4  UNL d   1      -0.645   5.037  -2.239  0.00  0.00    -0.042 A 
ATOM      5  C5  UNL d   1       0.128   5.240  -1.101  0.00  0.00     0.033 A 
ATOM      6  C6  UNL d   1       0.355   4.184  -0.213  0.00  0.00    -0.057 A 
ENDROOT
BRANCH   1   7
ATOM      7  N   UNL d   1       0.013   1.924   0.533  0.00  0.00    -0.732 N 
ATOM      8  C   UNL d   1      -1.037   1.629   1.484  0.00  0.00     0.284 C 
ATOM      9  H3  UNL d   1       0.494   1.101   0.176  0.00  0.00     0.395 HD
ENDBRANCH   1   7
TORSDOF 1
ENDMDL
