MODEL 1
REMARK minimizedAffinity 8.96782589
REMARK minimizedRMSD -1
REMARK  1 active torsions:
REMARK  status: ('A' for Active; 'I' for Inactive)
REMARK    1  A    between atoms: N_2  and  C1_3 
ROOT
ATOM      1  C1  UNL d   1      -3.722   0.446   1.403  0.00  0.00     0.143 A 
ATOM      2  C2  UNL d   1      -2.528   0.140   0.741  0.00  0.00    -0.057 A 
ATOM      3  C3  UNL d   1      -1.285   0.350   1.351  0.00  0.00     0.033 A 
ATOM      4  C4  UNL d   1      -1.214   0.899   2.627  0.00  0.00    -0.042 A 
ATOM      5  C5  UNL d   1      -2.387   1.235   3.294  0.00  0.00     0.033 A 
ATOM      6  C6  UNL d   1      -3.625   1.016   2.682  0.00  0.00    -0.057 A 
ENDROOT
BRANCH   1   7
ATOM      7  N   UNL d   1      -4.984   0.353   0.812  0.00  0.00    -0.732 N 
ATOM      8  C   UNL d   1      -5.488  -0.922   0.348  0.00  0.00     0.284 C 
ATOM      9  H3  UNL d   1      -5.678   0.927   1.285  0.00  0.00     0.395 HD
ENDBRANCH   1   7
TORSDOF 1
ENDMDL
