MODEL 1
REMARK minimizedAffinity -3.03083873
REMARK minimizedRMSD -1
REMARK  0 active torsions:
REMARK  status: ('A' for Active; 'I' for Inactive)
ROOT
ATOM      1  C   UNL d   1      -3.585   2.710   3.899  0.00  0.00     0.077 C 
ATOM      2  C1  UNL d   1      -3.545   1.633   2.856  0.00  0.00    -0.074 A 
ATOM      3  C2  UNL d   1      -4.723   1.138   2.289  0.00  0.00    -0.005 A 
ATOM      4  C3  UNL d   1      -4.670   0.143   1.313  0.00  0.00     0.006 A 
ATOM      5  C4  UNL d   1      -3.440  -0.366   0.895  0.00  0.00    -0.005 A 
ATOM      6  C5  UNL d   1      -2.251   0.117   1.451  0.00  0.00    -0.074 A 
ATOM      7  C6  UNL d   1      -0.920  -0.412   1.006  0.00  0.00     0.077 C 
ATOM      8  C7  UNL d   1      -2.313   1.122   2.426  0.00  0.00    -0.001 A 
ENDROOT
TORSDOF 0
ENDMDL
