MODEL 1
REMARK minimizedAffinity -2.56348538
REMARK minimizedRMSD -1
REMARK  0 active torsions:
REMARK  status: ('A' for Active; 'I' for Inactive)
ROOT
ATOM      1  C   UNL d   1      -4.403   1.133   3.188  0.00  0.00     0.077 C 
ATOM      2  C1  UNL d   1      -3.082   0.686   2.637  0.00  0.00    -0.074 A 
ATOM      3  C2  UNL d   1      -3.001   0.033   1.403  0.00  0.00    -0.005 A 
ATOM      4  C3  UNL d   1      -1.764  -0.369   0.899  0.00  0.00     0.006 A 
ATOM      5  C4  UNL d   1      -0.597  -0.122   1.622  0.00  0.00    -0.005 A 
ATOM      6  C5  UNL d   1      -0.657   0.531   2.857  0.00  0.00    -0.074 A 
ATOM      7  C6  UNL d   1       0.589   0.813   3.643  0.00  0.00     0.077 C 
ATOM      8  C7  UNL d   1      -1.903   0.938   3.354  0.00  0.00    -0.001 A 
ENDROOT
TORSDOF 0
ENDMDL
