MODEL 1
REMARK minimizedAffinity 0.0304105412
REMARK minimizedRMSD -1
REMARK  0 active torsions:
REMARK  status: ('A' for Active; 'I' for Inactive)
ROOT
ATOM      1  C   UNL d   1      -3.367   2.634   3.370  0.00  0.00     0.077 C 
ATOM      2  C1  UNL d   1      -3.204   1.399   2.534  0.00  0.00    -0.074 A 
ATOM      3  C2  UNL d   1      -4.288   0.551   2.286  0.00  0.00    -0.005 A 
ATOM      4  C3  UNL d   1      -4.124  -0.588   1.498  0.00  0.00     0.006 A 
ATOM      5  C4  UNL d   1      -2.876  -0.891   0.952  0.00  0.00    -0.005 A 
ATOM      6  C5  UNL d   1      -1.781  -0.054   1.188  0.00  0.00    -0.074 A 
ATOM      7  C6  UNL d   1      -0.435  -0.360   0.601  0.00  0.00     0.077 C 
ATOM      8  C7  UNL d   1      -1.956   1.093   1.975  0.00  0.00    -0.001 A 
ENDROOT
TORSDOF 0
ENDMDL
