MODEL 1
REMARK minimizedAffinity -1.28089476
REMARK minimizedRMSD -1
REMARK  0 active torsions:
REMARK  status: ('A' for Active; 'I' for Inactive)
ROOT
ATOM      1  C   UNL d   1      -5.999   5.874  -6.000  0.00  0.00     0.077 C 
ATOM      2  C1  UNL d   1      -5.246   4.595  -5.784  0.00  0.00    -0.074 A 
ATOM      3  C2  UNL d   1      -5.923   3.389  -5.575  0.00  0.00    -0.005 A 
ATOM      4  C3  UNL d   1      -5.209   2.206  -5.385  0.00  0.00     0.006 A 
ATOM      5  C4  UNL d   1      -3.814   2.217  -5.402  0.00  0.00    -0.005 A 
ATOM      6  C5  UNL d   1      -3.120   3.413  -5.611  0.00  0.00    -0.074 A 
ATOM      7  C6  UNL d   1      -1.621   3.440  -5.643  0.00  0.00     0.077 C 
ATOM      8  C7  UNL d   1      -3.845   4.596  -5.808  0.00  0.00    -0.001 A 
ENDROOT
TORSDOF 0
ENDMDL
