MODEL 1
REMARK minimizedAffinity -3.71071243
REMARK minimizedRMSD -1
REMARK  0 active torsions:
REMARK  status: ('A' for Active; 'I' for Inactive)
ROOT
ATOM      1  C   UNL d   1      -3.108   2.865   3.997  0.00  0.00     0.077 C 
ATOM      2  C1  UNL d   1      -3.077   1.629   3.149  0.00  0.00    -0.074 A 
ATOM      3  C2  UNL d   1      -4.259   0.973   2.790  0.00  0.00    -0.005 A 
ATOM      4  C3  UNL d   1      -4.215  -0.170   1.992  0.00  0.00     0.006 A 
ATOM      5  C4  UNL d   1      -2.991  -0.670   1.547  0.00  0.00    -0.005 A 
ATOM      6  C5  UNL d   1      -1.798  -0.027   1.895  0.00  0.00    -0.074 A 
ATOM      7  C6  UNL d   1      -0.474  -0.545   1.417  0.00  0.00     0.077 C 
ATOM      8  C7  UNL d   1      -1.851   1.125   2.691  0.00  0.00    -0.001 A 
ENDROOT
TORSDOF 0
ENDMDL
