MODEL 1
REMARK minimizedAffinity 0.865996838
REMARK minimizedRMSD -1
REMARK  0 active torsions:
REMARK  status: ('A' for Active; 'I' for Inactive)
ROOT
ATOM      1  C   UNL d   1       2.105   1.395  -1.523  0.00  0.00     0.077 C 
ATOM      2  C1  UNL d   1       1.590   1.315  -0.116  0.00  0.00    -0.074 A 
ATOM      3  C2  UNL d   1       0.349   0.734   0.163  0.00  0.00    -0.005 A 
ATOM      4  C3  UNL d   1      -0.112   0.657   1.477  0.00  0.00     0.006 A 
ATOM      5  C4  UNL d   1       0.662   1.161   2.524  0.00  0.00    -0.005 A 
ATOM      6  C5  UNL d   1       1.906   1.744   2.264  0.00  0.00    -0.074 A 
ATOM      7  C6  UNL d   1       2.755   2.281   3.378  0.00  0.00     0.077 C 
ATOM      8  C7  UNL d   1       2.366   1.811   0.941  0.00  0.00    -0.001 A 
ENDROOT
TORSDOF 0
ENDMDL
