MODEL 1
REMARK minimizedAffinity -2.568928
REMARK minimizedRMSD -1
REMARK  0 active torsions:
REMARK  status: ('A' for Active; 'I' for Inactive)
ROOT
ATOM      1  C   UNL d   1      -0.232  -2.741   0.659  0.00  0.00     0.077 C 
ATOM      2  C1  UNL d   1       0.095  -1.377   0.127  0.00  0.00    -0.074 A 
ATOM      3  C2  UNL d   1      -0.158  -0.230   0.887  0.00  0.00    -0.005 A 
ATOM      4  C3  UNL d   1       0.160   1.031   0.383  0.00  0.00     0.006 A 
ATOM      5  C4  UNL d   1       0.732   1.158  -0.884  0.00  0.00    -0.005 A 
ATOM      6  C5  UNL d   1       0.993   0.023  -1.657  0.00  0.00    -0.074 A 
ATOM      7  C6  UNL d   1       1.616   0.141  -3.016  0.00  0.00     0.077 C 
ATOM      8  C7  UNL d   1       0.677  -1.242  -1.141  0.00  0.00    -0.001 A 
ENDROOT
TORSDOF 0
ENDMDL
