MODEL 1
REMARK minimizedAffinity -1.23433363
REMARK minimizedRMSD -1
REMARK  0 active torsions:
REMARK  status: ('A' for Active; 'I' for Inactive)
ROOT
ATOM      1  C   UNL d   1      -4.611  -0.035   0.763  0.00  0.00     0.077 C 
ATOM      2  C1  UNL d   1      -4.291   0.895   1.895  0.00  0.00    -0.074 A 
ATOM      3  C2  UNL d   1      -5.279   1.710   2.458  0.00  0.00    -0.005 A 
ATOM      4  C3  UNL d   1      -4.969   2.563   3.516  0.00  0.00     0.006 A 
ATOM      5  C4  UNL d   1      -3.669   2.610   4.023  0.00  0.00    -0.005 A 
ATOM      6  C5  UNL d   1      -2.668   1.802   3.474  0.00  0.00    -0.074 A 
ATOM      7  C6  UNL d   1      -1.269   1.833   4.013  0.00  0.00     0.077 C 
ATOM      8  C7  UNL d   1      -2.990   0.942   2.415  0.00  0.00    -0.001 A 
ENDROOT
TORSDOF 0
ENDMDL
