MODEL 1
REMARK minimizedAffinity -4.6132617
REMARK minimizedRMSD -1
REMARK  0 active torsions:
REMARK  status: ('A' for Active; 'I' for Inactive)
ROOT
ATOM      1  C   UNL d   1      -2.464   2.658   3.711  0.00  0.00     0.077 C 
ATOM      2  C1  UNL d   1      -2.593   1.523   2.740  0.00  0.00    -0.074 A 
ATOM      3  C2  UNL d   1      -3.846   1.121   2.266  0.00  0.00    -0.005 A 
ATOM      4  C3  UNL d   1      -3.950   0.070   1.355  0.00  0.00     0.006 A 
ATOM      5  C4  UNL d   1      -2.803  -0.589   0.910  0.00  0.00    -0.005 A 
ATOM      6  C5  UNL d   1      -1.542  -0.201   1.372  0.00  0.00    -0.074 A 
ATOM      7  C6  UNL d   1      -0.299  -0.892   0.895  0.00  0.00     0.077 C 
ATOM      8  C7  UNL d   1      -1.445   0.861   2.281  0.00  0.00    -0.001 A 
ENDROOT
TORSDOF 0
ENDMDL
