MODEL 1
REMARK minimizedAffinity -0.954482019
REMARK minimizedRMSD -1
REMARK  0 active torsions:
REMARK  status: ('A' for Active; 'I' for Inactive)
ROOT
ATOM      1  C   UNL d   1      -0.024  -2.476   0.233  0.00  0.00     0.077 C 
ATOM      2  C1  UNL d   1       0.098  -1.077  -0.295  0.00  0.00    -0.074 A 
ATOM      3  C2  UNL d   1      -1.013  -0.230  -0.349  0.00  0.00    -0.005 A 
ATOM      4  C3  UNL d   1      -0.882   1.071  -0.834  0.00  0.00     0.006 A 
ATOM      5  C4  UNL d   1       0.359   1.538  -1.268  0.00  0.00    -0.005 A 
ATOM      6  C5  UNL d   1       1.482   0.706  -1.220  0.00  0.00    -0.074 A 
ATOM      7  C6  UNL d   1       2.825   1.195  -1.674  0.00  0.00     0.077 C 
ATOM      8  C7  UNL d   1       1.344  -0.598  -0.725  0.00  0.00    -0.001 A 
ENDROOT
TORSDOF 0
ENDMDL
