MODEL 1
REMARK minimizedAffinity -4.77793932
REMARK minimizedRMSD -1
REMARK  0 active torsions:
REMARK  status: ('A' for Active; 'I' for Inactive)
ROOT
ATOM      1  C   UNL d   1      -0.063  -2.731   0.793  0.00  0.00     0.077 C 
ATOM      2  C1  UNL d   1       0.174  -1.427   0.091  0.00  0.00    -0.074 A 
ATOM      3  C2  UNL d   1      -0.297  -0.225   0.630  0.00  0.00    -0.005 A 
ATOM      4  C3  UNL d   1      -0.060   0.981  -0.030  0.00  0.00     0.006 A 
ATOM      5  C4  UNL d   1       0.647   0.998  -1.232  0.00  0.00    -0.005 A 
ATOM      6  C5  UNL d   1       1.126  -0.194  -1.785  0.00  0.00    -0.074 A 
ATOM      7  C6  UNL d   1       1.897  -0.193  -3.072  0.00  0.00     0.077 C 
ATOM      8  C7  UNL d   1       0.891  -1.401  -1.113  0.00  0.00    -0.001 A 
ENDROOT
TORSDOF 0
ENDMDL
