MODEL 1
REMARK minimizedAffinity -1.30586612
REMARK minimizedRMSD -1
REMARK  0 active torsions:
REMARK  status: ('A' for Active; 'I' for Inactive)
ROOT
ATOM      1  C   UNL d   1       0.754   0.370  -3.232  0.00  0.00     0.077 C 
ATOM      2  C1  UNL d   1       0.606   0.280  -1.742  0.00  0.00    -0.074 A 
ATOM      3  C2  UNL d   1      -0.136  -0.749  -1.154  0.00  0.00    -0.005 A 
ATOM      4  C3  UNL d   1      -0.257  -0.826   0.233  0.00  0.00     0.006 A 
ATOM      5  C4  UNL d   1       0.362   0.125   1.045  0.00  0.00    -0.005 A 
ATOM      6  C5  UNL d   1       1.110   1.161   0.476  0.00  0.00    -0.074 A 
ATOM      7  C6  UNL d   1       1.790   2.185   1.335  0.00  0.00     0.077 C 
ATOM      8  C7  UNL d   1       1.232   1.227  -0.919  0.00  0.00    -0.001 A 
ENDROOT
TORSDOF 0
ENDMDL
