MODEL 1
REMARK minimizedAffinity -5.05997944
REMARK minimizedRMSD -1
REMARK  0 active torsions:
REMARK  status: ('A' for Active; 'I' for Inactive)
ROOT
ATOM      1  C   UNL d   1       0.678   0.223  -0.590  0.00  0.00     0.077 C 
ATOM      2  C1  UNL d   1      -0.032   0.410   0.718  0.00  0.00    -0.074 A 
ATOM      3  C2  UNL d   1       0.674   0.754   1.876  0.00  0.00    -0.005 A 
ATOM      4  C3  UNL d   1      -0.002   0.933   3.083  0.00  0.00     0.006 A 
ATOM      5  C4  UNL d   1      -1.386   0.772   3.145  0.00  0.00    -0.005 A 
ATOM      6  C5  UNL d   1      -2.108   0.429   1.997  0.00  0.00    -0.074 A 
ATOM      7  C6  UNL d   1      -3.598   0.261   2.044  0.00  0.00     0.077 C 
ATOM      8  C7  UNL d   1      -1.423   0.257   0.786  0.00  0.00    -0.001 A 
ENDROOT
TORSDOF 0
ENDMDL
