MODEL 1
REMARK minimizedAffinity -0.922340631
REMARK minimizedRMSD -1
REMARK  0 active torsions:
REMARK  status: ('A' for Active; 'I' for Inactive)
ROOT
ATOM      1  C   UNL d   1      -5.728   1.962  -5.996  0.00  0.00     0.077 C 
ATOM      2  C1  UNL d   1      -4.997   3.271  -6.000  0.00  0.00    -0.074 A 
ATOM      3  C2  UNL d   1      -5.695   4.484  -6.000  0.00  0.00    -0.005 A 
ATOM      4  C3  UNL d   1      -5.001   5.694  -5.994  0.00  0.00     0.006 A 
ATOM      5  C4  UNL d   1      -3.606   5.704  -5.987  0.00  0.00    -0.005 A 
ATOM      6  C5  UNL d   1      -2.891   4.502  -5.986  0.00  0.00    -0.074 A 
ATOM      7  C6  UNL d   1      -1.392   4.496  -5.970  0.00  0.00     0.077 C 
ATOM      8  C7  UNL d   1      -3.595   3.290  -5.986  0.00  0.00    -0.001 A 
ENDROOT
TORSDOF 0
ENDMDL
