MODEL 1
REMARK minimizedAffinity -0.343204319
REMARK minimizedRMSD -1
REMARK  0 active torsions:
REMARK  status: ('A' for Active; 'I' for Inactive)
ROOT
ATOM      1  C   UNL d   1       0.597  -0.090   4.107  0.00  0.00     0.077 C 
ATOM      2  C1  UNL d   1      -0.449   0.704   3.382  0.00  0.00    -0.074 A 
ATOM      3  C2  UNL d   1      -0.315   0.997   2.021  0.00  0.00    -0.005 A 
ATOM      4  C3  UNL d   1      -1.301   1.728   1.359  0.00  0.00     0.006 A 
ATOM      5  C4  UNL d   1      -2.428   2.174   2.049  0.00  0.00    -0.005 A 
ATOM      6  C5  UNL d   1      -2.580   1.891   3.410  0.00  0.00    -0.074 A 
ATOM      7  C6  UNL d   1      -3.790   2.354   4.165  0.00  0.00     0.077 C 
ATOM      8  C7  UNL d   1      -1.588   1.149   4.067  0.00  0.00    -0.001 A 
ENDROOT
TORSDOF 0
ENDMDL
