MODEL 1
REMARK minimizedAffinity 5.43858624
REMARK minimizedRMSD -1
REMARK  0 active torsions:
REMARK  status: ('A' for Active; 'I' for Inactive)
ROOT
ATOM      1  C   UNL d   1      -2.286  -3.156   0.369  0.00  0.00     0.077 C 
ATOM      2  C1  UNL d   1      -1.385  -2.293  -0.463  0.00  0.00    -0.074 A 
ATOM      3  C2  UNL d   1      -1.329  -2.443  -1.853  0.00  0.00    -0.005 A 
ATOM      4  C3  UNL d   1      -0.494  -1.626  -2.615  0.00  0.00     0.006 A 
ATOM      5  C4  UNL d   1       0.293  -0.654  -1.996  0.00  0.00    -0.005 A 
ATOM      6  C5  UNL d   1       0.249  -0.489  -0.608  0.00  0.00    -0.074 A 
ATOM      7  C6  UNL d   1       1.081   0.558   0.071  0.00  0.00     0.077 C 
ATOM      8  C7  UNL d   1      -0.598  -1.309   0.150  0.00  0.00    -0.001 A 
ENDROOT
TORSDOF 0
ENDMDL
