MODEL 1
REMARK minimizedAffinity 4.2460885
REMARK minimizedRMSD -1
REMARK  2 active torsions:
REMARK  status: ('A' for Active; 'I' for Inactive)
REMARK    1  A    between atoms: C2'_3  and  C1'_4 
REMARK    2  A    between atoms: C1'_4  and  C1_5 
ROOT
ATOM      1  C1  I4B d   1       2.665  -5.958  -3.190  0.00  0.00    -0.075 A 
ATOM      2  C2  I4B d   1       3.912  -5.993  -3.763  0.00  0.00     0.003 A 
ATOM      3  C3  I4B d   1       4.050  -5.988  -5.172  0.00  0.00     0.002 A 
ATOM      4  C4  I4B d   1       2.921  -5.998  -5.965  0.00  0.00    -0.004 A 
ATOM      5  C5  I4B d   1       1.658  -5.940  -5.384  0.00  0.00     0.002 A 
ATOM      6  C6  I4B d   1       1.529  -5.907  -3.988  0.00  0.00     0.003 A 
ENDROOT
BRANCH   1   7
ATOM      7  C1' I4B d   1       2.554  -5.998  -1.699  0.00  0.00     0.060 C 
BRANCH   7   8
ATOM      8  C2' I4B d   1       3.804  -5.365  -1.122  0.00  0.00    -0.013 C 
ATOM      9  C4' I4B d   1       4.165  -5.982   0.204  0.00  0.00     0.013 C 
ATOM     10  C3' I4B d   1       4.912  -5.535  -2.118  0.00  0.00     0.013 C 
ENDBRANCH   7   8
ENDBRANCH   1   7
TORSDOF 2
ENDMDL
