MODEL 1
REMARK minimizedAffinity -1.40481532
REMARK minimizedRMSD -1
REMARK  2 active torsions:
REMARK  status: ('A' for Active; 'I' for Inactive)
REMARK    1  A    between atoms: C2'_3  and  C1'_4 
REMARK    2  A    between atoms: C1'_4  and  C1_5 
ROOT
ATOM      1  C1  I4B d   1       2.675  -5.944  -2.824  0.00  0.00    -0.075 A 
ATOM      2  C2  I4B d   1       4.045  -5.998  -2.891  0.00  0.00     0.003 A 
ATOM      3  C3  I4B d   1       4.698  -5.980  -4.147  0.00  0.00     0.002 A 
ATOM      4  C4  I4B d   1       3.947  -5.958  -5.304  0.00  0.00    -0.004 A 
ATOM      5  C5  I4B d   1       2.559  -5.880  -5.233  0.00  0.00     0.002 A 
ATOM      6  C6  I4B d   1       1.919  -5.861  -3.986  0.00  0.00     0.003 A 
ENDROOT
BRANCH   1   7
ATOM      7  C1' I4B d   1       2.016  -5.998  -1.482  0.00  0.00     0.060 C 
BRANCH   7   8
ATOM      8  C2' I4B d   1       3.012  -5.502  -0.453  0.00  0.00    -0.013 C 
ATOM      9  C4' I4B d   1       2.643  -5.967   0.931  0.00  0.00     0.013 C 
ATOM     10  C3' I4B d   1       4.371  -5.998  -0.847  0.00  0.00     0.013 C 
ENDBRANCH   7   8
ENDBRANCH   1   7
TORSDOF 2
ENDMDL
