MODEL 1
REMARK minimizedAffinity 5.95473909
REMARK minimizedRMSD -1
REMARK  2 active torsions:
REMARK  status: ('A' for Active; 'I' for Inactive)
REMARK    1  A    between atoms: C2'_3  and  C1'_4 
REMARK    2  A    between atoms: C1'_4  and  C1_5 
ROOT
ATOM      1  C1  I4B d   1       2.980  -2.901   2.963  0.00  0.00    -0.075 A 
ATOM      2  C2  I4B d   1       1.676  -3.018   3.374  0.00  0.00     0.003 A 
ATOM      3  C3  I4B d   1       0.751  -1.977   3.118  0.00  0.00     0.002 A 
ATOM      4  C4  I4B d   1       1.183  -0.823   2.495  0.00  0.00    -0.004 A 
ATOM      5  C5  I4B d   1       2.500  -0.716   2.059  0.00  0.00     0.002 A 
ATOM      6  C6  I4B d   1       3.402  -1.766   2.283  0.00  0.00     0.003 A 
ENDROOT
BRANCH   1   7
ATOM      7  C1' I4B d   1       3.937  -4.006   3.280  0.00  0.00     0.060 C 
BRANCH   7   8
ATOM      8  C2' I4B d   1       4.887  -3.508   4.350  0.00  0.00    -0.013 C 
ATOM      9  C4' I4B d   1       6.000  -2.687   3.752  0.00  0.00     0.013 C 
ATOM     10  C3' I4B d   1       4.093  -2.706   5.337  0.00  0.00     0.013 C 
ENDBRANCH   7   8
ENDBRANCH   1   7
TORSDOF 2
ENDMDL
