MODEL 1
REMARK minimizedAffinity 6.07173157
REMARK minimizedRMSD -1
REMARK  2 active torsions:
REMARK  status: ('A' for Active; 'I' for Inactive)
REMARK    1  A    between atoms: C2'_3  and  C1'_4 
REMARK    2  A    between atoms: C1'_4  and  C1_5 
ROOT
ATOM      1  C1  I4B d   1       3.254  -5.998  -3.356  0.00  0.00    -0.075 A 
ATOM      2  C2  I4B d   1       2.429  -5.978  -4.453  0.00  0.00     0.003 A 
ATOM      3  C3  I4B d   1       2.979  -5.946  -5.757  0.00  0.00     0.002 A 
ATOM      4  C4  I4B d   1       4.348  -5.884  -5.917  0.00  0.00    -0.004 A 
ATOM      5  C5  I4B d   1       5.183  -5.927  -4.804  0.00  0.00     0.002 A 
ATOM      6  C6  I4B d   1       4.634  -5.997  -3.516  0.00  0.00     0.003 A 
ENDROOT
BRANCH   1   7
ATOM      7  C1' I4B d   1       2.640  -5.998  -1.992  0.00  0.00     0.060 C 
BRANCH   7   8
ATOM      8  C2' I4B d   1       3.676  -5.484  -1.013  0.00  0.00    -0.013 C 
ATOM      9  C4' I4B d   1       3.370  -5.934   0.391  0.00  0.00     0.013 C 
ATOM     10  C3' I4B d   1       5.020  -5.979  -1.459  0.00  0.00     0.013 C 
ENDBRANCH   7   8
ENDBRANCH   1   7
TORSDOF 2
ENDMDL
