MODEL 1
REMARK minimizedAffinity 1.24930513
REMARK minimizedRMSD -1
REMARK  2 active torsions:
REMARK  status: ('A' for Active; 'I' for Inactive)
REMARK    1  A    between atoms: C2'_3  and  C1'_4 
REMARK    2  A    between atoms: C1'_4  and  C1_5 
ROOT
ATOM      1  C1  I4B d   1       2.175  -4.092   2.922  0.00  0.00    -0.075 A 
ATOM      2  C2  I4B d   1       1.527  -3.056   2.298  0.00  0.00     0.003 A 
ATOM      3  C3  I4B d   1       1.503  -1.770   2.890  0.00  0.00     0.002 A 
ATOM      4  C4  I4B d   1       2.093  -1.579   4.123  0.00  0.00    -0.004 A 
ATOM      5  C5  I4B d   1       2.769  -2.625   4.744  0.00  0.00     0.002 A 
ATOM      6  C6  I4B d   1       2.821  -3.887   4.134  0.00  0.00     0.003 A 
ENDROOT
BRANCH   1   7
ATOM      7  C1' I4B d   1       2.152  -5.445   2.284  0.00  0.00     0.060 C 
BRANCH   7   8
ATOM      8  C2' I4B d   1       2.883  -5.349   0.961  0.00  0.00    -0.013 C 
ATOM      9  C4' I4B d   1       4.240  -5.999   1.039  0.00  0.00     0.013 C 
ATOM     10  C3' I4B d   1       2.031  -6.000  -0.087  0.00  0.00     0.013 C 
ENDBRANCH   7   8
ENDBRANCH   1   7
TORSDOF 2
ENDMDL
