MODEL 1
REMARK minimizedAffinity 4.2286396
REMARK minimizedRMSD -1
REMARK  2 active torsions:
REMARK  status: ('A' for Active; 'I' for Inactive)
REMARK    1  A    between atoms: C2'_3  and  C1'_4 
REMARK    2  A    between atoms: C1'_4  and  C1_5 
ROOT
ATOM      1  C1  I4B d   1       2.423  -1.891   3.340  0.00  0.00    -0.075 A 
ATOM      2  C2  I4B d   1       1.646  -2.869   2.770  0.00  0.00     0.003 A 
ATOM      3  C3  I4B d   1       1.200  -2.735   1.433  0.00  0.00     0.002 A 
ATOM      4  C4  I4B d   1       1.509  -1.592   0.724  0.00  0.00    -0.004 A 
ATOM      5  C5  I4B d   1       2.316  -0.613   1.296  0.00  0.00     0.002 A 
ATOM      6  C6  I4B d   1       2.787  -0.768   2.608  0.00  0.00     0.003 A 
ENDROOT
BRANCH   1   7
ATOM      7  C1' I4B d   1       2.850  -2.050   4.765  0.00  0.00     0.060 C 
BRANCH   7   8
ATOM      8  C2' I4B d   1       3.907  -3.135   4.818  0.00  0.00    -0.013 C 
ATOM      9  C4' I4B d   1       3.406  -4.413   4.199  0.00  0.00     0.013 C 
ATOM     10  C3' I4B d   1       5.126  -2.629   4.105  0.00  0.00     0.013 C 
ENDBRANCH   7   8
ENDBRANCH   1   7
TORSDOF 2
ENDMDL
