MODEL 1
REMARK minimizedAffinity 3.20274544
REMARK minimizedRMSD -1
REMARK  2 active torsions:
REMARK  status: ('A' for Active; 'I' for Inactive)
REMARK    1  A    between atoms: C2'_3  and  C1'_4 
REMARK    2  A    between atoms: C1'_4  and  C1_5 
ROOT
ATOM      1  C1  I4B d   1       3.320  -5.939  -3.439  0.00  0.00    -0.075 A 
ATOM      2  C2  I4B d   1       4.686  -5.983  -3.571  0.00  0.00     0.003 A 
ATOM      3  C3  I4B d   1       5.279  -5.959  -4.856  0.00  0.00     0.002 A 
ATOM      4  C4  I4B d   1       4.472  -5.941  -5.976  0.00  0.00    -0.004 A 
ATOM      5  C5  I4B d   1       3.089  -5.873  -5.840  0.00  0.00     0.002 A 
ATOM      6  C6  I4B d   1       2.509  -5.860  -4.563  0.00  0.00     0.003 A 
ENDROOT
BRANCH   1   7
ATOM      7  C1' I4B d   1       2.727  -6.000  -2.067  0.00  0.00     0.060 C 
BRANCH   7   8
ATOM      8  C2' I4B d   1       3.847  -5.809  -1.065  0.00  0.00    -0.013 C 
ATOM      9  C4' I4B d   1       4.485  -4.453  -1.211  0.00  0.00     0.013 C 
ATOM     10  C3' I4B d   1       3.275  -5.993   0.309  0.00  0.00     0.013 C 
ENDBRANCH   7   8
ENDBRANCH   1   7
TORSDOF 2
ENDMDL
