MODEL 1
REMARK minimizedAffinity 8.89794254
REMARK minimizedRMSD -1
REMARK  2 active torsions:
REMARK  status: ('A' for Active; 'I' for Inactive)
REMARK    1  A    between atoms: C2'_3  and  C1'_4 
REMARK    2  A    between atoms: C1'_4  and  C1_5 
ROOT
ATOM      1  C1  I4B d   1       2.300  -5.682   1.195  0.00  0.00    -0.075 A 
ATOM      2  C2  I4B d   1       1.444  -5.848   0.135  0.00  0.00     0.003 A 
ATOM      3  C3  I4B d   1       1.956  -6.000  -1.177  0.00  0.00     0.002 A 
ATOM      4  C4  I4B d   1       3.318  -5.928  -1.387  0.00  0.00    -0.004 A 
ATOM      5  C5  I4B d   1       4.185  -5.782  -0.308  0.00  0.00     0.002 A 
ATOM      6  C6  I4B d   1       3.674  -5.670   0.993  0.00  0.00     0.003 A 
ENDROOT
BRANCH   1   7
ATOM      7  C1' I4B d   1       1.724  -5.492   2.563  0.00  0.00     0.060 C 
BRANCH   7   8
ATOM      8  C2' I4B d   1       2.347  -4.248   3.163  0.00  0.00    -0.013 C 
ATOM      9  C4' I4B d   1       1.467  -3.044   2.959  0.00  0.00     0.013 C 
ATOM     10  C3' I4B d   1       2.583  -4.506   4.622  0.00  0.00     0.013 C 
ENDBRANCH   7   8
ENDBRANCH   1   7
TORSDOF 2
ENDMDL
