MODEL 1
REMARK minimizedAffinity 8.48722744
REMARK minimizedRMSD -1
REMARK  3 active torsions:
REMARK  status: ('A' for Active; 'I' for Inactive)
REMARK    1  A    between atoms: C3'_2  and  C2'_3 
REMARK    2  A    between atoms: C2'_3  and  C1'_4 
REMARK    3  A    between atoms: C1'_4  and  C1_5 
ROOT
ATOM      1  C1  N4B d   1       4.791   2.475   3.792  0.00  0.00    -0.075 A 
ATOM      2  C2  N4B d   1       5.512   2.512   5.006  0.00  0.00     0.002 A 
ATOM      3  C3  N4B d   1       5.997   1.349   5.553  0.00  0.00     0.002 A 
ATOM      4  C4  N4B d   1       5.758   0.140   4.916  0.00  0.00    -0.004 A 
ATOM      5  C5  N4B d   1       5.083   0.116   3.731  0.00  0.00     0.002 A 
ATOM      6  C6  N4B d   1       4.593   1.277   3.168  0.00  0.00     0.002 A 
ENDROOT
BRANCH   1   7
ATOM      7  C1' N4B d   1       4.168   3.709   3.200  0.00  0.00     0.057 C 
BRANCH   7   8
ATOM      8  C2' N4B d   1       5.265   4.721   2.883  0.00  0.00     0.009 C 
BRANCH   8   9
ATOM      9  C3' N4B d   1       5.127   5.988   3.710  0.00  0.00     0.004 C 
ATOM     10  C4' N4B d   1       5.999   5.983   4.930  0.00  0.00     0.003 C 
ENDBRANCH   8   9
ENDBRANCH   7   8
ENDBRANCH   1   7
TORSDOF 3
ENDMDL
