MODEL 1
REMARK minimizedAffinity 1.92938256
REMARK minimizedRMSD -1
REMARK  3 active torsions:
REMARK  status: ('A' for Active; 'I' for Inactive)
REMARK    1  A    between atoms: C3'_2  and  C2'_3 
REMARK    2  A    between atoms: C2'_3  and  C1'_4 
REMARK    3  A    between atoms: C1'_4  and  C1_5 
ROOT
ATOM      1  C1  N4B d   1      -3.230   4.277   1.471  0.00  0.00    -0.075 A 
ATOM      2  C2  N4B d   1      -3.238   4.561   0.087  0.00  0.00     0.002 A 
ATOM      3  C3  N4B d   1      -3.045   3.550  -0.822  0.00  0.00     0.002 A 
ATOM      4  C4  N4B d   1      -2.825   2.257  -0.373  0.00  0.00    -0.004 A 
ATOM      5  C5  N4B d   1      -2.845   1.987   0.964  0.00  0.00     0.002 A 
ATOM      6  C6  N4B d   1      -3.041   2.992   1.889  0.00  0.00     0.002 A 
ENDROOT
BRANCH   1   7
ATOM      7  C1' N4B d   1      -3.351   5.363   2.505  0.00  0.00     0.057 C 
BRANCH   7   8
ATOM      8  C2' N4B d   1      -4.356   4.932   3.569  0.00  0.00     0.009 C 
BRANCH   8   9
ATOM      9  C3' N4B d   1      -4.467   5.950   4.691  0.00  0.00     0.004 C 
ATOM     10  C4' N4B d   1      -4.864   5.332   5.999  0.00  0.00     0.003 C 
ENDBRANCH   8   9
ENDBRANCH   7   8
ENDBRANCH   1   7
TORSDOF 3
ENDMDL
