MODEL 1
REMARK minimizedAffinity -3.41803455
REMARK minimizedRMSD -1
REMARK  3 active torsions:
REMARK  status: ('A' for Active; 'I' for Inactive)
REMARK    1  A    between atoms: C3'_2  and  C2'_3 
REMARK    2  A    between atoms: C2'_3  and  C1'_4 
REMARK    3  A    between atoms: C1'_4  and  C1_5 
ROOT
ATOM      1  C1  N4B d   1      -2.697   1.064   0.308  0.00  0.00    -0.075 A 
ATOM      2  C2  N4B d   1      -3.825   1.466  -0.441  0.00  0.00     0.002 A 
ATOM      3  C3  N4B d   1      -4.140   2.798  -0.546  0.00  0.00     0.002 A 
ATOM      4  C4  N4B d   1      -3.356   3.741   0.102  0.00  0.00    -0.004 A 
ATOM      5  C5  N4B d   1      -2.254   3.347   0.802  0.00  0.00     0.002 A 
ATOM      6  C6  N4B d   1      -1.923   2.011   0.913  0.00  0.00     0.002 A 
ENDROOT
BRANCH   1   7
ATOM      7  C1' N4B d   1      -2.361  -0.387   0.522  0.00  0.00     0.057 C 
BRANCH   7   8
ATOM      8  C2' N4B d   1      -3.365  -0.994   1.498  0.00  0.00     0.009 C 
BRANCH   8   9
ATOM      9  C3' N4B d   1      -3.169  -0.474   2.912  0.00  0.00     0.004 C 
ATOM     10  C4' N4B d   1      -4.161  -1.043   3.882  0.00  0.00     0.003 C 
ENDBRANCH   8   9
ENDBRANCH   7   8
ENDBRANCH   1   7
TORSDOF 3
ENDMDL
