MODEL 1
REMARK minimizedAffinity 0.446383774
REMARK minimizedRMSD -1
REMARK  3 active torsions:
REMARK  status: ('A' for Active; 'I' for Inactive)
REMARK    1  A    between atoms: C3'_2  and  C2'_3 
REMARK    2  A    between atoms: C2'_3  and  C1'_4 
REMARK    3  A    between atoms: C1'_4  and  C1_5 
ROOT
ATOM      1  C1  N4B d   1      -3.007  -0.560   1.839  0.00  0.00    -0.075 A 
ATOM      2  C2  N4B d   1      -3.287   0.743   2.305  0.00  0.00     0.002 A 
ATOM      3  C3  N4B d   1      -3.337   0.995   3.654  0.00  0.00     0.002 A 
ATOM      4  C4  N4B d   1      -3.130  -0.041   4.553  0.00  0.00    -0.004 A 
ATOM      5  C5  N4B d   1      -2.834  -1.292   4.095  0.00  0.00     0.002 A 
ATOM      6  C6  N4B d   1      -2.777  -1.558   2.742  0.00  0.00     0.002 A 
ENDROOT
BRANCH   1   7
ATOM      7  C1' N4B d   1      -3.026  -0.902   0.375  0.00  0.00     0.057 C 
BRANCH   7   8
ATOM      8  C2' N4B d   1      -3.511   0.309  -0.416  0.00  0.00     0.009 C 
BRANCH   8   9
ATOM      9  C3' N4B d   1      -4.885   0.080  -1.022  0.00  0.00     0.004 C 
ATOM     10  C4' N4B d   1      -6.000   0.470  -0.097  0.00  0.00     0.003 C 
ENDBRANCH   8   9
ENDBRANCH   7   8
ENDBRANCH   1   7
TORSDOF 3
ENDMDL
