MODEL 1
REMARK minimizedAffinity -3.13992381
REMARK minimizedRMSD -1
REMARK  3 active torsions:
REMARK  status: ('A' for Active; 'I' for Inactive)
REMARK    1  A    between atoms: C3'_2  and  C2'_3 
REMARK    2  A    between atoms: C2'_3  and  C1'_4 
REMARK    3  A    between atoms: C1'_4  and  C1_5 
ROOT
ATOM      1  C1  N4B d   1       2.120  -1.591   0.885  0.00  0.00    -0.075 A 
ATOM      2  C2  N4B d   1       1.498  -0.701  -0.018  0.00  0.00     0.002 A 
ATOM      3  C3  N4B d   1       0.256  -0.995  -0.527  0.00  0.00     0.002 A 
ATOM      4  C4  N4B d   1      -0.372  -2.177  -0.163  0.00  0.00    -0.004 A 
ATOM      5  C5  N4B d   1       0.225  -3.019   0.730  0.00  0.00     0.002 A 
ATOM      6  C6  N4B d   1       1.471  -2.734   1.252  0.00  0.00     0.002 A 
ENDROOT
BRANCH   1   7
ATOM      7  C1' N4B d   1       3.513  -1.354   1.400  0.00  0.00     0.057 C 
BRANCH   7   8
ATOM      8  C2' N4B d   1       3.433  -0.669   2.762  0.00  0.00     0.009 C 
BRANCH   8   9
ATOM      9  C3' N4B d   1       4.517   0.381   2.934  0.00  0.00     0.004 C 
ATOM     10  C4' N4B d   1       4.053   1.760   2.569  0.00  0.00     0.003 C 
ENDBRANCH   8   9
ENDBRANCH   7   8
ENDBRANCH   1   7
TORSDOF 3
ENDMDL
