MODEL 1
REMARK minimizedAffinity -2.95726323
REMARK minimizedRMSD -1
REMARK  3 active torsions:
REMARK  status: ('A' for Active; 'I' for Inactive)
REMARK    1  A    between atoms: C3'_2  and  C2'_3 
REMARK    2  A    between atoms: C2'_3  and  C1'_4 
REMARK    3  A    between atoms: C1'_4  and  C1_5 
ROOT
ATOM      1  C1  N4B d   1      -2.564  -1.154   1.438  0.00  0.00    -0.075 A 
ATOM      2  C2  N4B d   1      -3.895  -1.458   1.799  0.00  0.00     0.002 A 
ATOM      3  C3  N4B d   1      -4.381  -1.068   3.023  0.00  0.00     0.002 A 
ATOM      4  C4  N4B d   1      -3.552  -0.393   3.906  0.00  0.00    -0.004 A 
ATOM      5  C5  N4B d   1      -2.275  -0.081   3.540  0.00  0.00     0.002 A 
ATOM      6  C6  N4B d   1      -1.775  -0.463   2.312  0.00  0.00     0.002 A 
ENDROOT
BRANCH   1   7
ATOM      7  C1' N4B d   1      -1.962  -1.634   0.146  0.00  0.00     0.057 C 
BRANCH   7   8
ATOM      8  C2' N4B d   1      -1.513  -3.083   0.311  0.00  0.00     0.009 C 
BRANCH   8   9
ATOM      9  C3' N4B d   1      -0.020  -3.190   0.572  0.00  0.00     0.004 C 
ATOM     10  C4' N4B d   1       0.779  -3.355  -0.686  0.00  0.00     0.003 C 
ENDBRANCH   8   9
ENDBRANCH   7   8
ENDBRANCH   1   7
TORSDOF 3
ENDMDL
