MODEL 1
REMARK minimizedAffinity -4.94249344
REMARK minimizedRMSD -1
REMARK  0 active torsions:
REMARK  status: ('A' for Active; 'I' for Inactive)
ROOT
ATOM      1  C   UNL d   1      -1.229   3.574   0.240  0.00  0.00     0.077 C 
ATOM      2  C1  UNL d   1      -1.234   2.137   0.669  0.00  0.00    -0.074 A 
ATOM      3  C2  UNL d   1      -2.042   1.705   1.726  0.00  0.00    -0.005 A 
ATOM      4  C3  UNL d   1      -2.043   0.363   2.108  0.00  0.00     0.006 A 
ATOM      5  C4  UNL d   1      -1.238  -0.558   1.439  0.00  0.00    -0.005 A 
ATOM      6  C5  UNL d   1      -0.424  -0.145   0.379  0.00  0.00    -0.074 A 
ATOM      7  C6  UNL d   1       0.441  -1.125  -0.358  0.00  0.00     0.077 C 
ATOM      8  C7  UNL d   1      -0.434   1.203  -0.003  0.00  0.00    -0.001 A 
ENDROOT
TORSDOF 0
ENDMDL
