MODEL 1
REMARK minimizedAffinity -2.48650026
REMARK minimizedRMSD -1
REMARK  0 active torsions:
REMARK  status: ('A' for Active; 'I' for Inactive)
ROOT
ATOM      1  C   UNL d   1      -1.509   2.095   2.741  0.00  0.00     0.077 C 
ATOM      2  C1  UNL d   1      -0.829   1.979   1.410  0.00  0.00    -0.074 A 
ATOM      3  C2  UNL d   1      -0.525   3.117   0.656  0.00  0.00    -0.005 A 
ATOM      4  C3  UNL d   1       0.117   2.994  -0.576  0.00  0.00     0.006 A 
ATOM      5  C4  UNL d   1       0.461   1.734  -1.067  0.00  0.00    -0.005 A 
ATOM      6  C5  UNL d   1       0.167   0.585  -0.326  0.00  0.00    -0.074 A 
ATOM      7  C6  UNL d   1       0.539  -0.777  -0.834  0.00  0.00     0.077 C 
ATOM      8  C7  UNL d   1      -0.472   0.717   0.914  0.00  0.00    -0.001 A 
ENDROOT
TORSDOF 0
ENDMDL
