MODEL 1
REMARK minimizedAffinity -4.68939352
REMARK minimizedRMSD -1
REMARK  0 active torsions:
REMARK  status: ('A' for Active; 'I' for Inactive)
ROOT
ATOM      1  C   UNL d   1      -2.197   2.321   1.239  0.00  0.00     0.077 C 
ATOM      2  C1  UNL d   1      -1.329   1.099   1.199  0.00  0.00    -0.074 A 
ATOM      3  C2  UNL d   1      -1.312   0.195   2.266  0.00  0.00    -0.005 A 
ATOM      4  C3  UNL d   1      -0.507  -0.943   2.211  0.00  0.00     0.006 A 
ATOM      5  C4  UNL d   1       0.287  -1.188   1.090  0.00  0.00    -0.005 A 
ATOM      6  C5  UNL d   1       0.282  -0.296   0.013  0.00  0.00    -0.074 A 
ATOM      7  C6  UNL d   1       1.123  -0.549  -1.203  0.00  0.00     0.077 C 
ATOM      8  C7  UNL d   1      -0.534   0.842   0.073  0.00  0.00    -0.001 A 
ENDROOT
TORSDOF 0
ENDMDL
