MODEL 1
REMARK minimizedAffinity -5.18124294
REMARK minimizedRMSD -1
REMARK  0 active torsions:
REMARK  status: ('A' for Active; 'I' for Inactive)
ROOT
ATOM      1  C   UNL d   1      -0.035  -1.298  -1.045  0.00  0.00     0.077 C 
ATOM      2  C1  UNL d   1      -0.353  -0.352   0.075  0.00  0.00    -0.074 A 
ATOM      3  C2  UNL d   1      -0.190  -0.738   1.410  0.00  0.00    -0.005 A 
ATOM      4  C3  UNL d   1      -0.481   0.156   2.440  0.00  0.00     0.006 A 
ATOM      5  C4  UNL d   1      -0.937   1.442   2.148  0.00  0.00    -0.005 A 
ATOM      6  C5  UNL d   1      -1.106   1.845   0.819  0.00  0.00    -0.074 A 
ATOM      7  C6  UNL d   1      -1.585   3.227   0.487  0.00  0.00     0.077 C 
ATOM      8  C7  UNL d   1      -0.804   0.944  -0.211  0.00  0.00    -0.001 A 
ENDROOT
TORSDOF 0
ENDMDL
