MODEL 1
REMARK minimizedAffinity -2.62427998
REMARK minimizedRMSD -1
REMARK  0 active torsions:
REMARK  status: ('A' for Active; 'I' for Inactive)
ROOT
ATOM      1  C   UNL d   1       0.741  -0.515  -0.567  0.00  0.00     0.077 C 
ATOM      2  C1  UNL d   1      -0.177   0.115   0.438  0.00  0.00    -0.074 A 
ATOM      3  C2  UNL d   1      -0.592  -0.590   1.573  0.00  0.00    -0.005 A 
ATOM      4  C3  UNL d   1      -1.438   0.012   2.504  0.00  0.00     0.006 A 
ATOM      5  C4  UNL d   1      -1.876   1.323   2.311  0.00  0.00    -0.005 A 
ATOM      6  C5  UNL d   1      -1.470   2.044   1.183  0.00  0.00    -0.074 A 
ATOM      7  C6  UNL d   1      -1.924   3.456   0.965  0.00  0.00     0.077 C 
ATOM      8  C7  UNL d   1      -0.615   1.434   0.255  0.00  0.00    -0.001 A 
ENDROOT
TORSDOF 0
ENDMDL
