MODEL 1
REMARK minimizedAffinity -4.24904633
REMARK minimizedRMSD -1
REMARK  0 active torsions:
REMARK  status: ('A' for Active; 'I' for Inactive)
ROOT
ATOM      1  C   UNL d   1      -1.598   0.323   1.584  0.00  0.00     0.077 C 
ATOM      2  C1  UNL d   1      -0.684  -0.276   0.557  0.00  0.00    -0.074 A 
ATOM      3  C2  UNL d   1       0.705  -0.193   0.696  0.00  0.00    -0.005 A 
ATOM      4  C3  UNL d   1       1.543  -0.763  -0.263  0.00  0.00     0.006 A 
ATOM      5  C4  UNL d   1       1.002  -1.420  -1.368  0.00  0.00    -0.005 A 
ATOM      6  C5  UNL d   1      -0.385  -1.514  -1.524  0.00  0.00    -0.074 A 
ATOM      7  C6  UNL d   1      -0.984  -2.225  -2.701  0.00  0.00     0.077 C 
ATOM      8  C7  UNL d   1      -1.220  -0.945  -0.553  0.00  0.00    -0.001 A 
ENDROOT
TORSDOF 0
ENDMDL
