MODEL 1
REMARK minimizedAffinity -6.12261295
REMARK minimizedRMSD -1
REMARK  0 active torsions:
REMARK  status: ('A' for Active; 'I' for Inactive)
ROOT
ATOM      1  C   UNL d   1      -1.432   3.668  -0.638  0.00  0.00     0.077 C 
ATOM      2  C1  UNL d   1      -1.114   2.374   0.050  0.00  0.00    -0.074 A 
ATOM      3  C2  UNL d   1      -1.718   2.039   1.266  0.00  0.00    -0.005 A 
ATOM      4  C3  UNL d   1      -1.419   0.827   1.889  0.00  0.00     0.006 A 
ATOM      5  C4  UNL d   1      -0.515  -0.060   1.304  0.00  0.00    -0.005 A 
ATOM      6  C5  UNL d   1       0.097   0.257   0.087  0.00  0.00    -0.074 A 
ATOM      7  C6  UNL d   1       1.063  -0.690  -0.561  0.00  0.00     0.077 C 
ATOM      8  C7  UNL d   1      -0.213   1.474  -0.536  0.00  0.00    -0.001 A 
ENDROOT
TORSDOF 0
ENDMDL
