MODEL 1
REMARK minimizedAffinity -4.47371197
REMARK minimizedRMSD -1
REMARK  0 active torsions:
REMARK  status: ('A' for Active; 'I' for Inactive)
ROOT
ATOM      1  C   UNL d   1       0.395   3.821  -1.108  0.00  0.00     0.077 C 
ATOM      2  C1  UNL d   1      -0.239   3.021  -0.009  0.00  0.00    -0.074 A 
ATOM      3  C2  UNL d   1      -1.045   3.636   0.954  0.00  0.00    -0.005 A 
ATOM      4  C3  UNL d   1      -1.635   2.877   1.965  0.00  0.00     0.006 A 
ATOM      5  C4  UNL d   1      -1.426   1.499   2.023  0.00  0.00    -0.005 A 
ATOM      6  C5  UNL d   1      -0.624   0.867   1.068  0.00  0.00    -0.074 A 
ATOM      7  C6  UNL d   1      -0.396  -0.615   1.109  0.00  0.00     0.077 C 
ATOM      8  C7  UNL d   1      -0.040   1.635   0.051  0.00  0.00    -0.001 A 
ENDROOT
TORSDOF 0
ENDMDL
