MODEL 1
REMARK minimizedAffinity -2.90366173
REMARK minimizedRMSD -1
REMARK  0 active torsions:
REMARK  status: ('A' for Active; 'I' for Inactive)
ROOT
ATOM      1  C   UNL d   1      -0.527  -0.106   0.663  0.00  0.00     0.077 C 
ATOM      2  C1  UNL d   1       0.115  -0.950  -0.398  0.00  0.00    -0.074 A 
ATOM      3  C2  UNL d   1       1.378  -0.630  -0.905  0.00  0.00    -0.005 A 
ATOM      4  C3  UNL d   1       1.966  -1.430  -1.884  0.00  0.00     0.006 A 
ATOM      5  C4  UNL d   1       1.298  -2.556  -2.366  0.00  0.00    -0.005 A 
ATOM      6  C5  UNL d   1       0.035  -2.892  -1.871  0.00  0.00    -0.074 A 
ATOM      7  C6  UNL d   1      -0.693  -4.105  -2.371  0.00  0.00     0.077 C 
ATOM      8  C7  UNL d   1      -0.547  -2.088  -0.881  0.00  0.00    -0.001 A 
ENDROOT
TORSDOF 0
ENDMDL
