MODEL 1
REMARK minimizedAffinity -3.2531395
REMARK minimizedRMSD -1
REMARK  0 active torsions:
REMARK  status: ('A' for Active; 'I' for Inactive)
ROOT
ATOM      1  C   UNL d   1      -1.202   3.351   1.096  0.00  0.00     0.077 C 
ATOM      2  C1  UNL d   1      -0.802   1.909   1.187  0.00  0.00    -0.074 A 
ATOM      3  C2  UNL d   1      -1.203   1.118   2.269  0.00  0.00    -0.005 A 
ATOM      4  C3  UNL d   1      -0.830  -0.224   2.335  0.00  0.00     0.006 A 
ATOM      5  C4  UNL d   1      -0.055  -0.789   1.321  0.00  0.00    -0.005 A 
ATOM      6  C5  UNL d   1       0.354  -0.014   0.231  0.00  0.00    -0.074 A 
ATOM      7  C6  UNL d   1       1.179  -0.608  -0.872  0.00  0.00     0.077 C 
ATOM      8  C7  UNL d   1      -0.030   1.332   0.169  0.00  0.00    -0.001 A 
ENDROOT
TORSDOF 0
ENDMDL
