MODEL 1
REMARK minimizedAffinity -4.01658678
REMARK minimizedRMSD -1
REMARK  0 active torsions:
REMARK  status: ('A' for Active; 'I' for Inactive)
ROOT
ATOM      1  C   UNL d   1       1.767  -3.743  -0.577  0.00  0.00     0.077 C 
ATOM      2  C1  UNL d   1       0.763  -2.715  -1.004  0.00  0.00    -0.074 A 
ATOM      3  C2  UNL d   1       0.012  -2.884  -2.172  0.00  0.00    -0.005 A 
ATOM      4  C3  UNL d   1      -0.925  -1.924  -2.552  0.00  0.00     0.006 A 
ATOM      5  C4  UNL d   1      -1.121  -0.785  -1.768  0.00  0.00    -0.005 A 
ATOM      6  C5  UNL d   1      -0.380  -0.599  -0.597  0.00  0.00    -0.074 A 
ATOM      7  C6  UNL d   1      -0.586   0.614   0.261  0.00  0.00     0.077 C 
ATOM      8  C7  UNL d   1       0.554  -1.572  -0.219  0.00  0.00    -0.001 A 
ENDROOT
TORSDOF 0
ENDMDL
