MODEL 1
REMARK minimizedAffinity -5.28083754
REMARK minimizedRMSD -1
REMARK  0 active torsions:
REMARK  status: ('A' for Active; 'I' for Inactive)
ROOT
ATOM      1  C   UNL d   1       0.617  -1.077  -0.101  0.00  0.00     0.077 C 
ATOM      2  C1  UNL d   1      -0.267   0.032   0.387  0.00  0.00    -0.074 A 
ATOM      3  C2  UNL d   1      -1.222  -0.196   1.383  0.00  0.00    -0.005 A 
ATOM      4  C3  UNL d   1      -2.031   0.847   1.834  0.00  0.00     0.006 A 
ATOM      5  C4  UNL d   1      -1.894   2.126   1.294  0.00  0.00    -0.005 A 
ATOM      6  C5  UNL d   1      -0.944   2.374   0.298  0.00  0.00    -0.074 A 
ATOM      7  C6  UNL d   1      -0.776   3.745  -0.285  0.00  0.00     0.077 C 
ATOM      8  C7  UNL d   1      -0.130   1.322  -0.144  0.00  0.00    -0.001 A 
ENDROOT
TORSDOF 0
ENDMDL
