MODEL 1
REMARK minimizedAffinity -4.86604261
REMARK minimizedRMSD -1
REMARK  0 active torsions:
REMARK  status: ('A' for Active; 'I' for Inactive)
ROOT
ATOM      1  C   UNL d   1       0.383  -1.382   2.338  0.00  0.00     0.077 C 
ATOM      2  C1  UNL d   1      -0.016  -0.330   1.346  0.00  0.00    -0.074 A 
ATOM      3  C2  UNL d   1       0.464  -0.362   0.033  0.00  0.00    -0.005 A 
ATOM      4  C3  UNL d   1       0.076   0.618  -0.881  0.00  0.00     0.006 A 
ATOM      5  C4  UNL d   1      -0.794   1.637  -0.492  0.00  0.00    -0.005 A 
ATOM      6  C5  UNL d   1      -1.284   1.685   0.817  0.00  0.00    -0.074 A 
ATOM      7  C6  UNL d   1      -2.228   2.768   1.249  0.00  0.00     0.077 C 
ATOM      8  C7  UNL d   1      -0.896   0.693   1.727  0.00  0.00    -0.001 A 
ENDROOT
TORSDOF 0
ENDMDL
