MODEL 1
REMARK minimizedAffinity -1.65584946
REMARK minimizedRMSD -1
REMARK  0 active torsions:
REMARK  status: ('A' for Active; 'I' for Inactive)
ROOT
ATOM      1  C   UNL d   1       1.498   0.202  -1.993  0.00  0.00     0.077 C 
ATOM      2  C1  UNL d   1       0.860  -0.012  -0.653  0.00  0.00    -0.074 A 
ATOM      3  C2  UNL d   1       1.078  -1.191   0.068  0.00  0.00    -0.005 A 
ATOM      4  C3  UNL d   1       0.486  -1.371   1.317  0.00  0.00     0.006 A 
ATOM      5  C4  UNL d   1      -0.328  -0.375   1.859  0.00  0.00    -0.005 A 
ATOM      6  C5  UNL d   1      -0.557   0.811   1.154  0.00  0.00    -0.074 A 
ATOM      7  C6  UNL d   1      -1.421   1.895   1.726  0.00  0.00     0.077 C 
ATOM      8  C7  UNL d   1       0.048   0.987  -0.098  0.00  0.00    -0.001 A 
ENDROOT
TORSDOF 0
ENDMDL
