MODEL 1
REMARK minimizedAffinity -5.50331116
REMARK minimizedRMSD -1
REMARK  0 active torsions:
REMARK  status: ('A' for Active; 'I' for Inactive)
ROOT
ATOM      1  C   UNL d   1      -0.941   3.444  -1.166  0.00  0.00     0.077 C 
ATOM      2  C1  UNL d   1      -0.834   2.354  -0.141  0.00  0.00    -0.074 A 
ATOM      3  C2  UNL d   1      -1.314   2.540   1.159  0.00  0.00    -0.005 A 
ATOM      4  C3  UNL d   1      -1.217   1.513   2.098  0.00  0.00     0.006 A 
ATOM      5  C4  UNL d   1      -0.640   0.292   1.747  0.00  0.00    -0.005 A 
ATOM      6  C5  UNL d   1      -0.156   0.087   0.451  0.00  0.00    -0.074 A 
ATOM      7  C6  UNL d   1       0.458  -1.222   0.054  0.00  0.00     0.077 C 
ATOM      8  C7  UNL d   1      -0.263   1.122  -0.489  0.00  0.00    -0.001 A 
ENDROOT
TORSDOF 0
ENDMDL
