MODEL 1
REMARK minimizedAffinity -5.7796793
REMARK minimizedRMSD -1
REMARK  0 active torsions:
REMARK  status: ('A' for Active; 'I' for Inactive)
ROOT
ATOM      1  C   UNL d   1      -0.355   3.410  -1.424  0.00  0.00     0.077 C 
ATOM      2  C1  UNL d   1      -0.808   2.569  -0.268  0.00  0.00    -0.074 A 
ATOM      3  C2  UNL d   1      -1.712   3.070   0.675  0.00  0.00    -0.005 A 
ATOM      4  C3  UNL d   1      -2.131   2.272   1.739  0.00  0.00     0.006 A 
ATOM      5  C4  UNL d   1      -1.652   0.969   1.872  0.00  0.00    -0.005 A 
ATOM      6  C5  UNL d   1      -0.749   0.451   0.939  0.00  0.00    -0.074 A 
ATOM      7  C6  UNL d   1      -0.231  -0.952   1.061  0.00  0.00     0.077 C 
ATOM      8  C7  UNL d   1      -0.337   1.256  -0.132  0.00  0.00    -0.001 A 
ENDROOT
TORSDOF 0
ENDMDL
