MODEL 1
REMARK minimizedAffinity -6.23381662
REMARK minimizedRMSD -1
REMARK  0 active torsions:
REMARK  status: ('A' for Active; 'I' for Inactive)
ROOT
ATOM      1  C   UNL d   1       0.121   3.526  -1.212  0.00  0.00     0.077 C 
ATOM      2  C1  UNL d   1      -0.484   2.649  -0.156  0.00  0.00    -0.074 A 
ATOM      3  C2  UNL d   1      -1.500   3.124   0.679  0.00  0.00    -0.005 A 
ATOM      4  C3  UNL d   1      -2.059   2.294   1.650  0.00  0.00     0.006 A 
ATOM      5  C4  UNL d   1      -1.609   0.981   1.796  0.00  0.00    -0.005 A 
ATOM      6  C5  UNL d   1      -0.594   0.488   0.970  0.00  0.00    -0.074 A 
ATOM      7  C6  UNL d   1      -0.105  -0.924   1.107  0.00  0.00     0.077 C 
ATOM      8  C7  UNL d   1      -0.042   1.326  -0.008  0.00  0.00    -0.001 A 
ENDROOT
TORSDOF 0
ENDMDL
