MODEL 1
REMARK minimizedAffinity -2.19081855
REMARK minimizedRMSD -1
REMARK  0 active torsions:
REMARK  status: ('A' for Active; 'I' for Inactive)
ROOT
ATOM      1  C   UNL d   1      -0.947   0.353  -0.956  0.00  0.00     0.172 C 
ATOM      2  N   UNL d   1       0.233  -0.130  -0.278  0.00  0.00    -0.070 N 
ATOM      3  C1  UNL d   1       0.379  -0.258   1.077  0.00  0.00    -0.004 A 
ATOM      4  C2  UNL d   1       1.644  -0.749   1.321  0.00  0.00    -0.047 A 
ATOM      5  C3  UNL d   1       2.279  -0.922   0.068  0.00  0.00    -0.047 A 
ATOM      6  C4  UNL d   1       1.384  -0.531  -0.904  0.00  0.00    -0.004 A 
ENDROOT
TORSDOF 0
ENDMDL
