MODEL 1
REMARK minimizedAffinity -1.59339345
REMARK minimizedRMSD -1
REMARK  0 active torsions:
REMARK  status: ('A' for Active; 'I' for Inactive)
ROOT
ATOM      1  C   UNL d   1      -0.363   0.506  -1.105  0.00  0.00     0.172 C 
ATOM      2  N   UNL d   1       0.620  -0.060  -0.211  0.00  0.00    -0.070 N 
ATOM      3  C1  UNL d   1       1.654  -0.880  -0.577  0.00  0.00    -0.004 A 
ATOM      4  C2  UNL d   1       2.361  -1.201   0.561  0.00  0.00    -0.047 A 
ATOM      5  C3  UNL d   1       1.729  -0.553   1.649  0.00  0.00    -0.047 A 
ATOM      6  C4  UNL d   1       0.654   0.146   1.143  0.00  0.00    -0.004 A 
ENDROOT
TORSDOF 0
ENDMDL
