MODEL 1
REMARK minimizedAffinity -2.48322558
REMARK minimizedRMSD -1
REMARK  0 active torsions:
REMARK  status: ('A' for Active; 'I' for Inactive)
ROOT
ATOM      1  C   UNL d   1      -0.677   0.357  -1.808  0.00  0.00     0.172 C 
ATOM      2  N   UNL d   1       0.232   0.042  -0.731  0.00  0.00    -0.070 N 
ATOM      3  C1  UNL d   1       0.066   0.391   0.582  0.00  0.00    -0.004 A 
ATOM      4  C2  UNL d   1       1.145  -0.094   1.288  0.00  0.00    -0.047 A 
ATOM      5  C3  UNL d   1       1.990  -0.758   0.367  0.00  0.00    -0.047 A 
ATOM      6  C4  UNL d   1       1.401  -0.658  -0.876  0.00  0.00    -0.004 A 
ENDROOT
TORSDOF 0
ENDMDL
