MODEL 1
REMARK minimizedAffinity -2.30921316
REMARK minimizedRMSD -1
REMARK  0 active torsions:
REMARK  status: ('A' for Active; 'I' for Inactive)
ROOT
ATOM      1  C   UNL d   1       4.122   5.999   3.202  0.00  0.00     0.172 C 
ATOM      2  N   UNL d   1       3.024   5.785   4.115  0.00  0.00    -0.070 N 
ATOM      3  C1  UNL d   1       3.057   6.000   5.467  0.00  0.00    -0.004 A 
ATOM      4  C2  UNL d   1       1.817   5.679   5.976  0.00  0.00    -0.047 A 
ATOM      5  C3  UNL d   1       1.011   5.257   4.893  0.00  0.00    -0.047 A 
ATOM      6  C4  UNL d   1       1.783   5.332   3.753  0.00  0.00    -0.004 A 
ENDROOT
TORSDOF 0
ENDMDL
