MODEL 1
REMARK minimizedAffinity -2.32696724
REMARK minimizedRMSD -1
REMARK  0 active torsions:
REMARK  status: ('A' for Active; 'I' for Inactive)
ROOT
ATOM      1  C   UNL d   1      -0.684   0.654  -0.718  0.00  0.00     0.172 C 
ATOM      2  N   UNL d   1      -0.399  -0.009   0.532  0.00  0.00    -0.070 N 
ATOM      3  C1  UNL d   1       0.824  -0.069   1.144  0.00  0.00    -0.004 A 
ATOM      4  C2  UNL d   1       0.679  -0.788   2.310  0.00  0.00    -0.047 A 
ATOM      5  C3  UNL d   1      -0.679  -1.174   2.403  0.00  0.00    -0.047 A 
ATOM      6  C4  UNL d   1      -1.324  -0.679   1.289  0.00  0.00    -0.004 A 
ENDROOT
TORSDOF 0
ENDMDL
