MODEL 1
REMARK minimizedAffinity -3.80796123
REMARK minimizedRMSD -1
REMARK  0 active torsions:
REMARK  status: ('A' for Active; 'I' for Inactive)
ROOT
ATOM      1  C   UNL d   1      -0.453  -0.147   1.914  0.00  0.00     0.172 C 
ATOM      2  N   UNL d   1       0.650  -1.000   1.539  0.00  0.00    -0.070 N 
ATOM      3  C1  UNL d   1       1.240  -1.045   0.304  0.00  0.00    -0.004 A 
ATOM      4  C2  UNL d   1       2.251  -1.981   0.353  0.00  0.00    -0.047 A 
ATOM      5  C3  UNL d   1       2.268  -2.518   1.663  0.00  0.00    -0.047 A 
ATOM      6  C4  UNL d   1       1.267  -1.893   2.376  0.00  0.00    -0.004 A 
ENDROOT
TORSDOF 0
ENDMDL
