MODEL 1
REMARK minimizedAffinity -1.60258734
REMARK minimizedRMSD -1
REMARK  0 active torsions:
REMARK  status: ('A' for Active; 'I' for Inactive)
ROOT
ATOM      1  C   UNL d   1       1.364  -0.951   1.899  0.00  0.00     0.172 C 
ATOM      2  N   UNL d   1       0.599  -0.486   0.766  0.00  0.00    -0.070 N 
ATOM      3  C1  UNL d   1      -0.763  -0.346   0.726  0.00  0.00    -0.004 A 
ATOM      4  C2  UNL d   1      -1.103   0.121  -0.525  0.00  0.00    -0.047 A 
ATOM      5  C3  UNL d   1       0.096   0.267  -1.263  0.00  0.00    -0.047 A 
ATOM      6  C4  UNL d   1       1.134  -0.116  -0.439  0.00  0.00    -0.004 A 
ENDROOT
TORSDOF 0
ENDMDL
