MODEL 1
REMARK minimizedAffinity -1.88754272
REMARK minimizedRMSD -1
REMARK  0 active torsions:
REMARK  status: ('A' for Active; 'I' for Inactive)
ROOT
ATOM      1  C   UNL d   1      -0.826  -3.419   3.107  0.00  0.00     0.172 C 
ATOM      2  N   UNL d   1      -0.495  -2.063   2.737  0.00  0.00    -0.070 N 
ATOM      3  C1  UNL d   1       0.727  -1.466   2.902  0.00  0.00    -0.004 A 
ATOM      4  C2  UNL d   1       0.635  -0.177   2.425  0.00  0.00    -0.047 A 
ATOM      5  C3  UNL d   1      -0.688   0.008   1.956  0.00  0.00    -0.047 A 
ATOM      6  C4  UNL d   1      -1.365  -1.176   2.161  0.00  0.00    -0.004 A 
ENDROOT
TORSDOF 0
ENDMDL
