MODEL 1
REMARK minimizedAffinity -3.4794085
REMARK minimizedRMSD -1
REMARK  0 active torsions:
REMARK  status: ('A' for Active; 'I' for Inactive)
ROOT
ATOM      1  C   UNL d   1      -2.837   2.546  -1.920  0.00  0.00     0.172 C 
ATOM      2  N   UNL d   1      -1.443   2.175  -1.980  0.00  0.00    -0.070 N 
ATOM      3  C1  UNL d   1      -0.868   1.121  -1.321  0.00  0.00    -0.004 A 
ATOM      4  C2  UNL d   1       0.473   1.105  -1.638  0.00  0.00    -0.047 A 
ATOM      5  C3  UNL d   1       0.713   2.187  -2.518  0.00  0.00    -0.047 A 
ATOM      6  C4  UNL d   1      -0.490   2.833  -2.713  0.00  0.00    -0.004 A 
ENDROOT
TORSDOF 0
ENDMDL
