MODEL 1
REMARK minimizedAffinity -2.6669879
REMARK minimizedRMSD -1
REMARK  0 active torsions:
REMARK  status: ('A' for Active; 'I' for Inactive)
ROOT
ATOM      1  C   UNL d   1      -0.107  -0.153  -1.170  0.00  0.00     0.172 C 
ATOM      2  N   UNL d   1      -0.160  -0.353   0.259  0.00  0.00    -0.070 N 
ATOM      3  C1  UNL d   1      -1.289  -0.296   1.032  0.00  0.00    -0.004 A 
ATOM      4  C2  UNL d   1      -0.920  -0.542   2.337  0.00  0.00    -0.047 A 
ATOM      5  C3  UNL d   1       0.479  -0.753   2.349  0.00  0.00    -0.047 A 
ATOM      6  C4  UNL d   1       0.924  -0.631   1.050  0.00  0.00    -0.004 A 
ENDROOT
TORSDOF 0
ENDMDL
