MODEL 1
REMARK minimizedAffinity -3.81513453
REMARK minimizedRMSD -1
REMARK  0 active torsions:
REMARK  status: ('A' for Active; 'I' for Inactive)
ROOT
ATOM      1  C   UNL d   1      -0.331   0.133  -0.966  0.00  0.00     0.172 C 
ATOM      2  N   UNL d   1       0.217  -0.156   0.338  0.00  0.00    -0.070 N 
ATOM      3  C1  UNL d   1       1.545  -0.326   0.625  0.00  0.00    -0.004 A 
ATOM      4  C2  UNL d   1       1.655  -0.584   1.975  0.00  0.00    -0.047 A 
ATOM      5  C3  UNL d   1       0.348  -0.569   2.517  0.00  0.00    -0.047 A 
ATOM      6  C4  UNL d   1      -0.523  -0.302   1.481  0.00  0.00    -0.004 A 
ENDROOT
TORSDOF 0
ENDMDL
