MODEL 1
REMARK minimizedAffinity -3.97095227
REMARK minimizedRMSD -1
REMARK  0 active torsions:
REMARK  status: ('A' for Active; 'I' for Inactive)
ROOT
ATOM      1  C   UNL d   1       5.076  -3.902   5.348  0.00  0.00     0.020 A 
ATOM      2  C1  UNL d   1       5.076  -2.533   5.083  0.00  0.00     0.020 A 
ATOM      3  C2  UNL d   1       5.364  -2.071   3.797  0.00  0.00     0.034 A 
ATOM      4  C3  UNL d   1       5.652  -2.979   2.771  0.00  0.00     0.017 A 
ATOM      5  C4  UNL d   1       5.652  -4.352   3.039  0.00  0.00     0.017 A 
ATOM      6  C5  UNL d   1       5.363  -4.809   4.328  0.00  0.00     0.034 A 
ATOM      7 Cl   UNL d   1       5.999  -5.533   1.825  0.00  0.00    -0.070 Cl
ATOM      8 Cl1  UNL d   1       5.999  -2.337   1.205  0.00  0.00    -0.070 Cl
ENDROOT
TORSDOF 0
ENDMDL
