MODEL 1
REMARK minimizedAffinity -3.72821522
REMARK minimizedRMSD -1
REMARK  0 active torsions:
REMARK  status: ('A' for Active; 'I' for Inactive)
ROOT
ATOM      1  C   UNL d   1       6.000  -4.468   2.188  0.00  0.00     0.020 A 
ATOM      2  C1  UNL d   1       5.408  -3.207   2.249  0.00  0.00     0.020 A 
ATOM      3  C2  UNL d   1       4.815  -2.769   3.435  0.00  0.00     0.034 A 
ATOM      4  C3  UNL d   1       4.813  -3.594   4.566  0.00  0.00     0.017 A 
ATOM      5  C4  UNL d   1       5.407  -4.859   4.505  0.00  0.00     0.017 A 
ATOM      6  C5  UNL d   1       5.999  -5.292   3.314  0.00  0.00     0.034 A 
ATOM      7 Cl   UNL d   1       5.444  -5.933   5.859  0.00  0.00    -0.070 Cl
ATOM      8 Cl1  UNL d   1       4.062  -2.989   6.000  0.00  0.00    -0.070 Cl
ENDROOT
TORSDOF 0
ENDMDL
