MODEL 1
REMARK minimizedAffinity -3.27403736
REMARK minimizedRMSD -1
REMARK  0 active torsions:
REMARK  status: ('A' for Active; 'I' for Inactive)
ROOT
ATOM      1  C   UNL d   1       5.493  -1.878   4.229  0.00  0.00     0.020 A 
ATOM      2  C1  UNL d   1       5.496  -1.801   2.837  0.00  0.00     0.020 A 
ATOM      3  C2  UNL d   1       5.653  -2.959   2.074  0.00  0.00     0.034 A 
ATOM      4  C3  UNL d   1       5.809  -4.200   2.702  0.00  0.00     0.017 A 
ATOM      5  C4  UNL d   1       5.807  -4.277   4.099  0.00  0.00     0.017 A 
ATOM      6  C5  UNL d   1       5.648  -3.114   4.859  0.00  0.00     0.034 A 
ATOM      7 Cl   UNL d   1       5.994  -5.772   4.946  0.00  0.00    -0.070 Cl
ATOM      8 Cl1  UNL d   1       5.999  -5.592   1.696  0.00  0.00    -0.070 Cl
ENDROOT
TORSDOF 0
ENDMDL
