MODEL 1
REMARK minimizedAffinity -1.57225657
REMARK minimizedRMSD -1
REMARK  0 active torsions:
REMARK  status: ('A' for Active; 'I' for Inactive)
ROOT
ATOM      1  C   UNL d   1       6.000  -4.448   1.092  0.00  0.00     0.020 A 
ATOM      2  C1  UNL d   1       5.996  -5.744   1.606  0.00  0.00     0.020 A 
ATOM      3  C2  UNL d   1       5.681  -5.962   2.949  0.00  0.00     0.034 A 
ATOM      4  C3  UNL d   1       5.369  -4.883   3.783  0.00  0.00     0.017 A 
ATOM      5  C4  UNL d   1       5.373  -3.582   3.267  0.00  0.00     0.017 A 
ATOM      6  C5  UNL d   1       5.689  -3.369   1.921  0.00  0.00     0.034 A 
ATOM      7 Cl   UNL d   1       4.998  -2.199   4.234  0.00  0.00    -0.070 Cl
ATOM      8 Cl1  UNL d   1       4.989  -5.226   5.433  0.00  0.00    -0.070 Cl
ENDROOT
TORSDOF 0
ENDMDL
