MODEL 1
REMARK minimizedAffinity -3.74642897
REMARK minimizedRMSD -1
REMARK  0 active torsions:
REMARK  status: ('A' for Active; 'I' for Inactive)
ROOT
ATOM      1  C   UNL d   1       5.983  -4.117   1.890  0.00  0.00     0.020 A 
ATOM      2  C1  UNL d   1       5.877  -2.735   2.042  0.00  0.00     0.020 A 
ATOM      3  C2  UNL d   1       5.785  -2.178   3.319  0.00  0.00     0.034 A 
ATOM      4  C3  UNL d   1       5.798  -3.003   4.450  0.00  0.00     0.017 A 
ATOM      5  C4  UNL d   1       5.905  -4.390   4.296  0.00  0.00     0.017 A 
ATOM      6  C5  UNL d   1       5.997  -4.943   3.015  0.00  0.00     0.034 A 
ATOM      7 Cl   UNL d   1       5.928  -5.472   5.644  0.00  0.00    -0.070 Cl
ATOM      8 Cl1  UNL d   1       5.681  -2.246   5.998  0.00  0.00    -0.070 Cl
ENDROOT
TORSDOF 0
ENDMDL
