MODEL 1
REMARK minimizedAffinity -2.95010161
REMARK minimizedRMSD -1
REMARK  0 active torsions:
REMARK  status: ('A' for Active; 'I' for Inactive)
ROOT
ATOM      1  C   UNL d   1       4.918  -2.258   3.674  0.00  0.00     0.020 A 
ATOM      2  C1  UNL d   1       4.918  -2.266   5.068  0.00  0.00     0.020 A 
ATOM      3  C2  UNL d   1       5.255  -3.431   5.760  0.00  0.00     0.034 A 
ATOM      4  C3  UNL d   1       5.593  -4.594   5.057  0.00  0.00     0.017 A 
ATOM      5  C4  UNL d   1       5.592  -4.584   3.657  0.00  0.00     0.017 A 
ATOM      6  C5  UNL d   1       5.254  -3.414   2.970  0.00  0.00     0.034 A 
ATOM      7 Cl   UNL d   1       5.998  -5.979   2.721  0.00  0.00    -0.070 Cl
ATOM      8 Cl1  UNL d   1       5.999  -5.999   5.976  0.00  0.00    -0.070 Cl
ENDROOT
TORSDOF 0
ENDMDL
