MODEL 1
REMARK minimizedAffinity -3.74813962
REMARK minimizedRMSD -1
REMARK  0 active torsions:
REMARK  status: ('A' for Active; 'I' for Inactive)
ROOT
ATOM      1  C   UNL d   1       6.000  -4.043   1.897  0.00  0.00     0.020 A 
ATOM      2  C1  UNL d   1       5.635  -2.712   2.091  0.00  0.00     0.020 A 
ATOM      3  C2  UNL d   1       5.269  -2.266   3.363  0.00  0.00     0.034 A 
ATOM      4  C3  UNL d   1       5.268  -3.152   4.446  0.00  0.00     0.017 A 
ATOM      5  C4  UNL d   1       5.634  -4.489   4.251  0.00  0.00     0.017 A 
ATOM      6  C5  UNL d   1       6.000  -4.930   2.975  0.00  0.00     0.034 A 
ATOM      7 Cl   UNL d   1       5.657  -5.641   5.538  0.00  0.00    -0.070 Cl
ATOM      8 Cl1  UNL d   1       4.805  -2.532   5.991  0.00  0.00    -0.070 Cl
ENDROOT
TORSDOF 0
ENDMDL
