MODEL 1
REMARK minimizedAffinity -3.71298218
REMARK minimizedRMSD -1
REMARK  0 active torsions:
REMARK  status: ('A' for Active; 'I' for Inactive)
ROOT
ATOM      1  C   UNL d   1       6.000  -4.057   1.879  0.00  0.00     0.020 A 
ATOM      2  C1  UNL d   1       5.909  -2.675   2.042  0.00  0.00     0.020 A 
ATOM      3  C2  UNL d   1       5.797  -2.129   3.322  0.00  0.00     0.034 A 
ATOM      4  C3  UNL d   1       5.776  -2.965   4.445  0.00  0.00     0.017 A 
ATOM      5  C4  UNL d   1       5.868  -4.352   4.280  0.00  0.00     0.017 A 
ATOM      6  C5  UNL d   1       5.979  -4.894   2.996  0.00  0.00     0.034 A 
ATOM      7 Cl   UNL d   1       5.849  -5.447   5.617  0.00  0.00    -0.070 Cl
ATOM      8 Cl1  UNL d   1       5.636  -2.221   5.998  0.00  0.00    -0.070 Cl
ENDROOT
TORSDOF 0
ENDMDL
