MODEL 1
REMARK minimizedAffinity -1.08512163
REMARK minimizedRMSD -1
REMARK  0 active torsions:
REMARK  status: ('A' for Active; 'I' for Inactive)
ROOT
ATOM      1  C   UNL d   1       5.461  -2.189   4.604  0.00  0.00     0.020 A 
ATOM      2  C1  UNL d   1       5.462  -3.583   4.618  0.00  0.00     0.020 A 
ATOM      3  C2  UNL d   1       5.630  -4.293   3.428  0.00  0.00     0.034 A 
ATOM      4  C3  UNL d   1       5.797  -3.609   2.218  0.00  0.00     0.017 A 
ATOM      5  C4  UNL d   1       5.796  -2.209   2.205  0.00  0.00     0.017 A 
ATOM      6  C5  UNL d   1       5.627  -1.504   3.400  0.00  0.00     0.034 A 
ATOM      7 Cl   UNL d   1       5.997  -1.296   0.752  0.00  0.00    -0.070 Cl
ATOM      8 Cl1  UNL d   1       6.000  -4.551   0.784  0.00  0.00    -0.070 Cl
ENDROOT
TORSDOF 0
ENDMDL
