MODEL 1
REMARK minimizedAffinity -1.66446996
REMARK minimizedRMSD -1
REMARK  0 active torsions:
REMARK  status: ('A' for Active; 'I' for Inactive)
ROOT
ATOM      1  C   UNL d   1       6.000  -4.284   2.332  0.00  0.00     0.020 A 
ATOM      2  C1  UNL d   1       5.990  -2.940   2.706  0.00  0.00     0.020 A 
ATOM      3  C2  UNL d   1       5.171  -2.513   3.753  0.00  0.00     0.034 A 
ATOM      4  C3  UNL d   1       4.359  -3.430   4.431  0.00  0.00     0.017 A 
ATOM      5  C4  UNL d   1       4.371  -4.778   4.056  0.00  0.00     0.017 A 
ATOM      6  C5  UNL d   1       5.192  -5.201   3.006  0.00  0.00     0.034 A 
ATOM      7 Cl   UNL d   1       3.397  -5.969   4.845  0.00  0.00    -0.070 Cl
ATOM      8 Cl1  UNL d   1       3.372  -2.832   5.717  0.00  0.00    -0.070 Cl
ENDROOT
TORSDOF 0
ENDMDL
