MODEL 1
REMARK minimizedAffinity -3.28661299
REMARK minimizedRMSD -1
REMARK  0 active torsions:
REMARK  status: ('A' for Active; 'I' for Inactive)
ROOT
ATOM      1  C   UNL d   1       4.693  -5.166   5.529  0.00  0.00     0.020 A 
ATOM      2  C1  UNL d   1       4.687  -3.772   5.564  0.00  0.00     0.020 A 
ATOM      3  C2  UNL d   1       5.091  -3.044   4.443  0.00  0.00     0.034 A 
ATOM      4  C3  UNL d   1       5.501  -3.710   3.282  0.00  0.00     0.017 A 
ATOM      5  C4  UNL d   1       5.507  -5.109   3.248  0.00  0.00     0.017 A 
ATOM      6  C5  UNL d   1       5.102  -5.833   4.373  0.00  0.00     0.034 A 
ATOM      7 Cl   UNL d   1       6.000  -6.000   1.851  0.00  0.00    -0.070 Cl
ATOM      8 Cl1  UNL d   1       5.986  -2.746   1.932  0.00  0.00    -0.070 Cl
ENDROOT
TORSDOF 0
ENDMDL
