MODEL 1
REMARK minimizedAffinity -6.26558161
REMARK minimizedRMSD -1
REMARK  1 active torsions:
REMARK  status: ('A' for Active; 'I' for Inactive)
REMARK    1  A    between atoms: C1_2  and  C2_3 
ROOT
ATOM      1  C2  UNL d   1       0.064  -0.057   0.199  0.00  0.00    -0.076 A 
ATOM      2  C3  UNL d   1       1.090   0.809  -0.217  0.00  0.00     0.004 A 
ATOM      3  C4  UNL d   1       2.425   0.531   0.073  0.00  0.00    -0.003 A 
ATOM      4  C5  UNL d   1       2.755  -0.619   0.781  0.00  0.00     0.000 A 
ATOM      5  C6  UNL d   1       1.752  -1.499   1.185  0.00  0.00     0.000 A 
ATOM      6  C7  UNL d   1       0.403  -1.242   0.888  0.00  0.00    -0.073 A 
ATOM      7  C8  UNL d   1      -0.639  -2.222   1.354  0.00  0.00     0.078 C 
ENDROOT
BRANCH   1   8
ATOM      8  C1  UNL d   1      -1.368   0.310  -0.120  0.00  0.00     0.053 C 
ATOM      9  C   UNL d   1      -1.678   0.211  -1.606  0.00  0.00     0.018 C 
ENDBRANCH   1   8
TORSDOF 1
ENDMDL
