MODEL 1
REMARK minimizedAffinity 3.98164892
REMARK minimizedRMSD -1
REMARK  1 active torsions:
REMARK  status: ('A' for Active; 'I' for Inactive)
REMARK    1  A    between atoms: C1_2  and  C2_3 
ROOT
ATOM      1  C2  UNL d   1       1.819  -0.553   1.002  0.00  0.00    -0.076 A 
ATOM      2  C3  UNL d   1       2.960  -1.202   0.499  0.00  0.00     0.004 A 
ATOM      3  C4  UNL d   1       3.979  -0.483  -0.122  0.00  0.00    -0.003 A 
ATOM      4  C5  UNL d   1       3.874   0.898  -0.251  0.00  0.00     0.000 A 
ATOM      5  C6  UNL d   1       2.758   1.560   0.257  0.00  0.00     0.000 A 
ATOM      6  C7  UNL d   1       1.729   0.852   0.901  0.00  0.00    -0.073 A 
ATOM      7  C8  UNL d   1       0.544   1.617   1.425  0.00  0.00     0.078 C 
ENDROOT
BRANCH   1   8
ATOM      8  C1  UNL d   1       0.733  -1.388   1.642  0.00  0.00     0.053 C 
ATOM      9  C   UNL d   1       1.234  -2.171   2.846  0.00  0.00     0.018 C 
ENDBRANCH   1   8
TORSDOF 1
ENDMDL
