MODEL 1
REMARK minimizedAffinity -5.97451782
REMARK minimizedRMSD -1
REMARK  1 active torsions:
REMARK  status: ('A' for Active; 'I' for Inactive)
REMARK    1  A    between atoms: C1_2  and  C2_3 
ROOT
ATOM      1  C2  UNL d   1       0.297   0.237   0.097  0.00  0.00    -0.076 A 
ATOM      2  C3  UNL d   1       0.975  -0.989   0.215  0.00  0.00     0.004 A 
ATOM      3  C4  UNL d   1       2.311  -1.035   0.609  0.00  0.00    -0.003 A 
ATOM      4  C5  UNL d   1       2.991   0.144   0.893  0.00  0.00     0.000 A 
ATOM      5  C6  UNL d   1       2.329   1.368   0.799  0.00  0.00     0.000 A 
ATOM      6  C7  UNL d   1       0.978   1.431   0.418  0.00  0.00    -0.073 A 
ATOM      7  C8  UNL d   1       0.315   2.778   0.327  0.00  0.00     0.078 C 
ENDROOT
BRANCH   1   8
ATOM      8  C1  UNL d   1      -1.144   0.226  -0.361  0.00  0.00     0.053 C 
ATOM      9  C   UNL d   1      -1.290  -0.204  -1.812  0.00  0.00     0.018 C 
ENDBRANCH   1   8
TORSDOF 1
ENDMDL
