MODEL 1
REMARK minimizedAffinity -4.07121658
REMARK minimizedRMSD -1
REMARK  1 active torsions:
REMARK  status: ('A' for Active; 'I' for Inactive)
REMARK    1  A    between atoms: C1_2  and  C2_3 
ROOT
ATOM      1  C2  UNL d   1       0.467  -0.896   0.937  0.00  0.00    -0.076 A 
ATOM      2  C3  UNL d   1       1.612  -0.704   0.145  0.00  0.00     0.004 A 
ATOM      3  C4  UNL d   1       1.513  -0.184  -1.145  0.00  0.00    -0.003 A 
ATOM      4  C5  UNL d   1       0.267   0.152  -1.663  0.00  0.00     0.000 A 
ATOM      5  C6  UNL d   1      -0.878  -0.016  -0.885  0.00  0.00     0.000 A 
ATOM      6  C7  UNL d   1      -0.794  -0.523   0.423  0.00  0.00    -0.073 A 
ATOM      7  C8  UNL d   1      -2.061  -0.689   1.216  0.00  0.00     0.078 C 
ENDROOT
BRANCH   1   8
ATOM      8  C1  UNL d   1       0.633  -1.489   2.318  0.00  0.00     0.053 C 
ATOM      9  C   UNL d   1       2.066  -1.910   2.603  0.00  0.00     0.018 C 
ENDBRANCH   1   8
TORSDOF 1
ENDMDL
