MODEL 1
REMARK minimizedAffinity -2.25393128
REMARK minimizedRMSD -1
REMARK  1 active torsions:
REMARK  status: ('A' for Active; 'I' for Inactive)
REMARK    1  A    between atoms: C1_2  and  C2_3 
ROOT
ATOM      1  C2  UNL d   1      -0.169  -0.495   0.146  0.00  0.00    -0.076 A 
ATOM      2  C3  UNL d   1      -1.205  -0.007   0.961  0.00  0.00     0.004 A 
ATOM      3  C4  UNL d   1      -1.147  -0.133   2.348  0.00  0.00    -0.003 A 
ATOM      4  C5  UNL d   1      -0.051  -0.749   2.942  0.00  0.00     0.000 A 
ATOM      5  C6  UNL d   1       0.995  -1.223   2.150  0.00  0.00     0.000 A 
ATOM      6  C7  UNL d   1       0.959  -1.089   0.752  0.00  0.00    -0.073 A 
ATOM      7  C8  UNL d   1       2.111  -1.624  -0.054  0.00  0.00     0.078 C 
ENDROOT
BRANCH   1   8
ATOM      8  C1  UNL d   1      -0.300  -0.355  -1.354  0.00  0.00     0.053 C 
ATOM      9  C   UNL d   1      -0.825   1.011  -1.768  0.00  0.00     0.018 C 
ENDBRANCH   1   8
TORSDOF 1
ENDMDL
