MODEL 1
REMARK minimizedAffinity -4.64540625
REMARK minimizedRMSD -1
REMARK  1 active torsions:
REMARK  status: ('A' for Active; 'I' for Inactive)
REMARK    1  A    between atoms: C1_2  and  C2_3 
ROOT
ATOM      1  C2  UNL d   1      -0.515  -0.213  -0.242  0.00  0.00    -0.076 A 
ATOM      2  C3  UNL d   1      -1.274   0.014   0.919  0.00  0.00     0.004 A 
ATOM      3  C4  UNL d   1      -0.769  -0.301   2.180  0.00  0.00    -0.003 A 
ATOM      4  C5  UNL d   1       0.504  -0.847   2.300  0.00  0.00     0.000 A 
ATOM      5  C6  UNL d   1       1.278  -1.062   1.160  0.00  0.00     0.000 A 
ATOM      6  C7  UNL d   1       0.791  -0.735  -0.117  0.00  0.00    -0.073 A 
ATOM      7  C8  UNL d   1       1.666  -0.994  -1.312  0.00  0.00     0.078 C 
ENDROOT
BRANCH   1   8
ATOM      8  C1  UNL d   1      -1.125   0.123  -1.584  0.00  0.00     0.053 C 
ATOM      9  C   UNL d   1      -1.116   1.616  -1.871  0.00  0.00     0.018 C 
ENDBRANCH   1   8
TORSDOF 1
ENDMDL
