MODEL 1
REMARK minimizedAffinity -3.30677319
REMARK minimizedRMSD -1
REMARK  1 active torsions:
REMARK  status: ('A' for Active; 'I' for Inactive)
REMARK    1  A    between atoms: C1_2  and  C2_3 
ROOT
ATOM      1  C2  UNL d   1      -0.221   1.147  -1.828  0.00  0.00    -0.076 A 
ATOM      2  C3  UNL d   1       1.004   1.802  -1.610  0.00  0.00     0.004 A 
ATOM      3  C4  UNL d   1       1.144   3.165  -1.864  0.00  0.00    -0.003 A 
ATOM      4  C5  UNL d   1       0.062   3.896  -2.340  0.00  0.00     0.000 A 
ATOM      5  C6  UNL d   1      -1.166   3.267  -2.546  0.00  0.00     0.000 A 
ATOM      6  C7  UNL d   1      -1.329   1.897  -2.279  0.00  0.00    -0.073 A 
ATOM      7  C8  UNL d   1      -2.673   1.268  -2.525  0.00  0.00     0.078 C 
ENDROOT
BRANCH   1   8
ATOM      8  C1  UNL d   1      -0.306  -0.338  -1.560  0.00  0.00     0.053 C 
ATOM      9  C   UNL d   1       1.054  -1.018  -1.609  0.00  0.00     0.018 C 
ENDBRANCH   1   8
TORSDOF 1
ENDMDL
