MODEL 1
REMARK minimizedAffinity -4.75278282
REMARK minimizedRMSD -1
REMARK  1 active torsions:
REMARK  status: ('A' for Active; 'I' for Inactive)
REMARK    1  A    between atoms: C1_2  and  C2_3 
ROOT
ATOM      1  C2  UNL d   1       0.950  -0.370   0.655  0.00  0.00    -0.076 A 
ATOM      2  C3  UNL d   1       0.523  -0.355   1.994  0.00  0.00     0.004 A 
ATOM      3  C4  UNL d   1       1.161  -1.132   2.959  0.00  0.00    -0.003 A 
ATOM      4  C5  UNL d   1       2.237  -1.937   2.600  0.00  0.00     0.000 A 
ATOM      5  C6  UNL d   1       2.685  -1.951   1.280  0.00  0.00     0.000 A 
ATOM      6  C7  UNL d   1       2.063  -1.161   0.298  0.00  0.00    -0.073 A 
ATOM      7  C8  UNL d   1       2.584  -1.220  -1.112  0.00  0.00     0.078 C 
ENDROOT
BRANCH   1   8
ATOM      8  C1  UNL d   1       0.203   0.473  -0.353  0.00  0.00     0.053 C 
ATOM      9  C   UNL d   1      -0.932  -0.287  -1.023  0.00  0.00     0.018 C 
ENDBRANCH   1   8
TORSDOF 1
ENDMDL
