MODEL 1
REMARK minimizedAffinity -4.26168585
REMARK minimizedRMSD -1
REMARK  1 active torsions:
REMARK  status: ('A' for Active; 'I' for Inactive)
REMARK    1  A    between atoms: C1_2  and  C2_3 
ROOT
ATOM      1  C2  UNL d   1       1.162  -1.488   0.592  0.00  0.00    -0.076 A 
ATOM      2  C3  UNL d   1       1.193  -1.091  -0.756  0.00  0.00     0.004 A 
ATOM      3  C4  UNL d   1       0.110  -0.433  -1.335  0.00  0.00    -0.003 A 
ATOM      4  C5  UNL d   1      -1.022  -0.159  -0.575  0.00  0.00     0.000 A 
ATOM      5  C6  UNL d   1      -1.063  -0.529   0.769  0.00  0.00     0.000 A 
ATOM      6  C7  UNL d   1       0.028  -1.179   1.373  0.00  0.00    -0.073 A 
ATOM      7  C8  UNL d   1      -0.073  -1.561   2.824  0.00  0.00     0.078 C 
ENDROOT
BRANCH   1   8
ATOM      8  C1  UNL d   1       2.356  -2.223   1.158  0.00  0.00     0.053 C 
ATOM      9  C   UNL d   1       2.298  -3.719   0.892  0.00  0.00     0.018 C 
ENDBRANCH   1   8
TORSDOF 1
ENDMDL
