MODEL 1
REMARK minimizedAffinity -1.67318273
REMARK minimizedRMSD -1
REMARK  1 active torsions:
REMARK  status: ('A' for Active; 'I' for Inactive)
REMARK    1  A    between atoms: C1_2  and  C2_3 
ROOT
ATOM      1  C2  UNL d   1      -0.512   0.967  -1.306  0.00  0.00    -0.076 A 
ATOM      2  C3  UNL d   1       0.831   1.378  -1.245  0.00  0.00     0.004 A 
ATOM      3  C4  UNL d   1       1.260   2.527  -1.908  0.00  0.00    -0.003 A 
ATOM      4  C5  UNL d   1       0.353   3.283  -2.642  0.00  0.00     0.000 A 
ATOM      5  C6  UNL d   1      -0.987   2.900  -2.699  0.00  0.00     0.000 A 
ATOM      6  C7  UNL d   1      -1.439   1.753  -2.023  0.00  0.00    -0.073 A 
ATOM      7  C8  UNL d   1      -2.893   1.383  -2.123  0.00  0.00     0.078 C 
ENDROOT
BRANCH   1   8
ATOM      8  C1  UNL d   1      -0.914  -0.302  -0.589  0.00  0.00     0.053 C 
ATOM      9  C   UNL d   1      -0.949  -0.132   0.922  0.00  0.00     0.018 C 
ENDBRANCH   1   8
TORSDOF 1
ENDMDL
