MODEL 1
REMARK minimizedAffinity -2.26114202
REMARK minimizedRMSD -1
REMARK  1 active torsions:
REMARK  status: ('A' for Active; 'I' for Inactive)
REMARK    1  A    between atoms: C1_2  and  C2_3 
ROOT
ATOM      1  C2  UNL d   1      -0.637   0.188  -0.258  0.00  0.00    -0.076 A 
ATOM      2  C3  UNL d   1      -1.336   0.542   0.909  0.00  0.00     0.004 A 
ATOM      3  C4  UNL d   1      -0.961   0.033   2.152  0.00  0.00    -0.003 A 
ATOM      4  C5  UNL d   1       0.120  -0.836   2.248  0.00  0.00     0.000 A 
ATOM      5  C6  UNL d   1       0.836  -1.184   1.103  0.00  0.00     0.000 A 
ATOM      6  C7  UNL d   1       0.481  -0.668  -0.156  0.00  0.00    -0.073 A 
ATOM      7  C8  UNL d   1       1.285  -1.081  -1.358  0.00  0.00     0.078 C 
ENDROOT
BRANCH   1   8
ATOM      8  C1  UNL d   1      -1.106   0.749  -1.581  0.00  0.00     0.053 C 
ATOM      9  C   UNL d   1      -0.626   2.173  -1.813  0.00  0.00     0.018 C 
ENDBRANCH   1   8
TORSDOF 1
ENDMDL
