MODEL 1
REMARK minimizedAffinity -3.12402749
REMARK minimizedRMSD -1
REMARK  1 active torsions:
REMARK  status: ('A' for Active; 'I' for Inactive)
REMARK    1  A    between atoms: C1_2  and  C2_3 
ROOT
ATOM      1  C2  UNL d   1      -0.139  -0.439  -0.323  0.00  0.00    -0.076 A 
ATOM      2  C3  UNL d   1      -0.592  -0.228   0.991  0.00  0.00     0.004 A 
ATOM      3  C4  UNL d   1      -0.030  -0.919   2.063  0.00  0.00    -0.003 A 
ATOM      4  C5  UNL d   1       0.995  -1.832   1.838  0.00  0.00     0.000 A 
ATOM      5  C6  UNL d   1       1.469  -2.040   0.544  0.00  0.00     0.000 A 
ATOM      6  C7  UNL d   1       0.924  -1.340  -0.546  0.00  0.00    -0.073 A 
ATOM      7  C8  UNL d   1       1.469  -1.609  -1.922  0.00  0.00     0.078 C 
ENDROOT
BRANCH   1   8
ATOM      8  C1  UNL d   1      -0.806   0.319  -1.449  0.00  0.00     0.053 C 
ATOM      9  C   UNL d   1      -0.131   1.652  -1.733  0.00  0.00     0.018 C 
ENDBRANCH   1   8
TORSDOF 1
ENDMDL
