MODEL 1
REMARK minimizedAffinity -3.82985878
REMARK minimizedRMSD -1
REMARK  0 active torsions:
REMARK  status: ('A' for Active; 'I' for Inactive)
ROOT
ATOM      1  C1  DEN d   1       2.056  -0.001  -2.405  0.00  0.00     0.130 A 
ATOM      2  C2  DEN d   1       2.482  -1.076  -3.296  0.00  0.00    -0.031 A 
ATOM      3  C3  DEN d   1       1.324  -1.964  -3.527  0.00  0.00     0.027 A 
ATOM      4  C4  DEN d   1      -1.075  -1.775  -2.599  0.00  0.00     0.027 A 
ATOM      5  C5  DEN d   1      -1.911  -1.037  -1.791  0.00  0.00    -0.003 A 
ATOM      6  C6  DEN d   1      -1.479   0.070  -1.110  0.00  0.00     0.001 A 
ATOM      7  C7  DEN d   1      -0.186   0.497  -1.260  0.00  0.00     0.017 A 
ATOM      8  C8  DEN d   1       0.665  -0.247  -2.067  0.00  0.00    -0.094 A 
ATOM      9  C9  DEN d   1       0.206  -1.356  -2.757  0.00  0.00    -0.072 A 
ENDROOT
TORSDOF 0
ENDMDL
