MODEL 1
REMARK minimizedAffinity 2.72713566
REMARK minimizedRMSD -1
REMARK  0 active torsions:
REMARK  status: ('A' for Active; 'I' for Inactive)
ROOT
ATOM      1  C1  DEN d   1      -2.434   0.436   0.178  0.00  0.00     0.130 A 
ATOM      2  C2  DEN d   1      -2.867  -0.052  -1.129  0.00  0.00    -0.031 A 
ATOM      3  C3  DEN d   1      -1.661  -0.367  -1.921  0.00  0.00     0.027 A 
ATOM      4  C4  DEN d   1       0.821  -0.154  -1.251  0.00  0.00     0.027 A 
ATOM      5  C5  DEN d   1       1.684   0.225  -0.247  0.00  0.00    -0.003 A 
ATOM      6  C6  DEN d   1       1.240   0.729   0.946  0.00  0.00     0.001 A 
ATOM      7  C7  DEN d   1      -0.106   0.825   1.183  0.00  0.00     0.017 A 
ATOM      8  C8  DEN d   1      -0.982   0.452   0.173  0.00  0.00    -0.094 A 
ATOM      9  C9  DEN d   1      -0.514  -0.067  -1.022  0.00  0.00    -0.072 A 
ENDROOT
TORSDOF 0
ENDMDL
