MODEL 1
REMARK minimizedAffinity -4.74604797
REMARK minimizedRMSD -1
REMARK  0 active torsions:
REMARK  status: ('A' for Active; 'I' for Inactive)
ROOT
ATOM      1  C1  DEN d   1      -2.608  -0.660  -0.247  0.00  0.00     0.130 A 
ATOM      2  C2  DEN d   1      -2.389  -0.621   1.196  0.00  0.00    -0.031 A 
ATOM      3  C3  DEN d   1      -0.976  -0.265   1.434  0.00  0.00     0.027 A 
ATOM      4  C4  DEN d   1       0.883   0.233  -0.284  0.00  0.00     0.027 A 
ATOM      5  C5  DEN d   1       1.178   0.312  -1.627  0.00  0.00    -0.003 A 
ATOM      6  C6  DEN d   1       0.248   0.042  -2.597  0.00  0.00     0.001 A 
ATOM      7  C7  DEN d   1      -1.034  -0.276  -2.237  0.00  0.00     0.017 A 
ATOM      8  C8  DEN d   1      -1.338  -0.366  -0.884  0.00  0.00    -0.094 A 
ATOM      9  C9  DEN d   1      -0.387  -0.077   0.080  0.00  0.00    -0.072 A 
ENDROOT
TORSDOF 0
ENDMDL
