MODEL 1
REMARK minimizedAffinity -7.28546238
REMARK minimizedRMSD -1
REMARK  0 active torsions:
REMARK  status: ('A' for Active; 'I' for Inactive)
ROOT
ATOM      1  C1  DEN d   1      -3.422   0.038   1.499  0.00  0.00     0.130 A 
ATOM      2  C2  DEN d   1      -3.677   0.258   0.078  0.00  0.00    -0.031 A 
ATOM      3  C3  DEN d   1      -2.386   0.180  -0.635  0.00  0.00     0.027 A 
ATOM      4  C4  DEN d   1      -0.030  -0.264   0.318  0.00  0.00     0.027 A 
ATOM      5  C5  DEN d   1       0.689  -0.499   1.469  0.00  0.00    -0.003 A 
ATOM      6  C6  DEN d   1       0.098  -0.537   2.704  0.00  0.00     0.001 A 
ATOM      7  C7  DEN d   1      -1.259  -0.382   2.813  0.00  0.00     0.017 A 
ATOM      8  C8  DEN d   1      -1.990  -0.137   1.658  0.00  0.00    -0.094 A 
ATOM      9  C9  DEN d   1      -1.376  -0.114   0.417  0.00  0.00    -0.072 A 
ENDROOT
TORSDOF 0
ENDMDL
