MODEL 1
REMARK minimizedAffinity -4.84572268
REMARK minimizedRMSD -1
REMARK  0 active torsions:
REMARK  status: ('A' for Active; 'I' for Inactive)
ROOT
ATOM      1  C1  DEN d   1      -1.045   0.701  -0.532  0.00  0.00     0.130 A 
ATOM      2  C2  DEN d   1       0.395   0.905  -0.655  0.00  0.00    -0.031 A 
ATOM      3  C3  DEN d   1       1.014   0.590   0.649  0.00  0.00     0.027 A 
ATOM      4  C4  DEN d   1      -0.114  -0.193   2.832  0.00  0.00     0.027 A 
ATOM      5  C5  DEN d   1      -1.318  -0.498   3.427  0.00  0.00    -0.003 A 
ATOM      6  C6  DEN d   1      -2.509  -0.393   2.759  0.00  0.00     0.001 A 
ATOM      7  C7  DEN d   1      -2.519  -0.015   1.442  0.00  0.00     0.017 A 
ATOM      8  C8  DEN d   1      -1.309   0.301   0.838  0.00  0.00    -0.094 A 
ATOM      9  C9  DEN d   1      -0.114   0.176   1.526  0.00  0.00    -0.072 A 
ENDROOT
TORSDOF 0
ENDMDL
