MODEL 1
REMARK minimizedAffinity -7.30460167
REMARK minimizedRMSD -1
REMARK  0 active torsions:
REMARK  status: ('A' for Active; 'I' for Inactive)
ROOT
ATOM      1  C1  DEN d   1       0.321  -0.367   1.995  0.00  0.00     0.130 A 
ATOM      2  C2  DEN d   1      -0.156  -0.504   3.368  0.00  0.00    -0.031 A 
ATOM      3  C3  DEN d   1      -1.625  -0.359   3.358  0.00  0.00     0.027 A 
ATOM      4  C4  DEN d   1      -3.201   0.058   1.359  0.00  0.00     0.027 A 
ATOM      5  C5  DEN d   1      -3.258   0.257  -0.002  0.00  0.00    -0.003 A 
ATOM      6  C6  DEN d   1      -2.133   0.295  -0.783  0.00  0.00     0.001 A 
ATOM      7  C7  DEN d   1      -0.905   0.087  -0.213  0.00  0.00     0.017 A 
ATOM      8  C8  DEN d   1      -0.839  -0.107   1.160  0.00  0.00    -0.094 A 
ATOM      9  C9  DEN d   1      -1.988  -0.154   1.930  0.00  0.00    -0.072 A 
ENDROOT
TORSDOF 0
ENDMDL
