MODEL 1
REMARK minimizedAffinity -7.2333684
REMARK minimizedRMSD -1
REMARK  0 active torsions:
REMARK  status: ('A' for Active; 'I' for Inactive)
ROOT
ATOM      1  C1  DEN d   1       0.346  -0.009  -0.671  0.00  0.00     0.130 A 
ATOM      2  C2  DEN d   1      -0.384   0.320  -1.892  0.00  0.00    -0.031 A 
ATOM      3  C3  DEN d   1      -1.811   0.473  -1.543  0.00  0.00     0.027 A 
ATOM      4  C4  DEN d   1      -2.953   0.240   0.757  0.00  0.00     0.027 A 
ATOM      5  C5  DEN d   1      -2.746  -0.041   2.090  0.00  0.00    -0.003 A 
ATOM      6  C6  DEN d   1      -1.510  -0.361   2.586  0.00  0.00     0.001 A 
ATOM      7  C7  DEN d   1      -0.424  -0.364   1.751  0.00  0.00     0.017 A 
ATOM      8  C8  DEN d   1      -0.626  -0.090   0.404  0.00  0.00    -0.094 A 
ATOM      9  C9  DEN d   1      -1.881   0.244  -0.075  0.00  0.00    -0.072 A 
ENDROOT
TORSDOF 0
ENDMDL
