MODEL 1
REMARK minimizedAffinity -7.59319305
REMARK minimizedRMSD -1
REMARK  0 active torsions:
REMARK  status: ('A' for Active; 'I' for Inactive)
ROOT
ATOM      1  C1  DEN d   1      -1.129   0.318  -0.584  0.00  0.00     0.130 A 
ATOM      2  C2  DEN d   1       0.320   0.140  -0.560  0.00  0.00    -0.031 A 
ATOM      3  C3  DEN d   1       0.709  -0.253   0.809  0.00  0.00     0.027 A 
ATOM      4  C4  DEN d   1      -0.785  -0.605   2.882  0.00  0.00     0.027 A 
ATOM      5  C5  DEN d   1      -2.078  -0.560   3.355  0.00  0.00    -0.003 A 
ATOM      6  C6  DEN d   1      -3.132  -0.189   2.563  0.00  0.00     0.001 A 
ATOM      7  C7  DEN d   1      -2.918   0.108   1.243  0.00  0.00     0.017 A 
ATOM      8  C8  DEN d   1      -1.616   0.072   0.761  0.00  0.00    -0.094 A 
ATOM      9  C9  DEN d   1      -0.566  -0.318   1.574  0.00  0.00    -0.072 A 
ENDROOT
TORSDOF 0
ENDMDL
