MODEL 1
REMARK minimizedAffinity -2.62007976
REMARK minimizedRMSD -1
REMARK  0 active torsions:
REMARK  status: ('A' for Active; 'I' for Inactive)
ROOT
ATOM      1  C1  DEN d   1      -1.481  -1.941  -2.797  0.00  0.00     0.130 A 
ATOM      2  C2  DEN d   1      -2.173  -1.314  -1.674  0.00  0.00    -0.031 A 
ATOM      3  C3  DEN d   1      -1.297  -0.256  -1.132  0.00  0.00     0.027 A 
ATOM      4  C4  DEN d   1       1.049   0.471  -1.921  0.00  0.00     0.027 A 
ATOM      5  C5  DEN d   1       2.054   0.224  -2.830  0.00  0.00    -0.003 A 
ATOM      6  C6  DEN d   1       1.966  -0.776  -3.762  0.00  0.00     0.001 A 
ATOM      7  C7  DEN d   1       0.830  -1.537  -3.835  0.00  0.00     0.017 A 
ATOM      8  C8  DEN d   1      -0.185  -1.299  -2.917  0.00  0.00    -0.094 A 
ATOM      9  C9  DEN d   1      -0.082  -0.276  -1.991  0.00  0.00    -0.072 A 
ENDROOT
TORSDOF 0
ENDMDL
