MODEL 1
REMARK minimizedAffinity -4.12019825
REMARK minimizedRMSD -1
REMARK  0 active torsions:
REMARK  status: ('A' for Active; 'I' for Inactive)
ROOT
ATOM      1  C1  DEN d   1       0.078   0.873  -0.679  0.00  0.00     0.130 A 
ATOM      2  C2  DEN d   1      -1.256   0.415  -0.304  0.00  0.00    -0.031 A 
ATOM      3  C3  DEN d   1      -1.601  -0.737  -1.162  0.00  0.00     0.027 A 
ATOM      4  C4  DEN d   1      -0.203  -1.851  -3.021  0.00  0.00     0.027 A 
ATOM      5  C5  DEN d   1       0.989  -1.805  -3.709  0.00  0.00    -0.003 A 
ATOM      6  C6  DEN d   1       1.940  -0.851  -3.461  0.00  0.00     0.001 A 
ATOM      7  C7  DEN d   1       1.733   0.070  -2.468  0.00  0.00     0.017 A 
ATOM      8  C8  DEN d   1       0.530   0.036  -1.775  0.00  0.00    -0.094 A 
ATOM      9  C9  DEN d   1      -0.413  -0.945  -2.033  0.00  0.00    -0.072 A 
ENDROOT
TORSDOF 0
ENDMDL
