MODEL 1
REMARK minimizedAffinity -6.66968155
REMARK minimizedRMSD -1
REMARK  0 active torsions:
REMARK  status: ('A' for Active; 'I' for Inactive)
ROOT
ATOM      1  C1  DEN d   1      -2.118  -1.481  -0.470  0.00  0.00     0.130 A 
ATOM      2  C2  DEN d   1      -1.616  -0.787  -1.652  0.00  0.00    -0.031 A 
ATOM      3  C3  DEN d   1      -0.464   0.041  -1.241  0.00  0.00     0.027 A 
ATOM      4  C4  DEN d   1       0.588   0.310   1.099  0.00  0.00     0.027 A 
ATOM      5  C5  DEN d   1       0.499  -0.071   2.420  0.00  0.00    -0.003 A 
ATOM      6  C6  DEN d   1      -0.480  -0.914   2.873  0.00  0.00     0.001 A 
ATOM      7  C7  DEN d   1      -1.384  -1.442   1.989  0.00  0.00     0.017 A 
ATOM      8  C8  DEN d   1      -1.306  -1.057   0.657  0.00  0.00    -0.094 A 
ATOM      9  C9  DEN d   1      -0.301  -0.212   0.216  0.00  0.00    -0.072 A 
ENDROOT
TORSDOF 0
ENDMDL
