MODEL 1
REMARK minimizedAffinity 2.38442373
REMARK minimizedRMSD -1
REMARK  1 active torsions:
REMARK  status: ('A' for Active; 'I' for Inactive)
REMARK    1  A    between atoms: C3_4  and  O_7 
ROOT
ATOM      1  C   UNL d   1       1.963  -0.739   1.192  0.00  0.00    -0.033 A 
ATOM      2  C1  UNL d   1       2.208   0.352   2.029  0.00  0.00     0.039 A 
ATOM      3  C2  UNL d   1       2.267   0.173   3.412  0.00  0.00    -0.080 A 
ATOM      4  C3  UNL d   1       2.082  -1.099   3.946  0.00  0.00     0.150 A 
ATOM      5  C4  UNL d   1       1.842  -2.191   3.118  0.00  0.00    -0.007 A 
ATOM      6  C5  UNL d   1       1.782  -2.011   1.737  0.00  0.00     0.039 A 
ENDROOT
BRANCH   4   7
ATOM      7  O   UNL d   1       2.127  -1.322   5.290  0.00  0.00    -0.526 OA
ATOM      8  H5  UNL d   1       2.272  -0.472   5.738  0.00  0.00     0.418 HD
ENDBRANCH   4   7
TORSDOF 1
ENDMDL
