MODEL 1
REMARK minimizedAffinity 2.67337728
REMARK minimizedRMSD -1
REMARK  1 active torsions:
REMARK  status: ('A' for Active; 'I' for Inactive)
REMARK    1  A    between atoms: C3_4  and  O_7 
ROOT
ATOM      1  C   UNL d   1       6.000  -2.726   5.128  0.00  0.00    -0.033 A 
ATOM      2  C1  UNL d   1       4.923  -2.553   6.000  0.00  0.00     0.039 A 
ATOM      3  C2  UNL d   1       3.653  -2.265   5.495  0.00  0.00    -0.080 A 
ATOM      4  C3  UNL d   1       3.474  -2.154   4.119  0.00  0.00     0.150 A 
ATOM      5  C4  UNL d   1       4.542  -2.329   3.245  0.00  0.00    -0.007 A 
ATOM      6  C5  UNL d   1       5.809  -2.616   3.750  0.00  0.00     0.039 A 
ENDROOT
BRANCH   4   7
ATOM      7  O   UNL d   1       2.255  -1.870   3.580  0.00  0.00    -0.526 OA
ATOM      8  H5  UNL d   1       1.619  -1.746   4.305  0.00  0.00     0.418 HD
ENDBRANCH   4   7
TORSDOF 1
ENDMDL
