MODEL 1
REMARK minimizedAffinity 1.03648305
REMARK minimizedRMSD -1
REMARK  1 active torsions:
REMARK  status: ('A' for Active; 'I' for Inactive)
REMARK    1  A    between atoms: C3_4  and  O_7 
ROOT
ATOM      1  C   UNL d   1       5.990  -2.809   5.164  0.00  0.00    -0.033 A 
ATOM      2  C1  UNL d   1       4.945  -3.223   5.992  0.00  0.00     0.039 A 
ATOM      3  C2  UNL d   1       3.622  -2.961   5.632  0.00  0.00    -0.080 A 
ATOM      4  C3  UNL d   1       3.357  -2.285   4.444  0.00  0.00     0.150 A 
ATOM      5  C4  UNL d   1       4.394  -1.873   3.613  0.00  0.00    -0.007 A 
ATOM      6  C5  UNL d   1       5.715  -2.135   3.974  0.00  0.00     0.039 A 
ENDROOT
BRANCH   4   7
ATOM      7  O   UNL d   1       2.082  -2.002   4.054  0.00  0.00    -0.526 OA
ATOM      8  H5  UNL d   1       1.472  -2.321   4.740  0.00  0.00     0.418 HD
ENDBRANCH   4   7
TORSDOF 1
ENDMDL
