MODEL 1
REMARK minimizedAffinity 0.930792391
REMARK minimizedRMSD -1
REMARK  1 active torsions:
REMARK  status: ('A' for Active; 'I' for Inactive)
REMARK    1  A    between atoms: C3_4  and  O_7 
ROOT
ATOM      1  C   UNL d   1       1.858  -2.555   4.854  0.00  0.00    -0.033 A 
ATOM      2  C1  UNL d   1       2.556  -2.175   3.706  0.00  0.00     0.039 A 
ATOM      3  C2  UNL d   1       3.952  -2.178   3.703  0.00  0.00    -0.080 A 
ATOM      4  C3  UNL d   1       4.637  -2.563   4.852  0.00  0.00     0.150 A 
ATOM      5  C4  UNL d   1       3.948  -2.947   5.997  0.00  0.00    -0.007 A 
ATOM      6  C5  UNL d   1       2.554  -2.943   5.999  0.00  0.00     0.039 A 
ENDROOT
BRANCH   4   7
ATOM      7  O   UNL d   1       6.000  -2.578   4.898  0.00  0.00    -0.526 OA
ATOM      8  H5  UNL d   1       6.340  -2.261   4.045  0.00  0.00     0.418 HD
ENDBRANCH   4   7
TORSDOF 1
ENDMDL
