MODEL 1
REMARK minimizedAffinity -1.33293235
REMARK minimizedRMSD -1
REMARK  1 active torsions:
REMARK  status: ('A' for Active; 'I' for Inactive)
REMARK    1  A    between atoms: C3_4  and  O_7 
ROOT
ATOM      1  C   UNL d   1       2.031  -1.891   4.182  0.00  0.00    -0.033 A 
ATOM      2  C1  UNL d   1       3.175  -1.621   3.428  0.00  0.00     0.039 A 
ATOM      3  C2  UNL d   1       4.440  -1.879   3.960  0.00  0.00    -0.080 A 
ATOM      4  C3  UNL d   1       4.547  -2.406   5.244  0.00  0.00     0.150 A 
ATOM      5  C4  UNL d   1       3.412  -2.681   5.998  0.00  0.00    -0.007 A 
ATOM      6  C5  UNL d   1       2.149  -2.422   5.466  0.00  0.00     0.039 A 
ENDROOT
BRANCH   4   7
ATOM      7  O   UNL d   1       5.760  -2.670   5.807  0.00  0.00    -0.526 OA
ATOM      8  H5  UNL d   1       6.454  -2.404   5.181  0.00  0.00     0.418 HD
ENDBRANCH   4   7
TORSDOF 1
ENDMDL
