MODEL 1
REMARK minimizedAffinity 9.37793255
REMARK minimizedRMSD -1
REMARK  1 active torsions:
REMARK  status: ('A' for Active; 'I' for Inactive)
REMARK    1  A    between atoms: C3_4  and  O_7 
ROOT
ATOM      1  C   UNL d   1       1.871  -2.018   4.157  0.00  0.00    -0.033 A 
ATOM      2  C1  UNL d   1       2.327  -2.433   5.409  0.00  0.00     0.039 A 
ATOM      3  C2  UNL d   1       3.690  -2.653   5.620  0.00  0.00    -0.080 A 
ATOM      4  C3  UNL d   1       4.584  -2.454   4.572  0.00  0.00     0.150 A 
ATOM      5  C4  UNL d   1       4.137  -2.038   3.323  0.00  0.00    -0.007 A 
ATOM      6  C5  UNL d   1       2.776  -1.819   3.114  0.00  0.00     0.039 A 
ENDROOT
BRANCH   4   7
ATOM      7  O   UNL d   1       5.923  -2.661   4.729  0.00  0.00    -0.526 OA
ATOM      8  H5  UNL d   1       6.082  -2.974   5.635  0.00  0.00     0.418 HD
ENDBRANCH   4   7
TORSDOF 1
ENDMDL
