MODEL 1
REMARK minimizedAffinity 0.621234119
REMARK minimizedRMSD -1
REMARK  1 active torsions:
REMARK  status: ('A' for Active; 'I' for Inactive)
REMARK    1  A    between atoms: C3_4  and  O_7 
ROOT
ATOM      1  C   UNL d   1       1.911  -0.932   3.074  0.00  0.00    -0.033 A 
ATOM      2  C1  UNL d   1       2.021  -1.780   4.177  0.00  0.00     0.039 A 
ATOM      3  C2  UNL d   1       2.504  -3.080   4.016  0.00  0.00    -0.080 A 
ATOM      4  C3  UNL d   1       2.873  -3.519   2.747  0.00  0.00     0.150 A 
ATOM      5  C4  UNL d   1       2.770  -2.678   1.644  0.00  0.00    -0.007 A 
ATOM      6  C5  UNL d   1       2.287  -1.381   1.807  0.00  0.00     0.039 A 
ENDROOT
BRANCH   4   7
ATOM      7  O   UNL d   1       3.345  -4.781   2.540  0.00  0.00    -0.526 OA
ATOM      8  H5  UNL d   1       3.334  -5.257   3.387  0.00  0.00     0.418 HD
ENDBRANCH   4   7
TORSDOF 1
ENDMDL
