MODEL 1
REMARK minimizedAffinity 5.38145208
REMARK minimizedRMSD -1
REMARK  1 active torsions:
REMARK  status: ('A' for Active; 'I' for Inactive)
REMARK    1  A    between atoms: C3_4  and  O_7 
ROOT
ATOM      1  C   UNL d   1      -1.097   5.093  -2.880  0.00  0.00    -0.033 A 
ATOM      2  C1  UNL d   1      -0.583   3.904  -2.359  0.00  0.00     0.039 A 
ATOM      3  C2  UNL d   1      -1.432   2.822  -2.116  0.00  0.00    -0.080 A 
ATOM      4  C3  UNL d   1      -2.789   2.942  -2.400  0.00  0.00     0.150 A 
ATOM      5  C4  UNL d   1      -3.307   4.122  -2.923  0.00  0.00    -0.007 A 
ATOM      6  C5  UNL d   1      -2.458   5.202  -3.164  0.00  0.00     0.039 A 
ENDROOT
BRANCH   4   7
ATOM      7  O   UNL d   1      -3.657   1.915  -2.175  0.00  0.00    -0.526 OA
ATOM      8  H5  UNL d   1      -3.163   1.174  -1.786  0.00  0.00     0.418 HD
ENDBRANCH   4   7
TORSDOF 1
ENDMDL
