MODEL 1
REMARK minimizedAffinity 4.69451714
REMARK minimizedRMSD -1
REMARK  1 active torsions:
REMARK  status: ('A' for Active; 'I' for Inactive)
REMARK    1  A    between atoms: C3_4  and  O_7 
ROOT
ATOM      1  C   UNL d   1      -5.950  -0.689   3.161  0.00  0.00    -0.033 A 
ATOM      2  C1  UNL d   1      -5.970  -2.021   2.743  0.00  0.00     0.039 A 
ATOM      3  C2  UNL d   1      -5.987  -3.051   3.685  0.00  0.00    -0.080 A 
ATOM      4  C3  UNL d   1      -5.985  -2.736   5.041  0.00  0.00     0.150 A 
ATOM      5  C4  UNL d   1      -5.970  -1.412   5.466  0.00  0.00    -0.007 A 
ATOM      6  C5  UNL d   1      -5.952  -0.385   4.523  0.00  0.00     0.039 A 
ENDROOT
BRANCH   4   7
ATOM      7  O   UNL d   1      -5.996  -3.707   5.998  0.00  0.00    -0.526 OA
ATOM      8  H5  UNL d   1      -5.977  -4.573   5.558  0.00  0.00     0.418 HD
ENDBRANCH   4   7
TORSDOF 1
ENDMDL
