MODEL 1
REMARK minimizedAffinity 8.00668621
REMARK minimizedRMSD -1
REMARK  1 active torsions:
REMARK  status: ('A' for Active; 'I' for Inactive)
REMARK    1  A    between atoms: C3_4  and  O_7 
ROOT
ATOM      1  C   UNL d   1      -4.115   0.682  -1.046  0.00  0.00    -0.033 A 
ATOM      2  C1  UNL d   1      -5.319  -0.019  -0.947  0.00  0.00     0.039 A 
ATOM      3  C2  UNL d   1      -5.968  -0.125   0.284  0.00  0.00    -0.080 A 
ATOM      4  C3  UNL d   1      -5.405   0.474   1.408  0.00  0.00     0.150 A 
ATOM      5  C4  UNL d   1      -4.208   1.177   1.316  0.00  0.00    -0.007 A 
ATOM      6  C5  UNL d   1      -3.561   1.281   0.085  0.00  0.00     0.039 A 
ENDROOT
BRANCH   4   7
ATOM      7  O   UNL d   1      -5.999   0.394   2.632  0.00  0.00    -0.526 OA
ATOM      8  H5  UNL d   1      -6.803  -0.146   2.549  0.00  0.00     0.418 HD
ENDBRANCH   4   7
TORSDOF 1
ENDMDL
