MODEL 1
REMARK minimizedAffinity 0.807447255
REMARK minimizedRMSD -1
REMARK  1 active torsions:
REMARK  status: ('A' for Active; 'I' for Inactive)
REMARK    1  A    between atoms: C3_4  and  O_7 
ROOT
ATOM      1  C   UNL d   1      -5.232  -2.290   4.508  0.00  0.00    -0.033 A 
ATOM      2  C1  UNL d   1      -4.318  -2.579   3.492  0.00  0.00     0.039 A 
ATOM      3  C2  UNL d   1      -4.174  -1.706   2.412  0.00  0.00    -0.080 A 
ATOM      4  C3  UNL d   1      -4.947  -0.550   2.359  0.00  0.00     0.150 A 
ATOM      5  C4  UNL d   1      -5.856  -0.254   3.369  0.00  0.00    -0.007 A 
ATOM      6  C5  UNL d   1      -6.000  -1.127   4.447  0.00  0.00     0.039 A 
ENDROOT
BRANCH   4   7
ATOM      7  O   UNL d   1      -4.844   0.329   1.322  0.00  0.00    -0.526 OA
ATOM      8  H5  UNL d   1      -4.198  -0.020   0.686  0.00  0.00     0.418 HD
ENDBRANCH   4   7
TORSDOF 1
ENDMDL
