MODEL 1
REMARK minimizedAffinity 4.60884953
REMARK minimizedRMSD -1
REMARK  1 active torsions:
REMARK  status: ('A' for Active; 'I' for Inactive)
REMARK    1  A    between atoms: C3_4  and  O_7 
ROOT
ATOM      1  C   UNL d   1      -0.578   1.261   3.049  0.00  0.00    -0.033 A 
ATOM      2  C1  UNL d   1      -1.653   1.794   2.335  0.00  0.00     0.039 A 
ATOM      3  C2  UNL d   1      -1.441   2.394   1.093  0.00  0.00    -0.080 A 
ATOM      4  C3  UNL d   1      -0.150   2.455   0.575  0.00  0.00     0.150 A 
ATOM      5  C4  UNL d   1       0.926   1.923   1.279  0.00  0.00    -0.007 A 
ATOM      6  C5  UNL d   1       0.712   1.324   2.520  0.00  0.00     0.039 A 
ENDROOT
BRANCH   4   7
ATOM      7  O   UNL d   1       0.108   3.035  -0.631  0.00  0.00    -0.526 OA
ATOM      8  H5  UNL d   1      -0.726   3.384  -0.989  0.00  0.00     0.418 HD
ENDBRANCH   4   7
TORSDOF 1
ENDMDL
