MODEL 1
REMARK minimizedAffinity 1.74011886
REMARK minimizedRMSD -1
REMARK  1 active torsions:
REMARK  status: ('A' for Active; 'I' for Inactive)
REMARK    1  A    between atoms: C3_4  and  O_7 
ROOT
ATOM      1  C   UNL d   1      -4.877  -2.626   4.338  0.00  0.00    -0.033 A 
ATOM      2  C1  UNL d   1      -6.000  -1.801   4.425  0.00  0.00     0.039 A 
ATOM      3  C2  UNL d   1      -5.999  -0.550   3.805  0.00  0.00    -0.080 A 
ATOM      4  C3  UNL d   1      -4.871  -0.137   3.102  0.00  0.00     0.150 A 
ATOM      5  C4  UNL d   1      -3.750  -0.955   3.007  0.00  0.00    -0.007 A 
ATOM      6  C5  UNL d   1      -3.753  -2.204   3.628  0.00  0.00     0.039 A 
ENDROOT
BRANCH   4   7
ATOM      7  O   UNL d   1      -4.821   1.078   2.485  0.00  0.00    -0.526 OA
ATOM      8  H5  UNL d   1      -5.655   1.546   2.659  0.00  0.00     0.418 HD
ENDBRANCH   4   7
TORSDOF 1
ENDMDL
