MODEL 1
REMARK minimizedAffinity -1.04994059
REMARK minimizedRMSD -1
REMARK  1 active torsions:
REMARK  status: ('A' for Active; 'I' for Inactive)
REMARK    1  A    between atoms: C3_4  and  O_7 
ROOT
ATOM      1  C   UNL d   1      -4.066  -5.391  -5.979  0.00  0.00    -0.033 A 
ATOM      2  C1  UNL d   1      -4.245  -4.006  -5.994  0.00  0.00     0.039 A 
ATOM      3  C2  UNL d   1      -3.136  -3.157  -6.000  0.00  0.00    -0.080 A 
ATOM      4  C3  UNL d   1      -1.856  -3.705  -5.991  0.00  0.00     0.150 A 
ATOM      5  C4  UNL d   1      -1.671  -5.083  -5.980  0.00  0.00    -0.007 A 
ATOM      6  C5  UNL d   1      -2.779  -5.929  -5.974  0.00  0.00     0.039 A 
ENDROOT
BRANCH   4   7
ATOM      7  O   UNL d   1      -0.744  -2.916  -5.991  0.00  0.00    -0.526 OA
ATOM      8  H5  UNL d   1      -1.026  -1.987  -5.970  0.00  0.00     0.418 HD
ENDBRANCH   4   7
TORSDOF 1
ENDMDL
