MODEL 1
REMARK minimizedAffinity -1.81976855
REMARK minimizedRMSD -1
REMARK  1 active torsions:
REMARK  status: ('A' for Active; 'I' for Inactive)
REMARK    1  A    between atoms: C3_4  and  O_7 
ROOT
ATOM      1  C   UNL d   1      -5.635  -0.242   3.143  0.00  0.00    -0.033 A 
ATOM      2  C1  UNL d   1      -4.896  -1.002   2.235  0.00  0.00     0.039 A 
ATOM      3  C2  UNL d   1      -4.517  -2.306   2.558  0.00  0.00    -0.080 A 
ATOM      4  C3  UNL d   1      -4.883  -2.838   3.792  0.00  0.00     0.150 A 
ATOM      5  C4  UNL d   1      -5.623  -2.088   4.700  0.00  0.00    -0.007 A 
ATOM      6  C5  UNL d   1      -6.000  -0.785   4.375  0.00  0.00     0.039 A 
ENDROOT
BRANCH   4   7
ATOM      7  O   UNL d   1      -4.532  -4.104   4.154  0.00  0.00    -0.526 OA
ATOM      8  H5  UNL d   1      -3.999  -4.492   3.440  0.00  0.00     0.418 HD
ENDBRANCH   4   7
TORSDOF 1
ENDMDL
