MODEL 1
REMARK minimizedAffinity 1.65387261
REMARK minimizedRMSD -1
REMARK  1 active torsions:
REMARK  status: ('A' for Active; 'I' for Inactive)
REMARK    1  A    between atoms: C3_4  and  O_7 
ROOT
ATOM      1  C   UNL d   1      -4.263   4.902  -4.320  0.00  0.00    -0.033 A 
ATOM      2  C1  UNL d   1      -3.690   4.467  -5.516  0.00  0.00     0.039 A 
ATOM      3  C2  UNL d   1      -2.368   4.799  -5.821  0.00  0.00    -0.080 A 
ATOM      4  C3  UNL d   1      -1.632   5.566  -4.922  0.00  0.00     0.150 A 
ATOM      5  C4  UNL d   1      -2.195   6.000  -3.727  0.00  0.00    -0.007 A 
ATOM      6  C5  UNL d   1      -3.515   5.668  -3.425  0.00  0.00     0.039 A 
ENDROOT
BRANCH   4   7
ATOM      7  O   UNL d   1      -0.340   5.920  -5.178  0.00  0.00    -0.526 OA
ATOM      8  H5  UNL d   1      -0.094   5.574  -6.052  0.00  0.00     0.418 HD
ENDBRANCH   4   7
TORSDOF 1
ENDMDL
