MODEL 1
REMARK minimizedAffinity 1.27034807
REMARK minimizedRMSD -1
REMARK  1 active torsions:
REMARK  status: ('A' for Active; 'I' for Inactive)
REMARK    1  A    between atoms: C3_4  and  O_7 
ROOT
ATOM      1  C   UNL d   1      -5.308  -6.000  -5.137  0.00  0.00    -0.033 A 
ATOM      2  C1  UNL d   1      -3.957  -5.894  -4.799  0.00  0.00     0.039 A 
ATOM      3  C2  UNL d   1      -3.294  -4.673  -4.938  0.00  0.00    -0.080 A 
ATOM      4  C3  UNL d   1      -3.992  -3.567  -5.415  0.00  0.00     0.150 A 
ATOM      5  C4  UNL d   1      -5.339  -3.664  -5.751  0.00  0.00    -0.007 A 
ATOM      6  C5  UNL d   1      -5.999  -4.885  -5.612  0.00  0.00     0.039 A 
ENDROOT
BRANCH   4   7
ATOM      7  O   UNL d   1      -3.387  -2.356  -5.573  0.00  0.00    -0.526 OA
ATOM      8  H5  UNL d   1      -2.450  -2.446  -5.329  0.00  0.00     0.418 HD
ENDBRANCH   4   7
TORSDOF 1
ENDMDL
