MODEL 1
REMARK minimizedAffinity 0.177358523
REMARK minimizedRMSD -1
REMARK  1 active torsions:
REMARK  status: ('A' for Active; 'I' for Inactive)
REMARK    1  A    between atoms: C1_2  and  C2_3 
ROOT
ATOM      1  C2  UNL d   1      -0.868   1.118   1.456  0.00  0.00    -0.081 A 
ATOM      2  C3  UNL d   1       0.034   0.061   1.282  0.00  0.00     0.006 A 
ATOM      3  C4  UNL d   1       0.475  -0.291   0.004  0.00  0.00     0.002 A 
ATOM      4  C5  UNL d   1       0.028   0.412  -1.120  0.00  0.00    -0.080 A 
ATOM      5  C6  UNL d   1       0.516   0.063  -2.494  0.00  0.00     0.076 C 
ATOM      6  C7  UNL d   1      -0.887   1.456  -0.948  0.00  0.00     0.002 A 
ATOM      7  C8  UNL d   1      -1.329   1.809   0.329  0.00  0.00     0.006 A 
ENDROOT
BRANCH   1   8
ATOM      8  C1  UNL d   1      -1.295   1.542   2.838  0.00  0.00     0.054 C 
ATOM      9  C   UNL d   1      -0.247   2.431   3.492  0.00  0.00     0.018 C 
ENDBRANCH   1   8
TORSDOF 1
ENDMDL
