MODEL 1
REMARK minimizedAffinity -3.93807173
REMARK minimizedRMSD -1
REMARK  1 active torsions:
REMARK  status: ('A' for Active; 'I' for Inactive)
REMARK    1  A    between atoms: C1_2  and  C2_3 
ROOT
ATOM      1  C2  UNL d   1       0.764  -0.899  -0.919  0.00  0.00    -0.081 A 
ATOM      2  C3  UNL d   1       0.093  -1.386   0.210  0.00  0.00     0.006 A 
ATOM      3  C4  UNL d   1      -0.464  -0.503   1.138  0.00  0.00     0.002 A 
ATOM      4  C5  UNL d   1      -0.366   0.880   0.950  0.00  0.00    -0.080 A 
ATOM      5  C6  UNL d   1      -0.985   1.839   1.923  0.00  0.00     0.076 C 
ATOM      6  C7  UNL d   1       0.320   1.366  -0.168  0.00  0.00     0.002 A 
ATOM      7  C8  UNL d   1       0.878   0.484  -1.097  0.00  0.00     0.006 A 
ENDROOT
BRANCH   1   8
ATOM      8  C1  UNL d   1       1.309  -1.849  -1.955  0.00  0.00     0.054 C 
ATOM      9  C   UNL d   1       0.285  -2.912  -2.324  0.00  0.00     0.018 C 
ENDBRANCH   1   8
TORSDOF 1
ENDMDL
