MODEL 1
REMARK minimizedAffinity -2.26733398
REMARK minimizedRMSD -1
REMARK  1 active torsions:
REMARK  status: ('A' for Active; 'I' for Inactive)
REMARK    1  A    between atoms: C1_2  and  C2_3 
ROOT
ATOM      1  C2  UNL d   1       0.094  -0.673  -0.595  0.00  0.00    -0.081 A 
ATOM      2  C3  UNL d   1       0.073  -0.781   0.801  0.00  0.00     0.006 A 
ATOM      3  C4  UNL d   1      -0.724   0.074   1.566  0.00  0.00     0.002 A 
ATOM      4  C5  UNL d   1      -1.520   1.045   0.948  0.00  0.00    -0.080 A 
ATOM      5  C6  UNL d   1      -2.404   1.948   1.755  0.00  0.00     0.076 C 
ATOM      6  C7  UNL d   1      -1.487   1.164  -0.446  0.00  0.00     0.002 A 
ATOM      7  C8  UNL d   1      -0.689   0.310  -1.211  0.00  0.00     0.006 A 
ENDROOT
BRANCH   1   8
ATOM      8  C1  UNL d   1       0.903  -1.635  -1.426  0.00  0.00     0.054 C 
ATOM      9  C   UNL d   1       0.008  -2.644  -2.133  0.00  0.00     0.018 C 
ENDBRANCH   1   8
TORSDOF 1
ENDMDL
