MODEL 1
REMARK minimizedAffinity -2.85272026
REMARK minimizedRMSD -1
REMARK  1 active torsions:
REMARK  status: ('A' for Active; 'I' for Inactive)
REMARK    1  A    between atoms: C1_2  and  C2_3 
ROOT
ATOM      1  C2  UNL d   1      -0.703   1.491   0.389  0.00  0.00    -0.081 A 
ATOM      2  C3  UNL d   1      -0.871   1.610   1.774  0.00  0.00     0.006 A 
ATOM      3  C4  UNL d   1      -0.617   0.524   2.615  0.00  0.00     0.002 A 
ATOM      4  C5  UNL d   1      -0.185  -0.697   2.086  0.00  0.00    -0.080 A 
ATOM      5  C6  UNL d   1       0.120  -1.862   2.980  0.00  0.00     0.076 C 
ATOM      6  C7  UNL d   1      -0.034  -0.822   0.701  0.00  0.00     0.002 A 
ATOM      7  C8  UNL d   1      -0.288   0.264  -0.140  0.00  0.00     0.006 A 
ENDROOT
BRANCH   1   8
ATOM      8  C1  UNL d   1      -0.913   2.679  -0.514  0.00  0.00     0.054 C 
ATOM      9  C   UNL d   1       0.319   2.953  -1.364  0.00  0.00     0.018 C 
ENDBRANCH   1   8
TORSDOF 1
ENDMDL
