MODEL 1
REMARK minimizedAffinity -3.81749511
REMARK minimizedRMSD -1
REMARK  1 active torsions:
REMARK  status: ('A' for Active; 'I' for Inactive)
REMARK    1  A    between atoms: C1_2  and  C2_3 
ROOT
ATOM      1  C2  UNL d   1       0.396  -0.085   0.121  0.00  0.00    -0.081 A 
ATOM      2  C3  UNL d   1      -0.308  -0.265   1.318  0.00  0.00     0.006 A 
ATOM      3  C4  UNL d   1      -1.301   0.640   1.699  0.00  0.00     0.002 A 
ATOM      4  C5  UNL d   1      -1.613   1.735   0.886  0.00  0.00    -0.080 A 
ATOM      5  C6  UNL d   1      -2.698   2.697   1.269  0.00  0.00     0.076 C 
ATOM      6  C7  UNL d   1      -0.898   1.926  -0.301  0.00  0.00     0.002 A 
ATOM      7  C8  UNL d   1       0.096   1.021  -0.682  0.00  0.00     0.006 A 
ENDROOT
BRANCH   1   8
ATOM      8  C1  UNL d   1       1.423  -1.094  -0.325  0.00  0.00     0.054 C 
ATOM      9  C   UNL d   1       0.873  -1.996  -1.421  0.00  0.00     0.018 C 
ENDBRANCH   1   8
TORSDOF 1
ENDMDL
