MODEL 1
REMARK minimizedAffinity -2.81877089
REMARK minimizedRMSD -1
REMARK  1 active torsions:
REMARK  status: ('A' for Active; 'I' for Inactive)
REMARK    1  A    between atoms: C1_2  and  C2_3 
ROOT
ATOM      1  C2  UNL d   1       0.213  -1.125  -0.218  0.00  0.00    -0.081 A 
ATOM      2  C3  UNL d   1      -0.166  -1.114   1.129  0.00  0.00     0.006 A 
ATOM      3  C4  UNL d   1      -0.775   0.014   1.684  0.00  0.00     0.002 A 
ATOM      4  C5  UNL d   1      -1.022   1.146   0.900  0.00  0.00    -0.080 A 
ATOM      5  C6  UNL d   1      -1.702   2.352   1.476  0.00  0.00     0.076 C 
ATOM      6  C7  UNL d   1      -0.627   1.142  -0.442  0.00  0.00     0.002 A 
ATOM      7  C8  UNL d   1      -0.017   0.015  -0.997  0.00  0.00     0.006 A 
ENDROOT
BRANCH   1   8
ATOM      8  C1  UNL d   1       0.811  -2.363  -0.836  0.00  0.00     0.054 C 
ATOM      9  C   UNL d   1      -0.009  -2.838  -2.027  0.00  0.00     0.018 C 
ENDBRANCH   1   8
TORSDOF 1
ENDMDL
