MODEL 1
REMARK minimizedAffinity -3.52257228
REMARK minimizedRMSD -1
REMARK  1 active torsions:
REMARK  status: ('A' for Active; 'I' for Inactive)
REMARK    1  A    between atoms: C1_2  and  C2_3 
ROOT
ATOM      1  C2  UNL d   1       0.809  -1.049  -0.620  0.00  0.00    -0.081 A 
ATOM      2  C3  UNL d   1       0.423  -1.312   0.700  0.00  0.00     0.006 A 
ATOM      3  C4  UNL d   1      -0.314  -0.371   1.423  0.00  0.00     0.002 A 
ATOM      4  C5  UNL d   1      -0.685   0.844   0.835  0.00  0.00    -0.080 A 
ATOM      5  C6  UNL d   1      -1.503   1.849   1.589  0.00  0.00     0.076 C 
ATOM      6  C7  UNL d   1      -0.285   1.113  -0.478  0.00  0.00     0.002 A 
ATOM      7  C8  UNL d   1       0.453   0.173  -1.201  0.00  0.00     0.006 A 
ENDROOT
BRANCH   1   8
ATOM      8  C1  UNL d   1       1.549  -2.089  -1.423  0.00  0.00     0.054 C 
ATOM      9  C   UNL d   1       0.623  -2.791  -2.406  0.00  0.00     0.018 C 
ENDBRANCH   1   8
TORSDOF 1
ENDMDL
