MODEL 1
REMARK minimizedAffinity -4.92729235
REMARK minimizedRMSD -1
REMARK  1 active torsions:
REMARK  status: ('A' for Active; 'I' for Inactive)
REMARK    1  A    between atoms: C1_2  and  C2_3 
ROOT
ATOM      1  C2  UNL d   1       0.148  -0.427  -0.146  0.00  0.00    -0.081 A 
ATOM      2  C3  UNL d   1      -0.380  -0.437   1.151  0.00  0.00     0.006 A 
ATOM      3  C4  UNL d   1      -1.131   0.644   1.618  0.00  0.00     0.002 A 
ATOM      4  C5  UNL d   1      -1.374   1.748   0.794  0.00  0.00    -0.080 A 
ATOM      5  C6  UNL d   1      -2.204   2.902   1.273  0.00  0.00     0.076 C 
ATOM      6  C7  UNL d   1      -0.832   1.766  -0.495  0.00  0.00     0.002 A 
ATOM      7  C8  UNL d   1      -0.080   0.686  -0.963  0.00  0.00     0.006 A 
ENDROOT
BRANCH   1   8
ATOM      8  C1  UNL d   1       0.904  -1.619  -0.675  0.00  0.00     0.054 C 
ATOM      9  C   UNL d   1       0.046  -2.440  -1.627  0.00  0.00     0.018 C 
ENDBRANCH   1   8
TORSDOF 1
ENDMDL
