MODEL 1
REMARK minimizedAffinity -5.00443411
REMARK minimizedRMSD -1
REMARK  1 active torsions:
REMARK  status: ('A' for Active; 'I' for Inactive)
REMARK    1  A    between atoms: C1_2  and  C2_3 
ROOT
ATOM      1  C2  UNL d   1      -0.718   0.642   0.391  0.00  0.00    -0.081 A 
ATOM      2  C3  UNL d   1       0.313  -0.049  -0.257  0.00  0.00     0.006 A 
ATOM      3  C4  UNL d   1       1.102  -0.965   0.444  0.00  0.00     0.002 A 
ATOM      4  C5  UNL d   1       0.868  -1.211   1.801  0.00  0.00    -0.080 A 
ATOM      5  C6  UNL d   1       1.688  -2.214   2.557  0.00  0.00     0.076 C 
ATOM      6  C7  UNL d   1      -0.150  -0.508   2.453  0.00  0.00     0.002 A 
ATOM      7  C8  UNL d   1      -0.939   0.408   1.753  0.00  0.00     0.006 A 
ENDROOT
BRANCH   1   8
ATOM      8  C1  UNL d   1      -1.611   1.582  -0.376  0.00  0.00     0.054 C 
ATOM      9  C   UNL d   1      -2.632   2.245   0.537  0.00  0.00     0.018 C 
ENDBRANCH   1   8
TORSDOF 1
ENDMDL
