MODEL 1
REMARK minimizedAffinity 7.20512629
REMARK minimizedRMSD -1
REMARK  3 active torsions:
REMARK  status: ('A' for Active; 'I' for Inactive)
REMARK    1  A    between atoms: C3'_2  and  C2'_3 
REMARK    2  A    between atoms: C2'_3  and  C1'_4 
REMARK    3  A    between atoms: C1'_4  and  C1_5 
ROOT
ATOM      1  C1  N4B d   1      -3.518   2.307   0.764  0.00  0.00    -0.075 A 
ATOM      2  C2  N4B d   1      -4.659   3.139   0.732  0.00  0.00     0.002 A 
ATOM      3  C3  N4B d   1      -5.886   2.637   1.088  0.00  0.00     0.002 A 
ATOM      4  C4  N4B d   1      -6.000   1.306   1.461  0.00  0.00    -0.004 A 
ATOM      5  C5  N4B d   1      -4.889   0.515   1.514  0.00  0.00     0.002 A 
ATOM      6  C6  N4B d   1      -3.649   1.008   1.162  0.00  0.00     0.002 A 
ENDROOT
BRANCH   1   7
ATOM      7  C1' N4B d   1      -2.170   2.788   0.301  0.00  0.00     0.057 C 
BRANCH   7   8
ATOM      8  C2' N4B d   1      -2.320   3.463  -1.059  0.00  0.00     0.009 C 
BRANCH   8   9
ATOM      9  C3' N4B d   1      -2.508   2.453  -2.178  0.00  0.00     0.004 C 
ATOM     10  C4' N4B d   1      -3.213   3.029  -3.369  0.00  0.00     0.003 C 
ENDBRANCH   8   9
ENDBRANCH   7   8
ENDBRANCH   1   7
TORSDOF 3
ENDMDL
