MODEL 1
REMARK minimizedAffinity 1.97620273
REMARK minimizedRMSD -1
REMARK  3 active torsions:
REMARK  status: ('A' for Active; 'I' for Inactive)
REMARK    1  A    between atoms: C3'_2  and  C2'_3 
REMARK    2  A    between atoms: C2'_3  and  C1'_4 
REMARK    3  A    between atoms: C1'_4  and  C1_5 
ROOT
ATOM      1  C1  N4B d   1      -3.049   2.647   0.282  0.00  0.00    -0.075 A 
ATOM      2  C2  N4B d   1      -4.439   2.780   0.493  0.00  0.00     0.002 A 
ATOM      3  C3  N4B d   1      -5.103   1.874   1.281  0.00  0.00     0.002 A 
ATOM      4  C4  N4B d   1      -4.406   0.819   1.851  0.00  0.00    -0.004 A 
ATOM      5  C5  N4B d   1      -3.059   0.712   1.663  0.00  0.00     0.002 A 
ATOM      6  C6  N4B d   1      -2.377   1.618   0.876  0.00  0.00     0.002 A 
ENDROOT
BRANCH   1   7
ATOM      7  C1' N4B d   1      -2.294   3.564  -0.642  0.00  0.00     0.057 C 
BRANCH   7   8
ATOM      8  C2' N4B d   1      -0.808   3.224  -0.580  0.00  0.00     0.009 C 
BRANCH   8   9
ATOM      9  C3' N4B d   1       0.064   4.447  -0.807  0.00  0.00     0.004 C 
ATOM     10  C4' N4B d   1       1.528   4.123  -0.814  0.00  0.00     0.003 C 
ENDBRANCH   8   9
ENDBRANCH   7   8
ENDBRANCH   1   7
TORSDOF 3
ENDMDL
