MODEL 1
REMARK minimizedAffinity 2.19931602
REMARK minimizedRMSD -1
REMARK  3 active torsions:
REMARK  status: ('A' for Active; 'I' for Inactive)
REMARK    1  A    between atoms: C3'_2  and  C2'_3 
REMARK    2  A    between atoms: C2'_3  and  C1'_4 
REMARK    3  A    between atoms: C1'_4  and  C1_5 
ROOT
ATOM      1  C1  N4B d   1       3.024  -2.687   0.580  0.00  0.00    -0.075 A 
ATOM      2  C2  N4B d   1       3.757  -3.840   0.222  0.00  0.00     0.002 A 
ATOM      3  C3  N4B d   1       3.247  -5.087   0.485  0.00  0.00     0.002 A 
ATOM      4  C4  N4B d   1       2.020  -5.207   1.120  0.00  0.00    -0.004 A 
ATOM      5  C5  N4B d   1       1.307  -4.089   1.440  0.00  0.00     0.002 A 
ATOM      6  C6  N4B d   1       1.805  -2.829   1.177  0.00  0.00     0.002 A 
ENDROOT
BRANCH   1   7
ATOM      7  C1' N4B d   1       3.579  -1.302   0.390  0.00  0.00     0.057 C 
BRANCH   7   8
ATOM      8  C2' N4B d   1       3.093  -0.408   1.527  0.00  0.00     0.009 C 
BRANCH   8   9
ATOM      9  C3' N4B d   1       4.129   0.635   1.912  0.00  0.00     0.004 C 
ATOM     10  C4' N4B d   1       3.662   1.536   3.016  0.00  0.00     0.003 C 
ENDBRANCH   8   9
ENDBRANCH   7   8
ENDBRANCH   1   7
TORSDOF 3
ENDMDL
