MODEL 1
REMARK minimizedAffinity 4.18940163
REMARK minimizedRMSD -1
REMARK  3 active torsions:
REMARK  status: ('A' for Active; 'I' for Inactive)
REMARK    1  A    between atoms: C3'_2  and  C2'_3 
REMARK    2  A    between atoms: C2'_3  and  C1'_4 
REMARK    3  A    between atoms: C1'_4  and  C1_5 
ROOT
ATOM      1  C1  N4B d   1       2.668   1.057  -0.698  0.00  0.00    -0.075 A 
ATOM      2  C2  N4B d   1       3.980   0.854  -1.177  0.00  0.00     0.002 A 
ATOM      3  C3  N4B d   1       4.189   0.556  -2.501  0.00  0.00     0.002 A 
ATOM      4  C4  N4B d   1       3.104   0.438  -3.357  0.00  0.00    -0.004 A 
ATOM      5  C5  N4B d   1       1.842   0.660  -2.892  0.00  0.00     0.002 A 
ATOM      6  C6  N4B d   1       1.617   0.965  -1.564  0.00  0.00     0.002 A 
ENDROOT
BRANCH   1   7
ATOM      7  C1' N4B d   1       2.383   1.300   0.759  0.00  0.00     0.057 C 
BRANCH   7   8
ATOM      8  C2' N4B d   1       1.621   2.613   0.908  0.00  0.00     0.009 C 
BRANCH   8   9
ATOM      9  C3' N4B d   1       2.304   3.559   1.881  0.00  0.00     0.004 C 
ATOM     10  C4' N4B d   1       2.771   2.872   3.129  0.00  0.00     0.003 C 
ENDBRANCH   8   9
ENDBRANCH   7   8
ENDBRANCH   1   7
TORSDOF 3
ENDMDL
