MODEL 1
REMARK minimizedAffinity -1.17422211
REMARK minimizedRMSD -1
REMARK  3 active torsions:
REMARK  status: ('A' for Active; 'I' for Inactive)
REMARK    1  A    between atoms: C3'_2  and  C2'_3 
REMARK    2  A    between atoms: C2'_3  and  C1'_4 
REMARK    3  A    between atoms: C1'_4  and  C1_5 
ROOT
ATOM      1  C1  N4B d   1       1.137   2.125   0.317  0.00  0.00    -0.075 A 
ATOM      2  C2  N4B d   1       1.424   0.755   0.132  0.00  0.00     0.002 A 
ATOM      3  C3  N4B d   1       2.689   0.279   0.379  0.00  0.00     0.002 A 
ATOM      4  C4  N4B d   1       3.682   1.154   0.791  0.00  0.00    -0.004 A 
ATOM      5  C5  N4B d   1       3.390   2.471   0.992  0.00  0.00     0.002 A 
ATOM      6  C6  N4B d   1       2.123   2.963   0.751  0.00  0.00     0.002 A 
ENDROOT
BRANCH   1   7
ATOM      7  C1' N4B d   1      -0.208   2.707  -0.023  0.00  0.00     0.057 C 
BRANCH   7   8
ATOM      8  C2' N4B d   1      -1.187   2.396   1.105  0.00  0.00     0.009 C 
BRANCH   8   9
ATOM      9  C3' N4B d   1      -2.081   1.214   0.771  0.00  0.00     0.004 C 
ATOM     10  C4' N4B d   1      -3.404   1.630   0.199  0.00  0.00     0.003 C 
ENDBRANCH   8   9
ENDBRANCH   7   8
ENDBRANCH   1   7
TORSDOF 3
ENDMDL
