MODEL 1
REMARK minimizedAffinity -0.873395026
REMARK minimizedRMSD -1
REMARK  3 active torsions:
REMARK  status: ('A' for Active; 'I' for Inactive)
REMARK    1  A    between atoms: C3'_2  and  C2'_3 
REMARK    2  A    between atoms: C2'_3  and  C1'_4 
REMARK    3  A    between atoms: C1'_4  and  C1_5 
ROOT
ATOM      1  C1  N4B d   1       2.495   1.625   0.393  0.00  0.00    -0.075 A 
ATOM      2  C2  N4B d   1       2.436   2.968   0.826  0.00  0.00     0.002 A 
ATOM      3  C3  N4B d   1       3.478   3.505   1.542  0.00  0.00     0.002 A 
ATOM      4  C4  N4B d   1       4.575   2.715   1.853  0.00  0.00    -0.004 A 
ATOM      5  C5  N4B d   1       4.635   1.427   1.409  0.00  0.00     0.002 A 
ATOM      6  C6  N4B d   1       3.597   0.876   0.684  0.00  0.00     0.002 A 
ENDROOT
BRANCH   1   7
ATOM      7  C1' N4B d   1       1.343   0.970  -0.319  0.00  0.00     0.057 C 
BRANCH   7   8
ATOM      8  C2' N4B d   1       1.553  -0.542  -0.325  0.00  0.00     0.009 C 
BRANCH   8   9
ATOM      9  C3' N4B d   1       1.410  -1.129  -1.719  0.00  0.00     0.004 C 
ATOM     10  C4' N4B d   1       1.169  -0.085  -2.768  0.00  0.00     0.003 C 
ENDBRANCH   8   9
ENDBRANCH   7   8
ENDBRANCH   1   7
TORSDOF 3
ENDMDL
