MODEL 1
REMARK minimizedAffinity 1.99604392
REMARK minimizedRMSD -1
REMARK  3 active torsions:
REMARK  status: ('A' for Active; 'I' for Inactive)
REMARK    1  A    between atoms: C3'_2  and  C2'_3 
REMARK    2  A    between atoms: C2'_3  and  C1'_4 
REMARK    3  A    between atoms: C1'_4  and  C1_5 
ROOT
ATOM      1  C1  N4B d   1       1.156   2.899   1.092  0.00  0.00    -0.075 A 
ATOM      2  C2  N4B d   1       0.027   3.282   0.336  0.00  0.00     0.002 A 
ATOM      3  C3  N4B d   1      -1.174   3.508   0.962  0.00  0.00     0.002 A 
ATOM      4  C4  N4B d   1      -1.274   3.341   2.335  0.00  0.00    -0.004 A 
ATOM      5  C5  N4B d   1      -0.172   2.997   3.062  0.00  0.00     0.002 A 
ATOM      6  C6  N4B d   1       1.043   2.770   2.446  0.00  0.00     0.002 A 
ENDROOT
BRANCH   1   7
ATOM      7  C1' N4B d   1       2.469   2.557   0.442  0.00  0.00     0.057 C 
BRANCH   7   8
ATOM      8  C2' N4B d   1       2.842   1.120   0.792  0.00  0.00     0.009 C 
BRANCH   8   9
ATOM      9  C3' N4B d   1       1.681   0.164   0.582  0.00  0.00     0.004 C 
ATOM     10  C4' N4B d   1       2.075  -1.071  -0.172  0.00  0.00     0.003 C 
ENDBRANCH   8   9
ENDBRANCH   7   8
ENDBRANCH   1   7
TORSDOF 3
ENDMDL
