MODEL 1
REMARK minimizedAffinity 4.95927429
REMARK minimizedRMSD -1
REMARK  3 active torsions:
REMARK  status: ('A' for Active; 'I' for Inactive)
REMARK    1  A    between atoms: C3'_2  and  C2'_3 
REMARK    2  A    between atoms: C2'_3  and  C1'_4 
REMARK    3  A    between atoms: C1'_4  and  C1_5 
ROOT
ATOM      1  C1  N4B d   1       0.750   2.458   1.365  0.00  0.00    -0.075 A 
ATOM      2  C2  N4B d   1       0.981   2.139   2.721  0.00  0.00     0.002 A 
ATOM      3  C3  N4B d   1       0.057   2.488   3.676  0.00  0.00     0.002 A 
ATOM      4  C4  N4B d   1      -1.091   3.170   3.302  0.00  0.00    -0.004 A 
ATOM      5  C5  N4B d   1      -1.318   3.452   1.987  0.00  0.00     0.002 A 
ATOM      6  C6  N4B d   1      -0.400   3.104   1.016  0.00  0.00     0.002 A 
ENDROOT
BRANCH   1   7
ATOM      7  C1' N4B d   1       1.771   2.173   0.297  0.00  0.00     0.057 C 
BRANCH   7   8
ATOM      8  C2' N4B d   1       3.098   2.816   0.689  0.00  0.00     0.009 C 
BRANCH   8   9
ATOM      9  C3' N4B d   1       3.993   1.853   1.450  0.00  0.00     0.004 C 
ATOM     10  C4' N4B d   1       4.489   2.421   2.746  0.00  0.00     0.003 C 
ENDBRANCH   8   9
ENDBRANCH   7   8
ENDBRANCH   1   7
TORSDOF 3
ENDMDL
