MODEL 1
REMARK minimizedAffinity 5.58085918
REMARK minimizedRMSD -1
REMARK  1 active torsions:
REMARK  status: ('A' for Active; 'I' for Inactive)
REMARK    1  A    between atoms: C1_2  and  C2_3 
ROOT
ATOM      1  C2  UNL d   1       0.872  -2.039   0.867  0.00  0.00    -0.073 A 
ATOM      2  C3  UNL d   1      -0.050  -2.943   1.405  0.00  0.00    -0.002 A 
ATOM      3  C4  UNL d   1       0.189  -4.317   1.338  0.00  0.00     0.004 A 
ATOM      4  C5  UNL d   1       1.353  -4.799   0.739  0.00  0.00    -0.004 A 
ATOM      5  C6  UNL d   1       2.292  -3.910   0.206  0.00  0.00    -0.075 A 
ATOM      6  C7  UNL d   1       3.548  -4.412  -0.443  0.00  0.00     0.076 C 
ATOM      7  C8  UNL d   1       2.044  -2.532   0.275  0.00  0.00     0.001 A 
ENDROOT
BRANCH   1   8
ATOM      8  C1  UNL d   1       0.622  -0.554   0.942  0.00  0.00     0.053 C 
ATOM      9  C   UNL d   1      -0.168  -0.172   2.184  0.00  0.00     0.018 C 
ENDBRANCH   1   8
TORSDOF 1
ENDMDL
