MODEL 1
REMARK minimizedAffinity 1.72895682
REMARK minimizedRMSD -1
REMARK  1 active torsions:
REMARK  status: ('A' for Active; 'I' for Inactive)
REMARK    1  A    between atoms: C1_2  and  C2_3 
ROOT
ATOM      1  C2  UNL d   1       0.481  -2.013   1.522  0.00  0.00    -0.073 A 
ATOM      2  C3  UNL d   1       0.697  -1.139   0.451  0.00  0.00    -0.002 A 
ATOM      3  C4  UNL d   1       1.743  -1.366  -0.445  0.00  0.00     0.004 A 
ATOM      4  C5  UNL d   1       2.577  -2.472  -0.283  0.00  0.00    -0.004 A 
ATOM      5  C6  UNL d   1       2.370  -3.363   0.774  0.00  0.00    -0.075 A 
ATOM      6  C7  UNL d   1       3.261  -4.556   0.964  0.00  0.00     0.076 C 
ATOM      7  C8  UNL d   1       1.320  -3.127   1.671  0.00  0.00     0.001 A 
ENDROOT
BRANCH   1   8
ATOM      8  C1  UNL d   1      -0.651  -1.775   2.488  0.00  0.00     0.053 C 
ATOM      9  C   UNL d   1      -1.352  -3.068   2.874  0.00  0.00     0.018 C 
ENDBRANCH   1   8
TORSDOF 1
ENDMDL
