MODEL 1
REMARK minimizedAffinity 3.92359996
REMARK minimizedRMSD -1
REMARK  1 active torsions:
REMARK  status: ('A' for Active; 'I' for Inactive)
REMARK    1  A    between atoms: C1_2  and  C2_3 
ROOT
ATOM      1  C2  UNL d   1       0.549  -1.709  -0.381  0.00  0.00    -0.073 A 
ATOM      2  C3  UNL d   1       1.484  -1.758  -1.421  0.00  0.00    -0.002 A 
ATOM      3  C4  UNL d   1       1.227  -2.516  -2.565  0.00  0.00     0.004 A 
ATOM      4  C5  UNL d   1       0.032  -3.225  -2.684  0.00  0.00    -0.004 A 
ATOM      5  C6  UNL d   1      -0.920  -3.178  -1.661  0.00  0.00    -0.075 A 
ATOM      6  C7  UNL d   1      -2.210  -3.937  -1.772  0.00  0.00     0.076 C 
ATOM      7  C8  UNL d   1      -0.654  -2.418  -0.514  0.00  0.00     0.001 A 
ENDROOT
BRANCH   1   8
ATOM      8  C1  UNL d   1       0.818  -0.887   0.853  0.00  0.00     0.053 C 
ATOM      9  C   UNL d   1       0.110   0.457   0.808  0.00  0.00     0.018 C 
ENDBRANCH   1   8
TORSDOF 1
ENDMDL
