MODEL 1
REMARK minimizedAffinity 4.35073805
REMARK minimizedRMSD -1
REMARK  1 active torsions:
REMARK  status: ('A' for Active; 'I' for Inactive)
REMARK    1  A    between atoms: C1_2  and  C2_3 
ROOT
ATOM      1  C2  UNL d   1       0.816   2.189   1.137  0.00  0.00    -0.073 A 
ATOM      2  C3  UNL d   1       1.030   1.396   0.004  0.00  0.00    -0.002 A 
ATOM      3  C4  UNL d   1       0.046   0.505  -0.428  0.00  0.00     0.004 A 
ATOM      4  C5  UNL d   1      -1.161   0.403   0.263  0.00  0.00    -0.004 A 
ATOM      5  C6  UNL d   1      -1.398   1.196   1.391  0.00  0.00    -0.075 A 
ATOM      6  C7  UNL d   1      -2.690   1.097   2.147  0.00  0.00     0.076 C 
ATOM      7  C8  UNL d   1      -0.404   2.086   1.820  0.00  0.00     0.001 A 
ENDROOT
BRANCH   1   8
ATOM      8  C1  UNL d   1       1.873   3.157   1.604  0.00  0.00     0.053 C 
ATOM      9  C   UNL d   1       2.738   3.653   0.456  0.00  0.00     0.018 C 
ENDBRANCH   1   8
TORSDOF 1
ENDMDL
