MODEL 1
REMARK minimizedAffinity 6.22518301
REMARK minimizedRMSD -1
REMARK  1 active torsions:
REMARK  status: ('A' for Active; 'I' for Inactive)
REMARK    1  A    between atoms: C1_2  and  C2_3 
ROOT
ATOM      1  C2  UNL d   1       0.795   2.410   1.190  0.00  0.00    -0.073 A 
ATOM      2  C3  UNL d   1       0.942   2.816  -0.141  0.00  0.00    -0.002 A 
ATOM      3  C4  UNL d   1       2.046   3.576  -0.529  0.00  0.00     0.004 A 
ATOM      4  C5  UNL d   1       3.018   3.931   0.407  0.00  0.00    -0.004 A 
ATOM      5  C6  UNL d   1       2.895   3.525   1.739  0.00  0.00    -0.075 A 
ATOM      6  C7  UNL d   1       3.930   3.900   2.759  0.00  0.00     0.076 C 
ATOM      7  C8  UNL d   1       1.782   2.764   2.122  0.00  0.00     0.001 A 
ENDROOT
BRANCH   1   8
ATOM      8  C1  UNL d   1      -0.393   1.585   1.613  0.00  0.00     0.053 C 
ATOM      9  C   UNL d   1      -0.398   0.215   0.953  0.00  0.00     0.018 C 
ENDBRANCH   1   8
TORSDOF 1
ENDMDL
