MODEL 1
REMARK minimizedAffinity 12.1145325
REMARK minimizedRMSD -1
REMARK  1 active torsions:
REMARK  status: ('A' for Active; 'I' for Inactive)
REMARK    1  A    between atoms: C1_2  and  C2_3 
ROOT
ATOM      1  C2  UNL d   1       1.019   3.948  -5.977  0.00  0.00    -0.073 A 
ATOM      2  C3  UNL d   1       2.148   4.775  -5.999  0.00  0.00    -0.002 A 
ATOM      3  C4  UNL d   1       3.428   4.220  -5.993  0.00  0.00     0.004 A 
ATOM      4  C5  UNL d   1       3.593   2.835  -5.972  0.00  0.00    -0.004 A 
ATOM      5  C6  UNL d   1       2.477   1.992  -5.962  0.00  0.00    -0.075 A 
ATOM      6  C7  UNL d   1       2.637   0.500  -5.937  0.00  0.00     0.076 C 
ATOM      7  C8  UNL d   1       1.195   2.557  -5.965  0.00  0.00     0.001 A 
ENDROOT
BRANCH   1   8
ATOM      8  C1  UNL d   1      -0.365   4.542  -5.990  0.00  0.00     0.053 C 
ATOM      9  C   UNL d   1      -1.446   3.472  -5.982  0.00  0.00     0.018 C 
ENDBRANCH   1   8
TORSDOF 1
ENDMDL
