MODEL 1
REMARK minimizedAffinity -0.755394697
REMARK minimizedRMSD -1
REMARK  1 active torsions:
REMARK  status: ('A' for Active; 'I' for Inactive)
REMARK    1  A    between atoms: C1_2  and  C2_3 
ROOT
ATOM      1  C2  UNL d   1      -0.760   3.508  -5.969  0.00  0.00    -0.073 A 
ATOM      2  C3  UNL d   1      -1.434   2.281  -5.997  0.00  0.00    -0.002 A 
ATOM      3  C4  UNL d   1      -2.829   2.243  -5.993  0.00  0.00     0.004 A 
ATOM      4  C5  UNL d   1      -3.564   3.428  -5.968  0.00  0.00    -0.004 A 
ATOM      5  C6  UNL d   1      -2.909   4.664  -5.952  0.00  0.00    -0.075 A 
ATOM      6  C7  UNL d   1      -3.685   5.948  -5.923  0.00  0.00     0.076 C 
ATOM      7  C8  UNL d   1      -1.508   4.694  -5.954  0.00  0.00     0.001 A 
ENDROOT
BRANCH   1   8
ATOM      8  C1  UNL d   1       0.746   3.555  -5.980  0.00  0.00     0.053 C 
ATOM      9  C   UNL d   1       1.359   2.164  -5.989  0.00  0.00     0.018 C 
ENDBRANCH   1   8
TORSDOF 1
ENDMDL
