MODEL 1
REMARK minimizedAffinity 7.48314047
REMARK minimizedRMSD -1
REMARK  1 active torsions:
REMARK  status: ('A' for Active; 'I' for Inactive)
REMARK    1  A    between atoms: C1_2  and  C2_3 
ROOT
ATOM      1  C2  UNL d   1      -0.763   2.940  -5.941  0.00  0.00    -0.073 A 
ATOM      2  C3  UNL d   1      -0.435   4.295  -5.816  0.00  0.00    -0.002 A 
ATOM      3  C4  UNL d   1      -1.440   5.261  -5.756  0.00  0.00     0.004 A 
ATOM      4  C5  UNL d   1      -2.781   4.883  -5.814  0.00  0.00    -0.004 A 
ATOM      5  C6  UNL d   1      -3.130   3.533  -5.926  0.00  0.00    -0.075 A 
ATOM      6  C7  UNL d   1      -4.568   3.110  -5.991  0.00  0.00     0.076 C 
ATOM      7  C8  UNL d   1      -2.114   2.569  -5.988  0.00  0.00     0.001 A 
ENDROOT
BRANCH   1   8
ATOM      8  C1  UNL d   1       0.319   1.892  -5.999  0.00  0.00     0.053 C 
ATOM      9  C   UNL d   1       1.709   2.508  -5.999  0.00  0.00     0.018 C 
ENDBRANCH   1   8
TORSDOF 1
ENDMDL
