MODEL 1
REMARK minimizedAffinity 9.91522884
REMARK minimizedRMSD -1
REMARK  1 active torsions:
REMARK  status: ('A' for Active; 'I' for Inactive)
REMARK    1  A    between atoms: C1_2  and  C2_3 
ROOT
ATOM      1  C2  UNL d   1       0.720   3.510  -5.885  0.00  0.00    -0.073 A 
ATOM      2  C3  UNL d   1       0.049   2.285  -5.976  0.00  0.00    -0.002 A 
ATOM      3  C4  UNL d   1      -1.346   2.246  -5.996  0.00  0.00     0.004 A 
ATOM      4  C5  UNL d   1      -2.083   3.429  -5.932  0.00  0.00    -0.004 A 
ATOM      5  C6  UNL d   1      -1.430   4.663  -5.852  0.00  0.00    -0.075 A 
ATOM      6  C7  UNL d   1      -2.207   5.944  -5.780  0.00  0.00     0.076 C 
ATOM      7  C8  UNL d   1      -0.029   4.694  -5.830  0.00  0.00     0.001 A 
ENDROOT
BRANCH   1   8
ATOM      8  C1  UNL d   1       2.226   3.557  -5.869  0.00  0.00     0.053 C 
ATOM      9  C   UNL d   1       2.835   2.214  -5.500  0.00  0.00     0.018 C 
ENDBRANCH   1   8
TORSDOF 1
ENDMDL
