MODEL 1
REMARK minimizedAffinity 10.2356291
REMARK minimizedRMSD -1
REMARK  1 active torsions:
REMARK  status: ('A' for Active; 'I' for Inactive)
REMARK    1  A    between atoms: C1_2  and  C2_3 
ROOT
ATOM      1  C2  UNL d   1      -0.035   3.083  -5.983  0.00  0.00    -0.073 A 
ATOM      2  C3  UNL d   1      -0.870   1.960  -5.996  0.00  0.00    -0.002 A 
ATOM      3  C4  UNL d   1      -2.257   2.113  -5.995  0.00  0.00     0.004 A 
ATOM      4  C5  UNL d   1      -2.823   3.388  -5.988  0.00  0.00    -0.004 A 
ATOM      5  C6  UNL d   1      -2.005   4.522  -5.987  0.00  0.00    -0.075 A 
ATOM      6  C7  UNL d   1      -2.598   5.901  -5.977  0.00  0.00     0.076 C 
ATOM      7  C8  UNL d   1      -0.613   4.360  -5.985  0.00  0.00     0.001 A 
ENDROOT
BRANCH   1   8
ATOM      8  C1  UNL d   1       1.463   2.923  -5.991  0.00  0.00     0.053 C 
ATOM      9  C   UNL d   1       1.880   1.461  -5.953  0.00  0.00     0.018 C 
ENDBRANCH   1   8
TORSDOF 1
ENDMDL
