MODEL 1
REMARK minimizedAffinity 6.03781509
REMARK minimizedRMSD -1
REMARK  1 active torsions:
REMARK  status: ('A' for Active; 'I' for Inactive)
REMARK    1  A    between atoms: C1_2  and  C2_3 
ROOT
ATOM      1  C2  UNL d   1      -0.064   0.866   0.637  0.00  0.00    -0.073 A 
ATOM      2  C3  UNL d   1       0.136   1.022  -0.740  0.00  0.00    -0.002 A 
ATOM      3  C4  UNL d   1       1.162   1.840  -1.215  0.00  0.00     0.004 A 
ATOM      4  C5  UNL d   1       2.001   2.504  -0.320  0.00  0.00    -0.004 A 
ATOM      5  C6  UNL d   1       1.825   2.352   1.059  0.00  0.00    -0.075 A 
ATOM      6  C7  UNL d   1       2.718   3.061   2.034  0.00  0.00     0.076 C 
ATOM      7  C8  UNL d   1       0.791   1.531   1.528  0.00  0.00     0.001 A 
ENDROOT
BRANCH   1   8
ATOM      8  C1  UNL d   1      -1.167  -0.021   1.154  0.00  0.00     0.053 C 
ATOM      9  C   UNL d   1      -2.331   0.783   1.711  0.00  0.00     0.018 C 
ENDBRANCH   1   8
TORSDOF 1
ENDMDL
