MODEL 1
REMARK minimizedAffinity 3.26416683
REMARK minimizedRMSD -1
REMARK  1 active torsions:
REMARK  status: ('A' for Active; 'I' for Inactive)
REMARK    1  A    between atoms: C1_2  and  C2_3 
ROOT
ATOM      1  C2  UNL d   1      -0.079   3.623  -5.969  0.00  0.00    -0.073 A 
ATOM      2  C3  UNL d   1      -0.725   2.382  -5.988  0.00  0.00    -0.002 A 
ATOM      3  C4  UNL d   1      -2.119   2.312  -6.000  0.00  0.00     0.004 A 
ATOM      4  C5  UNL d   1      -2.880   3.481  -6.000  0.00  0.00    -0.004 A 
ATOM      5  C6  UNL d   1      -2.253   4.731  -5.993  0.00  0.00    -0.075 A 
ATOM      6  C7  UNL d   1      -3.057   5.998  -5.991  0.00  0.00     0.076 C 
ATOM      7  C8  UNL d   1      -0.853   4.792  -5.978  0.00  0.00     0.001 A 
ENDROOT
BRANCH   1   8
ATOM      8  C1  UNL d   1       1.426   3.703  -5.962  0.00  0.00     0.053 C 
ATOM      9  C   UNL d   1       2.070   2.326  -5.989  0.00  0.00     0.018 C 
ENDBRANCH   1   8
TORSDOF 1
ENDMDL
