MODEL 1
REMARK minimizedAffinity 6.85446882
REMARK minimizedRMSD -1
REMARK  1 active torsions:
REMARK  status: ('A' for Active; 'I' for Inactive)
REMARK    1  A    between atoms: C1_2  and  C2_3 
ROOT
ATOM      1  C2  UNL d   1       0.950   2.372   1.009  0.00  0.00    -0.073 A 
ATOM      2  C3  UNL d   1       1.110   2.947  -0.257  0.00  0.00    -0.002 A 
ATOM      3  C4  UNL d   1       2.180   3.806  -0.511  0.00  0.00     0.004 A 
ATOM      4  C5  UNL d   1       3.105   4.092   0.494  0.00  0.00    -0.004 A 
ATOM      5  C6  UNL d   1       2.969   3.517   1.761  0.00  0.00    -0.075 A 
ATOM      6  C7  UNL d   1       3.953   3.816   2.854  0.00  0.00     0.076 C 
ATOM      7  C8  UNL d   1       1.890   2.658   2.010  0.00  0.00     0.001 A 
ENDROOT
BRANCH   1   8
ATOM      8  C1  UNL d   1      -0.201   1.439   1.286  0.00  0.00     0.053 C 
ATOM      9  C   UNL d   1      -0.055   0.119   0.546  0.00  0.00     0.018 C 
ENDBRANCH   1   8
TORSDOF 1
ENDMDL
