MODEL 1
REMARK minimizedAffinity -0.3590675
REMARK minimizedRMSD -1
REMARK  1 active torsions:
REMARK  status: ('A' for Active; 'I' for Inactive)
REMARK    1  A    between atoms: C1_2  and  C2_3 
ROOT
ATOM      1  C2  UNL d   1       0.861  -0.786  -0.124  0.00  0.00    -0.076 A 
ATOM      2  C3  UNL d   1      -0.108  -0.505  -1.103  0.00  0.00     0.004 A 
ATOM      3  C4  UNL d   1      -1.463  -0.459  -0.779  0.00  0.00    -0.003 A 
ATOM      4  C5  UNL d   1      -1.871  -0.694   0.529  0.00  0.00     0.000 A 
ATOM      5  C6  UNL d   1      -0.922  -0.957   1.517  0.00  0.00     0.000 A 
ATOM      6  C7  UNL d   1       0.449  -0.991   1.211  0.00  0.00    -0.073 A 
ATOM      7  C8  UNL d   1       1.428  -1.285   2.314  0.00  0.00     0.078 C 
ENDROOT
BRANCH   1   8
ATOM      8  C1  UNL d   1       2.313  -0.849  -0.539  0.00  0.00     0.053 C 
ATOM      9  C   UNL d   1       2.671   0.211  -1.569  0.00  0.00     0.018 C 
ENDBRANCH   1   8
TORSDOF 1
ENDMDL
