MODEL 1
REMARK minimizedAffinity -1.14431727
REMARK minimizedRMSD -1
REMARK  1 active torsions:
REMARK  status: ('A' for Active; 'I' for Inactive)
REMARK    1  A    between atoms: C1_2  and  C2_3 
ROOT
ATOM      1  C2  UNL d   1       3.658   5.236   3.382  0.00  0.00    -0.076 A 
ATOM      2  C3  UNL d   1       4.837   6.000   3.323  0.00  0.00     0.004 A 
ATOM      3  C4  UNL d   1       5.998   5.484   2.750  0.00  0.00    -0.003 A 
ATOM      4  C5  UNL d   1       6.000   4.196   2.227  0.00  0.00     0.000 A 
ATOM      5  C6  UNL d   1       4.834   3.430   2.261  0.00  0.00     0.000 A 
ATOM      6  C7  UNL d   1       3.651   3.941   2.820  0.00  0.00    -0.073 A 
ATOM      7  C8  UNL d   1       2.425   3.070   2.836  0.00  0.00     0.078 C 
ENDROOT
BRANCH   1   8
ATOM      8  C1  UNL d   1       2.437   5.839   4.039  0.00  0.00     0.053 C 
ATOM      9  C   UNL d   1       2.586   5.956   5.548  0.00  0.00     0.018 C 
ENDBRANCH   1   8
TORSDOF 1
ENDMDL
