MODEL 1
REMARK minimizedAffinity -0.700942099
REMARK minimizedRMSD -1
REMARK  1 active torsions:
REMARK  status: ('A' for Active; 'I' for Inactive)
REMARK    1  A    between atoms: C1_2  and  C2_3 
ROOT
ATOM      1  C2  UNL d   1       3.426   5.238   3.562  0.00  0.00    -0.076 A 
ATOM      2  C3  UNL d   1       4.540   5.976   3.126  0.00  0.00     0.004 A 
ATOM      3  C4  UNL d   1       5.580   5.361   2.430  0.00  0.00    -0.003 A 
ATOM      4  C5  UNL d   1       5.522   3.999   2.158  0.00  0.00     0.000 A 
ATOM      5  C6  UNL d   1       4.416   3.255   2.568  0.00  0.00     0.000 A 
ATOM      6  C7  UNL d   1       3.352   3.862   3.256  0.00  0.00    -0.073 A 
ATOM      7  C8  UNL d   1       2.187   3.010   3.680  0.00  0.00     0.078 C 
ENDROOT
BRANCH   1   8
ATOM      8  C1  UNL d   1       2.342   5.953   4.336  0.00  0.00     0.053 C 
ATOM      9  C   UNL d   1       2.626   5.999   5.829  0.00  0.00     0.018 C 
ENDBRANCH   1   8
TORSDOF 1
ENDMDL
