MODEL 1
REMARK minimizedAffinity -0.987991929
REMARK minimizedRMSD -1
REMARK  1 active torsions:
REMARK  status: ('A' for Active; 'I' for Inactive)
REMARK    1  A    between atoms: C1_2  and  C2_3 
ROOT
ATOM      1  C2  UNL d   1       0.169  -1.390   1.854  0.00  0.00    -0.076 A 
ATOM      2  C3  UNL d   1      -1.090  -1.355   2.477  0.00  0.00     0.004 A 
ATOM      3  C4  UNL d   1      -2.200  -0.823   1.823  0.00  0.00    -0.003 A 
ATOM      4  C5  UNL d   1      -2.069  -0.318   0.534  0.00  0.00     0.000 A 
ATOM      5  C6  UNL d   1      -0.831  -0.361  -0.107  0.00  0.00     0.000 A 
ATOM      6  C7  UNL d   1       0.294  -0.909   0.533  0.00  0.00    -0.073 A 
ATOM      7  C8  UNL d   1       1.607  -0.924  -0.203  0.00  0.00     0.078 C 
ENDROOT
BRANCH   1   8
ATOM      8  C1  UNL d   1       1.342  -1.954   2.623  0.00  0.00     0.053 C 
ATOM      9  C   UNL d   1       1.871  -3.244   2.016  0.00  0.00     0.018 C 
ENDBRANCH   1   8
TORSDOF 1
ENDMDL
