MODEL 1
REMARK minimizedAffinity 1.42514896
REMARK minimizedRMSD -1
REMARK  1 active torsions:
REMARK  status: ('A' for Active; 'I' for Inactive)
REMARK    1  A    between atoms: C1_2  and  C2_3 
ROOT
ATOM      1  C2  UNL d   1       1.033   0.925  -1.826  0.00  0.00    -0.076 A 
ATOM      2  C3  UNL d   1       2.190   0.136  -1.951  0.00  0.00     0.004 A 
ATOM      3  C4  UNL d   1       3.310   0.609  -2.631  0.00  0.00    -0.003 A 
ATOM      4  C5  UNL d   1       3.293   1.878  -3.198  0.00  0.00     0.000 A 
ATOM      5  C6  UNL d   1       2.160   2.681  -3.069  0.00  0.00     0.000 A 
ATOM      6  C7  UNL d   1       1.028   2.226  -2.372  0.00  0.00    -0.073 A 
ATOM      7  C8  UNL d   1      -0.169   3.132  -2.268  0.00  0.00     0.078 C 
ENDROOT
BRANCH   1   8
ATOM      8  C1  UNL d   1      -0.162   0.349  -1.100  0.00  0.00     0.053 C 
ATOM      9  C   UNL d   1       0.160  -0.959  -0.394  0.00  0.00     0.018 C 
ENDBRANCH   1   8
TORSDOF 1
ENDMDL
