MODEL 1
REMARK minimizedAffinity -1.75941849
REMARK minimizedRMSD -1
REMARK  1 active torsions:
REMARK  status: ('A' for Active; 'I' for Inactive)
REMARK    1  A    between atoms: C1_2  and  C2_3 
ROOT
ATOM      1  C2  UNL d   1       0.543  -2.001   1.667  0.00  0.00    -0.076 A 
ATOM      2  C3  UNL d   1      -0.098  -1.777   2.898  0.00  0.00     0.004 A 
ATOM      3  C4  UNL d   1      -1.262  -1.014   2.972  0.00  0.00    -0.003 A 
ATOM      4  C5  UNL d   1      -1.805  -0.463   1.817  0.00  0.00     0.000 A 
ATOM      5  C6  UNL d   1      -1.192  -0.690   0.585  0.00  0.00     0.000 A 
ATOM      6  C7  UNL d   1      -0.027  -1.471   0.490  0.00  0.00    -0.073 A 
ATOM      7  C8  UNL d   1       0.595  -1.678  -0.864  0.00  0.00     0.078 C 
ENDROOT
BRANCH   1   8
ATOM      8  C1  UNL d   1       1.818  -2.814   1.652  0.00  0.00     0.053 C 
ATOM      9  C   UNL d   1       1.562  -4.295   1.418  0.00  0.00     0.018 C 
ENDBRANCH   1   8
TORSDOF 1
ENDMDL
