MODEL 1
REMARK minimizedAffinity -5.13641691
REMARK minimizedRMSD -1
REMARK  0 active torsions:
REMARK  status: ('A' for Active; 'I' for Inactive)
ROOT
ATOM      1  C4' PXY d   1       2.278   0.429   3.051  0.00  0.00     0.077 C 
ATOM      2  C1' PXY d   1      -2.909   0.036   0.529  0.00  0.00     0.077 C 
ATOM      3  C1  PXY d   1      -1.553   0.148   1.199  0.00  0.00    -0.082 A 
ATOM      4  C2  PXY d   1      -0.459  -0.145   0.515  0.00  0.00     0.003 A 
ATOM      5  C3  PXY d   1       0.772  -0.080   1.115  0.00  0.00     0.003 A 
ATOM      6  C4  PXY d   1       0.889   0.339   2.413  0.00  0.00    -0.082 A 
ATOM      7  C5  PXY d   1      -0.221   0.650   3.115  0.00  0.00     0.003 A 
ATOM      8  C6  PXY d   1      -1.465   0.538   2.500  0.00  0.00     0.003 A 
ENDROOT
TORSDOF 0
ENDMDL
