MODEL 1
REMARK minimizedAffinity -4.46418428
REMARK minimizedRMSD -1
REMARK  0 active torsions:
REMARK  status: ('A' for Active; 'I' for Inactive)
ROOT
ATOM      1  C4' PXY d   1       0.427  -0.446  -1.198  0.00  0.00     0.077 C 
ATOM      2  C1' PXY d   1      -0.491   0.927   4.342  0.00  0.00     0.077 C 
ATOM      3  C1  PXY d   1      -0.237   0.569   2.891  0.00  0.00    -0.082 A 
ATOM      4  C2  PXY d   1      -1.215   0.689   2.007  0.00  0.00     0.003 A 
ATOM      5  C3  PXY d   1      -1.012   0.340   0.697  0.00  0.00     0.003 A 
ATOM      6  C4  PXY d   1       0.219  -0.087   0.276  0.00  0.00    -0.082 A 
ATOM      7  C5  PXY d   1       1.224  -0.203   1.170  0.00  0.00     0.003 A 
ATOM      8  C6  PXY d   1       0.986   0.118   2.503  0.00  0.00     0.003 A 
ENDROOT
TORSDOF 0
ENDMDL
