MODEL 1
REMARK minimizedAffinity -3.85650945
REMARK minimizedRMSD -1
REMARK  0 active torsions:
REMARK  status: ('A' for Active; 'I' for Inactive)
ROOT
ATOM      1  C4' PXY d   1      -0.789   1.561   3.359  0.00  0.00     0.077 C 
ATOM      2  C1' PXY d   1       1.542  -0.483  -1.520  0.00  0.00     0.077 C 
ATOM      3  C1  PXY d   1       0.942   0.051  -0.235  0.00  0.00    -0.082 A 
ATOM      4  C2  PXY d   1      -0.366  -0.010  -0.048  0.00  0.00     0.003 A 
ATOM      5  C3  PXY d   1      -0.929   0.497   1.094  0.00  0.00     0.003 A 
ATOM      6  C4  PXY d   1      -0.139   1.025   2.080  0.00  0.00    -0.082 A 
ATOM      7  C5  PXY d   1       1.198   1.081   1.903  0.00  0.00     0.003 A 
ATOM      8  C6  PXY d   1       1.746   0.598   0.718  0.00  0.00     0.003 A 
ENDROOT
TORSDOF 0
ENDMDL
