MODEL 1
REMARK minimizedAffinity -5.26676655
REMARK minimizedRMSD -1
REMARK  0 active torsions:
REMARK  status: ('A' for Active; 'I' for Inactive)
ROOT
ATOM      1  C4' PXY d   1      -1.032  -2.366  -1.367  0.00  0.00     0.077 C 
ATOM      2  C1' PXY d   1      -0.100   1.900   2.420  0.00  0.00     0.077 C 
ATOM      3  C1  PXY d   1      -0.332   0.782   1.423  0.00  0.00    -0.082 A 
ATOM      4  C2  PXY d   1      -1.558   0.535   0.991  0.00  0.00     0.003 A 
ATOM      5  C3  PXY d   1      -1.790  -0.493   0.114  0.00  0.00     0.003 A 
ATOM      6  C4  PXY d   1      -0.750  -1.241  -0.367  0.00  0.00    -0.082 A 
ATOM      7  C5  PXY d   1       0.505  -0.988   0.060  0.00  0.00     0.003 A 
ATOM      8  C6  PXY d   1       0.715   0.033   0.983  0.00  0.00     0.003 A 
ENDROOT
TORSDOF 0
ENDMDL
