MODEL 1
REMARK minimizedAffinity -0.669345438
REMARK minimizedRMSD -1
REMARK  0 active torsions:
REMARK  status: ('A' for Active; 'I' for Inactive)
ROOT
ATOM      1  C4' PXY d   1       2.568   1.485  -3.487  0.00  0.00     0.077 C 
ATOM      2  C1' PXY d   1       0.618  -0.231   1.677  0.00  0.00     0.077 C 
ATOM      3  C1  PXY d   1       1.119   0.213   0.317  0.00  0.00    -0.082 A 
ATOM      4  C2  PXY d   1       2.408   0.455   0.142  0.00  0.00     0.003 A 
ATOM      5  C3  PXY d   1       2.874   0.889  -1.073  0.00  0.00     0.003 A 
ATOM      6  C4  PXY d   1       2.019   1.025  -2.134  0.00  0.00    -0.082 A 
ATOM      7  C5  PXY d   1       0.704   0.770  -1.966  0.00  0.00     0.003 A 
ATOM      8  C6  PXY d   1       0.245   0.371  -0.714  0.00  0.00     0.003 A 
ENDROOT
TORSDOF 0
ENDMDL
