MODEL 1
REMARK minimizedAffinity -0.295214474
REMARK minimizedRMSD -1
REMARK  0 active torsions:
REMARK  status: ('A' for Active; 'I' for Inactive)
ROOT
ATOM      1  C4' PXY d   1      -1.088  -0.023   0.293  0.00  0.00     0.077 C 
ATOM      2  C1' PXY d   1       2.961  -0.660  -3.783  0.00  0.00     0.077 C 
ATOM      3  C1  PXY d   1       1.902  -0.505  -2.709  0.00  0.00    -0.082 A 
ATOM      4  C2  PXY d   1       0.885   0.319  -2.907  0.00  0.00     0.003 A 
ATOM      5  C3  PXY d   1      -0.064   0.495  -1.934  0.00  0.00     0.003 A 
ATOM      6  C4  PXY d   1      -0.001  -0.219  -0.767  0.00  0.00    -0.082 A 
ATOM      7  C5  PXY d   1       1.028  -1.069  -0.562  0.00  0.00     0.003 A 
ATOM      8  C6  PXY d   1       2.003  -1.203  -1.546  0.00  0.00     0.003 A 
ENDROOT
TORSDOF 0
ENDMDL
