MODEL 1
REMARK minimizedAffinity -3.38826132
REMARK minimizedRMSD -1
REMARK  0 active torsions:
REMARK  status: ('A' for Active; 'I' for Inactive)
ROOT
ATOM      1  C4' PXY d   1      -1.070  -1.172  -1.309  0.00  0.00     0.077 C 
ATOM      2  C1' PXY d   1      -0.278   1.632   3.684  0.00  0.00     0.077 C 
ATOM      3  C1  PXY d   1      -0.476   0.903   2.369  0.00  0.00    -0.082 A 
ATOM      4  C2  PXY d   1      -1.639   0.328   2.109  0.00  0.00     0.003 A 
ATOM      5  C3  PXY d   1      -1.825  -0.362   0.939  0.00  0.00     0.003 A 
ATOM      6  C4  PXY d   1      -0.828  -0.418   0.001  0.00  0.00    -0.082 A 
ATOM      7  C5  PXY d   1       0.357   0.176   0.255  0.00  0.00     0.003 A 
ATOM      8  C6  PXY d   1       0.540   0.836   1.466  0.00  0.00     0.003 A 
ENDROOT
TORSDOF 0
ENDMDL
