MODEL 1
REMARK minimizedAffinity -4.21611977
REMARK minimizedRMSD -1
REMARK  0 active torsions:
REMARK  status: ('A' for Active; 'I' for Inactive)
ROOT
ATOM      1  C4' PXY d   1      -0.770  -0.732  -0.692  0.00  0.00     0.077 C 
ATOM      2  C1' PXY d   1      -0.041   1.903   4.401  0.00  0.00     0.077 C 
ATOM      3  C1  PXY d   1      -0.223   1.220   3.060  0.00  0.00    -0.082 A 
ATOM      4  C2  PXY d   1      -1.355   0.588   2.797  0.00  0.00     0.003 A 
ATOM      5  C3  PXY d   1      -1.524  -0.062   1.602  0.00  0.00     0.003 A 
ATOM      6  C4  PXY d   1      -0.545  -0.020   0.645  0.00  0.00    -0.082 A 
ATOM      7  C5  PXY d   1       0.609   0.631   0.903  0.00  0.00     0.003 A 
ATOM      8  C6  PXY d   1       0.777   1.250   2.138  0.00  0.00     0.003 A 
ENDROOT
TORSDOF 0
ENDMDL
