MODEL 1
REMARK minimizedAffinity -4.92954969
REMARK minimizedRMSD -1
REMARK  0 active torsions:
REMARK  status: ('A' for Active; 'I' for Inactive)
ROOT
ATOM      1  C4' PXY d   1       0.345  -0.387  -0.327  0.00  0.00     0.077 C 
ATOM      2  C1' PXY d   1      -4.507  -3.274  -1.569  0.00  0.00     0.077 C 
ATOM      3  C1  PXY d   1      -3.241  -2.505  -1.243  0.00  0.00    -0.082 A 
ATOM      4  C2  PXY d   1      -2.063  -3.038  -1.523  0.00  0.00     0.003 A 
ATOM      5  C3  PXY d   1      -0.908  -2.371  -1.206  0.00  0.00     0.003 A 
ATOM      6  C4  PXY d   1      -0.960  -1.122  -0.646  0.00  0.00    -0.082 A 
ATOM      7  C5  PXY d   1      -2.159  -0.568  -0.368  0.00  0.00     0.003 A 
ATOM      8  C6  PXY d   1      -3.319  -1.279  -0.660  0.00  0.00     0.003 A 
ENDROOT
TORSDOF 0
ENDMDL
