MODEL 1
REMARK minimizedAffinity -3.53127408
REMARK minimizedRMSD -1
REMARK  0 active torsions:
REMARK  status: ('A' for Active; 'I' for Inactive)
ROOT
ATOM      1  C4' PXY d   1       1.052  -0.355  -1.175  0.00  0.00     0.077 C 
ATOM      2  C1' PXY d   1      -0.922   1.699   3.855  0.00  0.00     0.077 C 
ATOM      3  C1  PXY d   1      -0.393   1.165   2.538  0.00  0.00    -0.082 A 
ATOM      4  C2  PXY d   1      -1.233   0.918   1.547  0.00  0.00     0.003 A 
ATOM      5  C3  PXY d   1      -0.776   0.405   0.361  0.00  0.00     0.003 A 
ATOM      6  C4  PXY d   1       0.563   0.193   0.168  0.00  0.00    -0.082 A 
ATOM      7  C5  PXY d   1       1.429   0.452   1.171  0.00  0.00     0.003 A 
ATOM      8  C6  PXY d   1       0.939   0.934   2.382  0.00  0.00     0.003 A 
ENDROOT
TORSDOF 0
ENDMDL
