MODEL 1
REMARK minimizedAffinity 0.0114421025
REMARK minimizedRMSD -1
REMARK  0 active torsions:
REMARK  status: ('A' for Active; 'I' for Inactive)
ROOT
ATOM      1  C4' PXY d   1       0.543   0.841  -3.758  0.00  0.00     0.077 C 
ATOM      2  C1' PXY d   1       0.078   0.481   1.992  0.00  0.00     0.077 C 
ATOM      3  C1  PXY d   1       0.208   0.565   0.484  0.00  0.00    -0.082 A 
ATOM      4  C2  PXY d   1      -0.022   1.715  -0.129  0.00  0.00     0.003 A 
ATOM      5  C3  PXY d   1       0.059   1.801  -1.495  0.00  0.00     0.003 A 
ATOM      6  C4  PXY d   1       0.433   0.712  -2.237  0.00  0.00    -0.082 A 
ATOM      7  C5  PXY d   1       0.681  -0.462  -1.617  0.00  0.00     0.003 A 
ATOM      8  C6  PXY d   1       0.552  -0.539  -0.234  0.00  0.00     0.003 A 
ENDROOT
TORSDOF 0
ENDMDL
