MODEL 1
REMARK minimizedAffinity 3.48932672
REMARK minimizedRMSD -1
REMARK  0 active torsions:
REMARK  status: ('A' for Active; 'I' for Inactive)
ROOT
ATOM      1  C4' PXY d   1       2.293  -2.150   4.612  0.00  0.00     0.077 C 
ATOM      2  C1' PXY d   1      -0.858   2.522   5.901  0.00  0.00     0.077 C 
ATOM      3  C1  PXY d   1      -0.027   1.303   5.552  0.00  0.00    -0.082 A 
ATOM      4  C2  PXY d   1      -0.393   0.113   6.000  0.00  0.00     0.003 A 
ATOM      5  C3  PXY d   1       0.365  -0.996   5.721  0.00  0.00     0.003 A 
ATOM      6  C4  PXY d   1       1.479  -0.893   4.931  0.00  0.00    -0.082 A 
ATOM      7  C5  PXY d   1       1.852   0.317   4.462  0.00  0.00     0.003 A 
ATOM      8  C6  PXY d   1       1.092   1.436   4.791  0.00  0.00     0.003 A 
ENDROOT
TORSDOF 0
ENDMDL
