MODEL 1
REMARK minimizedAffinity 2.85587358
REMARK minimizedRMSD -1
REMARK  0 active torsions:
REMARK  status: ('A' for Active; 'I' for Inactive)
ROOT
ATOM      1  C   UNL d   1       5.841  -4.628  -5.523  0.00  0.00     0.023 A 
ATOM      2  C1  UNL d   1       5.770  -5.607  -4.532  0.00  0.00     0.003 A 
ATOM      3  C2  UNL d   1       4.531  -5.990  -4.014  0.00  0.00     0.048 A 
ATOM      4  C3  UNL d   1       3.367  -5.389  -4.492  0.00  0.00     0.023 A 
ATOM      5  C4  UNL d   1       3.433  -4.409  -5.484  0.00  0.00     0.048 A 
ATOM      6  C5  UNL d   1       4.674  -4.029  -5.998  0.00  0.00     0.003 A 
ATOM      7  I   UNL d   1       1.521  -5.957  -3.723  0.00  0.00    -0.146 I 
ENDROOT
TORSDOF 0
ENDMDL
