MODEL 1
REMARK minimizedAffinity 3.66624475
REMARK minimizedRMSD -1
REMARK  0 active torsions:
REMARK  status: ('A' for Active; 'I' for Inactive)
ROOT
ATOM      1  C   UNL d   1       0.032   1.402   0.382  0.00  0.00     0.023 A 
ATOM      2  C1  UNL d   1       1.045   0.451   0.256  0.00  0.00     0.003 A 
ATOM      3  C2  UNL d   1       0.978  -0.514  -0.751  0.00  0.00     0.048 A 
ATOM      4  C3  UNL d   1      -0.105  -0.521  -1.630  0.00  0.00     0.023 A 
ATOM      5  C4  UNL d   1      -1.120   0.429  -1.509  0.00  0.00     0.048 A 
ATOM      6  C5  UNL d   1      -1.049   1.391  -0.500  0.00  0.00     0.003 A 
ATOM      7  I   UNL d   1      -0.207  -1.955  -3.131  0.00  0.00    -0.146 I 
ENDROOT
TORSDOF 0
ENDMDL
