MODEL 1
REMARK minimizedAffinity -1.88555348
REMARK minimizedRMSD -1
REMARK  0 active torsions:
REMARK  status: ('A' for Active; 'I' for Inactive)
ROOT
ATOM      1  C   UNL d   1      -2.079   4.138  -5.991  0.00  0.00     0.023 A 
ATOM      2  C1  UNL d   1      -1.315   5.305  -5.997  0.00  0.00     0.003 A 
ATOM      3  C2  UNL d   1       0.079   5.228  -5.999  0.00  0.00     0.048 A 
ATOM      4  C3  UNL d   1       0.703   3.981  -5.996  0.00  0.00     0.023 A 
ATOM      5  C4  UNL d   1      -0.057   2.810  -5.992  0.00  0.00     0.048 A 
ATOM      6  C5  UNL d   1      -1.451   2.892  -5.989  0.00  0.00     0.003 A 
ATOM      7  I   UNL d   1       2.778   3.864  -5.999  0.00  0.00    -0.146 I 
ENDROOT
TORSDOF 0
ENDMDL
