MODEL 1
REMARK minimizedAffinity -0.0850048438
REMARK minimizedRMSD -1
REMARK  0 active torsions:
REMARK  status: ('A' for Active; 'I' for Inactive)
ROOT
ATOM      1  C   UNL d   1      -1.235   4.318  -5.991  0.00  0.00     0.023 A 
ATOM      2  C1  UNL d   1      -0.847   5.658  -5.994  0.00  0.00     0.003 A 
ATOM      3  C2  UNL d   1       0.508   5.994  -5.996  0.00  0.00     0.048 A 
ATOM      4  C3  UNL d   1       1.471   4.985  -5.996  0.00  0.00     0.023 A 
ATOM      5  C4  UNL d   1       1.087   3.643  -5.994  0.00  0.00     0.048 A 
ATOM      6  C5  UNL d   1      -0.269   3.312  -5.991  0.00  0.00     0.003 A 
ATOM      7  I   UNL d   1       3.489   5.482  -6.000  0.00  0.00    -0.146 I 
ENDROOT
TORSDOF 0
ENDMDL
