MODEL 1
REMARK minimizedAffinity 0.126620069
REMARK minimizedRMSD -1
REMARK  0 active torsions:
REMARK  status: ('A' for Active; 'I' for Inactive)
ROOT
ATOM      1  C   UNL d   1       0.462   4.830  -5.980  0.00  0.00     0.023 A 
ATOM      2  C1  UNL d   1       0.069   3.492  -5.993  0.00  0.00     0.003 A 
ATOM      3  C2  UNL d   1      -1.288   3.161  -5.998  0.00  0.00     0.048 A 
ATOM      4  C3  UNL d   1      -2.246   4.173  -5.991  0.00  0.00     0.023 A 
ATOM      5  C4  UNL d   1      -1.858   5.514  -5.979  0.00  0.00     0.048 A 
ATOM      6  C5  UNL d   1      -0.501   5.840  -5.973  0.00  0.00     0.003 A 
ATOM      7  I   UNL d   1      -4.266   3.684  -5.998  0.00  0.00    -0.146 I 
ENDROOT
TORSDOF 0
ENDMDL
