MODEL 1
REMARK minimizedAffinity -2.25375009
REMARK minimizedRMSD -1
REMARK  0 active torsions:
REMARK  status: ('A' for Active; 'I' for Inactive)
ROOT
ATOM      1  C   UNL d   1      -4.182   4.592  -5.997  0.00  0.00     0.023 A 
ATOM      2  C1  UNL d   1      -3.504   5.811  -6.000  0.00  0.00     0.003 A 
ATOM      3  C2  UNL d   1      -2.108   5.835  -6.000  0.00  0.00     0.048 A 
ATOM      4  C3  UNL d   1      -1.395   4.636  -5.999  0.00  0.00     0.023 A 
ATOM      5  C4  UNL d   1      -2.069   3.414  -5.997  0.00  0.00     0.048 A 
ATOM      6  C5  UNL d   1      -3.465   3.395  -5.996  0.00  0.00     0.003 A 
ATOM      7  I   UNL d   1       0.683   4.669  -6.000  0.00  0.00    -0.146 I 
ENDROOT
TORSDOF 0
ENDMDL
