MODEL 1
REMARK minimizedAffinity 1.120664
REMARK minimizedRMSD -1
REMARK  0 active torsions:
REMARK  status: ('A' for Active; 'I' for Inactive)
ROOT
ATOM      1  C   UNL d   1      -3.189   4.645  -5.996  0.00  0.00     0.023 A 
ATOM      2  C1  UNL d   1      -2.863   3.289  -5.995  0.00  0.00     0.003 A 
ATOM      3  C2  UNL d   1      -1.524   2.891  -5.996  0.00  0.00     0.048 A 
ATOM      4  C3  UNL d   1      -0.517   3.855  -5.997  0.00  0.00     0.023 A 
ATOM      5  C4  UNL d   1      -0.838   5.213  -5.998  0.00  0.00     0.048 A 
ATOM      6  C5  UNL d   1      -2.178   5.606  -5.998  0.00  0.00     0.003 A 
ATOM      7  I   UNL d   1       1.476   3.265  -5.999  0.00  0.00    -0.146 I 
ENDROOT
TORSDOF 0
ENDMDL
