MODEL 1
REMARK minimizedAffinity 5.62084913
REMARK minimizedRMSD -1
REMARK  0 active torsions:
REMARK  status: ('A' for Active; 'I' for Inactive)
ROOT
ATOM      1  C   UNL d   1       0.460   2.194   0.273  0.00  0.00     0.023 A 
ATOM      2  C1  UNL d   1      -0.314   1.430   1.147  0.00  0.00     0.003 A 
ATOM      3  C2  UNL d   1      -0.904   0.244   0.705  0.00  0.00     0.048 A 
ATOM      4  C3  UNL d   1      -0.716  -0.172  -0.613  0.00  0.00     0.023 A 
ATOM      5  C4  UNL d   1       0.058   0.588  -1.491  0.00  0.00     0.048 A 
ATOM      6  C5  UNL d   1       0.645   1.773  -1.044  0.00  0.00     0.003 A 
ATOM      7  I   UNL d   1      -1.594  -1.937  -1.273  0.00  0.00    -0.146 I 
ENDROOT
TORSDOF 0
ENDMDL
