MODEL 1
REMARK minimizedAffinity -2.97396779
REMARK minimizedRMSD -1
REMARK  0 active torsions:
REMARK  status: ('A' for Active; 'I' for Inactive)
ROOT
ATOM      1  C   UNL d   1       0.594   2.753  -5.985  0.00  0.00     0.023 A 
ATOM      2  C1  UNL d   1       0.881   4.118  -5.993  0.00  0.00     0.003 A 
ATOM      3  C2  UNL d   1      -0.158   5.051  -5.991  0.00  0.00     0.048 A 
ATOM      4  C3  UNL d   1      -1.482   4.612  -5.981  0.00  0.00     0.023 A 
ATOM      5  C4  UNL d   1      -1.774   3.248  -5.972  0.00  0.00     0.048 A 
ATOM      6  C5  UNL d   1      -0.732   2.318  -5.975  0.00  0.00     0.003 A 
ATOM      7  I   UNL d   1      -3.030   5.999  -5.978  0.00  0.00    -0.146 I 
ENDROOT
TORSDOF 0
ENDMDL
