MODEL 1
REMARK minimizedAffinity 0.446202308
REMARK minimizedRMSD -1
REMARK  0 active torsions:
REMARK  status: ('A' for Active; 'I' for Inactive)
ROOT
ATOM      1  C   UNL d   1      -4.052   4.963  -5.931  0.00  0.00     0.023 A 
ATOM      2  C1  UNL d   1      -3.675   3.620  -5.934  0.00  0.00     0.003 A 
ATOM      3  C2  UNL d   1      -2.322   3.273  -5.954  0.00  0.00     0.048 A 
ATOM      4  C3  UNL d   1      -1.352   4.274  -5.970  0.00  0.00     0.023 A 
ATOM      5  C4  UNL d   1      -1.724   5.619  -5.966  0.00  0.00     0.048 A 
ATOM      6  C5  UNL d   1      -3.078   5.961  -5.947  0.00  0.00     0.003 A 
ATOM      7  I   UNL d   1       0.662   3.761  -6.000  0.00  0.00    -0.146 I 
ENDROOT
TORSDOF 0
ENDMDL
