MODEL 1
REMARK minimizedAffinity 2.82601571
REMARK minimizedRMSD -1
REMARK  0 active torsions:
REMARK  status: ('A' for Active; 'I' for Inactive)
ROOT
ATOM      1  C   UNL d   1      -3.768  -4.206  -3.747  0.00  0.00     0.023 A 
ATOM      2  C1  UNL d   1      -4.529  -3.444  -2.861  0.00  0.00     0.003 A 
ATOM      3  C2  UNL d   1      -4.855  -3.953  -1.602  0.00  0.00     0.048 A 
ATOM      4  C3  UNL d   1      -4.414  -5.224  -1.235  0.00  0.00     0.023 A 
ATOM      5  C4  UNL d   1      -3.652  -5.990  -2.119  0.00  0.00     0.048 A 
ATOM      6  C5  UNL d   1      -3.330  -5.477  -3.377  0.00  0.00     0.003 A 
ATOM      7  I   UNL d   1      -4.897  -5.984   0.638  0.00  0.00    -0.146 I 
ENDROOT
TORSDOF 0
ENDMDL
