MODEL 1
REMARK minimizedAffinity 12.1564751
REMARK minimizedRMSD -1
REMARK  0 active torsions:
REMARK  status: ('A' for Active; 'I' for Inactive)
ROOT
ATOM      1  C   UNL d   1       1.417  -2.018  -1.524  0.00  0.00     0.023 A 
ATOM      2  C1  UNL d   1       0.856  -3.233  -1.131  0.00  0.00     0.003 A 
ATOM      3  C2  UNL d   1       1.049  -4.377  -1.908  0.00  0.00     0.048 A 
ATOM      4  C3  UNL d   1       1.807  -4.298  -3.077  0.00  0.00     0.023 A 
ATOM      5  C4  UNL d   1       2.371  -3.085  -3.473  0.00  0.00     0.048 A 
ATOM      6  C5  UNL d   1       2.174  -1.944  -2.693  0.00  0.00     0.003 A 
ATOM      7  I   UNL d   1       2.096  -5.999  -4.235  0.00  0.00    -0.146 I 
ENDROOT
TORSDOF 0
ENDMDL
