MODEL 1
REMARK minimizedAffinity 6.35977888
REMARK minimizedRMSD -1
REMARK  0 active torsions:
REMARK  status: ('A' for Active; 'I' for Inactive)
ROOT
ATOM      1  C   UNL d   1       1.486   1.381  -5.995  0.00  0.00     0.023 A 
ATOM      2  C1  UNL d   1       2.217   2.569  -5.997  0.00  0.00     0.003 A 
ATOM      3  C2  UNL d   1       1.553   3.798  -5.999  0.00  0.00     0.048 A 
ATOM      4  C3  UNL d   1       0.159   3.831  -5.998  0.00  0.00     0.023 A 
ATOM      5  C4  UNL d   1      -0.576   2.644  -5.995  0.00  0.00     0.048 A 
ATOM      6  C5  UNL d   1       0.092   1.418  -5.994  0.00  0.00     0.003 A 
ATOM      7  I   UNL d   1      -0.831   5.658  -6.000  0.00  0.00    -0.146 I 
ENDROOT
TORSDOF 0
ENDMDL
