MODEL 1
REMARK minimizedAffinity 7.25007105
REMARK minimizedRMSD -1
REMARK  0 active torsions:
REMARK  status: ('A' for Active; 'I' for Inactive)
ROOT
ATOM      1  C   UNL d   1      -5.102  -0.194   2.579  0.00  0.00     0.023 A 
ATOM      2  C1  UNL d   1      -5.156  -1.321   3.400  0.00  0.00     0.003 A 
ATOM      3  C2  UNL d   1      -4.051  -2.168   3.499  0.00  0.00     0.048 A 
ATOM      4  C3  UNL d   1      -2.894  -1.882   2.775  0.00  0.00     0.023 A 
ATOM      5  C4  UNL d   1      -2.835  -0.756   1.953  0.00  0.00     0.048 A 
ATOM      6  C5  UNL d   1      -3.943   0.088   1.856  0.00  0.00     0.003 A 
ATOM      7  I   UNL d   1      -1.247  -3.141   2.921  0.00  0.00    -0.146 I 
ENDROOT
TORSDOF 0
ENDMDL
