MODEL 1
REMARK minimizedAffinity 3.05389714
REMARK minimizedRMSD -1
REMARK  0 active torsions:
REMARK  status: ('A' for Active; 'I' for Inactive)
ROOT
ATOM      1  C   UNL d   1       1.578   1.814  -1.850  0.00  0.00     0.023 A 
ATOM      2  C1  UNL d   1       1.217   0.520  -1.475  0.00  0.00     0.003 A 
ATOM      3  C2  UNL d   1       0.262   0.322  -0.476  0.00  0.00     0.048 A 
ATOM      4  C3  UNL d   1      -0.329   1.423   0.143  0.00  0.00     0.023 A 
ATOM      5  C4  UNL d   1       0.029   2.720  -0.230  0.00  0.00     0.048 A 
ATOM      6  C5  UNL d   1       0.985   2.913  -1.228  0.00  0.00     0.003 A 
ATOM      7  I   UNL d   1      -1.751   1.132   1.630  0.00  0.00    -0.146 I 
ENDROOT
TORSDOF 0
ENDMDL
