MODEL 1
REMARK minimizedAffinity 2.76865721
REMARK minimizedRMSD -1
REMARK  0 active torsions:
REMARK  status: ('A' for Active; 'I' for Inactive)
ROOT
ATOM      1  C   UNL d   1      -1.071   4.358  -5.857  0.00  0.00     0.023 A 
ATOM      2  C1  UNL d   1      -2.016   3.339  -5.975  0.00  0.00     0.003 A 
ATOM      3  C2  UNL d   1      -3.378   3.647  -5.999  0.00  0.00     0.048 A 
ATOM      4  C3  UNL d   1      -3.787   4.977  -5.905  0.00  0.00     0.023 A 
ATOM      5  C4  UNL d   1      -2.845   6.000  -5.787  0.00  0.00     0.048 A 
ATOM      6  C5  UNL d   1      -1.485   5.687  -5.763  0.00  0.00     0.003 A 
ATOM      7  I   UNL d   1      -5.814   5.438  -5.940  0.00  0.00    -0.146 I 
ENDROOT
TORSDOF 0
ENDMDL
