MODEL 1
REMARK minimizedAffinity 7.31873465
REMARK minimizedRMSD -1
REMARK  0 active torsions:
REMARK  status: ('A' for Active; 'I' for Inactive)
ROOT
ATOM      1  C   UNL d   1       2.814  -2.148  -4.111  0.00  0.00     0.023 A 
ATOM      2  C1  UNL d   1       1.988  -1.045  -4.325  0.00  0.00     0.003 A 
ATOM      3  C2  UNL d   1       1.413  -0.380  -3.240  0.00  0.00     0.048 A 
ATOM      4  C3  UNL d   1       1.670  -0.822  -1.943  0.00  0.00     0.023 A 
ATOM      5  C4  UNL d   1       2.497  -1.925  -1.723  0.00  0.00     0.048 A 
ATOM      6  C5  UNL d   1       3.069  -2.587  -2.812  0.00  0.00     0.003 A 
ATOM      7  I   UNL d   1       0.816   0.166  -0.326  0.00  0.00    -0.146 I 
ENDROOT
TORSDOF 0
ENDMDL
