MODEL 1
REMARK minimizedAffinity -1.41382885
REMARK minimizedRMSD -1
REMARK  0 active torsions:
REMARK  status: ('A' for Active; 'I' for Inactive)
ROOT
ATOM      1  C   UNL d   1      -2.106  -1.515   0.650  0.00  0.00     0.172 C 
ATOM      2  N   UNL d   1      -2.483  -1.217  -0.711  0.00  0.00    -0.070 N 
ATOM      3  C1  UNL d   1      -2.976  -0.021  -1.160  0.00  0.00    -0.004 A 
ATOM      4  C2  UNL d   1      -3.211  -0.142  -2.512  0.00  0.00    -0.047 A 
ATOM      5  C3  UNL d   1      -2.847  -1.456  -2.890  0.00  0.00    -0.047 A 
ATOM      6  C4  UNL d   1      -2.400  -2.100  -1.756  0.00  0.00    -0.004 A 
ENDROOT
TORSDOF 0
ENDMDL
