MODEL 1
REMARK minimizedAffinity 3.04209065
REMARK minimizedRMSD -1
REMARK  0 active torsions:
REMARK  status: ('A' for Active; 'I' for Inactive)
ROOT
ATOM      1  C   UNL d   1       0.679   0.182   1.929  0.00  0.00     0.172 C 
ATOM      2  N   UNL d   1      -0.139   1.004   1.069  0.00  0.00    -0.070 N 
ATOM      3  C1  UNL d   1      -1.470   1.273   1.252  0.00  0.00    -0.004 A 
ATOM      4  C2  UNL d   1      -1.880   2.091   0.222  0.00  0.00    -0.047 A 
ATOM      5  C3  UNL d   1      -0.758   2.321  -0.609  0.00  0.00    -0.047 A 
ATOM      6  C4  UNL d   1       0.306   1.637  -0.062  0.00  0.00    -0.004 A 
ENDROOT
TORSDOF 0
ENDMDL
