MODEL 1
REMARK minimizedAffinity 4.82676888
REMARK minimizedRMSD -1
REMARK  0 active torsions:
REMARK  status: ('A' for Active; 'I' for Inactive)
ROOT
ATOM      1  C   UNL d   1      -3.867  -1.616  -1.171  0.00  0.00     0.172 C 
ATOM      2  N   UNL d   1      -3.063  -2.780  -0.879  0.00  0.00    -0.070 N 
ATOM      3  C1  UNL d   1      -2.768  -3.787  -1.759  0.00  0.00    -0.004 A 
ATOM      4  C2  UNL d   1      -1.981  -4.706  -1.099  0.00  0.00    -0.047 A 
ATOM      5  C3  UNL d   1      -1.799  -4.236   0.223  0.00  0.00    -0.047 A 
ATOM      6  C4  UNL d   1      -2.479  -3.042   0.332  0.00  0.00    -0.004 A 
ENDROOT
TORSDOF 0
ENDMDL
