MODEL 1
REMARK minimizedAffinity 1.65733993
REMARK minimizedRMSD -1
REMARK  0 active torsions:
REMARK  status: ('A' for Active; 'I' for Inactive)
ROOT
ATOM      1  C   UNL d   1      -5.999   5.975  -2.960  0.00  0.00     0.172 C 
ATOM      2  N   UNL d   1      -5.998   4.945  -1.948  0.00  0.00    -0.070 N 
ATOM      3  C1  UNL d   1      -6.000   5.155  -0.595  0.00  0.00    -0.004 A 
ATOM      4  C2  UNL d   1      -5.998   3.923   0.023  0.00  0.00    -0.047 A 
ATOM      5  C3  UNL d   1      -5.994   2.939  -0.993  0.00  0.00    -0.047 A 
ATOM      6  C4  UNL d   1      -5.994   3.599  -2.204  0.00  0.00    -0.004 A 
ENDROOT
TORSDOF 0
ENDMDL
