MODEL 1
REMARK minimizedAffinity 2.88866901
REMARK minimizedRMSD -1
REMARK  0 active torsions:
REMARK  status: ('A' for Active; 'I' for Inactive)
ROOT
ATOM      1  C   UNL d   1       1.332   1.019   4.094  0.00  0.00     0.172 C 
ATOM      2  N   UNL d   1       1.668  -0.138   3.297  0.00  0.00    -0.070 N 
ATOM      3  C1  UNL d   1       1.439  -0.277   1.954  0.00  0.00    -0.004 A 
ATOM      4  C2  UNL d   1       1.902  -1.517   1.573  0.00  0.00    -0.047 A 
ATOM      5  C3  UNL d   1       2.427  -2.146   2.727  0.00  0.00    -0.047 A 
ATOM      6  C4  UNL d   1       2.270  -1.270   3.780  0.00  0.00    -0.004 A 
ENDROOT
TORSDOF 0
ENDMDL
