MODEL 1
REMARK minimizedAffinity 2.84401536
REMARK minimizedRMSD -1
REMARK  0 active torsions:
REMARK  status: ('A' for Active; 'I' for Inactive)
ROOT
ATOM      1  C   UNL d   1       1.483  -1.913   5.999  0.00  0.00     0.172 C 
ATOM      2  N   UNL d   1       1.421  -1.414   4.645  0.00  0.00    -0.070 N 
ATOM      3  C1  UNL d   1       1.900  -2.057   3.535  0.00  0.00    -0.004 A 
ATOM      4  C2  UNL d   1       1.649  -1.256   2.442  0.00  0.00    -0.047 A 
ATOM      5  C3  UNL d   1       0.997  -0.091   2.911  0.00  0.00    -0.047 A 
ATOM      6  C4  UNL d   1       0.869  -0.215   4.279  0.00  0.00    -0.004 A 
ENDROOT
TORSDOF 0
ENDMDL
