MODEL 1
REMARK minimizedAffinity 4.57872772
REMARK minimizedRMSD -1
REMARK  0 active torsions:
REMARK  status: ('A' for Active; 'I' for Inactive)
ROOT
ATOM      1  C   UNL d   1       1.017  -0.009   3.715  0.00  0.00     0.172 C 
ATOM      2  N   UNL d   1       0.890  -0.121   2.281  0.00  0.00    -0.070 N 
ATOM      3  C1  UNL d   1       0.105   0.670   1.485  0.00  0.00    -0.004 A 
ATOM      4  C2  UNL d   1       0.261   0.246   0.183  0.00  0.00    -0.047 A 
ATOM      5  C3  UNL d   1       1.171  -0.838   0.197  0.00  0.00    -0.047 A 
ATOM      6  C4  UNL d   1       1.545  -1.043   1.509  0.00  0.00    -0.004 A 
ENDROOT
TORSDOF 0
ENDMDL
