MODEL 1
REMARK minimizedAffinity -1.72977507
REMARK minimizedRMSD -1
REMARK  0 active torsions:
REMARK  status: ('A' for Active; 'I' for Inactive)
ROOT
ATOM      1  C   UNL d   1      -5.982  -2.583  -1.355  0.00  0.00     0.172 C 
ATOM      2  N   UNL d   1      -4.555  -2.464  -1.166  0.00  0.00    -0.070 N 
ATOM      3  C1  UNL d   1      -3.695  -3.499  -0.916  0.00  0.00    -0.004 A 
ATOM      4  C2  UNL d   1      -2.426  -2.975  -0.801  0.00  0.00    -0.047 A 
ATOM      5  C3  UNL d   1      -2.527  -1.576  -0.988  0.00  0.00    -0.047 A 
ATOM      6  C4  UNL d   1      -3.857  -1.287  -1.212  0.00  0.00    -0.004 A 
ENDROOT
TORSDOF 0
ENDMDL
