MODEL 1
REMARK minimizedAffinity 2.36427236
REMARK minimizedRMSD -1
REMARK  0 active torsions:
REMARK  status: ('A' for Active; 'I' for Inactive)
ROOT
ATOM      1  C   UNL d   1       1.478  -2.584   1.172  0.00  0.00     0.172 C 
ATOM      2  N   UNL d   1       0.325  -1.716   1.195  0.00  0.00    -0.070 N 
ATOM      3  C1  UNL d   1      -0.973  -2.106   0.998  0.00  0.00    -0.004 A 
ATOM      4  C2  UNL d   1      -1.770  -0.987   1.100  0.00  0.00    -0.047 A 
ATOM      5  C3  UNL d   1      -0.923   0.115   1.366  0.00  0.00    -0.047 A 
ATOM      6  C4  UNL d   1       0.369  -0.365   1.420  0.00  0.00    -0.004 A 
ENDROOT
TORSDOF 0
ENDMDL
