MODEL 1
REMARK minimizedAffinity 8.4502306
REMARK minimizedRMSD -1
REMARK  0 active torsions:
REMARK  status: ('A' for Active; 'I' for Inactive)
ROOT
ATOM      1  C   UNL d   1       1.217  -2.117   5.719  0.00  0.00     0.172 C 
ATOM      2  N   UNL d   1       1.235  -1.187   4.615  0.00  0.00    -0.070 N 
ATOM      3  C1  UNL d   1       1.263   0.178   4.722  0.00  0.00    -0.004 A 
ATOM      4  C2  UNL d   1       1.273   0.701   3.447  0.00  0.00    -0.047 A 
ATOM      5  C3  UNL d   1       1.250  -0.387   2.543  0.00  0.00    -0.047 A 
ATOM      6  C4  UNL d   1       1.227  -1.544   3.293  0.00  0.00    -0.004 A 
ENDROOT
TORSDOF 0
ENDMDL
