MODEL 1
REMARK minimizedAffinity -0.705922127
REMARK minimizedRMSD -1
REMARK  0 active torsions:
REMARK  status: ('A' for Active; 'I' for Inactive)
ROOT
ATOM      1  C   UNL d   1      -2.149  -1.323  -5.486  0.00  0.00     0.172 C 
ATOM      2  N   UNL d   1      -3.389  -0.603  -5.314  0.00  0.00    -0.070 N 
ATOM      3  C1  UNL d   1      -4.531  -1.103  -4.749  0.00  0.00    -0.004 A 
ATOM      4  C2  UNL d   1      -5.484  -0.107  -4.771  0.00  0.00    -0.047 A 
ATOM      5  C3  UNL d   1      -4.893   1.031  -5.370  0.00  0.00    -0.047 A 
ATOM      6  C4  UNL d   1      -3.596   0.696  -5.697  0.00  0.00    -0.004 A 
ENDROOT
TORSDOF 0
ENDMDL
