MODEL 1
REMARK minimizedAffinity -3.53151488
REMARK minimizedRMSD -1
REMARK  0 active torsions:
REMARK  status: ('A' for Active; 'I' for Inactive)
ROOT
ATOM      1  C   UNL d   1      -1.621   2.458  -3.591  0.00  0.00     0.172 C 
ATOM      2  N   UNL d   1      -2.097   1.176  -4.055  0.00  0.00    -0.070 N 
ATOM      3  C1  UNL d   1      -2.058   0.006  -3.346  0.00  0.00    -0.004 A 
ATOM      4  C2  UNL d   1      -2.605  -0.984  -4.134  0.00  0.00    -0.047 A 
ATOM      5  C3  UNL d   1      -2.985  -0.387  -5.360  0.00  0.00    -0.047 A 
ATOM      6  C4  UNL d   1      -2.659   0.950  -5.284  0.00  0.00    -0.004 A 
ENDROOT
TORSDOF 0
ENDMDL
