MODEL 1
REMARK minimizedAffinity 0.45028463
REMARK minimizedRMSD -1
REMARK  0 active torsions:
REMARK  status: ('A' for Active; 'I' for Inactive)
ROOT
ATOM      1  C   UNL d   1       5.088   3.408  -5.999  0.00  0.00     0.172 C 
ATOM      2  N   UNL d   1       5.322   2.156  -5.318  0.00  0.00    -0.070 N 
ATOM      3  C1  UNL d   1       5.993   1.080  -5.834  0.00  0.00    -0.004 A 
ATOM      4  C2  UNL d   1       6.000   0.088  -4.877  0.00  0.00    -0.047 A 
ATOM      5  C3  UNL d   1       5.308   0.586  -3.747  0.00  0.00    -0.047 A 
ATOM      6  C4  UNL d   1       4.899   1.868  -4.047  0.00  0.00    -0.004 A 
ENDROOT
TORSDOF 0
ENDMDL
