MODEL 1
REMARK minimizedAffinity 0.765229881
REMARK minimizedRMSD -1
REMARK  0 active torsions:
REMARK  status: ('A' for Active; 'I' for Inactive)
ROOT
ATOM      1  C   UNL d   1      -3.781   1.006  -5.526  0.00  0.00     0.172 C 
ATOM      2  N   UNL d   1      -4.074   0.063  -4.472  0.00  0.00    -0.070 N 
ATOM      3  C1  UNL d   1      -3.229  -0.282  -3.452  0.00  0.00    -0.004 A 
ATOM      4  C2  UNL d   1      -3.878  -1.205  -2.660  0.00  0.00    -0.047 A 
ATOM      5  C3  UNL d   1      -5.157  -1.422  -3.225  0.00  0.00    -0.047 A 
ATOM      6  C4  UNL d   1      -5.252  -0.625  -4.346  0.00  0.00    -0.004 A 
ENDROOT
TORSDOF 0
ENDMDL
