MODEL 1
REMARK minimizedAffinity 2.81202388
REMARK minimizedRMSD -1
REMARK  0 active torsions:
REMARK  status: ('A' for Active; 'I' for Inactive)
ROOT
ATOM      1  C   UNL d   1      -2.297  -1.385  -5.153  0.00  0.00     0.172 C 
ATOM      2  N   UNL d   1      -3.335  -0.382  -5.104  0.00  0.00    -0.070 N 
ATOM      3  C1  UNL d   1      -4.665  -0.620  -4.882  0.00  0.00    -0.004 A 
ATOM      4  C2  UNL d   1      -5.322   0.591  -4.912  0.00  0.00    -0.047 A 
ATOM      5  C3  UNL d   1      -4.353   1.592  -5.163  0.00  0.00    -0.047 A 
ATOM      6  C4  UNL d   1      -3.132   0.962  -5.278  0.00  0.00    -0.004 A 
ENDROOT
TORSDOF 0
ENDMDL
