MODEL 1
REMARK minimizedAffinity -1.73731363
REMARK minimizedRMSD -1
REMARK  0 active torsions:
REMARK  status: ('A' for Active; 'I' for Inactive)
ROOT
ATOM      1  C   UNL d   1      -5.693   4.477  -5.260  0.00  0.00     0.172 C 
ATOM      2  N   UNL d   1      -4.276   4.312  -5.488  0.00  0.00    -0.070 N 
ATOM      3  C1  UNL d   1      -3.415   5.294  -5.900  0.00  0.00    -0.004 A 
ATOM      4  C2  UNL d   1      -2.158   4.738  -5.999  0.00  0.00    -0.047 A 
ATOM      5  C3  UNL d   1      -2.268   3.375  -5.635  0.00  0.00    -0.047 A 
ATOM      6  C4  UNL d   1      -3.590   3.138  -5.323  0.00  0.00    -0.004 A 
ENDROOT
TORSDOF 0
ENDMDL
