MODEL 1
REMARK minimizedAffinity -2.98597574
REMARK minimizedRMSD -1
REMARK  0 active torsions:
REMARK  status: ('A' for Active; 'I' for Inactive)
ROOT
ATOM      1  C   UNL d   1      -2.188  -1.391  -5.242  0.00  0.00     0.172 C 
ATOM      2  N   UNL d   1      -3.428  -0.885  -4.703  0.00  0.00    -0.070 N 
ATOM      3  C1  UNL d   1      -4.368  -0.172  -5.397  0.00  0.00    -0.004 A 
ATOM      4  C2  UNL d   1      -5.398   0.124  -4.531  0.00  0.00    -0.047 A 
ATOM      5  C3  UNL d   1      -5.065  -0.430  -3.272  0.00  0.00    -0.047 A 
ATOM      6  C4  UNL d   1      -3.840  -1.048  -3.407  0.00  0.00    -0.004 A 
ENDROOT
TORSDOF 0
ENDMDL
