MODEL 1
REMARK minimizedAffinity -1.9272604
REMARK minimizedRMSD -1
REMARK  0 active torsions:
REMARK  status: ('A' for Active; 'I' for Inactive)
ROOT
ATOM      1  C   UNL d   1      -3.369  -1.472  -2.998  0.00  0.00     0.172 C 
ATOM      2  N   UNL d   1      -3.848  -0.646  -4.082  0.00  0.00    -0.070 N 
ATOM      3  C1  UNL d   1      -3.137  -0.307  -5.201  0.00  0.00    -0.004 A 
ATOM      4  C2  UNL d   1      -3.942   0.488  -5.988  0.00  0.00    -0.047 A 
ATOM      5  C3  UNL d   1      -5.180   0.632  -5.318  0.00  0.00    -0.047 A 
ATOM      6  C4  UNL d   1      -5.094  -0.080  -4.140  0.00  0.00    -0.004 A 
ENDROOT
TORSDOF 0
ENDMDL
