MODEL 1
REMARK minimizedAffinity -2.13886356
REMARK minimizedRMSD -1
REMARK  0 active torsions:
REMARK  status: ('A' for Active; 'I' for Inactive)
ROOT
ATOM      1  C2' OXE d   1       2.505  -0.146   1.990  0.00  0.00     0.078 C 
ATOM      2  C1' OXE d   1       0.010   1.103   2.291  0.00  0.00     0.078 C 
ATOM      3  C1  OXE d   1       0.293   0.403   0.986  0.00  0.00    -0.078 A 
ATOM      4  C2  OXE d   1       1.534  -0.165   0.829  0.00  0.00    -0.078 A 
ATOM      5  C3  OXE d   1       1.828  -0.870  -0.335  0.00  0.00     0.003 A 
ATOM      6  C4  OXE d   1       0.928  -0.874  -1.407  0.00  0.00    -0.002 A 
ATOM      7  C5  OXE d   1      -0.326  -0.267  -1.284  0.00  0.00    -0.002 A 
ATOM      8  C6  OXE d   1      -0.675   0.338  -0.081  0.00  0.00     0.003 A 
ENDROOT
TORSDOF 0
ENDMDL
