MODEL 1
REMARK minimizedAffinity -0.613654673
REMARK minimizedRMSD -1
REMARK  0 active torsions:
REMARK  status: ('A' for Active; 'I' for Inactive)
ROOT
ATOM      1  C2' OXE d   1      -0.701  -0.746  -0.419  0.00  0.00     0.078 C 
ATOM      2  C1' OXE d   1       2.067  -0.797   0.045  0.00  0.00     0.078 C 
ATOM      3  C1  OXE d   1       1.590  -0.366  -1.319  0.00  0.00    -0.078 A 
ATOM      4  C2  OXE d   1       0.236  -0.389  -1.552  0.00  0.00    -0.078 A 
ATOM      5  C3  OXE d   1      -0.260   0.052  -2.776  0.00  0.00     0.003 A 
ATOM      6  C4  OXE d   1       0.614   0.371  -3.822  0.00  0.00    -0.002 A 
ATOM      7  C5  OXE d   1       1.998   0.363  -3.618  0.00  0.00    -0.002 A 
ATOM      8  C6  OXE d   1       2.500   0.038  -2.362  0.00  0.00     0.003 A 
ENDROOT
TORSDOF 0
ENDMDL
