MODEL 1
REMARK minimizedAffinity -4.49149179
REMARK minimizedRMSD -1
REMARK  0 active torsions:
REMARK  status: ('A' for Active; 'I' for Inactive)
ROOT
ATOM      1  C2' OXE d   1      -2.100  -0.213  -0.688  0.00  0.00     0.078 C 
ATOM      2  C1' OXE d   1       0.664  -0.468  -1.107  0.00  0.00     0.078 C 
ATOM      3  C1  OXE d   1       0.204   0.191   0.169  0.00  0.00    -0.078 A 
ATOM      4  C2  OXE d   1      -1.149   0.353   0.345  0.00  0.00    -0.078 A 
ATOM      5  C3  OXE d   1      -1.630   0.905   1.529  0.00  0.00     0.003 A 
ATOM      6  C4  OXE d   1      -0.743   1.436   2.474  0.00  0.00    -0.002 A 
ATOM      7  C5  OXE d   1       0.639   1.316   2.297  0.00  0.00    -0.002 A 
ATOM      8  C6  OXE d   1       1.128   0.660   1.173  0.00  0.00     0.003 A 
ENDROOT
TORSDOF 0
ENDMDL
