MODEL 1
REMARK minimizedAffinity -2.15154004
REMARK minimizedRMSD -1
REMARK  0 active torsions:
REMARK  status: ('A' for Active; 'I' for Inactive)
ROOT
ATOM      1  C2' OXE d   1       2.283   0.111   2.270  0.00  0.00     0.078 C 
ATOM      2  C1' OXE d   1      -0.219   1.333   2.630  0.00  0.00     0.078 C 
ATOM      3  C1  OXE d   1       0.029   0.607   1.331  0.00  0.00    -0.078 A 
ATOM      4  C2  OXE d   1       1.272   0.052   1.145  0.00  0.00    -0.078 A 
ATOM      5  C3  OXE d   1       1.536  -0.675  -0.012  0.00  0.00     0.003 A 
ATOM      6  C4  OXE d   1       0.600  -0.716  -1.053  0.00  0.00    -0.002 A 
ATOM      7  C5  OXE d   1      -0.658  -0.124  -0.899  0.00  0.00    -0.002 A 
ATOM      8  C6  OXE d   1      -0.974   0.503   0.300  0.00  0.00     0.003 A 
ENDROOT
TORSDOF 0
ENDMDL
