MODEL 1
REMARK minimizedAffinity -2.2227571
REMARK minimizedRMSD -1
REMARK  0 active torsions:
REMARK  status: ('A' for Active; 'I' for Inactive)
ROOT
ATOM      1  C2' OXE d   1       1.954   0.541   1.732  0.00  0.00     0.078 C 
ATOM      2  C1' OXE d   1      -0.515   1.483   2.678  0.00  0.00     0.078 C 
ATOM      3  C1  OXE d   1      -0.494   0.787   1.340  0.00  0.00    -0.078 A 
ATOM      4  C2  OXE d   1       0.726   0.371   0.863  0.00  0.00    -0.078 A 
ATOM      5  C3  OXE d   1       0.796  -0.325  -0.340  0.00  0.00     0.003 A 
ATOM      6  C4  OXE d   1      -0.343  -0.469  -1.142  0.00  0.00    -0.002 A 
ATOM      7  C5  OXE d   1      -1.589  -0.017  -0.694  0.00  0.00    -0.002 A 
ATOM      8  C6  OXE d   1      -1.688   0.574   0.561  0.00  0.00     0.003 A 
ENDROOT
TORSDOF 0
ENDMDL
