MODEL 1
REMARK minimizedAffinity -1.18089378
REMARK minimizedRMSD -1
REMARK  0 active torsions:
REMARK  status: ('A' for Active; 'I' for Inactive)
ROOT
ATOM      1  C2' OXE d   1       1.514   0.243   1.135  0.00  0.00     0.078 C 
ATOM      2  C1' OXE d   1       1.168  -0.062  -1.634  0.00  0.00     0.078 C 
ATOM      3  C1  OXE d   1      -0.061  -0.116  -0.762  0.00  0.00    -0.078 A 
ATOM      4  C2  OXE d   1       0.123  -0.013   0.596  0.00  0.00    -0.078 A 
ATOM      5  C3  OXE d   1      -0.983  -0.002   1.442  0.00  0.00     0.003 A 
ATOM      6  C4  OXE d   1      -2.265  -0.248   0.937  0.00  0.00    -0.002 A 
ATOM      7  C5  OXE d   1      -2.469  -0.396  -0.439  0.00  0.00    -0.002 A 
ATOM      8  C6  OXE d   1      -1.386  -0.290  -1.304  0.00  0.00     0.003 A 
ENDROOT
TORSDOF 0
ENDMDL
