MODEL 1
REMARK minimizedAffinity -2.52936602
REMARK minimizedRMSD -1
REMARK  0 active torsions:
REMARK  status: ('A' for Active; 'I' for Inactive)
ROOT
ATOM      1  C2' OXE d   1      -1.892  -0.012  -0.397  0.00  0.00     0.078 C 
ATOM      2  C1' OXE d   1       0.641  -0.891  -1.230  0.00  0.00     0.078 C 
ATOM      3  C1  OXE d   1       0.555  -0.112   0.059  0.00  0.00    -0.078 A 
ATOM      4  C2  OXE d   1      -0.682   0.355   0.434  0.00  0.00    -0.078 A 
ATOM      5  C3  OXE d   1      -0.825   1.032   1.642  0.00  0.00     0.003 A 
ATOM      6  C4  OXE d   1       0.301   1.376   2.400  0.00  0.00    -0.002 A 
ATOM      7  C5  OXE d   1       1.575   0.945   2.014  0.00  0.00    -0.002 A 
ATOM      8  C6  OXE d   1       1.714   0.166   0.871  0.00  0.00     0.003 A 
ENDROOT
TORSDOF 0
ENDMDL
