MODEL 1
REMARK minimizedAffinity -2.80745053
REMARK minimizedRMSD -1
REMARK  0 active torsions:
REMARK  status: ('A' for Active; 'I' for Inactive)
ROOT
ATOM      1  C2' OXE d   1      -0.788   1.263   1.910  0.00  0.00     0.078 C 
ATOM      2  C1' OXE d   1      -2.057   0.334  -0.415  0.00  0.00     0.078 C 
ATOM      3  C1  OXE d   1      -0.581   0.063  -0.263  0.00  0.00    -0.078 A 
ATOM      4  C2  OXE d   1       0.041   0.562   0.856  0.00  0.00    -0.078 A 
ATOM      5  C3  OXE d   1       1.390   0.294   1.073  0.00  0.00     0.003 A 
ATOM      6  C4  OXE d   1       2.152  -0.347   0.088  0.00  0.00    -0.002 A 
ATOM      7  C5  OXE d   1       1.546  -0.828  -1.077  0.00  0.00    -0.002 A 
ATOM      8  C6  OXE d   1       0.176  -0.669  -1.248  0.00  0.00     0.003 A 
ENDROOT
TORSDOF 0
ENDMDL
