MODEL 1
REMARK minimizedAffinity -3.29235649
REMARK minimizedRMSD -1
REMARK  0 active torsions:
REMARK  status: ('A' for Active; 'I' for Inactive)
ROOT
ATOM      1  C2' OXE d   1      -0.744   1.200   3.010  0.00  0.00     0.078 C 
ATOM      2  C1' OXE d   1      -2.982   0.433   1.498  0.00  0.00     0.078 C 
ATOM      3  C1  OXE d   1      -1.618   0.231   0.887  0.00  0.00    -0.078 A 
ATOM      4  C2  OXE d   1      -0.531   0.652   1.615  0.00  0.00    -0.078 A 
ATOM      5  C3  OXE d   1       0.753   0.439   1.122  0.00  0.00     0.003 A 
ATOM      6  C4  OXE d   1       0.941  -0.060  -0.173  0.00  0.00    -0.002 A 
ATOM      7  C5  OXE d   1      -0.154  -0.458  -0.947  0.00  0.00    -0.002 A 
ATOM      8  C6  OXE d   1      -1.435  -0.359  -0.416  0.00  0.00     0.003 A 
ENDROOT
TORSDOF 0
ENDMDL
