MODEL 1
REMARK minimizedAffinity -4.45745134
REMARK minimizedRMSD -1
REMARK  0 active torsions:
REMARK  status: ('A' for Active; 'I' for Inactive)
ROOT
ATOM      1  C2' OXE d   1       1.446  -0.481   1.089  0.00  0.00     0.078 C 
ATOM      2  C1' OXE d   1       0.237  -0.270  -1.436  0.00  0.00     0.078 C 
ATOM      3  C1  OXE d   1      -0.599   0.062  -0.226  0.00  0.00    -0.078 A 
ATOM      4  C2  OXE d   1      -0.014  -0.089   1.008  0.00  0.00    -0.078 A 
ATOM      5  C3  OXE d   1      -0.724   0.256   2.154  0.00  0.00     0.003 A 
ATOM      6  C4  OXE d   1      -2.076   0.609   2.072  0.00  0.00    -0.002 A 
ATOM      7  C5  OXE d   1      -2.704   0.730   0.827  0.00  0.00    -0.002 A 
ATOM      8  C6  OXE d   1      -1.969   0.502  -0.331  0.00  0.00     0.003 A 
ENDROOT
TORSDOF 0
ENDMDL
