MODEL 1
REMARK minimizedAffinity -3.37485075
REMARK minimizedRMSD -1
REMARK  0 active torsions:
REMARK  status: ('A' for Active; 'I' for Inactive)
ROOT
ATOM      1  C2' OXE d   1       0.322  -0.741  -1.278  0.00  0.00     0.078 C 
ATOM      2  C1' OXE d   1       2.024  -0.711   0.954  0.00  0.00     0.078 C 
ATOM      3  C1  OXE d   1       0.593  -0.282   1.156  0.00  0.00    -0.078 A 
ATOM      4  C2  OXE d   1      -0.221  -0.256   0.049  0.00  0.00    -0.078 A 
ATOM      5  C3  OXE d   1      -1.565   0.080   0.189  0.00  0.00     0.003 A 
ATOM      6  C4  OXE d   1      -2.057   0.537   1.417  0.00  0.00    -0.002 A 
ATOM      7  C5  OXE d   1      -1.234   0.556   2.549  0.00  0.00    -0.002 A 
ATOM      8  C6  OXE d   1       0.078   0.110   2.445  0.00  0.00     0.003 A 
ENDROOT
TORSDOF 0
ENDMDL
