MODEL 1
REMARK minimizedAffinity -4.18341064
REMARK minimizedRMSD -1
REMARK  0 active torsions:
REMARK  status: ('A' for Active; 'I' for Inactive)
ROOT
ATOM      1  C2' OXE d   1      -0.868   1.614   3.039  0.00  0.00     0.078 C 
ATOM      2  C1' OXE d   1      -2.976  -0.015   2.154  0.00  0.00     0.078 C 
ATOM      3  C1  OXE d   1      -1.699  -0.020   1.352  0.00  0.00    -0.078 A 
ATOM      4  C2  OXE d   1      -0.689   0.815   1.766  0.00  0.00    -0.078 A 
ATOM      5  C3  OXE d   1       0.530   0.808   1.094  0.00  0.00     0.003 A 
ATOM      6  C4  OXE d   1       0.683   0.074  -0.088  0.00  0.00    -0.002 A 
ATOM      7  C5  OXE d   1      -0.347  -0.753  -0.549  0.00  0.00    -0.002 A 
ATOM      8  C6  OXE d   1      -1.526  -0.844   0.181  0.00  0.00     0.003 A 
ENDROOT
TORSDOF 0
ENDMDL
