MODEL 1
REMARK minimizedAffinity -4.44273233
REMARK minimizedRMSD -1
REMARK  0 active torsions:
REMARK  status: ('A' for Active; 'I' for Inactive)
ROOT
ATOM      1  O1  BZF d   1      -0.987  -0.684  -0.428  0.00  0.00    -0.204 OA
ATOM      2  C2  BZF d   1      -0.029  -0.410  -1.385  0.00  0.00     0.174 A 
ATOM      3  C3  BZF d   1       1.047   0.183  -0.829  0.00  0.00    -0.012 A 
ATOM      4  C3A BZF d   1       0.781   0.202   0.577  0.00  0.00    -0.107 A 
ATOM      5  C4  BZF d   1       1.483   0.649   1.660  0.00  0.00     0.055 A 
ATOM      6  C5  BZF d   1       0.911   0.587   2.890  0.00  0.00    -0.016 A 
ATOM      7  C6  BZF d   1      -0.362   0.088   3.074  0.00  0.00     0.022 A 
ATOM      8  C7  BZF d   1      -1.096  -0.372   2.032  0.00  0.00     0.029 A 
ATOM      9  C7A BZF d   1      -0.507  -0.341   0.791  0.00  0.00     0.058 A 
ENDROOT
TORSDOF 0
ENDMDL
