MODEL 1
REMARK minimizedAffinity -4.41839886
REMARK minimizedRMSD -1
REMARK  0 active torsions:
REMARK  status: ('A' for Active; 'I' for Inactive)
ROOT
ATOM      1  O1  BZF d   1       3.437  -1.249  -4.514  0.00  0.00    -0.204 OA
ATOM      2  C2  BZF d   1       4.116  -0.072  -4.268  0.00  0.00     0.174 A 
ATOM      3  C3  BZF d   1       3.341   0.794  -3.584  0.00  0.00    -0.012 A 
ATOM      4  C3A BZF d   1       2.131   0.080  -3.310  0.00  0.00    -0.107 A 
ATOM      5  C4  BZF d   1       0.981   0.402  -2.648  0.00  0.00     0.055 A 
ATOM      6  C5  BZF d   1      -0.040  -0.496  -2.623  0.00  0.00    -0.016 A 
ATOM      7  C6  BZF d   1       0.054  -1.719  -3.253  0.00  0.00     0.022 A 
ATOM      8  C7  BZF d   1       1.177  -2.085  -3.918  0.00  0.00     0.029 A 
ATOM      9  C7A BZF d   1       2.222  -1.194  -3.917  0.00  0.00     0.058 A 
ENDROOT
TORSDOF 0
ENDMDL
