MODEL 1
REMARK minimizedAffinity -4.74652767
REMARK minimizedRMSD -1
REMARK  0 active torsions:
REMARK  status: ('A' for Active; 'I' for Inactive)
ROOT
ATOM      1  O1  BZF d   1      -1.641  -0.597   1.885  0.00  0.00    -0.204 OA
ATOM      2  C2  BZF d   1      -1.030  -0.435   3.113  0.00  0.00     0.174 A 
ATOM      3  C3  BZF d   1       0.263  -0.082   2.962  0.00  0.00    -0.012 A 
ATOM      4  C3A BZF d   1       0.449   0.070   1.551  0.00  0.00    -0.107 A 
ATOM      5  C4  BZF d   1       1.517   0.424   0.778  0.00  0.00     0.055 A 
ATOM      6  C5  BZF d   1       1.388   0.406  -0.575  0.00  0.00    -0.016 A 
ATOM      7  C6  BZF d   1       0.209   0.035  -1.187  0.00  0.00     0.022 A 
ATOM      8  C7  BZF d   1      -0.880  -0.319  -0.461  0.00  0.00     0.029 A 
ATOM      9  C7A BZF d   1      -0.762  -0.270   0.906  0.00  0.00     0.058 A 
ENDROOT
TORSDOF 0
ENDMDL
