MODEL 1
REMARK minimizedAffinity -5.45083714
REMARK minimizedRMSD -1
REMARK  0 active torsions:
REMARK  status: ('A' for Active; 'I' for Inactive)
ROOT
ATOM      1  O1  BZF d   1      -1.135  -0.719   2.606  0.00  0.00    -0.204 OA
ATOM      2  C2  BZF d   1      -0.501  -0.388   3.788  0.00  0.00     0.174 A 
ATOM      3  C3  BZF d   1       0.628   0.310   3.546  0.00  0.00    -0.012 A 
ATOM      4  C3A BZF d   1       0.656   0.501   2.128  0.00  0.00    -0.107 A 
ATOM      5  C4  BZF d   1       1.522   1.134   1.283  0.00  0.00     0.055 A 
ATOM      6  C5  BZF d   1       1.300   1.074  -0.056  0.00  0.00    -0.016 A 
ATOM      7  C6  BZF d   1       0.227   0.387  -0.584  0.00  0.00     0.022 A 
ATOM      8  C7  BZF d   1      -0.662  -0.253   0.214  0.00  0.00     0.029 A 
ATOM      9  C7A BZF d   1      -0.459  -0.166   1.570  0.00  0.00     0.058 A 
ENDROOT
TORSDOF 0
ENDMDL
