MODEL 1
REMARK minimizedAffinity -4.98057747
REMARK minimizedRMSD -1
REMARK  0 active torsions:
REMARK  status: ('A' for Active; 'I' for Inactive)
ROOT
ATOM      1  O1  BZF d   1      -1.673   0.627  -1.156  0.00  0.00    -0.204 OA
ATOM      2  C2  BZF d   1      -0.653   1.008  -2.006  0.00  0.00     0.174 A 
ATOM      3  C3  BZF d   1       0.548   0.857  -1.409  0.00  0.00    -0.012 A 
ATOM      4  C3A BZF d   1       0.265   0.263  -0.139  0.00  0.00    -0.107 A 
ATOM      5  C4  BZF d   1       1.048  -0.144   0.903  0.00  0.00     0.055 A 
ATOM      6  C5  BZF d   1       0.455  -0.617   2.030  0.00  0.00    -0.016 A 
ATOM      7  C6  BZF d   1      -0.917  -0.693   2.151  0.00  0.00     0.022 A 
ATOM      8  C7  BZF d   1      -1.735  -0.306   1.143  0.00  0.00     0.029 A 
ATOM      9  C7A BZF d   1      -1.138   0.142  -0.010  0.00  0.00     0.058 A 
ENDROOT
TORSDOF 0
ENDMDL
