MODEL 1
REMARK minimizedAffinity -3.90051031
REMARK minimizedRMSD -1
REMARK  0 active torsions:
REMARK  status: ('A' for Active; 'I' for Inactive)
ROOT
ATOM      1  O1  BZF d   1      -1.061   0.017  -0.461  0.00  0.00    -0.204 OA
ATOM      2  C2  BZF d   1      -0.022   0.196  -1.354  0.00  0.00     0.174 A 
ATOM      3  C3  BZF d   1       1.152   0.325  -0.703  0.00  0.00    -0.012 A 
ATOM      4  C3A BZF d   1       0.839   0.129   0.679  0.00  0.00    -0.107 A 
ATOM      5  C4  BZF d   1       1.589   0.121   1.820  0.00  0.00     0.055 A 
ATOM      6  C5  BZF d   1       0.967  -0.027   3.019  0.00  0.00    -0.016 A 
ATOM      7  C6  BZF d   1      -0.402  -0.164   3.115  0.00  0.00     0.022 A 
ATOM      8  C7  BZF d   1      -1.188  -0.168   2.011  0.00  0.00     0.029 A 
ATOM      9  C7A BZF d   1      -0.559  -0.052   0.795  0.00  0.00     0.058 A 
ENDROOT
TORSDOF 0
ENDMDL
