MODEL 1
REMARK minimizedAffinity -4.6442337
REMARK minimizedRMSD -1
REMARK  0 active torsions:
REMARK  status: ('A' for Active; 'I' for Inactive)
ROOT
ATOM      1  O1  BZF d   1       0.146  -0.368   2.869  0.00  0.00    -0.204 OA
ATOM      2  C2  BZF d   1      -1.060  -1.028   2.738  0.00  0.00     0.174 A 
ATOM      3  C3  BZF d   1      -1.528  -0.924   1.478  0.00  0.00    -0.012 A 
ATOM      4  C3A BZF d   1      -0.508  -0.230   0.753  0.00  0.00    -0.107 A 
ATOM      5  C4  BZF d   1      -0.382   0.160  -0.549  0.00  0.00     0.055 A 
ATOM      6  C5  BZF d   1       0.707   0.885  -0.919  0.00  0.00    -0.016 A 
ATOM      7  C6  BZF d   1       1.684   1.242  -0.012  0.00  0.00     0.022 A 
ATOM      8  C7  BZF d   1       1.604   0.873   1.289  0.00  0.00     0.029 A 
ATOM      9  C7A BZF d   1       0.522   0.112   1.659  0.00  0.00     0.058 A 
ENDROOT
TORSDOF 0
ENDMDL
