MODEL 1
REMARK minimizedAffinity -4.65469933
REMARK minimizedRMSD -1
REMARK  0 active torsions:
REMARK  status: ('A' for Active; 'I' for Inactive)
ROOT
ATOM      1  O1  BZF d   1      -1.255  -0.780   2.063  0.00  0.00    -0.204 OA
ATOM      2  C2  BZF d   1      -0.582  -0.600   3.256  0.00  0.00     0.174 A 
ATOM      3  C3  BZF d   1       0.650  -0.095   3.039  0.00  0.00    -0.012 A 
ATOM      4  C3A BZF d   1       0.718   0.136   1.628  0.00  0.00    -0.107 A 
ATOM      5  C4  BZF d   1       1.683   0.643   0.806  0.00  0.00     0.055 A 
ATOM      6  C5  BZF d   1       1.462   0.667  -0.535  0.00  0.00    -0.016 A 
ATOM      7  C6  BZF d   1       0.292   0.189  -1.087  0.00  0.00     0.022 A 
ATOM      8  C7  BZF d   1      -0.697  -0.319  -0.311  0.00  0.00     0.029 A 
ATOM      9  C7A BZF d   1      -0.490  -0.314   1.047  0.00  0.00     0.058 A 
ENDROOT
TORSDOF 0
ENDMDL
