MODEL 1
REMARK minimizedAffinity -4.19083214
REMARK minimizedRMSD -1
REMARK  0 active torsions:
REMARK  status: ('A' for Active; 'I' for Inactive)
ROOT
ATOM      1  O1  BZF d   1       1.403   0.534  -0.292  0.00  0.00    -0.204 OA
ATOM      2  C2  BZF d   1       0.637   0.287  -1.415  0.00  0.00     0.174 A 
ATOM      3  C3  BZF d   1      -0.465  -0.422  -1.096  0.00  0.00    -0.012 A 
ATOM      4  C3A BZF d   1      -0.430  -0.553   0.328  0.00  0.00    -0.107 A 
ATOM      5  C4  BZF d   1      -1.261  -1.142   1.237  0.00  0.00     0.055 A 
ATOM      6  C5  BZF d   1      -0.902  -1.155   2.548  0.00  0.00    -0.016 A 
ATOM      7  C6  BZF d   1       0.281  -0.594   2.983  0.00  0.00     0.022 A 
ATOM      8  C7  BZF d   1       1.135   0.006   2.119  0.00  0.00     0.029 A 
ATOM      9  C7A BZF d   1       0.760   0.050   0.798  0.00  0.00     0.058 A 
ENDROOT
TORSDOF 0
ENDMDL
