MODEL 1
REMARK minimizedAffinity -3.21918893
REMARK minimizedRMSD -1
REMARK  0 active torsions:
REMARK  status: ('A' for Active; 'I' for Inactive)
ROOT
ATOM      1  O1  BZF d   1       1.178   0.668  -0.176  0.00  0.00    -0.204 OA
ATOM      2  C2  BZF d   1       0.421   0.314  -1.276  0.00  0.00     0.174 A 
ATOM      3  C3  BZF d   1      -0.725  -0.286  -0.894  0.00  0.00    -0.012 A 
ATOM      4  C3A BZF d   1      -0.724  -0.225   0.535  0.00  0.00    -0.107 A 
ATOM      5  C4  BZF d   1      -1.604  -0.640   1.494  0.00  0.00     0.055 A 
ATOM      6  C5  BZF d   1      -1.271  -0.495   2.803  0.00  0.00    -0.016 A 
ATOM      7  C6  BZF d   1      -0.066   0.055   3.190  0.00  0.00     0.022 A 
ATOM      8  C7  BZF d   1       0.837   0.486   2.276  0.00  0.00     0.029 A 
ATOM      9  C7A BZF d   1       0.489   0.371   0.952  0.00  0.00     0.058 A 
ENDROOT
TORSDOF 0
ENDMDL
