MODEL 1
REMARK minimizedAffinity -1.81851065
REMARK minimizedRMSD -1
REMARK  0 active torsions:
REMARK  status: ('A' for Active; 'I' for Inactive)
ROOT
ATOM      1  O1  BZF d   1      -2.121   0.146   2.608  0.00  0.00    -0.204 OA
ATOM      2  C2  BZF d   1      -1.323   0.249   3.731  0.00  0.00     0.174 A 
ATOM      3  C3  BZF d   1      -0.018   0.247   3.393  0.00  0.00    -0.012 A 
ATOM      4  C3A BZF d   1       0.000   0.229   1.962  0.00  0.00    -0.107 A 
ATOM      5  C4  BZF d   1       1.003   0.234   1.035  0.00  0.00     0.055 A 
ATOM      6  C5  BZF d   1       0.686   0.137  -0.282  0.00  0.00    -0.016 A 
ATOM      7  C6  BZF d   1      -0.622   0.029  -0.708  0.00  0.00     0.022 A 
ATOM      8  C7  BZF d   1      -1.651   0.025   0.174  0.00  0.00     0.029 A 
ATOM      9  C7A BZF d   1      -1.336   0.156   1.504  0.00  0.00     0.058 A 
ENDROOT
TORSDOF 0
ENDMDL
