MODEL 1
REMARK minimizedAffinity -2.79663467
REMARK minimizedRMSD -1
REMARK  0 active torsions:
REMARK  status: ('A' for Active; 'I' for Inactive)
ROOT
ATOM      1  O1  BZF d   1       0.535   1.001  -0.601  0.00  0.00    -0.204 OA
ATOM      2  C2  BZF d   1       0.523  -0.135  -1.387  0.00  0.00     0.174 A 
ATOM      3  C3  BZF d   1       0.366  -1.240  -0.628  0.00  0.00    -0.012 A 
ATOM      4  C3A BZF d   1       0.182  -0.757   0.706  0.00  0.00    -0.107 A 
ATOM      5  C4  BZF d   1      -0.038  -1.372   1.905  0.00  0.00     0.055 A 
ATOM      6  C5  BZF d   1      -0.099  -0.617   3.033  0.00  0.00    -0.016 A 
ATOM      7  C6  BZF d   1       0.059   0.753   3.000  0.00  0.00     0.022 A 
ATOM      8  C7  BZF d   1       0.274   1.409   1.833  0.00  0.00     0.029 A 
ATOM      9  C7A BZF d   1       0.304   0.652   0.687  0.00  0.00     0.058 A 
ENDROOT
TORSDOF 0
ENDMDL
