MODEL 1
REMARK minimizedAffinity -6.13660049
REMARK minimizedRMSD -1
REMARK  0 active torsions:
REMARK  status: ('A' for Active; 'I' for Inactive)
ROOT
ATOM      1  O1  BZF d   1      -0.009   0.184  -0.472  0.00  0.00    -0.204 OA
ATOM      2  C2  BZF d   1       1.352   0.070  -0.260  0.00  0.00     0.174 A 
ATOM      3  C3  BZF d   1       1.626  -0.003   1.058  0.00  0.00    -0.012 A 
ATOM      4  C3A BZF d   1       0.351  -0.024   1.707  0.00  0.00    -0.107 A 
ATOM      5  C4  BZF d   1      -0.036  -0.104   3.015  0.00  0.00     0.055 A 
ATOM      6  C5  BZF d   1      -1.358  -0.026   3.318  0.00  0.00    -0.016 A 
ATOM      7  C6  BZF d   1      -2.319   0.137   2.342  0.00  0.00     0.022 A 
ATOM      8  C7  BZF d   1      -1.984   0.217   1.031  0.00  0.00     0.029 A 
ATOM      9  C7A BZF d   1      -0.651   0.105   0.718  0.00  0.00     0.058 A 
ENDROOT
TORSDOF 0
ENDMDL
