MODEL 1
REMARK minimizedAffinity 5.62810087
REMARK minimizedRMSD -1
REMARK  0 active torsions:
REMARK  status: ('A' for Active; 'I' for Inactive)
ROOT
ATOM      1  C4' PXY d   1      -3.804  -1.248  -3.354  0.00  0.00     0.077 C 
ATOM      2  C1' PXY d   1      -2.249  -5.066   0.699  0.00  0.00     0.077 C 
ATOM      3  C1  PXY d   1      -2.644  -4.064  -0.368  0.00  0.00    -0.082 A 
ATOM      4  C2  PXY d   1      -3.741  -3.341  -0.212  0.00  0.00     0.003 A 
ATOM      5  C3  PXY d   1      -4.131  -2.453  -1.181  0.00  0.00     0.003 A 
ATOM      6  C4  PXY d   1      -3.361  -2.265  -2.298  0.00  0.00    -0.082 A 
ATOM      7  C5  PXY d   1      -2.234  -2.991  -2.460  0.00  0.00     0.003 A 
ATOM      8  C6  PXY d   1      -1.878  -3.917  -1.483  0.00  0.00     0.003 A 
ENDROOT
TORSDOF 0
ENDMDL
