MODEL 1
REMARK minimizedAffinity 14.0831385
REMARK minimizedRMSD -1
REMARK  0 active torsions:
REMARK  status: ('A' for Active; 'I' for Inactive)
ROOT
ATOM      1  C4' PXY d   1      -5.899  -0.073   4.925  0.00  0.00     0.077 C 
ATOM      2  C1' PXY d   1      -2.086  -1.490   0.817  0.00  0.00     0.077 C 
ATOM      3  C1  PXY d   1      -3.077  -1.122   1.904  0.00  0.00    -0.082 A 
ATOM      4  C2  PXY d   1      -4.372  -1.110   1.631  0.00  0.00     0.003 A 
ATOM      5  C3  PXY d   1      -5.280  -0.749   2.593  0.00  0.00     0.003 A 
ATOM      6  C4  PXY d   1      -4.862  -0.447   3.862  0.00  0.00    -0.082 A 
ATOM      7  C5  PXY d   1      -3.544  -0.468   4.150  0.00  0.00     0.003 A 
ATOM      8  C6  PXY d   1      -2.635  -0.797   3.149  0.00  0.00     0.003 A 
ENDROOT
TORSDOF 0
ENDMDL
