MODEL 1
REMARK minimizedAffinity 9.35608196
REMARK minimizedRMSD -1
REMARK  0 active torsions:
REMARK  status: ('A' for Active; 'I' for Inactive)
ROOT
ATOM      1  C4' PXY d   1      -0.544   0.369   2.173  0.00  0.00     0.077 C 
ATOM      2  C1' PXY d   1       5.099   1.162   1.200  0.00  0.00     0.077 C 
ATOM      3  C1  PXY d   1       3.618   0.948   1.443  0.00  0.00    -0.082 A 
ATOM      4  C2  PXY d   1       2.975   1.731   2.294  0.00  0.00     0.003 A 
ATOM      5  C3  PXY d   1       1.643   1.532   2.550  0.00  0.00     0.003 A 
ATOM      6  C4  PXY d   1       0.949   0.554   1.889  0.00  0.00    -0.082 A 
ATOM      7  C5  PXY d   1       1.595  -0.242   1.011  0.00  0.00     0.003 A 
ATOM      8  C6  PXY d   1       2.957  -0.050   0.796  0.00  0.00     0.003 A 
ENDROOT
TORSDOF 0
ENDMDL
