MODEL 1
REMARK minimizedAffinity 7.59819651
REMARK minimizedRMSD -1
REMARK  0 active torsions:
REMARK  status: ('A' for Active; 'I' for Inactive)
ROOT
ATOM      1  C4' PXY d   1      -5.999  -0.976   1.494  0.00  0.00     0.077 C 
ATOM      2  C1' PXY d   1      -2.817  -2.840   5.945  0.00  0.00     0.077 C 
ATOM      3  C1  PXY d   1      -3.660  -2.361   4.780  0.00  0.00    -0.082 A 
ATOM      4  C2  PXY d   1      -3.091  -1.683   3.796  0.00  0.00     0.003 A 
ATOM      5  C3  PXY d   1      -3.845  -1.215   2.751  0.00  0.00     0.003 A 
ATOM      6  C4  PXY d   1      -5.185  -1.488   2.686  0.00  0.00    -0.082 A 
ATOM      7  C5  PXY d   1      -5.771  -2.187   3.681  0.00  0.00     0.003 A 
ATOM      8  C6  PXY d   1      -4.996  -2.619   4.753  0.00  0.00     0.003 A 
ENDROOT
TORSDOF 0
ENDMDL
