MODEL 1
REMARK minimizedAffinity 5.81677198
REMARK minimizedRMSD -1
REMARK  0 active torsions:
REMARK  status: ('A' for Active; 'I' for Inactive)
ROOT
ATOM      1  C4' PXY d   1      -0.094  -4.303   3.890  0.00  0.00     0.077 C 
ATOM      2  C1' PXY d   1      -3.787  -4.549  -0.551  0.00  0.00     0.077 C 
ATOM      3  C1  PXY d   1      -2.824  -4.495   0.619  0.00  0.00    -0.082 A 
ATOM      4  C2  PXY d   1      -2.232  -3.352   0.927  0.00  0.00     0.003 A 
ATOM      5  C3  PXY d   1      -1.334  -3.293   1.961  0.00  0.00     0.003 A 
ATOM      6  C4  PXY d   1      -1.080  -4.402   2.723  0.00  0.00    -0.082 A 
ATOM      7  C5  PXY d   1      -1.689  -5.569   2.422  0.00  0.00     0.003 A 
ATOM      8  C6  PXY d   1      -2.565  -5.618   1.342  0.00  0.00     0.003 A 
ENDROOT
TORSDOF 0
ENDMDL
