MODEL 1
REMARK minimizedAffinity 9.4416256
REMARK minimizedRMSD -1
REMARK  0 active torsions:
REMARK  status: ('A' for Active; 'I' for Inactive)
ROOT
ATOM      1  C4' PXY d   1      -5.999   2.249   0.338  0.00  0.00     0.077 C 
ATOM      2  C1' PXY d   1      -1.342  -0.748   1.996  0.00  0.00     0.077 C 
ATOM      3  C1  PXY d   1      -2.558   0.049   1.566  0.00  0.00    -0.082 A 
ATOM      4  C2  PXY d   1      -3.722  -0.562   1.421  0.00  0.00     0.003 A 
ATOM      5  C3  PXY d   1      -4.825   0.137   1.001  0.00  0.00     0.003 A 
ATOM      6  C4  PXY d   1      -4.747   1.486   0.780  0.00  0.00    -0.082 A 
ATOM      7  C5  PXY d   1      -3.565   2.118   0.936  0.00  0.00     0.003 A 
ATOM      8  C6  PXY d   1      -2.448   1.383   1.323  0.00  0.00     0.003 A 
ENDROOT
TORSDOF 0
ENDMDL
