MODEL 1
REMARK minimizedAffinity 17.6813564
REMARK minimizedRMSD -1
REMARK  0 active torsions:
REMARK  status: ('A' for Active; 'I' for Inactive)
ROOT
ATOM      1  C4' PXY d   1       4.106   0.079  -1.654  0.00  0.00     0.077 C 
ATOM      2  C1' PXY d   1       0.788  -2.778   2.120  0.00  0.00     0.077 C 
ATOM      3  C1  PXY d   1       1.651  -2.018   1.132  0.00  0.00    -0.082 A 
ATOM      4  C2  PXY d   1       2.350  -2.684   0.227  0.00  0.00     0.003 A 
ATOM      5  C3  PXY d   1       3.160  -2.015  -0.654  0.00  0.00     0.003 A 
ATOM      6  C4  PXY d   1       3.214  -0.646  -0.643  0.00  0.00    -0.082 A 
ATOM      7  C5  PXY d   1       2.496   0.040   0.271  0.00  0.00     0.003 A 
ATOM      8  C6  PXY d   1       1.711  -0.660   1.182  0.00  0.00     0.003 A 
ENDROOT
TORSDOF 0
ENDMDL
