MODEL 1
REMARK minimizedAffinity -2.31393361
REMARK minimizedRMSD -1
REMARK  0 active torsions:
REMARK  status: ('A' for Active; 'I' for Inactive)
ROOT
ATOM      1  C4' PXY d   1      -1.179  -3.129  -0.413  0.00  0.00     0.077 C 
ATOM      2  C1' PXY d   1       2.419   0.928   1.590  0.00  0.00     0.077 C 
ATOM      3  C1  PXY d   1       1.484  -0.139   1.056  0.00  0.00    -0.082 A 
ATOM      4  C2  PXY d   1       0.179  -0.015   1.234  0.00  0.00     0.003 A 
ATOM      5  C3  PXY d   1      -0.678  -0.987   0.786  0.00  0.00     0.003 A 
ATOM      6  C4  PXY d   1      -0.199  -2.071   0.101  0.00  0.00    -0.082 A 
ATOM      7  C5  PXY d   1       1.131  -2.200  -0.095  0.00  0.00     0.003 A 
ATOM      8  C6  PXY d   1       1.987  -1.223   0.405  0.00  0.00     0.003 A 
ENDROOT
TORSDOF 0
ENDMDL
