MODEL 1
REMARK minimizedAffinity 11.1690207
REMARK minimizedRMSD -1
REMARK  0 active torsions:
REMARK  status: ('A' for Active; 'I' for Inactive)
ROOT
ATOM      1  C4' PXY d   1       1.254  -2.604   1.194  0.00  0.00     0.077 C 
ATOM      2  C1' PXY d   1       4.222   1.143  -2.057  0.00  0.00     0.077 C 
ATOM      3  C1  PXY d   1       3.443   0.169  -1.195  0.00  0.00    -0.082 A 
ATOM      4  C2  PXY d   1       3.510  -1.128  -1.449  0.00  0.00     0.003 A 
ATOM      5  C3  PXY d   1       2.788  -2.020  -0.699  0.00  0.00     0.003 A 
ATOM      6  C4  PXY d   1       2.030  -1.585   0.355  0.00  0.00    -0.082 A 
ATOM      7  C5  PXY d   1       1.965  -0.265   0.628  0.00  0.00     0.003 A 
ATOM      8  C6  PXY d   1       2.674   0.628  -0.171  0.00  0.00     0.003 A 
ENDROOT
TORSDOF 0
ENDMDL
