MODEL 1
REMARK minimizedAffinity 7.96199608
REMARK minimizedRMSD -1
REMARK  0 active torsions:
REMARK  status: ('A' for Active; 'I' for Inactive)
ROOT
ATOM      1  C4' PXY d   1       0.778  -5.949   5.536  0.00  0.00     0.077 C 
ATOM      2  C1' PXY d   1       0.158  -3.310   0.431  0.00  0.00     0.077 C 
ATOM      3  C1  PXY d   1       0.309  -4.008   1.768  0.00  0.00    -0.082 A 
ATOM      4  C2  PXY d   1       1.092  -3.482   2.696  0.00  0.00     0.003 A 
ATOM      5  C3  PXY d   1       1.266  -4.116   3.899  0.00  0.00     0.003 A 
ATOM      6  C4  PXY d   1       0.588  -5.274   4.175  0.00  0.00    -0.082 A 
ATOM      7  C5  PXY d   1      -0.221  -5.811   3.238  0.00  0.00     0.003 A 
ATOM      8  C6  PXY d   1      -0.351  -5.173   2.008  0.00  0.00     0.003 A 
ENDROOT
TORSDOF 0
ENDMDL
