MODEL 1
REMARK minimizedAffinity 1.33981895
REMARK minimizedRMSD -1
REMARK  0 active torsions:
REMARK  status: ('A' for Active; 'I' for Inactive)
ROOT
ATOM      1  C4' PXY d   1       2.300  -4.574  -1.309  0.00  0.00     0.077 C 
ATOM      2  C1' PXY d   1       2.113   0.643   1.175  0.00  0.00     0.077 C 
ATOM      3  C1  PXY d   1       2.158  -0.731   0.535  0.00  0.00    -0.082 A 
ATOM      4  C2  PXY d   1       2.915  -0.930  -0.532  0.00  0.00     0.003 A 
ATOM      5  C3  PXY d   1       2.943  -2.158  -1.143  0.00  0.00     0.003 A 
ATOM      6  C4  PXY d   1       2.230  -3.206  -0.624  0.00  0.00    -0.082 A 
ATOM      7  C5  PXY d   1       1.465  -3.013   0.471  0.00  0.00     0.003 A 
ATOM      8  C6  PXY d   1       1.418  -1.749   1.051  0.00  0.00     0.003 A 
ENDROOT
TORSDOF 0
ENDMDL
