MODEL 1
REMARK minimizedAffinity -1.76395869
REMARK minimizedRMSD -1
REMARK  0 active torsions:
REMARK  status: ('A' for Active; 'I' for Inactive)
ROOT
ATOM      1  C4' PXY d   1      -5.991   0.968  -0.306  0.00  0.00     0.077 C 
ATOM      2  C1' PXY d   1      -1.413   1.649   3.158  0.00  0.00     0.077 C 
ATOM      3  C1  PXY d   1      -2.611   1.458   2.248  0.00  0.00    -0.082 A 
ATOM      4  C2  PXY d   1      -3.075   2.483   1.554  0.00  0.00     0.003 A 
ATOM      5  C3  PXY d   1      -4.177   2.336   0.751  0.00  0.00     0.003 A 
ATOM      6  C4  PXY d   1      -4.778   1.113   0.618  0.00  0.00    -0.082 A 
ATOM      7  C5  PXY d   1      -4.304   0.059   1.315  0.00  0.00     0.003 A 
ATOM      8  C6  PXY d   1      -3.210   0.239   2.156  0.00  0.00     0.003 A 
ENDROOT
TORSDOF 0
ENDMDL
