MODEL 1
REMARK minimizedAffinity 4.58214283
REMARK minimizedRMSD -1
REMARK  0 active torsions:
REMARK  status: ('A' for Active; 'I' for Inactive)
ROOT
ATOM      1  C4' PXY d   1      -3.584   2.611  -3.716  0.00  0.00     0.077 C 
ATOM      2  C1' PXY d   1       1.851   2.665  -5.683  0.00  0.00     0.077 C 
ATOM      3  C1  PXY d   1       0.422   2.660  -5.176  0.00  0.00    -0.082 A 
ATOM      4  C2  PXY d   1       0.171   2.285  -3.932  0.00  0.00     0.003 A 
ATOM      5  C3  PXY d   1      -1.119   2.244  -3.467  0.00  0.00     0.003 A 
ATOM      6  C4  PXY d   1      -2.156   2.641  -4.267  0.00  0.00    -0.082 A 
ATOM      7  C5  PXY d   1      -1.907   3.035  -5.534  0.00  0.00     0.003 A 
ATOM      8  C6  PXY d   1      -0.596   3.030  -6.000  0.00  0.00     0.003 A 
ENDROOT
TORSDOF 0
ENDMDL
