MODEL 1
REMARK minimizedAffinity 7.26547337
REMARK minimizedRMSD -1
REMARK  0 active torsions:
REMARK  status: ('A' for Active; 'I' for Inactive)
ROOT
ATOM      1  C4' PXY d   1       2.506   1.112  -3.350  0.00  0.00     0.077 C 
ATOM      2  C1' PXY d   1      -1.659   4.126  -5.993  0.00  0.00     0.077 C 
ATOM      3  C1  PXY d   1      -0.563   3.331  -5.311  0.00  0.00    -0.082 A 
ATOM      4  C2  PXY d   1      -0.700   2.982  -4.042  0.00  0.00     0.003 A 
ATOM      5  C3  PXY d   1       0.296   2.291  -3.401  0.00  0.00     0.003 A 
ATOM      6  C4  PXY d   1       1.421   1.907  -4.081  0.00  0.00    -0.082 A 
ATOM      7  C5  PXY d   1       1.563   2.249  -5.379  0.00  0.00     0.003 A 
ATOM      8  C6  PXY d   1       0.559   2.986  -6.000  0.00  0.00     0.003 A 
ENDROOT
TORSDOF 0
ENDMDL
