MODEL 1
REMARK minimizedAffinity -3.66685915
REMARK minimizedRMSD -1
REMARK  0 active torsions:
REMARK  status: ('A' for Active; 'I' for Inactive)
ROOT
ATOM      1  C4' PXY d   1      -5.894   1.391   0.873  0.00  0.00     0.077 C 
ATOM      2  C1' PXY d   1      -0.130   1.052   0.604  0.00  0.00     0.077 C 
ATOM      3  C1  PXY d   1      -1.641   1.152   0.668  0.00  0.00    -0.082 A 
ATOM      4  C2  PXY d   1      -2.302   0.487   1.602  0.00  0.00     0.003 A 
ATOM      5  C3  PXY d   1      -3.671   0.541   1.655  0.00  0.00     0.003 A 
ATOM      6  C4  PXY d   1      -4.368   1.326   0.776  0.00  0.00    -0.082 A 
ATOM      7  C5  PXY d   1      -3.700   2.016  -0.173  0.00  0.00     0.003 A 
ATOM      8  C6  PXY d   1      -2.313   1.916  -0.236  0.00  0.00     0.003 A 
ENDROOT
TORSDOF 0
ENDMDL
