MODEL 1
REMARK minimizedAffinity 1.76464128
REMARK minimizedRMSD -1
REMARK  0 active torsions:
REMARK  status: ('A' for Active; 'I' for Inactive)
ROOT
ATOM      1  C4' PXY d   1       4.198   5.923   5.975  0.00  0.00     0.077 C 
ATOM      2  C1' PXY d   1       5.159   5.984   0.276  0.00  0.00     0.077 C 
ATOM      3  C1  PXY d   1       4.919   5.963   1.772  0.00  0.00    -0.082 A 
ATOM      4  C2  PXY d   1       3.680   5.987   2.236  0.00  0.00     0.003 A 
ATOM      5  C3  PXY d   1       3.445   6.000   3.587  0.00  0.00     0.003 A 
ATOM      6  C4  PXY d   1       4.488   5.934   4.472  0.00  0.00    -0.082 A 
ATOM      7  C5  PXY d   1       5.754   5.899   4.006  0.00  0.00     0.003 A 
ATOM      8  C6  PXY d   1       5.973   5.928   2.632  0.00  0.00     0.003 A 
ENDROOT
TORSDOF 0
ENDMDL
