MODEL 1
REMARK minimizedAffinity -4.20096445
REMARK minimizedRMSD -1
REMARK  0 active torsions:
REMARK  status: ('A' for Active; 'I' for Inactive)
ROOT
ATOM      1  C4' PXY d   1      -2.319  -1.606   1.104  0.00  0.00     0.077 C 
ATOM      2  C1' PXY d   1       2.170  -4.185  -1.467  0.00  0.00     0.077 C 
ATOM      3  C1  PXY d   1       0.987  -3.507  -0.804  0.00  0.00    -0.082 A 
ATOM      4  C2  PXY d   1       1.144  -2.918   0.370  0.00  0.00     0.003 A 
ATOM      5  C3  PXY d   1       0.078  -2.328   0.998  0.00  0.00     0.003 A 
ATOM      6  C4  PXY d   1      -1.151  -2.294   0.394  0.00  0.00    -0.082 A 
ATOM      7  C5  PXY d   1      -1.317  -2.885  -0.809  0.00  0.00     0.003 A 
ATOM      8  C6  PXY d   1      -0.231  -3.514  -1.411  0.00  0.00     0.003 A 
ENDROOT
TORSDOF 0
ENDMDL
