MODEL 1
REMARK minimizedAffinity 1.53573275
REMARK minimizedRMSD -1
REMARK  0 active torsions:
REMARK  status: ('A' for Active; 'I' for Inactive)
ROOT
ATOM      1  C4' PXY d   1      -0.399   1.473   2.406  0.00  0.00     0.077 C 
ATOM      2  C1' PXY d   1      -5.843   0.612   0.663  0.00  0.00     0.077 C 
ATOM      3  C1  PXY d   1      -4.415   0.850   1.114  0.00  0.00    -0.082 A 
ATOM      4  C2  PXY d   1      -3.642  -0.183   1.409  0.00  0.00     0.003 A 
ATOM      5  C3  PXY d   1      -2.359   0.015   1.849  0.00  0.00     0.003 A 
ATOM      6  C4  PXY d   1      -1.844   1.281   1.937  0.00  0.00    -0.082 A 
ATOM      7  C5  PXY d   1      -2.623   2.339   1.628  0.00  0.00     0.003 A 
ATOM      8  C6  PXY d   1      -3.936   2.119   1.223  0.00  0.00     0.003 A 
ENDROOT
TORSDOF 0
ENDMDL
