MODEL 1
REMARK minimizedAffinity 1.66249728
REMARK minimizedRMSD -1
REMARK  0 active torsions:
REMARK  status: ('A' for Active; 'I' for Inactive)
ROOT
ATOM      1  C4' PXY d   1      -0.174   4.253  -5.977  0.00  0.00     0.077 C 
ATOM      2  C1' PXY d   1      -5.953   4.105  -5.994  0.00  0.00     0.077 C 
ATOM      3  C1  PXY d   1      -4.437   4.132  -5.984  0.00  0.00    -0.082 A 
ATOM      4  C2  PXY d   1      -3.803   5.293  -5.977  0.00  0.00     0.003 A 
ATOM      5  C3  PXY d   1      -2.433   5.336  -6.000  0.00  0.00     0.003 A 
ATOM      6  C4  PXY d   1      -1.703   4.178  -5.977  0.00  0.00    -0.082 A 
ATOM      7  C5  PXY d   1      -2.343   2.989  -5.974  0.00  0.00     0.003 A 
ATOM      8  C6  PXY d   1      -3.734   2.967  -5.992  0.00  0.00     0.003 A 
ENDROOT
TORSDOF 0
ENDMDL
