MODEL 1
REMARK minimizedAffinity 0.08025489
REMARK minimizedRMSD -1
REMARK  0 active torsions:
REMARK  status: ('A' for Active; 'I' for Inactive)
ROOT
ATOM      1  C   UNL d   1      -1.807   2.114  -3.239  0.00  0.00     0.124 A 
ATOM      2  C1  UNL d   1      -0.847   3.033  -3.639  0.00  0.00     0.062 A 
ATOM      3  C2  UNL d   1       0.085   3.515  -2.725  0.00  0.00     0.162 A 
ATOM      4  C3  UNL d   1       0.063   3.078  -1.400  0.00  0.00    -0.034 A 
ATOM      5  C4  UNL d   1      -0.906   2.154  -1.005  0.00  0.00     0.162 A 
ATOM      6  C5  UNL d   1      -1.836   1.676  -1.922  0.00  0.00     0.062 A 
ATOM      7  F   UNL d   1      -2.763   0.788  -1.534  0.00  0.00    -0.097 F 
ATOM      8  F1  UNL d   1      -0.956   1.712   0.261  0.00  0.00    -0.096 F 
ATOM      9  I   UNL d   1       1.455   3.795  -0.030  0.00  0.00    -0.060 I 
ATOM     10  F2  UNL d   1       1.002   4.402  -3.139  0.00  0.00    -0.096 F 
ATOM     11  F3  UNL d   1      -0.818   3.460  -4.910  0.00  0.00    -0.097 F 
ATOM     12  F4  UNL d   1      -2.704   1.654  -4.120  0.00  0.00    -0.092 F 
ENDROOT
TORSDOF 0
ENDMDL
