MODEL 1
REMARK minimizedAffinity -0.393263906
REMARK minimizedRMSD -1
REMARK  0 active torsions:
REMARK  status: ('A' for Active; 'I' for Inactive)
ROOT
ATOM      1  C   UNL d   1       1.138  -0.864   0.698  0.00  0.00     0.124 A 
ATOM      2  C1  UNL d   1       2.087   0.000   0.170  0.00  0.00     0.062 A 
ATOM      3  C2  UNL d   1       1.761   1.330  -0.081  0.00  0.00     0.162 A 
ATOM      4  C3  UNL d   1       0.479   1.804   0.197  0.00  0.00    -0.034 A 
ATOM      5  C4  UNL d   1      -0.471   0.929   0.727  0.00  0.00     0.162 A 
ATOM      6  C5  UNL d   1      -0.140  -0.399   0.976  0.00  0.00     0.062 A 
ATOM      7  F   UNL d   1      -1.058  -1.232   1.485  0.00  0.00    -0.097 F 
ATOM      8  F1  UNL d   1      -1.713   1.352   1.006  0.00  0.00    -0.096 F 
ATOM      9  I   UNL d   1      -0.013   3.792  -0.176  0.00  0.00    -0.060 I 
ATOM     10  F2  UNL d   1       2.698   2.142  -0.591  0.00  0.00    -0.096 F 
ATOM     11  F3  UNL d   1       3.322  -0.447  -0.100  0.00  0.00    -0.097 F 
ATOM     12  F4  UNL d   1       1.454  -2.143   0.937  0.00  0.00    -0.092 F 
ENDROOT
TORSDOF 0
ENDMDL
