MODEL 1
REMARK minimizedAffinity -3.27252984
REMARK minimizedRMSD -1
REMARK  0 active torsions:
REMARK  status: ('A' for Active; 'I' for Inactive)
ROOT
ATOM      1  C   UNL d   1      -1.860   1.762  -3.308  0.00  0.00     0.124 A 
ATOM      2  C1  UNL d   1      -2.111   1.346  -2.008  0.00  0.00     0.062 A 
ATOM      3  C2  UNL d   1      -1.253   1.717  -0.977  0.00  0.00     0.162 A 
ATOM      4  C3  UNL d   1      -0.136   2.510  -1.241  0.00  0.00    -0.034 A 
ATOM      5  C4  UNL d   1       0.111   2.923  -2.552  0.00  0.00     0.162 A 
ATOM      6  C5  UNL d   1      -0.750   2.549  -3.579  0.00  0.00     0.062 A 
ATOM      7  F   UNL d   1      -0.506   2.952  -4.835  0.00  0.00    -0.097 F 
ATOM      8  F1  UNL d   1       1.176   3.685  -2.842  0.00  0.00    -0.096 F 
ATOM      9  I   UNL d   1       1.150   3.067   0.298  0.00  0.00    -0.060 I 
ATOM     10  F2  UNL d   1      -1.520   1.302   0.270  0.00  0.00    -0.096 F 
ATOM     11  F3  UNL d   1      -3.182   0.585  -1.744  0.00  0.00    -0.097 F 
ATOM     12  F4  UNL d   1      -2.687   1.403  -4.299  0.00  0.00    -0.092 F 
ENDROOT
TORSDOF 0
ENDMDL
