MODEL 1
REMARK minimizedAffinity 7.04294348
REMARK minimizedRMSD -1
REMARK  0 active torsions:
REMARK  status: ('A' for Active; 'I' for Inactive)
ROOT
ATOM      1  C   UNL d   1      -2.190   2.015  -3.930  0.00  0.00     0.124 A 
ATOM      2  C1  UNL d   1      -1.240   3.011  -4.111  0.00  0.00     0.062 A 
ATOM      3  C2  UNL d   1      -0.356   3.329  -3.084  0.00  0.00     0.162 A 
ATOM      4  C3  UNL d   1      -0.416   2.650  -1.867  0.00  0.00    -0.034 A 
ATOM      5  C4  UNL d   1      -1.375   1.650  -1.693  0.00  0.00     0.162 A 
ATOM      6  C5  UNL d   1      -2.257   1.336  -2.722  0.00  0.00     0.062 A 
ATOM      7  F   UNL d   1      -3.174   0.373  -2.545  0.00  0.00    -0.097 F 
ATOM      8  F1  UNL d   1      -1.461   0.977  -0.536  0.00  0.00    -0.096 F 
ATOM      9  I   UNL d   1       0.904   3.122  -0.330  0.00  0.00    -0.060 I 
ATOM     10  F2  UNL d   1       0.552   4.296  -3.286  0.00  0.00    -0.096 F 
ATOM     11  F3  UNL d   1      -1.175   3.669  -5.277  0.00  0.00    -0.097 F 
ATOM     12  F4  UNL d   1      -3.041   1.711  -4.919  0.00  0.00    -0.092 F 
ENDROOT
TORSDOF 0
ENDMDL
