MODEL 1
REMARK minimizedAffinity 2.91263628
REMARK minimizedRMSD -1
REMARK  0 active torsions:
REMARK  status: ('A' for Active; 'I' for Inactive)
ROOT
ATOM      1  C   UNL d   1       1.823   3.455   0.590  0.00  0.00     0.124 A 
ATOM      2  C1  UNL d   1       1.867   2.209  -0.021  0.00  0.00     0.062 A 
ATOM      3  C2  UNL d   1       0.883   1.843  -0.935  0.00  0.00     0.162 A 
ATOM      4  C3  UNL d   1      -0.154   2.724  -1.245  0.00  0.00    -0.034 A 
ATOM      5  C4  UNL d   1      -0.191   3.975  -0.625  0.00  0.00     0.162 A 
ATOM      6  C5  UNL d   1       0.795   4.336   0.287  0.00  0.00     0.062 A 
ATOM      7  F   UNL d   1       0.751   5.540   0.877  0.00  0.00    -0.097 F 
ATOM      8  F1  UNL d   1      -1.173   4.846  -0.900  0.00  0.00    -0.096 F 
ATOM      9  I   UNL d   1      -1.627   2.181  -2.610  0.00  0.00    -0.060 I 
ATOM     10  F2  UNL d   1       0.950   0.633  -1.511  0.00  0.00    -0.096 F 
ATOM     11  F3  UNL d   1       2.859   1.355   0.270  0.00  0.00    -0.097 F 
ATOM     12  F4  UNL d   1       2.771   3.804   1.469  0.00  0.00    -0.092 F 
ENDROOT
TORSDOF 0
ENDMDL
