MODEL 1
REMARK minimizedAffinity 0.334914953
REMARK minimizedRMSD -1
REMARK  0 active torsions:
REMARK  status: ('A' for Active; 'I' for Inactive)
ROOT
ATOM      1  C   UNL d   1       1.757  -1.311   0.103  0.00  0.00     0.124 A 
ATOM      2  C1  UNL d   1       0.537  -0.721   0.403  0.00  0.00     0.062 A 
ATOM      3  C2  UNL d   1       0.404   0.665   0.374  0.00  0.00     0.162 A 
ATOM      4  C3  UNL d   1       1.494   1.470   0.042  0.00  0.00    -0.034 A 
ATOM      5  C4  UNL d   1       2.718   0.868  -0.258  0.00  0.00     0.162 A 
ATOM      6  C5  UNL d   1       2.846  -0.517  -0.227  0.00  0.00     0.062 A 
ATOM      7  F   UNL d   1       4.025  -1.085  -0.517  0.00  0.00    -0.097 F 
ATOM      8  F1  UNL d   1       3.786   1.612  -0.581  0.00  0.00    -0.096 F 
ATOM      9  I   UNL d   1       1.299   3.541  -0.003  0.00  0.00    -0.060 I 
ATOM     10  F2  UNL d   1      -0.786   1.208   0.668  0.00  0.00    -0.096 F 
ATOM     11  F3  UNL d   1      -0.516  -1.486   0.723  0.00  0.00    -0.097 F 
ATOM     12  F4  UNL d   1       1.882  -2.644   0.133  0.00  0.00    -0.092 F 
ENDROOT
TORSDOF 0
ENDMDL
