MODEL 1
REMARK minimizedAffinity 0.514463663
REMARK minimizedRMSD -1
REMARK  0 active torsions:
REMARK  status: ('A' for Active; 'I' for Inactive)
ROOT
ATOM      1  C   UNL d   1      -0.125  -0.280   0.454  0.00  0.00     0.124 A 
ATOM      2  C1  UNL d   1      -0.498   1.026   0.165  0.00  0.00     0.062 A 
ATOM      3  C2  UNL d   1       0.473   1.993  -0.076  0.00  0.00     0.162 A 
ATOM      4  C3  UNL d   1       1.827   1.659  -0.032  0.00  0.00    -0.034 A 
ATOM      5  C4  UNL d   1       2.193   0.344   0.260  0.00  0.00     0.162 A 
ATOM      6  C5  UNL d   1       1.219  -0.620   0.501  0.00  0.00     0.062 A 
ATOM      7  F   UNL d   1       1.581  -1.881   0.779  0.00  0.00    -0.097 F 
ATOM      8  F1  UNL d   1       3.486  -0.013   0.311  0.00  0.00    -0.096 F 
ATOM      9  I   UNL d   1       3.282   3.102  -0.393  0.00  0.00    -0.060 I 
ATOM     10  F2  UNL d   1       0.085   3.247  -0.353  0.00  0.00    -0.096 F 
ATOM     11  F3  UNL d   1      -1.796   1.357   0.120  0.00  0.00    -0.097 F 
ATOM     12  F4  UNL d   1      -1.062  -1.209   0.687  0.00  0.00    -0.092 F 
ENDROOT
TORSDOF 0
ENDMDL
