MODEL 1
REMARK minimizedAffinity -3.14952755
REMARK minimizedRMSD -1
REMARK  0 active torsions:
REMARK  status: ('A' for Active; 'I' for Inactive)
ROOT
ATOM      1  C   UNL d   1       0.263  -0.818   0.355  0.00  0.00     0.124 A 
ATOM      2  C1  UNL d   1      -0.160   0.486   0.136  0.00  0.00     0.062 A 
ATOM      3  C2  UNL d   1       0.765   1.525   0.093  0.00  0.00     0.162 A 
ATOM      4  C3  UNL d   1       2.124   1.264   0.269  0.00  0.00    -0.034 A 
ATOM      5  C4  UNL d   1       2.542  -0.049   0.490  0.00  0.00     0.162 A 
ATOM      6  C5  UNL d   1       1.614  -1.084   0.532  0.00  0.00     0.062 A 
ATOM      7  F   UNL d   1       2.025  -2.343   0.744  0.00  0.00    -0.097 F 
ATOM      8  F1  UNL d   1       3.841  -0.335   0.663  0.00  0.00    -0.096 F 
ATOM      9  I   UNL d   1       3.511   2.815   0.205  0.00  0.00    -0.060 I 
ATOM     10  F2  UNL d   1       0.327   2.774  -0.121  0.00  0.00    -0.096 F 
ATOM     11  F3  UNL d   1      -1.465   0.745  -0.035  0.00  0.00    -0.097 F 
ATOM     12  F4  UNL d   1      -0.629  -1.815   0.397  0.00  0.00    -0.092 F 
ENDROOT
TORSDOF 0
ENDMDL
