MODEL 1
REMARK minimizedAffinity -5.06315565
REMARK minimizedRMSD -1
REMARK  0 active torsions:
REMARK  status: ('A' for Active; 'I' for Inactive)
ROOT
ATOM      1  C   UNL d   1       1.131  -1.521   0.240  0.00  0.00     0.124 A 
ATOM      2  C1  UNL d   1       2.199  -0.636   0.216  0.00  0.00     0.062 A 
ATOM      3  C2  UNL d   1       1.973   0.736   0.266  0.00  0.00     0.162 A 
ATOM      4  C3  UNL d   1       0.672   1.233   0.342  0.00  0.00    -0.034 A 
ATOM      5  C4  UNL d   1      -0.398   0.337   0.365  0.00  0.00     0.162 A 
ATOM      6  C5  UNL d   1      -0.167  -1.034   0.314  0.00  0.00     0.062 A 
ATOM      7  F   UNL d   1      -1.201  -1.888   0.338  0.00  0.00    -0.097 F 
ATOM      8  F1  UNL d   1      -1.662   0.780   0.437  0.00  0.00    -0.096 F 
ATOM      9  I   UNL d   1       0.329   3.284   0.416  0.00  0.00    -0.060 I 
ATOM     10  F2  UNL d   1       3.025   1.569   0.241  0.00  0.00    -0.096 F 
ATOM     11  F3  UNL d   1       3.454  -1.104   0.143  0.00  0.00    -0.097 F 
ATOM     12  F4  UNL d   1       1.351  -2.841   0.191  0.00  0.00    -0.092 F 
ENDROOT
TORSDOF 0
ENDMDL
