MODEL 1
REMARK minimizedAffinity 6.1485405
REMARK minimizedRMSD -1
REMARK  0 active torsions:
REMARK  status: ('A' for Active; 'I' for Inactive)
ROOT
ATOM      1  C   UNL d   1      -2.056   0.643  -2.345  0.00  0.00     0.124 A 
ATOM      2  C1  UNL d   1      -1.312   0.166  -1.276  0.00  0.00     0.062 A 
ATOM      3  C2  UNL d   1      -0.415   1.003  -0.618  0.00  0.00     0.162 A 
ATOM      4  C3  UNL d   1      -0.259   2.327  -1.028  0.00  0.00    -0.034 A 
ATOM      5  C4  UNL d   1      -1.010   2.800  -2.105  0.00  0.00     0.162 A 
ATOM      6  C5  UNL d   1      -1.905   1.959  -2.759  0.00  0.00     0.062 A 
ATOM      7  F   UNL d   1      -2.624   2.422  -3.792  0.00  0.00    -0.097 F 
ATOM      8  F1  UNL d   1      -0.885   4.067  -2.525  0.00  0.00    -0.096 F 
ATOM      9  I   UNL d   1       1.081   3.583  -0.047  0.00  0.00    -0.060 I 
ATOM     10  F2  UNL d   1       0.292   0.515   0.412  0.00  0.00    -0.096 F 
ATOM     11  F3  UNL d   1      -1.455  -1.105  -0.874  0.00  0.00    -0.097 F 
ATOM     12  F4  UNL d   1      -2.918  -0.165  -2.977  0.00  0.00    -0.092 F 
ENDROOT
TORSDOF 0
ENDMDL
