MODEL 1
REMARK minimizedAffinity -2.35562062
REMARK minimizedRMSD -1
REMARK  0 active torsions:
REMARK  status: ('A' for Active; 'I' for Inactive)
ROOT
ATOM      1  C   UNL d   1      -2.173   0.969  -1.600  0.00  0.00     0.124 A 
ATOM      2  C1  UNL d   1      -1.892   2.219  -2.135  0.00  0.00     0.062 A 
ATOM      3  C2  UNL d   1      -0.773   2.927  -1.707  0.00  0.00     0.162 A 
ATOM      4  C3  UNL d   1       0.075   2.388  -0.740  0.00  0.00    -0.034 A 
ATOM      5  C4  UNL d   1      -0.214   1.131  -0.206  0.00  0.00     0.162 A 
ATOM      6  C5  UNL d   1      -1.334   0.426  -0.637  0.00  0.00     0.062 A 
ATOM      7  F   UNL d   1      -1.604  -0.781  -0.119  0.00  0.00    -0.097 F 
ATOM      8  F1  UNL d   1       0.580   0.582   0.725  0.00  0.00    -0.096 F 
ATOM      9  I   UNL d   1       1.749   3.444  -0.098  0.00  0.00    -0.060 I 
ATOM     10  F2  UNL d   1      -0.526   4.133  -2.241  0.00  0.00    -0.096 F 
ATOM     11  F3  UNL d   1      -2.701   2.745  -3.065  0.00  0.00    -0.097 F 
ATOM     12  F4  UNL d   1      -3.251   0.289  -2.012  0.00  0.00    -0.092 F 
ENDROOT
TORSDOF 0
ENDMDL
