MODEL 1
REMARK minimizedAffinity -2.1827867
REMARK minimizedRMSD -1
REMARK  0 active torsions:
REMARK  status: ('A' for Active; 'I' for Inactive)
ROOT
ATOM      1  C   UNL d   1       0.376  -1.883   0.987  0.00  0.00     0.124 A 
ATOM      2  C1  UNL d   1      -0.461  -0.856   1.402  0.00  0.00     0.062 A 
ATOM      3  C2  UNL d   1      -1.016   0.015   0.469  0.00  0.00     0.162 A 
ATOM      4  C3  UNL d   1      -0.739  -0.138  -0.889  0.00  0.00    -0.034 A 
ATOM      5  C4  UNL d   1       0.104  -1.173  -1.299  0.00  0.00     0.162 A 
ATOM      6  C5  UNL d   1       0.657  -2.041  -0.363  0.00  0.00     0.062 A 
ATOM      7  F   UNL d   1       1.465  -3.032  -0.766  0.00  0.00    -0.097 F 
ATOM      8  F1  UNL d   1       0.392  -1.349  -2.597  0.00  0.00    -0.096 F 
ATOM      9  I   UNL d   1      -1.568   1.161  -2.287  0.00  0.00    -0.060 I 
ATOM     10  F2  UNL d   1      -1.821   0.998   0.899  0.00  0.00    -0.096 F 
ATOM     11  F3  UNL d   1      -0.734  -0.701   2.706  0.00  0.00    -0.097 F 
ATOM     12  F4  UNL d   1       0.910  -2.719   1.887  0.00  0.00    -0.092 F 
ENDROOT
TORSDOF 0
ENDMDL
