MODEL 1
REMARK minimizedAffinity -1.47473752
REMARK minimizedRMSD -1
REMARK  0 active torsions:
REMARK  status: ('A' for Active; 'I' for Inactive)
ROOT
ATOM      1  C   UNL d   1      -1.748   1.121  -1.497  0.00  0.00     0.124 A 
ATOM      2  C1  UNL d   1      -1.574   2.448  -1.862  0.00  0.00     0.062 A 
ATOM      3  C2  UNL d   1      -0.485   3.170  -1.380  0.00  0.00     0.162 A 
ATOM      4  C3  UNL d   1       0.438   2.565  -0.528  0.00  0.00    -0.034 A 
ATOM      5  C4  UNL d   1       0.255   1.229  -0.164  0.00  0.00     0.162 A 
ATOM      6  C5  UNL d   1      -0.834   0.513  -0.648  0.00  0.00     0.062 A 
ATOM      7  F   UNL d   1      -1.001  -0.770  -0.294  0.00  0.00    -0.097 F 
ATOM      8  F1  UNL d   1       1.124   0.617   0.654  0.00  0.00    -0.096 F 
ATOM      9  I   UNL d   1       2.067   3.640   0.195  0.00  0.00    -0.060 I 
ATOM     10  F2  UNL d   1      -0.341   4.451  -1.750  0.00  0.00    -0.096 F 
ATOM     11  F3  UNL d   1      -2.456   3.038  -2.681  0.00  0.00    -0.097 F 
ATOM     12  F4  UNL d   1      -2.797   0.429  -1.961  0.00  0.00    -0.092 F 
ENDROOT
TORSDOF 0
ENDMDL
