MODEL 1
REMARK minimizedAffinity -2.59426498
REMARK minimizedRMSD -1
REMARK  0 active torsions:
REMARK  status: ('A' for Active; 'I' for Inactive)
ROOT
ATOM      1  C   UNL d   1       3.249   3.022  -0.275  0.00  0.00     0.124 A 
ATOM      2  C1  UNL d   1       2.975   1.749  -0.754  0.00  0.00     0.062 A 
ATOM      3  C2  UNL d   1       1.673   1.257  -0.729  0.00  0.00     0.162 A 
ATOM      4  C3  UNL d   1       0.634   2.040  -0.224  0.00  0.00    -0.034 A 
ATOM      5  C4  UNL d   1       0.918   3.319   0.256  0.00  0.00     0.162 A 
ATOM      6  C5  UNL d   1       2.221   3.806   0.229  0.00  0.00     0.062 A 
ATOM      7  F   UNL d   1       2.484   5.037   0.692  0.00  0.00    -0.097 F 
ATOM      8  F1  UNL d   1      -0.056   4.099   0.748  0.00  0.00    -0.096 F 
ATOM      9  I   UNL d   1      -1.314   1.308  -0.185  0.00  0.00    -0.060 I 
ATOM     10  F2  UNL d   1       1.437   0.023  -1.198  0.00  0.00    -0.096 F 
ATOM     11  F3  UNL d   1       3.966   0.989  -1.241  0.00  0.00    -0.097 F 
ATOM     12  F4  UNL d   1       4.503   3.493  -0.299  0.00  0.00    -0.092 F 
ENDROOT
TORSDOF 0
ENDMDL
