MODEL 1
REMARK minimizedAffinity 0.929285526
REMARK minimizedRMSD -1
REMARK  0 active torsions:
REMARK  status: ('A' for Active; 'I' for Inactive)
ROOT
ATOM      1  C   UNL d   1      -2.182   0.414  -2.187  0.00  0.00     0.124 A 
ATOM      2  C1  UNL d   1      -1.999   1.736  -2.569  0.00  0.00     0.062 A 
ATOM      3  C2  UNL d   1      -0.946   2.477  -2.041  0.00  0.00     0.162 A 
ATOM      4  C3  UNL d   1      -0.067   1.899  -1.125  0.00  0.00    -0.034 A 
ATOM      5  C4  UNL d   1      -0.258   0.569  -0.745  0.00  0.00     0.162 A 
ATOM      6  C5  UNL d   1      -1.312  -0.168  -1.276  0.00  0.00     0.062 A 
ATOM      7  F   UNL d   1      -1.487  -1.445  -0.906  0.00  0.00    -0.097 F 
ATOM      8  F1  UNL d   1       0.569  -0.019   0.133  0.00  0.00    -0.096 F 
ATOM      9  I   UNL d   1       1.509   3.004  -0.333  0.00  0.00    -0.060 I 
ATOM     10  F2  UNL d   1      -0.793   3.753  -2.427  0.00  0.00    -0.096 F 
ATOM     11  F3  UNL d   1      -2.839   2.301  -3.448  0.00  0.00    -0.097 F 
ATOM     12  F4  UNL d   1      -3.196  -0.297  -2.696  0.00  0.00    -0.092 F 
ENDROOT
TORSDOF 0
ENDMDL
