MODEL 1
REMARK minimizedAffinity -2.80655956
REMARK minimizedRMSD -1
REMARK  0 active torsions:
REMARK  status: ('A' for Active; 'I' for Inactive)
ROOT
ATOM      1  C   UNL d   1      -2.260   2.070  -0.347  0.00  0.00     0.124 A 
ATOM      2  C1  UNL d   1      -2.929   1.820  -1.537  0.00  0.00     0.062 A 
ATOM      3  C2  UNL d   1      -2.460   2.362  -2.731  0.00  0.00     0.162 A 
ATOM      4  C3  UNL d   1      -1.315   3.157  -2.741  0.00  0.00    -0.034 A 
ATOM      5  C4  UNL d   1      -0.647   3.405  -1.539  0.00  0.00     0.162 A 
ATOM      6  C5  UNL d   1      -1.120   2.861  -0.349  0.00  0.00     0.062 A 
ATOM      7  F   UNL d   1      -0.472   3.103   0.800  0.00  0.00    -0.097 F 
ATOM      8  F1  UNL d   1       0.457   4.165  -1.513  0.00  0.00    -0.096 F 
ATOM      9  I   UNL d   1      -0.610   3.969  -4.523  0.00  0.00    -0.060 I 
ATOM     10  F2  UNL d   1      -3.127   2.104  -3.866  0.00  0.00    -0.096 F 
ATOM     11  F3  UNL d   1      -4.031   1.057  -1.537  0.00  0.00    -0.097 F 
ATOM     12  F4  UNL d   1      -2.714   1.549   0.800  0.00  0.00    -0.092 F 
ENDROOT
TORSDOF 0
ENDMDL
