MODEL 1
REMARK minimizedAffinity -1.34775341
REMARK minimizedRMSD -1
REMARK  0 active torsions:
REMARK  status: ('A' for Active; 'I' for Inactive)
ROOT
ATOM      1  C   UNL d   1      -0.076  -1.290   0.639  0.00  0.00     0.124 A 
ATOM      2  C1  UNL d   1       1.289  -1.516   0.747  0.00  0.00     0.062 A 
ATOM      3  C2  UNL d   1       2.192  -0.497   0.458  0.00  0.00     0.162 A 
ATOM      4  C3  UNL d   1       1.732   0.758   0.059  0.00  0.00    -0.034 A 
ATOM      5  C4  UNL d   1       0.358   0.977  -0.049  0.00  0.00     0.162 A 
ATOM      6  C5  UNL d   1      -0.540  -0.045   0.241  0.00  0.00     0.062 A 
ATOM      7  F   UNL d   1      -1.859   0.175   0.135  0.00  0.00    -0.097 F 
ATOM      8  F1  UNL d   1      -0.118   2.172  -0.431  0.00  0.00    -0.096 F 
ATOM      9  I   UNL d   1       3.079   2.284  -0.375  0.00  0.00    -0.060 I 
ATOM     10  F2  UNL d   1       3.505  -0.743   0.572  0.00  0.00    -0.096 F 
ATOM     11  F3  UNL d   1       1.740  -2.719   1.131  0.00  0.00    -0.097 F 
ATOM     12  F4  UNL d   1      -0.943  -2.273   0.917  0.00  0.00    -0.092 F 
ENDROOT
TORSDOF 0
ENDMDL
