MODEL 1
REMARK minimizedAffinity 1.69250739
REMARK minimizedRMSD -1
REMARK  0 active torsions:
REMARK  status: ('A' for Active; 'I' for Inactive)
ROOT
ATOM      1  C   UNL d   1       1.750  -1.904   1.552  0.00  0.00     0.124 A 
ATOM      2  C1  UNL d   1       2.545  -0.960   0.916  0.00  0.00     0.062 A 
ATOM      3  C2  UNL d   1       1.963   0.029   0.129  0.00  0.00     0.162 A 
ATOM      4  C3  UNL d   1       0.578   0.081  -0.027  0.00  0.00    -0.034 A 
ATOM      5  C4  UNL d   1      -0.215  -0.872   0.615  0.00  0.00     0.162 A 
ATOM      6  C5  UNL d   1       0.371  -1.859   1.401  0.00  0.00     0.062 A 
ATOM      7  F   UNL d   1      -0.399  -2.769   2.014  0.00  0.00    -0.097 F 
ATOM      8  F1  UNL d   1      -1.550  -0.852   0.486  0.00  0.00    -0.096 F 
ATOM      9  I   UNL d   1      -0.295   1.558  -1.204  0.00  0.00    -0.060 I 
ATOM     10  F2  UNL d   1       2.756   0.927  -0.474  0.00  0.00    -0.096 F 
ATOM     11  F3  UNL d   1       3.877  -1.002   1.060  0.00  0.00    -0.097 F 
ATOM     12  F4  UNL d   1       2.312  -2.855   2.309  0.00  0.00    -0.092 F 
ENDROOT
TORSDOF 0
ENDMDL
