MODEL 1
REMARK minimizedAffinity -4.29160976
REMARK minimizedRMSD -1
REMARK  1 active torsions:
REMARK  status: ('A' for Active; 'I' for Inactive)
REMARK    1  A    between atoms: N_2  and  C1_3 
ROOT
ATOM      1  C1  UNL d   1      -0.030  -0.365  -0.342  0.00  0.00     0.143 A 
ATOM      2  C2  UNL d   1       0.593  -1.615  -0.405  0.00  0.00    -0.057 A 
ATOM      3  C3  UNL d   1       1.849  -1.831   0.174  0.00  0.00     0.033 A 
ATOM      4  C4  UNL d   1       2.519  -0.788   0.805  0.00  0.00    -0.042 A 
ATOM      5  C5  UNL d   1       1.930   0.470   0.858  0.00  0.00     0.033 A 
ATOM      6  C6  UNL d   1       0.672   0.678   0.283  0.00  0.00    -0.057 A 
ENDROOT
BRANCH   1   7
ATOM      7  N   UNL d   1      -1.233  -0.061  -0.984  0.00  0.00    -0.732 N 
ATOM      8  C   UNL d   1      -2.315   0.573  -0.261  0.00  0.00     0.284 C 
ATOM      9  H3  UNL d   1      -1.092   0.303  -1.923  0.00  0.00     0.395 HD
ENDBRANCH   1   7
TORSDOF 1
ENDMDL
