MODEL 1
REMARK minimizedAffinity -5.12266064
REMARK minimizedRMSD -1
REMARK  1 active torsions:
REMARK  status: ('A' for Active; 'I' for Inactive)
REMARK    1  A    between atoms: N_2  and  C1_3 
ROOT
ATOM      1  C1  UNL d   1       0.201  -0.108  -0.147  0.00  0.00     0.143 A 
ATOM      2  C2  UNL d   1       1.136   0.775   0.403  0.00  0.00    -0.057 A 
ATOM      3  C3  UNL d   1       2.417   0.343   0.766  0.00  0.00     0.033 A 
ATOM      4  C4  UNL d   1       2.778  -0.991   0.611  0.00  0.00    -0.042 A 
ATOM      5  C5  UNL d   1       1.857  -1.892   0.089  0.00  0.00     0.033 A 
ATOM      6  C6  UNL d   1       0.581  -1.454  -0.277  0.00  0.00    -0.057 A 
ENDROOT
BRANCH   1   7
ATOM      7  N   UNL d   1      -1.121   0.239  -0.436  0.00  0.00    -0.732 N 
ATOM      8  C   UNL d   1      -2.044   0.575   0.626  0.00  0.00     0.284 C 
ATOM      9  H3  UNL d   1      -1.195   0.836  -1.256  0.00  0.00     0.395 HD
ENDBRANCH   1   7
TORSDOF 1
ENDMDL
