MODEL 1
REMARK minimizedAffinity -3.41755867
REMARK minimizedRMSD -1
REMARK  1 active torsions:
REMARK  status: ('A' for Active; 'I' for Inactive)
REMARK    1  A    between atoms: N_2  and  C1_3 
ROOT
ATOM      1  C1  UNL d   1       1.627  -0.309   0.516  0.00  0.00     0.143 A 
ATOM      2  C2  UNL d   1       1.602   1.087   0.426  0.00  0.00    -0.057 A 
ATOM      3  C3  UNL d   1       0.496   1.761  -0.103  0.00  0.00     0.033 A 
ATOM      4  C4  UNL d   1      -0.598   1.046  -0.581  0.00  0.00    -0.042 A 
ATOM      5  C5  UNL d   1      -0.585  -0.343  -0.525  0.00  0.00     0.033 A 
ATOM      6  C6  UNL d   1       0.521  -1.010   0.011  0.00  0.00    -0.057 A 
ENDROOT
BRANCH   1   7
ATOM      7  N   UNL d   1       2.738  -1.042   0.942  0.00  0.00    -0.732 N 
ATOM      8  C   UNL d   1       3.454  -1.898   0.020  0.00  0.00     0.284 C 
ATOM      9  H3  UNL d   1       3.339  -0.508   1.566  0.00  0.00     0.395 HD
ENDBRANCH   1   7
TORSDOF 1
ENDMDL
