MODEL 1
REMARK minimizedAffinity -4.08489847
REMARK minimizedRMSD -1
REMARK  1 active torsions:
REMARK  status: ('A' for Active; 'I' for Inactive)
REMARK    1  A    between atoms: N_2  and  C1_3 
ROOT
ATOM      1  C1  UNL d   1      -0.148   0.112  -0.314  0.00  0.00     0.143 A 
ATOM      2  C2  UNL d   1      -0.081  -1.177  -0.853  0.00  0.00    -0.057 A 
ATOM      3  C3  UNL d   1       1.005  -2.020  -0.588  0.00  0.00     0.033 A 
ATOM      4  C4  UNL d   1       2.061  -1.576   0.201  0.00  0.00    -0.042 A 
ATOM      5  C5  UNL d   1       2.028  -0.290   0.727  0.00  0.00     0.033 A 
ATOM      6  C6  UNL d   1       0.938   0.545   0.464  0.00  0.00    -0.057 A 
ENDROOT
BRANCH   1   7
ATOM      7  N   UNL d   1      -1.153   1.032  -0.621  0.00  0.00    -0.732 N 
ATOM      8  C   UNL d   1      -2.434   0.976   0.050  0.00  0.00     0.284 C 
ATOM      9  H3  UNL d   1      -0.791   1.975  -0.747  0.00  0.00     0.395 HD
ENDBRANCH   1   7
TORSDOF 1
ENDMDL
