MODEL 1
REMARK minimizedAffinity -2.91074419
REMARK minimizedRMSD -1
REMARK  1 active torsions:
REMARK  status: ('A' for Active; 'I' for Inactive)
REMARK    1  A    between atoms: N_2  and  C1_3 
ROOT
ATOM      1  C1  UNL d   1       1.303  -0.915   0.075  0.00  0.00     0.143 A 
ATOM      2  C2  UNL d   1       0.035  -1.023  -0.507  0.00  0.00    -0.057 A 
ATOM      3  C3  UNL d   1      -0.718   0.115  -0.824  0.00  0.00     0.033 A 
ATOM      4  C4  UNL d   1      -0.226   1.384  -0.536  0.00  0.00    -0.042 A 
ATOM      5  C5  UNL d   1       1.021   1.514   0.065  0.00  0.00     0.033 A 
ATOM      6  C6  UNL d   1       1.770   0.375   0.372  0.00  0.00    -0.057 A 
ENDROOT
BRANCH   1   7
ATOM      7  N   UNL d   1       2.057  -2.009   0.503  0.00  0.00    -0.732 N 
ATOM      8  C   UNL d   1       3.476  -1.874   0.753  0.00  0.00     0.284 C 
ATOM      9  H3  UNL d   1       1.566  -2.575   1.191  0.00  0.00     0.395 HD
ENDBRANCH   1   7
TORSDOF 1
ENDMDL
