MODEL 1
REMARK minimizedAffinity 4.06514168
REMARK minimizedRMSD -1
REMARK  0 active torsions:
REMARK  status: ('A' for Active; 'I' for Inactive)
ROOT
ATOM      1  C4' PXY d   1       1.979   5.015   0.043  0.00  0.00     0.077 C 
ATOM      2  C1' PXY d   1       3.975   0.484   3.027  0.00  0.00     0.077 C 
ATOM      3  C1  PXY d   1       3.442   1.665   2.239  0.00  0.00    -0.082 A 
ATOM      4  C2  PXY d   1       4.222   2.712   2.024  0.00  0.00     0.003 A 
ATOM      5  C3  PXY d   1       3.746   3.802   1.340  0.00  0.00     0.003 A 
ATOM      6  C4  PXY d   1       2.477   3.797   0.826  0.00  0.00    -0.082 A 
ATOM      7  C5  PXY d   1       1.680   2.728   1.032  0.00  0.00     0.003 A 
ATOM      8  C6  PXY d   1       2.167   1.649   1.764  0.00  0.00     0.003 A 
ENDROOT
TORSDOF 0
ENDMDL
