MODEL 1
REMARK minimizedAffinity 13.110054
REMARK minimizedRMSD -1
REMARK  0 active torsions:
REMARK  status: ('A' for Active; 'I' for Inactive)
ROOT
ATOM      1  C4' PXY d   1       0.916   0.107  -1.688  0.00  0.00     0.077 C 
ATOM      2  C1' PXY d   1       3.297   3.133  -6.000  0.00  0.00     0.077 C 
ATOM      3  C1  PXY d   1       2.681   2.344  -4.861  0.00  0.00    -0.082 A 
ATOM      4  C2  PXY d   1       2.005   1.237  -5.122  0.00  0.00     0.003 A 
ATOM      5  C3  PXY d   1       1.415   0.529  -4.107  0.00  0.00     0.003 A 
ATOM      6  C4  PXY d   1       1.563   0.930  -2.806  0.00  0.00    -0.082 A 
ATOM      7  C5  PXY d   1       2.260   2.052  -2.530  0.00  0.00     0.003 A 
ATOM      8  C6  PXY d   1       2.817   2.779  -3.579  0.00  0.00     0.003 A 
ENDROOT
TORSDOF 0
ENDMDL
