MODEL 1
REMARK minimizedAffinity 10.1058474
REMARK minimizedRMSD -1
REMARK  0 active torsions:
REMARK  status: ('A' for Active; 'I' for Inactive)
ROOT
ATOM      1  C4' PXY d   1       0.659   2.759   0.972  0.00  0.00     0.077 C 
ATOM      2  C1' PXY d   1       5.865   1.916   3.340  0.00  0.00     0.077 C 
ATOM      3  C1  PXY d   1       4.505   2.146   2.712  0.00  0.00    -0.082 A 
ATOM      4  C2  PXY d   1       3.411   1.804   3.374  0.00  0.00     0.003 A 
ATOM      5  C3  PXY d   1       2.175   1.976   2.807  0.00  0.00     0.003 A 
ATOM      6  C4  PXY d   1       2.053   2.553   1.572  0.00  0.00    -0.082 A 
ATOM      7  C5  PXY d   1       3.163   2.916   0.894  0.00  0.00     0.003 A 
ATOM      8  C6  PXY d   1       4.411   2.695   1.470  0.00  0.00     0.003 A 
ENDROOT
TORSDOF 0
ENDMDL
