MODEL 1
REMARK minimizedAffinity 8.58006573
REMARK minimizedRMSD -1
REMARK  0 active torsions:
REMARK  status: ('A' for Active; 'I' for Inactive)
ROOT
ATOM      1  C4' PXY d   1      -0.724   0.502  -0.327  0.00  0.00     0.077 C 
ATOM      2  C1' PXY d   1       3.065   4.630  -1.747  0.00  0.00     0.077 C 
ATOM      3  C1  PXY d   1       2.065   3.549  -1.386  0.00  0.00    -0.082 A 
ATOM      4  C2  PXY d   1       1.879   3.229  -0.116  0.00  0.00     0.003 A 
ATOM      5  C3  PXY d   1       1.002   2.232   0.226  0.00  0.00     0.003 A 
ATOM      6  C4  PXY d   1       0.269   1.593  -0.737  0.00  0.00    -0.082 A 
ATOM      7  C5  PXY d   1       0.445   1.922  -2.035  0.00  0.00     0.003 A 
ATOM      8  C6  PXY d   1       1.370   2.908  -2.364  0.00  0.00     0.003 A 
ENDROOT
TORSDOF 0
ENDMDL
