MODEL 1
REMARK minimizedAffinity -0.728753984
REMARK minimizedRMSD -1
REMARK  0 active torsions:
REMARK  status: ('A' for Active; 'I' for Inactive)
ROOT
ATOM      1  C4' PXY d   1       2.881   5.134  -2.020  0.00  0.00     0.077 C 
ATOM      2  C1' PXY d   1       0.824  -0.266  -2.143  0.00  0.00     0.077 C 
ATOM      3  C1  PXY d   1       1.372   1.147  -2.120  0.00  0.00    -0.082 A 
ATOM      4  C2  PXY d   1       1.215   1.892  -1.038  0.00  0.00     0.003 A 
ATOM      5  C3  PXY d   1       1.677   3.183  -1.012  0.00  0.00     0.003 A 
ATOM      6  C4  PXY d   1       2.353   3.699  -2.085  0.00  0.00    -0.082 A 
ATOM      7  C5  PXY d   1       2.526   2.942  -3.189  0.00  0.00     0.003 A 
ATOM      8  C6  PXY d   1       2.014   1.648  -3.211  0.00  0.00     0.003 A 
ENDROOT
TORSDOF 0
ENDMDL
