MODEL 1
REMARK minimizedAffinity 9.87438965
REMARK minimizedRMSD -1
REMARK  0 active torsions:
REMARK  status: ('A' for Active; 'I' for Inactive)
ROOT
ATOM      1  C4' PXY d   1       2.679   2.883  -5.841  0.00  0.00     0.077 C 
ATOM      2  C1' PXY d   1       1.700  -0.778  -1.476  0.00  0.00     0.077 C 
ATOM      3  C1  PXY d   1       1.969   0.184  -2.616  0.00  0.00    -0.082 A 
ATOM      4  C2  PXY d   1       0.959   0.815  -3.192  0.00  0.00     0.003 A 
ATOM      5  C3  PXY d   1       1.181   1.664  -4.245  0.00  0.00     0.003 A 
ATOM      6  C4  PXY d   1       2.456   1.910  -4.680  0.00  0.00    -0.082 A 
ATOM      7  C5  PXY d   1       3.493   1.278  -4.091  0.00  0.00     0.003 A 
ATOM      8  C6  PXY d   1       3.242   0.389  -3.050  0.00  0.00     0.003 A 
ENDROOT
TORSDOF 0
ENDMDL
