MODEL 1
REMARK minimizedAffinity 5.43750477
REMARK minimizedRMSD -1
REMARK  0 active torsions:
REMARK  status: ('A' for Active; 'I' for Inactive)
ROOT
ATOM      1  C4' PXY d   1       1.407  -4.373  -3.812  0.00  0.00     0.077 C 
ATOM      2  C1' PXY d   1       1.573   1.368  -4.460  0.00  0.00     0.077 C 
ATOM      3  C1  PXY d   1       1.539  -0.137  -4.281  0.00  0.00    -0.082 A 
ATOM      4  C2  PXY d   1       1.086  -0.902  -5.261  0.00  0.00     0.003 A 
ATOM      5  C3  PXY d   1       1.018  -2.262  -5.104  0.00  0.00     0.003 A 
ATOM      6  C4  PXY d   1       1.468  -2.850  -3.952  0.00  0.00    -0.082 A 
ATOM      7  C5  PXY d   1       1.942  -2.077  -2.952  0.00  0.00     0.003 A 
ATOM      8  C6  PXY d   1       1.963  -0.695  -3.115  0.00  0.00     0.003 A 
ENDROOT
TORSDOF 0
ENDMDL
