MODEL 1
REMARK minimizedAffinity 1.49999201
REMARK minimizedRMSD -1
REMARK  0 active torsions:
REMARK  status: ('A' for Active; 'I' for Inactive)
ROOT
ATOM      1  C4' PXY d   1      -0.333  -2.474   1.038  0.00  0.00     0.077 C 
ATOM      2  C1' PXY d   1       1.331   0.707  -3.493  0.00  0.00     0.077 C 
ATOM      3  C1  PXY d   1       0.889  -0.116  -2.299  0.00  0.00    -0.082 A 
ATOM      4  C2  PXY d   1       1.540  -1.227  -1.994  0.00  0.00     0.003 A 
ATOM      5  C3  PXY d   1       1.134  -2.001  -0.937  0.00  0.00     0.003 A 
ATOM      6  C4  PXY d   1       0.083  -1.606  -0.153  0.00  0.00    -0.082 A 
ATOM      7  C5  PXY d   1      -0.579  -0.468  -0.452  0.00  0.00     0.003 A 
ATOM      8  C6  PXY d   1      -0.177   0.281  -1.553  0.00  0.00     0.003 A 
ENDROOT
TORSDOF 0
ENDMDL
