MODEL 1
REMARK minimizedAffinity 2.18646026
REMARK minimizedRMSD -1
REMARK  0 active torsions:
REMARK  status: ('A' for Active; 'I' for Inactive)
ROOT
ATOM      1  C4' PXY d   1      -1.239  -4.119   0.161  0.00  0.00     0.077 C 
ATOM      2  C1' PXY d   1       0.098   1.448  -0.636  0.00  0.00     0.077 C 
ATOM      3  C1  PXY d   1      -0.243  -0.016  -0.435  0.00  0.00    -0.082 A 
ATOM      4  C2  PXY d   1      -1.458  -0.355  -0.035  0.00  0.00     0.003 A 
ATOM      5  C3  PXY d   1      -1.774  -1.672   0.182  0.00  0.00     0.003 A 
ATOM      6  C4  PXY d   1      -0.853  -2.655  -0.064  0.00  0.00    -0.082 A 
ATOM      7  C5  PXY d   1       0.385  -2.317  -0.483  0.00  0.00     0.003 A 
ATOM      8  C6  PXY d   1       0.698  -0.972  -0.658  0.00  0.00     0.003 A 
ENDROOT
TORSDOF 0
ENDMDL
