MODEL 1
REMARK minimizedAffinity 9.69772816
REMARK minimizedRMSD -1
REMARK  0 active torsions:
REMARK  status: ('A' for Active; 'I' for Inactive)
ROOT
ATOM      1  C4' PXY d   1      -0.102  -4.283   0.342  0.00  0.00     0.077 C 
ATOM      2  C1' PXY d   1       0.455   1.414  -0.466  0.00  0.00     0.077 C 
ATOM      3  C1  PXY d   1       0.319  -0.082  -0.262  0.00  0.00    -0.082 A 
ATOM      4  C2  PXY d   1      -0.840  -0.586   0.129  0.00  0.00     0.003 A 
ATOM      5  C3  PXY d   1      -0.972  -1.933   0.349  0.00  0.00     0.003 A 
ATOM      6  C4  PXY d   1       0.079  -2.779   0.114  0.00  0.00    -0.082 A 
ATOM      7  C5  PXY d   1       1.262  -2.274  -0.295  0.00  0.00     0.003 A 
ATOM      8  C6  PXY d   1       1.387  -0.899  -0.473  0.00  0.00     0.003 A 
ENDROOT
TORSDOF 0
ENDMDL
