MODEL 1
REMARK minimizedAffinity 8.10707664
REMARK minimizedRMSD -1
REMARK  0 active torsions:
REMARK  status: ('A' for Active; 'I' for Inactive)
ROOT
ATOM      1  C4' PXY d   1       2.108   0.016  -4.210  0.00  0.00     0.077 C 
ATOM      2  C1' PXY d   1       0.079  -2.263   0.699  0.00  0.00     0.077 C 
ATOM      3  C1  PXY d   1       0.621  -1.674  -0.588  0.00  0.00    -0.082 A 
ATOM      4  C2  PXY d   1       0.342  -0.420  -0.902  0.00  0.00     0.003 A 
ATOM      5  C3  PXY d   1       0.797   0.119  -2.078  0.00  0.00     0.003 A 
ATOM      6  C4  PXY d   1       1.591  -0.617  -2.916  0.00  0.00    -0.082 A 
ATOM      7  C5  PXY d   1       1.889  -1.895  -2.598  0.00  0.00     0.003 A 
ATOM      8  C6  PXY d   1       1.383  -2.436  -1.419  0.00  0.00     0.003 A 
ENDROOT
TORSDOF 0
ENDMDL
