MODEL 1
REMARK minimizedAffinity 2.77297831
REMARK minimizedRMSD -1
REMARK  0 active torsions:
REMARK  status: ('A' for Active; 'I' for Inactive)
ROOT
ATOM      1  C4' PXY d   1      -0.777  -4.010   0.130  0.00  0.00     0.077 C 
ATOM      2  C1' PXY d   1       0.380   1.573  -0.824  0.00  0.00     0.077 C 
ATOM      3  C1  PXY d   1       0.086   0.106  -0.582  0.00  0.00    -0.082 A 
ATOM      4  C2  PXY d   1      -1.097  -0.256  -0.113  0.00  0.00     0.003 A 
ATOM      5  C3  PXY d   1      -1.369  -1.575   0.142  0.00  0.00     0.003 A 
ATOM      6  C4  PXY d   1      -0.439  -2.540  -0.138  0.00  0.00    -0.082 A 
ATOM      7  C5  PXY d   1       0.767  -2.181  -0.627  0.00  0.00     0.003 A 
ATOM      8  C6  PXY d   1       1.037  -0.832  -0.839  0.00  0.00     0.003 A 
ENDROOT
TORSDOF 0
ENDMDL
