MODEL 1
REMARK minimizedAffinity 2.40100789
REMARK minimizedRMSD -1
REMARK  0 active torsions:
REMARK  status: ('A' for Active; 'I' for Inactive)
ROOT
ATOM      1  C4' PXY d   1       0.355  -1.874   0.007  0.00  0.00     0.077 C 
ATOM      2  C1' PXY d   1       1.919   1.119  -4.685  0.00  0.00     0.077 C 
ATOM      3  C1  PXY d   1       1.510   0.323  -3.461  0.00  0.00    -0.082 A 
ATOM      4  C2  PXY d   1       0.746   0.886  -2.539  0.00  0.00     0.003 A 
ATOM      5  C3  PXY d   1       0.394   0.192  -1.411  0.00  0.00     0.003 A 
ATOM      6  C4  PXY d   1       0.784  -1.111  -1.250  0.00  0.00    -0.082 A 
ATOM      7  C5  PXY d   1       1.554  -1.697  -2.191  0.00  0.00     0.003 A 
ATOM      8  C6  PXY d   1       1.935  -0.961  -3.309  0.00  0.00     0.003 A 
ENDROOT
TORSDOF 0
ENDMDL
