MODEL 1
REMARK minimizedAffinity 1.21319091
REMARK minimizedRMSD -1
REMARK  0 active torsions:
REMARK  status: ('A' for Active; 'I' for Inactive)
ROOT
ATOM      1  C4' PXY d   1       5.585  -1.885   5.253  0.00  0.00     0.077 C 
ATOM      2  C1' PXY d   1       5.683   3.835   4.424  0.00  0.00     0.077 C 
ATOM      3  C1  PXY d   1       5.649   2.334   4.632  0.00  0.00    -0.082 A 
ATOM      4  C2  PXY d   1       5.994   1.828   5.805  0.00  0.00     0.003 A 
ATOM      5  C3  PXY d   1       5.999   0.471   6.000  0.00  0.00     0.003 A 
ATOM      6  C4  PXY d   1       5.596  -0.374   5.001  0.00  0.00    -0.082 A 
ATOM      7  C5  PXY d   1       5.231   0.135   3.805  0.00  0.00     0.003 A 
ATOM      8  C6  PXY d   1       5.272   1.513   3.614  0.00  0.00     0.003 A 
ENDROOT
TORSDOF 0
ENDMDL
