MODEL 1
REMARK minimizedAffinity 2.3911202
REMARK minimizedRMSD -1
REMARK  0 active torsions:
REMARK  status: ('A' for Active; 'I' for Inactive)
ROOT
ATOM      1  C4' PXY d   1       1.750   0.245  -3.763  0.00  0.00     0.077 C 
ATOM      2  C1' PXY d   1       0.334  -2.673   1.022  0.00  0.00     0.077 C 
ATOM      3  C1  PXY d   1       0.695  -1.900  -0.231  0.00  0.00    -0.082 A 
ATOM      4  C2  PXY d   1       1.456  -2.468  -1.153  0.00  0.00     0.003 A 
ATOM      5  C3  PXY d   1       1.818  -1.772  -2.278  0.00  0.00     0.003 A 
ATOM      6  C4  PXY d   1       1.353  -0.501  -2.486  0.00  0.00    -0.082 A 
ATOM      7  C5  PXY d   1       0.567   0.081  -1.555  0.00  0.00     0.003 A 
ATOM      8  C6  PXY d   1       0.245  -0.627  -0.401  0.00  0.00     0.003 A 
ENDROOT
TORSDOF 0
ENDMDL
