MODEL 1
REMARK minimizedAffinity 2.23317885
REMARK minimizedRMSD -1
REMARK  0 active torsions:
REMARK  status: ('A' for Active; 'I' for Inactive)
ROOT
ATOM      1  C4' PXY d   1       1.018   0.863  -3.446  0.00  0.00     0.077 C 
ATOM      2  C1' PXY d   1       0.790  -2.622   1.160  0.00  0.00     0.077 C 
ATOM      3  C1  PXY d   1       0.838  -1.704  -0.045  0.00  0.00    -0.082 A 
ATOM      4  C2  PXY d   1       1.640  -1.993  -1.056  0.00  0.00     0.003 A 
ATOM      5  C3  PXY d   1       1.719  -1.157  -2.140  0.00  0.00     0.003 A 
ATOM      6  C4  PXY d   1       0.930  -0.040  -2.213  0.00  0.00    -0.082 A 
ATOM      7  C5  PXY d   1       0.101   0.256  -1.189  0.00  0.00     0.003 A 
ATOM      8  C6  PXY d   1       0.066  -0.584  -0.080  0.00  0.00     0.003 A 
ENDROOT
TORSDOF 0
ENDMDL
