MODEL 1
REMARK minimizedAffinity 0.352291465
REMARK minimizedRMSD -1
REMARK  0 active torsions:
REMARK  status: ('A' for Active; 'I' for Inactive)
ROOT
ATOM      1  C4' PXY d   1       1.428   1.489  -3.370  0.00  0.00     0.077 C 
ATOM      2  C1' PXY d   1       0.127  -2.868   0.198  0.00  0.00     0.077 C 
ATOM      3  C1  PXY d   1       0.457  -1.720  -0.735  0.00  0.00    -0.082 A 
ATOM      4  C2  PXY d   1       1.373  -1.884  -1.675  0.00  0.00     0.003 A 
ATOM      5  C3  PXY d   1       1.706  -0.847  -2.508  0.00  0.00     0.003 A 
ATOM      6  C4  PXY d   1       1.057   0.355  -2.411  0.00  0.00    -0.082 A 
ATOM      7  C5  PXY d   1       0.113   0.526  -1.461  0.00  0.00     0.003 A 
ATOM      8  C6  PXY d   1      -0.182  -0.526  -0.600  0.00  0.00     0.003 A 
ENDROOT
TORSDOF 0
ENDMDL
