MODEL 1
REMARK minimizedAffinity -2.97306871
REMARK minimizedRMSD -1
REMARK  0 active torsions:
REMARK  status: ('A' for Active; 'I' for Inactive)
ROOT
ATOM      1  C4' PXY d   1       4.876  -2.226   5.150  0.00  0.00     0.077 C 
ATOM      2  C1' PXY d   1       5.626   3.502   4.946  0.00  0.00     0.077 C 
ATOM      3  C1  PXY d   1       5.418   2.001   4.993  0.00  0.00    -0.082 A 
ATOM      4  C2  PXY d   1       5.997   1.290   5.946  0.00  0.00     0.003 A 
ATOM      5  C3  PXY d   1       5.846  -0.072   5.985  0.00  0.00     0.003 A 
ATOM      6  C4  PXY d   1       5.050  -0.707   5.069  0.00  0.00    -0.082 A 
ATOM      7  C5  PXY d   1       4.448   0.013   4.099  0.00  0.00     0.003 A 
ATOM      8  C6  PXY d   1       4.647   1.390   4.053  0.00  0.00     0.003 A 
ENDROOT
TORSDOF 0
ENDMDL
