MODEL 1
REMARK minimizedAffinity -0.229169831
REMARK minimizedRMSD -1
REMARK  0 active torsions:
REMARK  status: ('A' for Active; 'I' for Inactive)
ROOT
ATOM      1  C1  BNZ d   1       5.979   5.976  -3.432  0.00  0.00     0.000 A 
ATOM      2  C2  BNZ d   1       6.000   6.000  -4.801  0.00  0.00     0.000 A 
ATOM      3  C3  BNZ d   1       4.899   5.634  -5.524  0.00  0.00     0.000 A 
ATOM      4  C4  BNZ d   1       3.794   5.207  -4.879  0.00  0.00     0.000 A 
ATOM      5  C5  BNZ d   1       3.760   5.169  -3.499  0.00  0.00     0.000 A 
ATOM      6  C6  BNZ d   1       4.857   5.575  -2.774  0.00  0.00     0.000 A 
ENDROOT
TORSDOF 0
ENDMDL
