MODEL 1
REMARK minimizedAffinity 1.59504545
REMARK minimizedRMSD -1
REMARK  0 active torsions:
REMARK  status: ('A' for Active; 'I' for Inactive)
ROOT
ATOM      1  C1  BNZ d   1       3.736   5.189  -4.235  0.00  0.00     0.000 A 
ATOM      2  C2  BNZ d   1       4.846   5.602  -4.922  0.00  0.00     0.000 A 
ATOM      3  C3  BNZ d   1       5.977   5.988  -4.257  0.00  0.00     0.000 A 
ATOM      4  C4  BNZ d   1       5.981   5.999  -2.908  0.00  0.00     0.000 A 
ATOM      5  C5  BNZ d   1       4.866   5.594  -2.202  0.00  0.00     0.000 A 
ATOM      6  C6  BNZ d   1       3.744   5.168  -2.875  0.00  0.00     0.000 A 
ENDROOT
TORSDOF 0
ENDMDL
