MODEL 1
REMARK minimizedAffinity 10.0195551
REMARK minimizedRMSD -1
REMARK  0 active torsions:
REMARK  status: ('A' for Active; 'I' for Inactive)
ROOT
ATOM      1  C1  BNZ d   1       0.432   2.987   1.523  0.00  0.00     0.000 A 
ATOM      2  C2  BNZ d   1       1.588   2.290   1.751  0.00  0.00     0.000 A 
ATOM      3  C3  BNZ d   1       1.629   0.932   1.594  0.00  0.00     0.000 A 
ATOM      4  C4  BNZ d   1       0.505   0.271   1.250  0.00  0.00     0.000 A 
ATOM      5  C5  BNZ d   1      -0.671   0.959   1.026  0.00  0.00     0.000 A 
ATOM      6  C6  BNZ d   1      -0.698   2.330   1.147  0.00  0.00     0.000 A 
ENDROOT
TORSDOF 0
ENDMDL
