MODEL 1
REMARK minimizedAffinity -0.791169584
REMARK minimizedRMSD -1
REMARK  0 active torsions:
REMARK  status: ('A' for Active; 'I' for Inactive)
ROOT
ATOM      1  C1  BNZ d   1       1.162  -2.697   2.455  0.00  0.00     0.000 A 
ATOM      2  C2  BNZ d   1       1.634  -2.257   1.247  0.00  0.00     0.000 A 
ATOM      3  C3  BNZ d   1       1.688  -0.922   0.962  0.00  0.00     0.000 A 
ATOM      4  C4  BNZ d   1       1.235  -0.031   1.867  0.00  0.00     0.000 A 
ATOM      5  C5  BNZ d   1       0.747  -0.460   3.086  0.00  0.00     0.000 A 
ATOM      6  C6  BNZ d   1       0.730  -1.803   3.385  0.00  0.00     0.000 A 
ENDROOT
TORSDOF 0
ENDMDL
