MODEL 1
REMARK minimizedAffinity -2.05651546
REMARK minimizedRMSD -1
REMARK  0 active torsions:
REMARK  status: ('A' for Active; 'I' for Inactive)
ROOT
ATOM      1  C1  BNZ d   1       3.976   0.983  -5.070  0.00  0.00     0.000 A 
ATOM      2  C2  BNZ d   1       3.995   0.374  -3.843  0.00  0.00     0.000 A 
ATOM      3  C3  BNZ d   1       5.019  -0.461  -3.492  0.00  0.00     0.000 A 
ATOM      4  C4  BNZ d   1       5.999  -0.718  -4.381  0.00  0.00     0.000 A 
ATOM      5  C5  BNZ d   1       5.989  -0.119  -5.625  0.00  0.00     0.000 A 
ATOM      6  C6  BNZ d   1       4.978   0.751  -5.961  0.00  0.00     0.000 A 
ENDROOT
TORSDOF 0
ENDMDL
