MODEL 1
REMARK minimizedAffinity 6.66002226
REMARK minimizedRMSD -1
REMARK  0 active torsions:
REMARK  status: ('A' for Active; 'I' for Inactive)
ROOT
ATOM      1  C1  BNZ d   1      -2.345   0.447  -0.143  0.00  0.00     0.000 A 
ATOM      2  C2  BNZ d   1      -2.314   1.329   0.904  0.00  0.00     0.000 A 
ATOM      3  C3  BNZ d   1      -2.733   2.620   0.744  0.00  0.00     0.000 A 
ATOM      4  C4  BNZ d   1      -3.143   3.039  -0.470  0.00  0.00     0.000 A 
ATOM      5  C5  BNZ d   1      -3.171   2.164  -1.538  0.00  0.00     0.000 A 
ATOM      6  C6  BNZ d   1      -2.785   0.855  -1.364  0.00  0.00     0.000 A 
ENDROOT
TORSDOF 0
ENDMDL
