MODEL 1
REMARK minimizedAffinity 3.26069045
REMARK minimizedRMSD -1
REMARK  0 active torsions:
REMARK  status: ('A' for Active; 'I' for Inactive)
ROOT
ATOM      1  C1  BNZ d   1       1.148  -0.046   1.677  0.00  0.00     0.000 A 
ATOM      2  C2  BNZ d   1       0.727  -0.171   2.974  0.00  0.00     0.000 A 
ATOM      3  C3  BNZ d   1       1.119  -1.236   3.738  0.00  0.00     0.000 A 
ATOM      4  C4  BNZ d   1       1.897  -2.192   3.192  0.00  0.00     0.000 A 
ATOM      5  C5  BNZ d   1       2.322  -2.085   1.883  0.00  0.00     0.000 A 
ATOM      6  C6  BNZ d   1       1.958  -0.993   1.129  0.00  0.00     0.000 A 
ENDROOT
TORSDOF 0
ENDMDL
