MODEL 1
REMARK minimizedAffinity 0.778421462
REMARK minimizedRMSD -1
REMARK  0 active torsions:
REMARK  status: ('A' for Active; 'I' for Inactive)
ROOT
ATOM      1  C1  BNZ d   1      -3.846  -5.057  -3.910  0.00  0.00     0.000 A 
ATOM      2  C2  BNZ d   1      -4.315  -3.771  -3.931  0.00  0.00     0.000 A 
ATOM      3  C3  BNZ d   1      -5.085  -3.323  -4.967  0.00  0.00     0.000 A 
ATOM      4  C4  BNZ d   1      -5.352  -4.149  -6.000  0.00  0.00     0.000 A 
ATOM      5  C5  BNZ d   1      -4.879  -5.446  -5.998  0.00  0.00     0.000 A 
ATOM      6  C6  BNZ d   1      -4.136  -5.905  -4.934  0.00  0.00     0.000 A 
ENDROOT
TORSDOF 0
ENDMDL
