MODEL 1
REMARK minimizedAffinity -2.70992136
REMARK minimizedRMSD -1
REMARK  0 active torsions:
REMARK  status: ('A' for Active; 'I' for Inactive)
ROOT
ATOM      1  C1  BNZ d   1       1.542  -1.660   4.546  0.00  0.00     0.000 A 
ATOM      2  C2  BNZ d   1       1.978  -2.352   3.448  0.00  0.00     0.000 A 
ATOM      3  C3  BNZ d   1       2.171  -1.718   2.252  0.00  0.00     0.000 A 
ATOM      4  C4  BNZ d   1       1.890  -0.404   2.145  0.00  0.00     0.000 A 
ATOM      5  C5  BNZ d   1       1.440   0.306   3.241  0.00  0.00     0.000 A 
ATOM      6  C6  BNZ d   1       1.284  -0.326   4.453  0.00  0.00     0.000 A 
ENDROOT
TORSDOF 0
ENDMDL
