MODEL 1
REMARK minimizedAffinity -2.05289721
REMARK minimizedRMSD -1
REMARK  2 active torsions:
REMARK  status: ('A' for Active; 'I' for Inactive)
REMARK    1  A    between atoms: C2'_3  and  C1'_4 
REMARK    2  A    between atoms: C1'_4  and  C1_5 
ROOT
ATOM      1  C1  I4B d   1      -0.387  -0.944   0.223  0.00  0.00    -0.075 A 
ATOM      2  C2  I4B d   1       0.722  -0.174  -0.029  0.00  0.00     0.003 A 
ATOM      3  C3  I4B d   1       0.675   1.227   0.166  0.00  0.00     0.002 A 
ATOM      4  C4  I4B d   1      -0.506   1.820   0.563  0.00  0.00    -0.004 A 
ATOM      5  C5  I4B d   1      -1.622   1.035   0.840  0.00  0.00     0.002 A 
ATOM      6  C6  I4B d   1      -1.559  -0.357   0.681  0.00  0.00     0.003 A 
ENDROOT
BRANCH   1   7
ATOM      7  C1' I4B d   1      -0.312  -2.417  -0.025  0.00  0.00     0.060 C 
BRANCH   7   8
ATOM      8  C2' I4B d   1      -1.307  -2.758  -1.116  0.00  0.00    -0.013 C 
ATOM      9  C4' I4B d   1      -0.614  -3.313  -2.332  0.00  0.00     0.013 C 
ATOM     10  C3' I4B d   1      -2.290  -3.742  -0.556  0.00  0.00     0.013 C 
ENDBRANCH   7   8
ENDBRANCH   1   7
TORSDOF 2
ENDMDL
