MODEL 1
REMARK minimizedAffinity -5.25653172
REMARK minimizedRMSD -1
REMARK  2 active torsions:
REMARK  status: ('A' for Active; 'I' for Inactive)
REMARK    1  A    between atoms: C2'_3  and  C1'_4 
REMARK    2  A    between atoms: C1'_4  and  C1_5 
ROOT
ATOM      1  C1  I4B d   1      -0.814  -1.061   0.059  0.00  0.00    -0.075 A 
ATOM      2  C2  I4B d   1      -1.970  -0.364  -0.187  0.00  0.00     0.003 A 
ATOM      3  C3  I4B d   1      -2.048   1.017   0.117  0.00  0.00     0.002 A 
ATOM      4  C4  I4B d   1      -0.971   1.645   0.709  0.00  0.00    -0.004 A 
ATOM      5  C5  I4B d   1       0.208   0.942   0.937  0.00  0.00     0.002 A 
ATOM      6  C6  I4B d   1       0.292  -0.417   0.599  0.00  0.00     0.003 A 
ENDROOT
BRANCH   1   7
ATOM      7  C1' I4B d   1      -0.776  -2.526  -0.243  0.00  0.00     0.060 C 
BRANCH   7   8
ATOM      8  C2' I4B d   1      -0.912  -2.696  -1.743  0.00  0.00    -0.013 C 
ATOM      9  C4' I4B d   1       0.243  -3.479  -2.309  0.00  0.00     0.013 C 
ATOM     10  C3' I4B d   1      -2.217  -3.383  -2.014  0.00  0.00     0.013 C 
ENDBRANCH   7   8
ENDBRANCH   1   7
TORSDOF 2
ENDMDL
