MODEL 1
REMARK minimizedAffinity -2.2548542
REMARK minimizedRMSD -1
REMARK  2 active torsions:
REMARK  status: ('A' for Active; 'I' for Inactive)
REMARK    1  A    between atoms: C2'_3  and  C1'_4 
REMARK    2  A    between atoms: C1'_4  and  C1_5 
ROOT
ATOM      1  C1  I4B d   1      -0.184  -2.313  -0.902  0.00  0.00    -0.075 A 
ATOM      2  C2  I4B d   1      -1.478  -2.747  -0.765  0.00  0.00     0.003 A 
ATOM      3  C3  I4B d   1      -2.151  -3.342  -1.860  0.00  0.00     0.002 A 
ATOM      4  C4  I4B d   1      -1.512  -3.437  -3.079  0.00  0.00    -0.004 A 
ATOM      5  C5  I4B d   1      -0.191  -3.017  -3.210  0.00  0.00     0.002 A 
ATOM      6  C6  I4B d   1       0.482  -2.463  -2.112  0.00  0.00     0.003 A 
ENDROOT
BRANCH   1   7
ATOM      7  C1' I4B d   1       0.485  -1.660   0.266  0.00  0.00     0.060 C 
BRANCH   7   8
ATOM      8  C2' I4B d   1       0.551  -0.171  -0.008  0.00  0.00    -0.013 C 
ATOM      9  C4' I4B d   1      -0.645   0.543   0.565  0.00  0.00     0.013 C 
ATOM     10  C3' I4B d   1       1.827   0.352   0.582  0.00  0.00     0.013 C 
ENDBRANCH   7   8
ENDBRANCH   1   7
TORSDOF 2
ENDMDL
