MODEL 1
REMARK minimizedAffinity -1.08492625
REMARK minimizedRMSD -1
REMARK  2 active torsions:
REMARK  status: ('A' for Active; 'I' for Inactive)
REMARK    1  A    between atoms: C2'_3  and  C1'_4 
REMARK    2  A    between atoms: C1'_4  and  C1_5 
ROOT
ATOM      1  C1  I4B d   1       0.043  -0.557   0.168  0.00  0.00    -0.075 A 
ATOM      2  C2  I4B d   1      -1.145   0.131   0.154  0.00  0.00     0.003 A 
ATOM      3  C3  I4B d   1      -1.154   1.541   0.280  0.00  0.00     0.002 A 
ATOM      4  C4  I4B d   1       0.036   2.214   0.467  0.00  0.00    -0.004 A 
ATOM      5  C5  I4B d   1       1.241   1.518   0.458  0.00  0.00     0.002 A 
ATOM      6  C6  I4B d   1       1.246   0.125   0.295  0.00  0.00     0.003 A 
ENDROOT
BRANCH   1   7
ATOM      7  C1' I4B d   1       0.013  -2.049   0.066  0.00  0.00     0.060 C 
BRANCH   7   8
ATOM      8  C2' I4B d   1      -0.878  -2.419  -1.102  0.00  0.00    -0.013 C 
ATOM      9  C4' I4B d   1      -0.063  -2.794  -2.312  0.00  0.00     0.013 C 
ATOM     10  C3' I4B d   1      -1.760  -3.553  -0.670  0.00  0.00     0.013 C 
ENDBRANCH   7   8
ENDBRANCH   1   7
TORSDOF 2
ENDMDL
