MODEL 1
REMARK minimizedAffinity -3.54759359
REMARK minimizedRMSD -1
REMARK  2 active torsions:
REMARK  status: ('A' for Active; 'I' for Inactive)
REMARK    1  A    between atoms: C2'_3  and  C1'_4 
REMARK    2  A    between atoms: C1'_4  and  C1_5 
ROOT
ATOM      1  C1  I4B d   1       0.097   0.153   0.156  0.00  0.00    -0.075 A 
ATOM      2  C2  I4B d   1       0.084  -1.189   0.444  0.00  0.00     0.003 A 
ATOM      3  C3  I4B d   1       1.262  -1.833   0.895  0.00  0.00     0.002 A 
ATOM      4  C4  I4B d   1       2.434  -1.113   0.995  0.00  0.00    -0.004 A 
ATOM      5  C5  I4B d   1       2.440   0.252   0.724  0.00  0.00     0.002 A 
ATOM      6  C6  I4B d   1       1.262   0.892   0.313  0.00  0.00     0.003 A 
ENDROOT
BRANCH   1   7
ATOM      7  C1' I4B d   1      -1.156   0.793  -0.350  0.00  0.00     0.060 C 
BRANCH   7   8
ATOM      8  C2' I4B d   1      -1.818   1.505   0.812  0.00  0.00    -0.013 C 
ATOM      9  C4' I4B d   1      -2.179   0.538   1.909  0.00  0.00     0.013 C 
ATOM     10  C3' I4B d   1      -0.875   2.560   1.308  0.00  0.00     0.013 C 
ENDBRANCH   7   8
ENDBRANCH   1   7
TORSDOF 2
ENDMDL
