MODEL 1
REMARK minimizedAffinity -4.69506121
REMARK minimizedRMSD -1
REMARK  2 active torsions:
REMARK  status: ('A' for Active; 'I' for Inactive)
REMARK    1  A    between atoms: C2'_3  and  C1'_4 
REMARK    2  A    between atoms: C1'_4  and  C1_5 
ROOT
ATOM      1  C1  I4B d   1      -0.225  -1.827  -0.162  0.00  0.00    -0.075 A 
ATOM      2  C2  I4B d   1      -1.183  -2.809  -0.130  0.00  0.00     0.003 A 
ATOM      3  C3  I4B d   1      -1.131  -3.885  -1.049  0.00  0.00     0.002 A 
ATOM      4  C4  I4B d   1      -0.139  -3.912  -2.009  0.00  0.00    -0.004 A 
ATOM      5  C5  I4B d   1       0.844  -2.927  -2.024  0.00  0.00     0.002 A 
ATOM      6  C6  I4B d   1       0.809  -1.884  -1.087  0.00  0.00     0.003 A 
ENDROOT
BRANCH   1   7
ATOM      7  C1' I4B d   1      -0.330  -0.687   0.802  0.00  0.00     0.060 C 
BRANCH   7   8
ATOM      8  C2' I4B d   1       0.049   0.582   0.067  0.00  0.00    -0.013 C 
ATOM      9  C4' I4B d   1      -0.916   1.697   0.372  0.00  0.00     0.013 C 
ATOM     10  C3' I4B d   1       1.447   0.950   0.469  0.00  0.00     0.013 C 
ENDBRANCH   7   8
ENDBRANCH   1   7
TORSDOF 2
ENDMDL
