MODEL 1
REMARK minimizedAffinity 1.29421616
REMARK minimizedRMSD -1
REMARK  2 active torsions:
REMARK  status: ('A' for Active; 'I' for Inactive)
REMARK    1  A    between atoms: C2'_3  and  C1'_4 
REMARK    2  A    between atoms: C1'_4  and  C1_5 
ROOT
ATOM      1  C1  I4B d   1      -0.175  -0.799   0.053  0.00  0.00    -0.075 A 
ATOM      2  C2  I4B d   1      -1.325  -0.051   0.004  0.00  0.00     0.003 A 
ATOM      3  C3  I4B d   1      -1.291   1.330   0.314  0.00  0.00     0.002 A 
ATOM      4  C4  I4B d   1      -0.103   1.907   0.715  0.00  0.00    -0.004 A 
ATOM      5  C5  I4B d   1       1.066   1.153   0.743  0.00  0.00     0.002 A 
ATOM      6  C6  I4B d   1       1.033  -0.206   0.397  0.00  0.00     0.003 A 
ENDROOT
BRANCH   1   7
ATOM      7  C1' I4B d   1      -0.253  -2.262  -0.249  0.00  0.00     0.060 C 
BRANCH   7   8
ATOM      8  C2' I4B d   1      -0.149  -2.435  -1.751  0.00  0.00    -0.013 C 
ATOM      9  C4' I4B d   1       1.166  -3.058  -2.139  0.00  0.00     0.013 C 
ATOM     10  C3' I4B d   1      -1.303  -3.280  -2.201  0.00  0.00     0.013 C 
ENDBRANCH   7   8
ENDBRANCH   1   7
TORSDOF 2
ENDMDL
