MODEL 1
REMARK minimizedAffinity -2.21636844
REMARK minimizedRMSD -1
REMARK  2 active torsions:
REMARK  status: ('A' for Active; 'I' for Inactive)
REMARK    1  A    between atoms: C2'_3  and  C1'_4 
REMARK    2  A    between atoms: C1'_4  and  C1_5 
ROOT
ATOM      1  C1  I4B d   1      -0.004  -1.502  -0.679  0.00  0.00    -0.075 A 
ATOM      2  C2  I4B d   1       0.028  -1.471  -2.051  0.00  0.00     0.003 A 
ATOM      3  C3  I4B d   1      -0.327  -2.621  -2.798  0.00  0.00     0.002 A 
ATOM      4  C4  I4B d   1      -0.656  -3.786  -2.137  0.00  0.00    -0.004 A 
ATOM      5  C5  I4B d   1      -0.711  -3.809  -0.746  0.00  0.00     0.002 A 
ATOM      6  C6  I4B d   1      -0.395  -2.656  -0.012  0.00  0.00     0.003 A 
ENDROOT
BRANCH   1   7
ATOM      7  C1' I4B d   1       0.408  -0.280   0.079  0.00  0.00     0.060 C 
BRANCH   7   8
ATOM      8  C2' I4B d   1      -0.806   0.616   0.217  0.00  0.00    -0.013 C 
ATOM      9  C4' I4B d   1      -1.855  -0.019   1.091  0.00  0.00     0.013 C 
ATOM     10  C3' I4B d   1      -0.351   1.928   0.783  0.00  0.00     0.013 C 
ENDBRANCH   7   8
ENDBRANCH   1   7
TORSDOF 2
ENDMDL
