MODEL 1
REMARK minimizedAffinity -4.74881458
REMARK minimizedRMSD -1
REMARK  2 active torsions:
REMARK  status: ('A' for Active; 'I' for Inactive)
REMARK    1  A    between atoms: C2'_3  and  C1'_4 
REMARK    2  A    between atoms: C1'_4  and  C1_5 
ROOT
ATOM      1  C1  I4B d   1      -0.371  -0.707  -0.092  0.00  0.00    -0.075 A 
ATOM      2  C2  I4B d   1       0.879  -0.245   0.233  0.00  0.00     0.003 A 
ATOM      3  C3  I4B d   1       1.073   1.120   0.556  0.00  0.00     0.002 A 
ATOM      4  C4  I4B d   1       0.005   1.992   0.493  0.00  0.00    -0.004 A 
ATOM      5  C5  I4B d   1      -1.266   1.517   0.186  0.00  0.00     0.002 A 
ATOM      6  C6  I4B d   1      -1.459   0.157  -0.097  0.00  0.00     0.003 A 
ENDROOT
BRANCH   1   7
ATOM      7  C1' I4B d   1      -0.534  -2.147  -0.460  0.00  0.00     0.060 C 
BRANCH   7   8
ATOM      8  C2' I4B d   1      -0.410  -2.261  -1.966  0.00  0.00    -0.013 C 
ATOM      9  C4' I4B d   1       0.814  -3.048  -2.354  0.00  0.00     0.013 C 
ATOM     10  C3' I4B d   1      -1.658  -2.911  -2.486  0.00  0.00     0.013 C 
ENDBRANCH   7   8
ENDBRANCH   1   7
TORSDOF 2
ENDMDL
