MODEL 1
REMARK minimizedAffinity -2.54198217
REMARK minimizedRMSD -1
REMARK  2 active torsions:
REMARK  status: ('A' for Active; 'I' for Inactive)
REMARK    1  A    between atoms: C2'_3  and  C1'_4 
REMARK    2  A    between atoms: C1'_4  and  C1_5 
ROOT
ATOM      1  C1  I4B d   1       0.098  -0.844   0.020  0.00  0.00    -0.075 A 
ATOM      2  C2  I4B d   1      -1.222  -0.524   0.214  0.00  0.00     0.003 A 
ATOM      3  C3  I4B d   1      -1.605   0.821   0.432  0.00  0.00     0.002 A 
ATOM      4  C4  I4B d   1      -0.637   1.802   0.499  0.00  0.00    -0.004 A 
ATOM      5  C5  I4B d   1       0.699   1.479   0.279  0.00  0.00     0.002 A 
ATOM      6  C6  I4B d   1       1.069   0.150   0.026  0.00  0.00     0.003 A 
ENDROOT
BRANCH   1   7
ATOM      7  C1' I4B d   1       0.471  -2.279  -0.176  0.00  0.00     0.060 C 
BRANCH   7   8
ATOM      8  C2' I4B d   1      -0.135  -2.745  -1.483  0.00  0.00    -0.013 C 
ATOM      9  C4' I4B d   1       0.911  -2.858  -2.560  0.00  0.00     0.013 C 
ATOM     10  C3' I4B d   1      -0.805  -4.065  -1.239  0.00  0.00     0.013 C 
ENDBRANCH   7   8
ENDBRANCH   1   7
TORSDOF 2
ENDMDL
