MODEL 1
REMARK minimizedAffinity -4.70523119
REMARK minimizedRMSD -1
REMARK  2 active torsions:
REMARK  status: ('A' for Active; 'I' for Inactive)
REMARK    1  A    between atoms: C2'_3  and  C1'_4 
REMARK    2  A    between atoms: C1'_4  and  C1_5 
ROOT
ATOM      1  C1  I4B d   1      -0.151  -1.146  -0.764  0.00  0.00    -0.075 A 
ATOM      2  C2  I4B d   1      -1.116  -2.115  -0.880  0.00  0.00     0.003 A 
ATOM      3  C3  I4B d   1      -1.176  -2.927  -2.038  0.00  0.00     0.002 A 
ATOM      4  C4  I4B d   1      -0.288  -2.705  -3.070  0.00  0.00    -0.004 A 
ATOM      5  C5  I4B d   1       0.705  -1.738  -2.942  0.00  0.00     0.002 A 
ATOM      6  C6  I4B d   1       0.782  -0.962  -1.776  0.00  0.00     0.003 A 
ENDROOT
BRANCH   1   7
ATOM      7  C1' I4B d   1      -0.137  -0.284   0.458  0.00  0.00     0.060 C 
BRANCH   7   8
ATOM      8  C2' I4B d   1      -1.119   0.850   0.240  0.00  0.00    -0.013 C 
ATOM      9  C4' I4B d   1      -2.477   0.509   0.796  0.00  0.00     0.013 C 
ATOM     10  C3' I4B d   1      -0.559   2.079   0.893  0.00  0.00     0.013 C 
ENDBRANCH   7   8
ENDBRANCH   1   7
TORSDOF 2
ENDMDL
