MODEL 1
REMARK minimizedAffinity -1.72657859
REMARK minimizedRMSD -1
REMARK  2 active torsions:
REMARK  status: ('A' for Active; 'I' for Inactive)
REMARK    1  A    between atoms: C2'_3  and  C1'_4 
REMARK    2  A    between atoms: C1'_4  and  C1_5 
ROOT
ATOM      1  C1  I4B d   1      -0.403  -1.868  -0.762  0.00  0.00    -0.075 A 
ATOM      2  C2  I4B d   1       0.261  -1.645  -1.943  0.00  0.00     0.003 A 
ATOM      3  C3  I4B d   1      -0.106  -2.356  -3.111  0.00  0.00     0.002 A 
ATOM      4  C4  I4B d   1      -1.101  -3.310  -3.043  0.00  0.00    -0.004 A 
ATOM      5  C5  I4B d   1      -1.787  -3.518  -1.850  0.00  0.00     0.002 A 
ATOM      6  C6  I4B d   1      -1.445  -2.784  -0.705  0.00  0.00     0.003 A 
ENDROOT
BRANCH   1   7
ATOM      7  C1' I4B d   1       0.032  -1.124   0.461  0.00  0.00     0.060 C 
BRANCH   7   8
ATOM      8  C2' I4B d   1       0.315   0.310   0.059  0.00  0.00    -0.013 C 
ATOM      9  C4' I4B d   1      -0.739   1.243   0.594  0.00  0.00     0.013 C 
ATOM     10  C3' I4B d   1       1.675   0.675   0.574  0.00  0.00     0.013 C 
ENDBRANCH   7   8
ENDBRANCH   1   7
TORSDOF 2
ENDMDL
