MODEL 1
REMARK minimizedAffinity 12.8431025
REMARK minimizedRMSD -1
REMARK  0 active torsions:
REMARK  status: ('A' for Active; 'I' for Inactive)
ROOT
ATOM      1  C   UNL d   1       2.398  -0.737   4.262  0.00  0.00    -0.002 A 
ATOM      2  C1  UNL d   1       1.652  -1.907   4.243  0.00  0.00     0.010 A 
ATOM      3  C2  UNL d   1       0.338  -1.904   3.770  0.00  0.00     0.041 A 
ATOM      4  C3  UNL d   1      -0.217  -0.694   3.309  0.00  0.00    -0.075 A 
ATOM      5  S   UNL d   1      -1.806  -0.451   2.685  0.00  0.00     0.015 SA
ATOM      6  C4  UNL d   1      -1.531   1.212   2.427  0.00  0.00     0.022 A 
ATOM      7  C5  UNL d   1      -0.263   1.589   2.803  0.00  0.00     0.026 A 
ATOM      8  C6  UNL d   1       0.515   0.497   3.317  0.00  0.00    -0.082 A 
ATOM      9  C7  UNL d   1       1.844   0.461   3.804  0.00  0.00     0.045 A 
ENDROOT
TORSDOF 0
ENDMDL
