MODEL 1
REMARK minimizedAffinity 14.5901203
REMARK minimizedRMSD -1
REMARK  0 active torsions:
REMARK  status: ('A' for Active; 'I' for Inactive)
ROOT
ATOM      1  C   UNL d   1       2.939  -0.991   5.641  0.00  0.00    -0.002 A 
ATOM      2  C1  UNL d   1       2.433  -2.243   5.321  0.00  0.00     0.010 A 
ATOM      3  C2  UNL d   1       1.416  -2.377   4.374  0.00  0.00     0.041 A 
ATOM      4  C3  UNL d   1       0.912  -1.220   3.747  0.00  0.00    -0.075 A 
ATOM      5  S   UNL d   1      -0.332  -1.142   2.556  0.00  0.00     0.015 SA
ATOM      6  C4  UNL d   1      -0.220   0.555   2.443  0.00  0.00     0.022 A 
ATOM      7  C5  UNL d   1       0.738   1.066   3.287  0.00  0.00     0.026 A 
ATOM      8  C6  UNL d   1       1.406   0.051   4.052  0.00  0.00    -0.082 A 
ATOM      9  C7  UNL d   1       2.437   0.154   5.017  0.00  0.00     0.045 A 
ENDROOT
TORSDOF 0
ENDMDL
