MODEL 1
REMARK minimizedAffinity 12.2112799
REMARK minimizedRMSD -1
REMARK  0 active torsions:
REMARK  status: ('A' for Active; 'I' for Inactive)
ROOT
ATOM      1  C   UNL d   1      -1.538   0.801   3.295  0.00  0.00    -0.002 A 
ATOM      2  C1  UNL d   1      -0.801   1.857   3.812  0.00  0.00     0.010 A 
ATOM      3  C2  UNL d   1       0.550   2.004   3.493  0.00  0.00     0.041 A 
ATOM      4  C3  UNL d   1       1.154   1.064   2.635  0.00  0.00    -0.075 A 
ATOM      5  S   UNL d   1       2.795   1.043   2.105  0.00  0.00     0.015 SA
ATOM      6  C4  UNL d   1       2.556  -0.367   1.178  0.00  0.00     0.022 A 
ATOM      7  C5  UNL d   1       1.262  -0.825   1.260  0.00  0.00     0.026 A 
ATOM      8  C6  UNL d   1       0.433  -0.008   2.101  0.00  0.00    -0.082 A 
ATOM      9  C7  UNL d   1      -0.935  -0.130   2.444  0.00  0.00     0.045 A 
ENDROOT
TORSDOF 0
ENDMDL
