MODEL 1
REMARK minimizedAffinity 11.1206484
REMARK minimizedRMSD -1
REMARK  0 active torsions:
REMARK  status: ('A' for Active; 'I' for Inactive)
ROOT
ATOM      1  C   UNL d   1      -1.433  -5.614  -4.385  0.00  0.00    -0.002 A 
ATOM      2  C1  UNL d   1      -1.927  -4.581  -5.170  0.00  0.00     0.010 A 
ATOM      3  C2  UNL d   1      -2.075  -3.297  -4.643  0.00  0.00     0.041 A 
ATOM      4  C3  UNL d   1      -1.714  -3.065  -3.301  0.00  0.00    -0.075 A 
ATOM      5  S   UNL d   1      -1.809  -1.573  -2.442  0.00  0.00     0.015 SA
ATOM      6  C4  UNL d   1      -1.196  -2.271  -1.013  0.00  0.00     0.022 A 
ATOM      7  C5  UNL d   1      -0.920  -3.609  -1.170  0.00  0.00     0.026 A 
ATOM      8  C6  UNL d   1      -1.214  -4.088  -2.491  0.00  0.00    -0.082 A 
ATOM      9  C7  UNL d   1      -1.076  -5.380  -3.055  0.00  0.00     0.045 A 
ENDROOT
TORSDOF 0
ENDMDL
