MODEL 1
REMARK minimizedAffinity 19.7458992
REMARK minimizedRMSD -1
REMARK  0 active torsions:
REMARK  status: ('A' for Active; 'I' for Inactive)
ROOT
ATOM      1  C   UNL d   1       4.790   0.588   3.936  0.00  0.00    -0.002 A 
ATOM      2  C1  UNL d   1       3.754  -0.089   3.308  0.00  0.00     0.010 A 
ATOM      3  C2  UNL d   1       2.425   0.247   3.569  0.00  0.00     0.041 A 
ATOM      4  C3  UNL d   1       2.151   1.287   4.480  0.00  0.00    -0.075 A 
ATOM      5  S   UNL d   1       0.600   1.873   4.953  0.00  0.00     0.015 SA
ATOM      6  C4  UNL d   1       1.276   3.036   5.999  0.00  0.00     0.022 A 
ATOM      7  C5  UNL d   1       2.651   2.993   6.000  0.00  0.00     0.026 A 
ATOM      8  C6  UNL d   1       3.177   1.984   5.123  0.00  0.00    -0.082 A 
ATOM      9  C7  UNL d   1       4.515   1.619   4.838  0.00  0.00     0.045 A 
ENDROOT
TORSDOF 0
ENDMDL
