MODEL 1
REMARK minimizedAffinity 12.0841064
REMARK minimizedRMSD -1
REMARK  0 active torsions:
REMARK  status: ('A' for Active; 'I' for Inactive)
ROOT
ATOM      1  C   UNL d   1      -1.655  -5.058  -5.168  0.00  0.00    -0.002 A 
ATOM      2  C1  UNL d   1      -1.342  -5.737  -3.999  0.00  0.00     0.010 A 
ATOM      3  C2  UNL d   1      -1.250  -5.054  -2.785  0.00  0.00     0.041 A 
ATOM      4  C3  UNL d   1      -1.481  -3.664  -2.765  0.00  0.00    -0.075 A 
ATOM      5  S   UNL d   1      -1.423  -2.620  -1.394  0.00  0.00     0.015 SA
ATOM      6  C4  UNL d   1      -1.814  -1.249  -2.328  0.00  0.00     0.022 A 
ATOM      7  C5  UNL d   1      -1.986  -1.562  -3.656  0.00  0.00     0.026 A 
ATOM      8  C6  UNL d   1      -1.798  -2.959  -3.929  0.00  0.00    -0.082 A 
ATOM      9  C7  UNL d   1      -1.883  -3.680  -5.145  0.00  0.00     0.045 A 
ENDROOT
TORSDOF 0
ENDMDL
