MODEL 1
REMARK minimizedAffinity 14.6466389
REMARK minimizedRMSD -1
REMARK  0 active torsions:
REMARK  status: ('A' for Active; 'I' for Inactive)
ROOT
ATOM      1  C   UNL d   1      -2.321   0.609   2.205  0.00  0.00    -0.002 A 
ATOM      2  C1  UNL d   1      -1.663   1.390   3.144  0.00  0.00     0.010 A 
ATOM      3  C2  UNL d   1      -0.269   1.397   3.210  0.00  0.00     0.041 A 
ATOM      4  C3  UNL d   1       0.461   0.600   2.306  0.00  0.00    -0.075 A 
ATOM      5  S   UNL d   1       2.175   0.451   2.201  0.00  0.00     0.015 SA
ATOM      6  C4  UNL d   1       2.074  -0.652   0.905  0.00  0.00     0.022 A 
ATOM      7  C5  UNL d   1       0.772  -0.911   0.549  0.00  0.00     0.026 A 
ATOM      8  C6  UNL d   1      -0.179  -0.194   1.350  0.00  0.00    -0.082 A 
ATOM      9  C7  UNL d   1      -1.594  -0.180   1.309  0.00  0.00     0.045 A 
ENDROOT
TORSDOF 0
ENDMDL
