MODEL 1
REMARK minimizedAffinity 3.5500803
REMARK minimizedRMSD -1
REMARK  0 active torsions:
REMARK  status: ('A' for Active; 'I' for Inactive)
ROOT
ATOM      1  N1  IND d   1       5.924   4.341  -5.786  0.00  0.00    -0.196 N 
ATOM      2  C2  IND d   1       6.000   3.002  -5.524  0.00  0.00     0.054 A 
ATOM      3  C3  IND d   1       4.763   2.487  -5.342  0.00  0.00    -0.031 A 
ATOM      4  C4  IND d   1       2.468   3.640  -5.529  0.00  0.00     0.051 A 
ATOM      5  C5  IND d   1       1.890   4.864  -5.713  0.00  0.00    -0.031 A 
ATOM      6  C6  IND d   1       2.641   5.999  -5.938  0.00  0.00     0.015 A 
ATOM      7  C7  IND d   1       4.005   5.950  -5.999  0.00  0.00    -0.016 A 
ATOM      8  C8  IND d   1       4.597   4.710  -5.806  0.00  0.00    -0.047 A 
ATOM      9  C9  IND d   1       3.841   3.562  -5.534  0.00  0.00    -0.096 A 
ATOM     10  HN1 IND d   1       6.593   4.866  -5.916  0.00  0.00     0.298 HD
ENDROOT
TORSDOF 0
ENDMDL
