MODEL 1
REMARK minimizedAffinity 15.7644205
REMARK minimizedRMSD -1
REMARK  0 active torsions:
REMARK  status: ('A' for Active; 'I' for Inactive)
ROOT
ATOM      1  N1  IND d   1       2.615  -1.370   3.914  0.00  0.00    -0.196 N 
ATOM      2  C2  IND d   1       3.979  -1.465   3.877  0.00  0.00     0.054 A 
ATOM      3  C3  IND d   1       4.400  -1.699   2.615  0.00  0.00    -0.031 A 
ATOM      4  C4  IND d   1       3.035  -1.863   0.438  0.00  0.00     0.051 A 
ATOM      5  C5  IND d   1       1.751  -1.878  -0.029  0.00  0.00    -0.031 A 
ATOM      6  C6  IND d   1       0.667  -1.719   0.810  0.00  0.00     0.015 A 
ATOM      7  C7  IND d   1       0.829  -1.526   2.153  0.00  0.00    -0.016 A 
ATOM      8  C8  IND d   1       2.131  -1.517   2.632  0.00  0.00    -0.047 A 
ATOM      9  C9  IND d   1       3.233  -1.721   1.791  0.00  0.00    -0.096 A 
ATOM     10  HN1 IND d   1       2.140  -1.240   4.618  0.00  0.00     0.298 HD
ENDROOT
TORSDOF 0
ENDMDL
