MODEL 1
REMARK minimizedAffinity 12.5889893
REMARK minimizedRMSD -1
REMARK  0 active torsions:
REMARK  status: ('A' for Active; 'I' for Inactive)
ROOT
ATOM      1  N1  IND d   1       1.047  -4.141   0.759  0.00  0.00    -0.196 N 
ATOM      2  C2  IND d   1       2.374  -4.027   0.453  0.00  0.00     0.054 A 
ATOM      3  C3  IND d   1       2.892  -2.910   1.012  0.00  0.00    -0.031 A 
ATOM      4  C4  IND d   1       1.768  -1.181   2.552  0.00  0.00     0.051 A 
ATOM      5  C5  IND d   1       0.557  -0.839   3.086  0.00  0.00    -0.031 A 
ATOM      6  C6  IND d   1      -0.575  -1.598   2.869  0.00  0.00     0.015 A 
ATOM      7  C7  IND d   1      -0.535  -2.738   2.116  0.00  0.00    -0.016 A 
ATOM      8  C8  IND d   1       0.691  -3.083   1.567  0.00  0.00    -0.047 A 
ATOM      9  C9  IND d   1       1.834  -2.294   1.748  0.00  0.00    -0.096 A 
ATOM     10  HN1 IND d   1       0.522  -4.767   0.491  0.00  0.00     0.298 HD
ENDROOT
TORSDOF 0
ENDMDL
