MODEL 1
REMARK minimizedAffinity 11.4715471
REMARK minimizedRMSD -1
REMARK  0 active torsions:
REMARK  status: ('A' for Active; 'I' for Inactive)
ROOT
ATOM      1  N1  IND d   1       3.792   5.188   4.500  0.00  0.00    -0.196 N 
ATOM      2  C2  IND d   1       3.186   5.999   5.418  0.00  0.00     0.054 A 
ATOM      3  C3  IND d   1       1.846   5.996   5.237  0.00  0.00    -0.031 A 
ATOM      4  C4  IND d   1       0.425   4.653   3.562  0.00  0.00     0.051 A 
ATOM      5  C5  IND d   1       0.532   3.804   2.497  0.00  0.00    -0.031 A 
ATOM      6  C6  IND d   1       1.756   3.361   2.037  0.00  0.00     0.015 A 
ATOM      7  C7  IND d   1       2.923   3.744   2.636  0.00  0.00    -0.016 A 
ATOM      8  C8  IND d   1       2.818   4.612   3.713  0.00  0.00    -0.047 A 
ATOM      9  C9  IND d   1       1.582   5.098   4.157  0.00  0.00    -0.096 A 
ATOM     10  HN1 IND d   1       4.639   5.059   4.426  0.00  0.00     0.298 HD
ENDROOT
TORSDOF 0
ENDMDL
