MODEL 1
REMARK minimizedAffinity 10.7217979
REMARK minimizedRMSD -1
REMARK  0 active torsions:
REMARK  status: ('A' for Active; 'I' for Inactive)
ROOT
ATOM      1  N1  IND d   1       3.222  -1.503   4.104  0.00  0.00    -0.196 N 
ATOM      2  C2  IND d   1       4.382  -2.158   3.794  0.00  0.00     0.054 A 
ATOM      3  C3  IND d   1       4.287  -2.731   2.574  0.00  0.00    -0.031 A 
ATOM      4  C4  IND d   1       2.362  -2.636   0.867  0.00  0.00     0.051 A 
ATOM      5  C5  IND d   1       1.080  -2.188   0.713  0.00  0.00    -0.031 A 
ATOM      6  C6  IND d   1       0.435  -1.471   1.700  0.00  0.00     0.015 A 
ATOM      7  C7  IND d   1       1.054  -1.166   2.879  0.00  0.00    -0.016 A 
ATOM      8  C8  IND d   1       2.353  -1.625   3.042  0.00  0.00    -0.047 A 
ATOM      9  C9  IND d   1       2.998  -2.389   2.061  0.00  0.00    -0.096 A 
ATOM     10  HN1 IND d   1       3.063  -1.085   4.838  0.00  0.00     0.298 HD
ENDROOT
TORSDOF 0
ENDMDL
