MODEL 1
REMARK minimizedAffinity 4.03338861
REMARK minimizedRMSD -1
REMARK  0 active torsions:
REMARK  status: ('A' for Active; 'I' for Inactive)
ROOT
ATOM      1  N1  IND d   1      -4.164   1.422  -5.277  0.00  0.00    -0.196 N 
ATOM      2  C2  IND d   1      -5.273   0.626  -5.199  0.00  0.00     0.054 A 
ATOM      3  C3  IND d   1      -5.444   0.181  -3.934  0.00  0.00    -0.031 A 
ATOM      4  C4  IND d   1      -4.086   0.716  -1.814  0.00  0.00     0.051 A 
ATOM      5  C5  IND d   1      -2.962   1.367  -1.390  0.00  0.00    -0.031 A 
ATOM      6  C6  IND d   1      -2.166   2.087  -2.258  0.00  0.00     0.015 A 
ATOM      7  C7  IND d   1      -2.473   2.192  -3.585  0.00  0.00    -0.016 A 
ATOM      8  C8  IND d   1      -3.610   1.526  -4.020  0.00  0.00    -0.047 A 
ATOM      9  C9  IND d   1      -4.398   0.759  -3.152  0.00  0.00    -0.096 A 
ATOM     10  HN1 IND d   1      -3.864   1.795  -5.991  0.00  0.00     0.298 HD
ENDROOT
TORSDOF 0
ENDMDL
