MODEL 1
REMARK minimizedAffinity 2.55800223
REMARK minimizedRMSD -1
REMARK  0 active torsions:
REMARK  status: ('A' for Active; 'I' for Inactive)
ROOT
ATOM      1  N1  IND d   1       0.906  -3.214   1.590  0.00  0.00    -0.196 N 
ATOM      2  C2  IND d   1       1.390  -1.957   1.822  0.00  0.00     0.054 A 
ATOM      3  C3  IND d   1       2.725  -1.920   1.608  0.00  0.00    -0.031 A 
ATOM      4  C4  IND d   1       4.300  -3.778   0.775  0.00  0.00     0.051 A 
ATOM      5  C5  IND d   1       4.326  -5.108   0.462  0.00  0.00    -0.031 A 
ATOM      6  C6  IND d   1       3.190  -5.890   0.508  0.00  0.00     0.015 A 
ATOM      7  C7  IND d   1       1.978  -5.366   0.858  0.00  0.00    -0.016 A 
ATOM      8  C8  IND d   1       1.949  -4.018   1.183  0.00  0.00    -0.047 A 
ATOM      9  C9  IND d   1       3.107  -3.229   1.180  0.00  0.00    -0.096 A 
ATOM     10  HN1 IND d   1       0.088  -3.462   1.682  0.00  0.00     0.298 HD
ENDROOT
TORSDOF 0
ENDMDL
