MODEL 1
REMARK minimizedAffinity 4.90007973
REMARK minimizedRMSD -1
REMARK  0 active torsions:
REMARK  status: ('A' for Active; 'I' for Inactive)
ROOT
ATOM      1  N1  IND d   1       0.452  -2.596  -0.363  0.00  0.00    -0.196 N 
ATOM      2  C2  IND d   1       0.526  -1.252  -0.121  0.00  0.00     0.054 A 
ATOM      3  C3  IND d   1       1.730  -0.934   0.404  0.00  0.00    -0.031 A 
ATOM      4  C4  IND d   1       3.766  -2.442   0.858  0.00  0.00     0.051 A 
ATOM      5  C5  IND d   1       4.166  -3.748   0.833  0.00  0.00    -0.031 A 
ATOM      6  C6  IND d   1       3.333  -4.758   0.396  0.00  0.00     0.015 A 
ATOM      7  C7  IND d   1       2.066  -4.495  -0.044  0.00  0.00    -0.016 A 
ATOM      8  C8  IND d   1       1.654  -3.170  -0.013  0.00  0.00    -0.047 A 
ATOM      9  C9  IND d   1       2.481  -2.147   0.469  0.00  0.00    -0.096 A 
ATOM     10  HN1 IND d   1      -0.230  -3.012  -0.680  0.00  0.00     0.298 HD
ENDROOT
TORSDOF 0
ENDMDL
