MODEL 1
REMARK minimizedAffinity -4.36541557
REMARK minimizedRMSD -1
REMARK  0 active torsions:
REMARK  status: ('A' for Active; 'I' for Inactive)
ROOT
ATOM      1  C   UNL d   1       2.498   1.735   0.563  0.00  0.00     0.020 A 
ATOM      2  C1  UNL d   1       1.746   2.903   0.683  0.00  0.00     0.020 A 
ATOM      3  C2  UNL d   1       0.367   2.872   0.466  0.00  0.00     0.034 A 
ATOM      4  C3  UNL d   1      -0.265   1.670   0.126  0.00  0.00     0.017 A 
ATOM      5  C4  UNL d   1       0.491   0.498   0.005  0.00  0.00     0.017 A 
ATOM      6  C5  UNL d   1       1.871   0.535   0.224  0.00  0.00     0.034 A 
ATOM      7 Cl   UNL d   1      -0.218  -1.023  -0.411  0.00  0.00    -0.070 Cl
ATOM      8 Cl1  UNL d   1      -1.973   1.704  -0.129  0.00  0.00    -0.070 Cl
ENDROOT
TORSDOF 0
ENDMDL
