MODEL 1
REMARK minimizedAffinity -5.02626944
REMARK minimizedRMSD -1
REMARK  0 active torsions:
REMARK  status: ('A' for Active; 'I' for Inactive)
ROOT
ATOM      1  C   UNL d   1       0.664   2.853  -0.777  0.00  0.00     0.020 A 
ATOM      2  C1  UNL d   1       1.600   1.831  -0.930  0.00  0.00     0.020 A 
ATOM      3  C2  UNL d   1       1.271   0.523  -0.568  0.00  0.00     0.034 A 
ATOM      4  C3  UNL d   1       0.003   0.234  -0.050  0.00  0.00     0.017 A 
ATOM      5  C4  UNL d   1      -0.935   1.261   0.104  0.00  0.00     0.017 A 
ATOM      6  C5  UNL d   1      -0.601   2.569  -0.261  0.00  0.00     0.034 A 
ATOM      7 Cl   UNL d   1      -2.520   0.982   0.736  0.00  0.00    -0.070 Cl
ATOM      8 Cl1  UNL d   1      -0.335  -1.405   0.378  0.00  0.00    -0.070 Cl
ENDROOT
TORSDOF 0
ENDMDL
