MODEL 1
REMARK minimizedAffinity -3.74259329
REMARK minimizedRMSD -1
REMARK  0 active torsions:
REMARK  status: ('A' for Active; 'I' for Inactive)
ROOT
ATOM      1  C   UNL d   1      -0.643   3.273  -0.165  0.00  0.00     0.020 A 
ATOM      2  C1  UNL d   1      -1.644   2.346   0.120  0.00  0.00     0.020 A 
ATOM      3  C2  UNL d   1      -1.323   0.995   0.266  0.00  0.00     0.034 A 
ATOM      4  C3  UNL d   1       0.003   0.567   0.127  0.00  0.00     0.017 A 
ATOM      5  C4  UNL d   1       1.007   1.499  -0.159  0.00  0.00     0.017 A 
ATOM      6  C5  UNL d   1       0.679   2.851  -0.305  0.00  0.00     0.034 A 
ATOM      7 Cl   UNL d   1       2.665   1.048  -0.345  0.00  0.00    -0.070 Cl
ATOM      8 Cl1  UNL d   1       0.328  -1.118   0.321  0.00  0.00    -0.070 Cl
ENDROOT
TORSDOF 0
ENDMDL
