MODEL 1
REMARK minimizedAffinity -1.5686326
REMARK minimizedRMSD -1
REMARK  0 active torsions:
REMARK  status: ('A' for Active; 'I' for Inactive)
ROOT
ATOM      1  C   UNL d   1       0.029   3.098   0.104  0.00  0.00     0.020 A 
ATOM      2  C1  UNL d   1       1.035   2.401  -0.562  0.00  0.00     0.020 A 
ATOM      3  C2  UNL d   1       1.030   1.004  -0.568  0.00  0.00     0.034 A 
ATOM      4  C3  UNL d   1       0.017   0.301   0.093  0.00  0.00     0.017 A 
ATOM      5  C4  UNL d   1      -0.993   1.002   0.761  0.00  0.00     0.017 A 
ATOM      6  C5  UNL d   1      -0.983   2.400   0.764  0.00  0.00     0.034 A 
ATOM      7 Cl   UNL d   1      -2.277   0.204   1.599  0.00  0.00    -0.070 Cl
ATOM      8 Cl1  UNL d   1       0.073  -1.425   0.044  0.00  0.00    -0.070 Cl
ENDROOT
TORSDOF 0
ENDMDL
