MODEL 1
REMARK minimizedAffinity -4.83493376
REMARK minimizedRMSD -1
REMARK  0 active torsions:
REMARK  status: ('A' for Active; 'I' for Inactive)
ROOT
ATOM      1  C   UNL d   1       1.517   2.248  -0.510  0.00  0.00     0.020 A 
ATOM      2  C1  UNL d   1       0.517   3.086  -0.018  0.00  0.00     0.020 A 
ATOM      3  C2  UNL d   1      -0.691   2.545   0.428  0.00  0.00     0.034 A 
ATOM      4  C3  UNL d   1      -0.902   1.162   0.384  0.00  0.00     0.017 A 
ATOM      5  C4  UNL d   1       0.102   0.322  -0.110  0.00  0.00     0.017 A 
ATOM      6  C5  UNL d   1       1.310   0.869  -0.555  0.00  0.00     0.034 A 
ATOM      7 Cl   UNL d   1      -0.085  -1.394  -0.195  0.00  0.00    -0.070 Cl
ATOM      8 Cl1  UNL d   1      -2.419   0.563   0.952  0.00  0.00    -0.070 Cl
ENDROOT
TORSDOF 0
ENDMDL
