MODEL 1
REMARK minimizedAffinity -2.40694165
REMARK minimizedRMSD -1
REMARK  0 active torsions:
REMARK  status: ('A' for Active; 'I' for Inactive)
ROOT
ATOM      1  C   UNL d   1      -1.781   0.124  -0.326  0.00  0.00     0.020 A 
ATOM      2  C1  UNL d   1      -0.756  -0.821  -0.303  0.00  0.00     0.020 A 
ATOM      3  C2  UNL d   1       0.576  -0.406  -0.242  0.00  0.00     0.034 A 
ATOM      4  C3  UNL d   1       0.887   0.958  -0.204  0.00  0.00     0.017 A 
ATOM      5  C4  UNL d   1      -0.142   1.906  -0.228  0.00  0.00     0.017 A 
ATOM      6  C5  UNL d   1      -1.474   1.485  -0.288  0.00  0.00     0.034 A 
ATOM      7 Cl   UNL d   1       0.164   3.607  -0.184  0.00  0.00    -0.070 Cl
ATOM      8 Cl1  UNL d   1       2.556   1.399  -0.129  0.00  0.00    -0.070 Cl
ENDROOT
TORSDOF 0
ENDMDL
