MODEL 1
REMARK minimizedAffinity -1.57631516
REMARK minimizedRMSD -1
REMARK  0 active torsions:
REMARK  status: ('A' for Active; 'I' for Inactive)
ROOT
ATOM      1  C   UNL d   1       0.581   3.476   0.424  0.00  0.00     0.020 A 
ATOM      2  C1  UNL d   1       1.633   2.827  -0.224  0.00  0.00     0.020 A 
ATOM      3  C2  UNL d   1       1.527   1.472  -0.542  0.00  0.00     0.034 A 
ATOM      4  C3  UNL d   1       0.368   0.760  -0.213  0.00  0.00     0.017 A 
ATOM      5  C4  UNL d   1      -0.687   1.411   0.437  0.00  0.00     0.017 A 
ATOM      6  C5  UNL d   1      -0.576   2.769   0.753  0.00  0.00     0.034 A 
ATOM      7 Cl   UNL d   1      -2.149   0.599   0.874  0.00  0.00    -0.070 Cl
ATOM      8 Cl1  UNL d   1       0.306  -0.914  -0.637  0.00  0.00    -0.070 Cl
ENDROOT
TORSDOF 0
ENDMDL
