MODEL 1
REMARK minimizedAffinity -2.81521463
REMARK minimizedRMSD -1
REMARK  0 active torsions:
REMARK  status: ('A' for Active; 'I' for Inactive)
ROOT
ATOM      1  C   UNL d   1       1.863   0.008   0.400  0.00  0.00     0.020 A 
ATOM      2  C1  UNL d   1       1.025  -1.106   0.409  0.00  0.00     0.020 A 
ATOM      3  C2  UNL d   1      -0.355  -0.940   0.544  0.00  0.00     0.034 A 
ATOM      4  C3  UNL d   1      -0.901   0.343   0.670  0.00  0.00     0.017 A 
ATOM      5  C4  UNL d   1      -0.058   1.460   0.660  0.00  0.00     0.017 A 
ATOM      6  C5  UNL d   1       1.323   1.288   0.525  0.00  0.00     0.034 A 
ATOM      7 Cl   UNL d   1      -0.658   3.075   0.810  0.00  0.00    -0.070 Cl
ATOM      8 Cl1  UNL d   1      -2.616   0.474   0.832  0.00  0.00    -0.070 Cl
ENDROOT
TORSDOF 0
ENDMDL
