MODEL 1
REMARK minimizedAffinity 1.90963888
REMARK minimizedRMSD -1
REMARK  0 active torsions:
REMARK  status: ('A' for Active; 'I' for Inactive)
ROOT
ATOM      1  C   UNL d   1      -1.477  -3.831  -1.925  0.00  0.00     0.020 A 
ATOM      2  C1  UNL d   1      -2.281  -2.764  -2.324  0.00  0.00     0.020 A 
ATOM      3  C2  UNL d   1      -2.055  -1.488  -1.803  0.00  0.00     0.034 A 
ATOM      4  C3  UNL d   1      -1.023  -1.276  -0.882  0.00  0.00     0.017 A 
ATOM      5  C4  UNL d   1      -0.217  -2.348  -0.483  0.00  0.00     0.017 A 
ATOM      6  C5  UNL d   1      -0.447  -3.623  -1.007  0.00  0.00     0.034 A 
ATOM      7 Cl   UNL d   1       1.076  -2.164   0.650  0.00  0.00    -0.070 Cl
ATOM      8 Cl1  UNL d   1      -0.801   0.329  -0.280  0.00  0.00    -0.070 Cl
ENDROOT
TORSDOF 0
ENDMDL
