MODEL 1
REMARK minimizedAffinity -4.00440359
REMARK minimizedRMSD -1
REMARK  0 active torsions:
REMARK  status: ('A' for Active; 'I' for Inactive)
ROOT
ATOM      1  C   UNL d   1       1.754   2.081  -0.397  0.00  0.00     0.020 A 
ATOM      2  C1  UNL d   1       0.679   2.912  -0.083  0.00  0.00     0.020 A 
ATOM      3  C2  UNL d   1      -0.560   2.357   0.243  0.00  0.00     0.034 A 
ATOM      4  C3  UNL d   1      -0.728   0.967   0.256  0.00  0.00     0.017 A 
ATOM      5  C4  UNL d   1       0.352   0.134  -0.059  0.00  0.00     0.017 A 
ATOM      6  C5  UNL d   1       1.590   0.695  -0.385  0.00  0.00     0.034 A 
ATOM      7 Cl   UNL d   1       0.222  -1.589  -0.064  0.00  0.00    -0.070 Cl
ATOM      8 Cl1  UNL d   1      -2.288   0.350   0.669  0.00  0.00    -0.070 Cl
ENDROOT
TORSDOF 0
ENDMDL
