MODEL 1
REMARK minimizedAffinity -2.50696921
REMARK minimizedRMSD -1
REMARK  0 active torsions:
REMARK  status: ('A' for Active; 'I' for Inactive)
ROOT
ATOM      1  C   UNL d   1      -1.647   1.863   0.263  0.00  0.00     0.020 A 
ATOM      2  C1  UNL d   1      -0.498   2.649   0.354  0.00  0.00     0.020 A 
ATOM      3  C2  UNL d   1       0.763   2.055   0.267  0.00  0.00     0.034 A 
ATOM      4  C3  UNL d   1       0.878   0.671   0.090  0.00  0.00     0.017 A 
ATOM      5  C4  UNL d   1      -0.275  -0.117  -0.001  0.00  0.00     0.017 A 
ATOM      6  C5  UNL d   1      -1.535   0.483   0.086  0.00  0.00     0.034 A 
ATOM      7 Cl   UNL d   1      -0.212  -1.830  -0.220  0.00  0.00    -0.070 Cl
ATOM      8 Cl1  UNL d   1       2.469   0.004  -0.008  0.00  0.00    -0.070 Cl
ENDROOT
TORSDOF 0
ENDMDL
