MODEL 1
REMARK minimizedAffinity -1.81634676
REMARK minimizedRMSD -1
REMARK  0 active torsions:
REMARK  status: ('A' for Active; 'I' for Inactive)
ROOT
ATOM      1  C   UNL d   1       1.082   1.105  -1.435  0.00  0.00     0.020 A 
ATOM      2  C1  UNL d   1       0.440  -0.126  -1.314  0.00  0.00     0.020 A 
ATOM      3  C2  UNL d   1      -0.468  -0.342  -0.275  0.00  0.00     0.034 A 
ATOM      4  C3  UNL d   1      -0.735   0.676   0.648  0.00  0.00     0.017 A 
ATOM      5  C4  UNL d   1      -0.090   1.912   0.525  0.00  0.00     0.017 A 
ATOM      6  C5  UNL d   1       0.817   2.122  -0.517  0.00  0.00     0.034 A 
ATOM      7 Cl   UNL d   1      -0.369   3.216   1.625  0.00  0.00    -0.070 Cl
ATOM      8 Cl1  UNL d   1      -1.869   0.341   1.908  0.00  0.00    -0.070 Cl
ENDROOT
TORSDOF 0
ENDMDL
