MODEL 1
REMARK minimizedAffinity 13.2769823
REMARK minimizedRMSD -1
REMARK  0 active torsions:
REMARK  status: ('A' for Active; 'I' for Inactive)
ROOT
ATOM      1  C   UNL d   1       0.826  -4.267  -3.239  0.00  0.00     0.020 A 
ATOM      2  C1  UNL d   1       0.624  -5.508  -2.636  0.00  0.00     0.020 A 
ATOM      3  C2  UNL d   1       1.485  -5.942  -1.626  0.00  0.00     0.034 A 
ATOM      4  C3  UNL d   1       2.553  -5.135  -1.217  0.00  0.00     0.017 A 
ATOM      5  C4  UNL d   1       2.755  -3.889  -1.822  0.00  0.00     0.017 A 
ATOM      6  C5  UNL d   1       1.889  -3.459  -2.833  0.00  0.00     0.034 A 
ATOM      7 Cl   UNL d   1       4.050  -2.838  -1.370  0.00  0.00    -0.070 Cl
ATOM      8 Cl1  UNL d   1       3.578  -5.735   0.038  0.00  0.00    -0.070 Cl
ENDROOT
TORSDOF 0
ENDMDL
