MODEL 1
REMARK minimizedAffinity -3.77646112
REMARK minimizedRMSD -1
REMARK  0 active torsions:
REMARK  status: ('A' for Active; 'I' for Inactive)
ROOT
ATOM      1  C   UNL d   1       0.401   0.232   4.011  0.00  0.00    -0.002 A 
ATOM      2  C1  UNL d   1       1.429  -0.381   3.309  0.00  0.00     0.010 A 
ATOM      3  C2  UNL d   1       1.378  -0.481   1.917  0.00  0.00     0.041 A 
ATOM      4  C3  UNL d   1       0.267   0.054   1.236  0.00  0.00    -0.075 A 
ATOM      5  S   UNL d   1      -0.011   0.049  -0.466  0.00  0.00     0.015 SA
ATOM      6  C4  UNL d   1      -1.499   0.863  -0.301  0.00  0.00     0.022 A 
ATOM      7  C5  UNL d   1      -1.793   1.139   1.013  0.00  0.00     0.026 A 
ATOM      8  C6  UNL d   1      -0.780   0.678   1.921  0.00  0.00    -0.082 A 
ATOM      9  C7  UNL d   1      -0.699   0.762   3.332  0.00  0.00     0.045 A 
ENDROOT
TORSDOF 0
ENDMDL
