MODEL 1
REMARK minimizedAffinity -3.091923
REMARK minimizedRMSD -1
REMARK  0 active torsions:
REMARK  status: ('A' for Active; 'I' for Inactive)
ROOT
ATOM      1  C   UNL d   1       0.889   0.116  -3.127  0.00  0.00    -0.002 A 
ATOM      2  C1  UNL d   1       1.305  -0.947  -2.338  0.00  0.00     0.010 A 
ATOM      3  C2  UNL d   1       0.803  -1.111  -1.045  0.00  0.00     0.041 A 
ATOM      4  C3  UNL d   1      -0.134  -0.181  -0.555  0.00  0.00    -0.075 A 
ATOM      5  S   UNL d   1      -0.885  -0.181   0.997  0.00  0.00     0.015 SA
ATOM      6  C4  UNL d   1      -1.777   1.229   0.649  0.00  0.00     0.022 A 
ATOM      7  C5  UNL d   1      -1.519   1.703  -0.616  0.00  0.00     0.026 A 
ATOM      8  C6  UNL d   1      -0.569   0.898  -1.331  0.00  0.00    -0.082 A 
ATOM      9  C7  UNL d   1      -0.041   1.037  -2.637  0.00  0.00     0.045 A 
ENDROOT
TORSDOF 0
ENDMDL
