MODEL 1
REMARK minimizedAffinity -1.19023967
REMARK minimizedRMSD -1
REMARK  0 active torsions:
REMARK  status: ('A' for Active; 'I' for Inactive)
ROOT
ATOM      1  C   UNL d   1       0.339   0.278  -1.218  0.00  0.00    -0.002 A 
ATOM      2  C1  UNL d   1      -0.951  -0.172  -1.461  0.00  0.00     0.010 A 
ATOM      3  C2  UNL d   1      -1.872  -0.284  -0.418  0.00  0.00     0.041 A 
ATOM      4  C3  UNL d   1      -1.472   0.069   0.886  0.00  0.00    -0.075 A 
ATOM      5  S   UNL d   1      -2.430   0.013   2.318  0.00  0.00     0.015 SA
ATOM      6  C4  UNL d   1      -1.150   0.586   3.286  0.00  0.00     0.022 A 
ATOM      7  C5  UNL d   1      -0.011   0.819   2.551  0.00  0.00     0.026 A 
ATOM      8  C6  UNL d   1      -0.179   0.525   1.156  0.00  0.00    -0.082 A 
ATOM      9  C7  UNL d   1       0.733   0.627   0.077  0.00  0.00     0.045 A 
ENDROOT
TORSDOF 0
ENDMDL
