MODEL 1
REMARK minimizedAffinity 0.917374313
REMARK minimizedRMSD -1
REMARK  0 active torsions:
REMARK  status: ('A' for Active; 'I' for Inactive)
ROOT
ATOM      1  C   UNL d   1      -2.200   0.981   1.556  0.00  0.00    -0.002 A 
ATOM      2  C1  UNL d   1      -1.345   0.217   2.338  0.00  0.00     0.010 A 
ATOM      3  C2  UNL d   1      -0.296  -0.496   1.755  0.00  0.00     0.041 A 
ATOM      4  C3  UNL d   1      -0.116  -0.424   0.359  0.00  0.00    -0.075 A 
ATOM      5  S   UNL d   1       1.102  -1.211  -0.574  0.00  0.00     0.015 SA
ATOM      6  C4  UNL d   1       0.517  -0.551  -2.032  0.00  0.00     0.022 A 
ATOM      7  C5  UNL d   1      -0.580   0.253  -1.831  0.00  0.00     0.026 A 
ATOM      8  C6  UNL d   1      -0.963   0.339  -0.449  0.00  0.00    -0.082 A 
ATOM      9  C7  UNL d   1      -2.019   1.049   0.172  0.00  0.00     0.045 A 
ENDROOT
TORSDOF 0
ENDMDL
