MODEL 1
REMARK minimizedAffinity -2.98222065
REMARK minimizedRMSD -1
REMARK  0 active torsions:
REMARK  status: ('A' for Active; 'I' for Inactive)
ROOT
ATOM      1  C   UNL d   1       0.811   0.815  -4.058  0.00  0.00    -0.002 A 
ATOM      2  C1  UNL d   1       2.085   0.631  -3.539  0.00  0.00     0.010 A 
ATOM      3  C2  UNL d   1       2.260   0.233  -2.212  0.00  0.00     0.041 A 
ATOM      4  C3  UNL d   1       1.123   0.020  -1.408  0.00  0.00    -0.075 A 
ATOM      5  S   UNL d   1       1.095  -0.471   0.244  0.00  0.00     0.015 SA
ATOM      6  C4  UNL d   1      -0.609  -0.448   0.299  0.00  0.00     0.022 A 
ATOM      7  C5  UNL d   1      -1.159  -0.078  -0.905  0.00  0.00     0.026 A 
ATOM      8  C6  UNL d   1      -0.170   0.198  -1.909  0.00  0.00    -0.082 A 
ATOM      9  C7  UNL d   1      -0.314   0.602  -3.258  0.00  0.00     0.045 A 
ENDROOT
TORSDOF 0
ENDMDL
