MODEL 1
REMARK minimizedAffinity -2.67213798
REMARK minimizedRMSD -1
REMARK  0 active torsions:
REMARK  status: ('A' for Active; 'I' for Inactive)
ROOT
ATOM      1  C   UNL d   1       0.894  -0.599   3.809  0.00  0.00    -0.002 A 
ATOM      2  C1  UNL d   1       1.815  -0.970   2.839  0.00  0.00     0.010 A 
ATOM      3  C2  UNL d   1       1.530  -0.793   1.484  0.00  0.00     0.041 A 
ATOM      4  C3  UNL d   1       0.292  -0.229   1.116  0.00  0.00    -0.075 A 
ATOM      5  S   UNL d   1      -0.274   0.083  -0.482  0.00  0.00     0.015 SA
ATOM      6  C4  UNL d   1      -1.751   0.717   0.085  0.00  0.00     0.022 A 
ATOM      7  C5  UNL d   1      -1.827   0.699   1.457  0.00  0.00     0.026 A 
ATOM      8  C6  UNL d   1      -0.651   0.154   2.075  0.00  0.00    -0.082 A 
ATOM      9  C7  UNL d   1      -0.332  -0.040   3.440  0.00  0.00     0.045 A 
ENDROOT
TORSDOF 0
ENDMDL
