MODEL 1
REMARK minimizedAffinity -5.93128443
REMARK minimizedRMSD -1
REMARK  3 active torsions:
REMARK  status: ('A' for Active; 'I' for Inactive)
REMARK    1  A    between atoms: C3'_2  and  C2'_3 
REMARK    2  A    between atoms: C2'_3  and  C1'_4 
REMARK    3  A    between atoms: C1'_4  and  C1_5 
ROOT
ATOM      1  C1  N4B d   1      -0.293   0.353   0.078  0.00  0.00    -0.075 A 
ATOM      2  C2  N4B d   1      -0.851   1.619  -0.205  0.00  0.00     0.002 A 
ATOM      3  C3  N4B d   1      -1.763   2.176   0.658  0.00  0.00     0.002 A 
ATOM      4  C4  N4B d   1      -2.145   1.480   1.795  0.00  0.00    -0.004 A 
ATOM      5  C5  N4B d   1      -1.582   0.269   2.075  0.00  0.00     0.002 A 
ATOM      6  C6  N4B d   1      -0.661  -0.300   1.219  0.00  0.00     0.002 A 
ENDROOT
BRANCH   1   7
ATOM      7  C1' N4B d   1       0.643  -0.334  -0.878  0.00  0.00     0.057 C 
BRANCH   7   8
ATOM      8  C2' N4B d   1       0.347  -1.831  -0.880  0.00  0.00     0.009 C 
BRANCH   8   9
ATOM      9  C3' N4B d   1      -0.088  -2.322  -2.250  0.00  0.00     0.004 C 
ATOM     10  C4' N4B d   1      -0.472  -3.772  -2.252  0.00  0.00     0.003 C 
ENDBRANCH   8   9
ENDBRANCH   7   8
ENDBRANCH   1   7
TORSDOF 3
ENDMDL
