MODEL 1
REMARK minimizedAffinity -6.0365963
REMARK minimizedRMSD -1
REMARK  3 active torsions:
REMARK  status: ('A' for Active; 'I' for Inactive)
REMARK    1  A    between atoms: C3'_2  and  C2'_3 
REMARK    2  A    between atoms: C2'_3  and  C1'_4 
REMARK    3  A    between atoms: C1'_4  and  C1_5 
ROOT
ATOM      1  C1  N4B d   1      -0.154   0.774  -0.082  0.00  0.00    -0.075 A 
ATOM      2  C2  N4B d   1      -0.283   2.147  -0.387  0.00  0.00     0.002 A 
ATOM      3  C3  N4B d   1      -1.093   2.948   0.380  0.00  0.00     0.002 A 
ATOM      4  C4  N4B d   1      -1.795   2.397   1.441  0.00  0.00    -0.004 A 
ATOM      5  C5  N4B d   1      -1.645   1.075   1.745  0.00  0.00     0.002 A 
ATOM      6  C6  N4B d   1      -0.831   0.260   0.986  0.00  0.00     0.002 A 
ENDROOT
BRANCH   1   7
ATOM      7  C1' N4B d   1       0.653  -0.158  -0.943  0.00  0.00     0.057 C 
BRANCH   7   8
ATOM      8  C2' N4B d   1       0.074  -1.566  -0.836  0.00  0.00     0.009 C 
BRANCH   8   9
ATOM      9  C3' N4B d   1       0.007  -2.258  -2.186  0.00  0.00     0.004 C 
ATOM     10  C4' N4B d   1      -0.075  -3.751  -2.071  0.00  0.00     0.003 C 
ENDBRANCH   8   9
ENDBRANCH   7   8
ENDBRANCH   1   7
TORSDOF 3
ENDMDL
