MODEL 1
REMARK minimizedAffinity -2.64304495
REMARK minimizedRMSD -1
REMARK  3 active torsions:
REMARK  status: ('A' for Active; 'I' for Inactive)
REMARK    1  A    between atoms: C3'_2  and  C2'_3 
REMARK    2  A    between atoms: C2'_3  and  C1'_4 
REMARK    3  A    between atoms: C1'_4  and  C1_5 
ROOT
ATOM      1  C1  N4B d   1      -0.255  -0.011   0.990  0.00  0.00    -0.075 A 
ATOM      2  C2  N4B d   1      -0.079   0.796  -0.156  0.00  0.00     0.002 A 
ATOM      3  C3  N4B d   1       0.771   0.392  -1.156  0.00  0.00     0.002 A 
ATOM      4  C4  N4B d   1       1.466  -0.800  -1.026  0.00  0.00    -0.004 A 
ATOM      5  C5  N4B d   1       1.271  -1.586   0.072  0.00  0.00     0.002 A 
ATOM      6  C6  N4B d   1       0.418  -1.195   1.084  0.00  0.00     0.002 A 
ENDROOT
BRANCH   1   7
ATOM      7  C1' N4B d   1      -1.106   0.430   2.149  0.00  0.00     0.057 C 
BRANCH   7   8
ATOM      8  C2' N4B d   1      -2.145   1.432   1.654  0.00  0.00     0.009 C 
BRANCH   8   9
ATOM      9  C3' N4B d   1      -1.927   2.815   2.243  0.00  0.00     0.004 C 
ATOM     10  C4' N4B d   1      -0.980   3.649   1.432  0.00  0.00     0.003 C 
ENDBRANCH   8   9
ENDBRANCH   7   8
ENDBRANCH   1   7
TORSDOF 3
ENDMDL
