MODEL 1
REMARK minimizedAffinity -6.17270803
REMARK minimizedRMSD -1
REMARK  3 active torsions:
REMARK  status: ('A' for Active; 'I' for Inactive)
REMARK    1  A    between atoms: C3'_2  and  C2'_3 
REMARK    2  A    between atoms: C2'_3  and  C1'_4 
REMARK    3  A    between atoms: C1'_4  and  C1_5 
ROOT
ATOM      1  C1  N4B d   1      -0.004   0.208   0.152  0.00  0.00    -0.075 A 
ATOM      2  C2  N4B d   1      -0.567   1.461  -0.175  0.00  0.00     0.002 A 
ATOM      3  C3  N4B d   1      -1.622   1.952   0.554  0.00  0.00     0.002 A 
ATOM      4  C4  N4B d   1      -2.141   1.202   1.598  0.00  0.00    -0.004 A 
ATOM      5  C5  N4B d   1      -1.576   0.004   1.924  0.00  0.00     0.002 A 
ATOM      6  C6  N4B d   1      -0.513  -0.500   1.203  0.00  0.00     0.002 A 
ENDROOT
BRANCH   1   7
ATOM      7  C1' N4B d   1       1.094  -0.409  -0.670  0.00  0.00     0.057 C 
BRANCH   7   8
ATOM      8  C2' N4B d   1       0.984  -1.929  -0.593  0.00  0.00     0.009 C 
BRANCH   8   9
ATOM      9  C3' N4B d   1       0.936  -2.565  -1.971  0.00  0.00     0.004 C 
ATOM     10  C4' N4B d   1      -0.285  -3.412  -2.177  0.00  0.00     0.003 C 
ENDBRANCH   8   9
ENDBRANCH   7   8
ENDBRANCH   1   7
TORSDOF 3
ENDMDL
