MODEL 1
REMARK minimizedAffinity -3.65923691
REMARK minimizedRMSD -1
REMARK  3 active torsions:
REMARK  status: ('A' for Active; 'I' for Inactive)
REMARK    1  A    between atoms: C3'_2  and  C2'_3 
REMARK    2  A    between atoms: C2'_3  and  C1'_4 
REMARK    3  A    between atoms: C1'_4  and  C1_5 
ROOT
ATOM      1  C1  N4B d   1      -0.180  -0.209   0.200  0.00  0.00    -0.075 A 
ATOM      2  C2  N4B d   1       0.354  -0.655   1.429  0.00  0.00     0.002 A 
ATOM      3  C3  N4B d   1      -0.022  -0.048   2.602  0.00  0.00     0.002 A 
ATOM      4  C4  N4B d   1      -0.912   1.015   2.569  0.00  0.00    -0.004 A 
ATOM      5  C5  N4B d   1      -1.443   1.423   1.381  0.00  0.00     0.002 A 
ATOM      6  C6  N4B d   1      -1.077   0.820   0.195  0.00  0.00     0.002 A 
ENDROOT
BRANCH   1   7
ATOM      7  C1' N4B d   1       0.267  -0.785  -1.115  0.00  0.00     0.057 C 
BRANCH   7   8
ATOM      8  C2' N4B d   1       1.170  -1.987  -0.855  0.00  0.00     0.009 C 
BRANCH   8   9
ATOM      9  C3' N4B d   1       0.783  -3.183  -1.707  0.00  0.00     0.004 C 
ATOM     10  C4' N4B d   1       0.323  -2.794  -3.080  0.00  0.00     0.003 C 
ENDBRANCH   8   9
ENDBRANCH   7   8
ENDBRANCH   1   7
TORSDOF 3
ENDMDL
