MODEL 1
REMARK minimizedAffinity -5.17132759
REMARK minimizedRMSD -1
REMARK  3 active torsions:
REMARK  status: ('A' for Active; 'I' for Inactive)
REMARK    1  A    between atoms: C3'_2  and  C2'_3 
REMARK    2  A    between atoms: C2'_3  and  C1'_4 
REMARK    3  A    between atoms: C1'_4  and  C1_5 
ROOT
ATOM      1  C1  N4B d   1       0.041   0.359  -0.351  0.00  0.00    -0.075 A 
ATOM      2  C2  N4B d   1      -0.074  -0.146   0.962  0.00  0.00     0.002 A 
ATOM      3  C3  N4B d   1      -0.996   0.391   1.826  0.00  0.00     0.002 A 
ATOM      4  C4  N4B d   1      -1.797   1.443   1.407  0.00  0.00    -0.004 A 
ATOM      5  C5  N4B d   1      -1.697   1.908   0.128  0.00  0.00     0.002 A 
ATOM      6  C6  N4B d   1      -0.778   1.374  -0.752  0.00  0.00     0.002 A 
ENDROOT
BRANCH   1   7
ATOM      7  C1' N4B d   1       1.093  -0.140  -1.304  0.00  0.00     0.057 C 
BRANCH   7   8
ATOM      8  C2' N4B d   1       1.269  -1.643  -1.115  0.00  0.00     0.009 C 
BRANCH   8   9
ATOM      9  C3' N4B d   1       0.699  -2.433  -2.281  0.00  0.00     0.004 C 
ATOM     10  C4' N4B d   1       0.210  -3.792  -1.879  0.00  0.00     0.003 C 
ENDBRANCH   8   9
ENDBRANCH   7   8
ENDBRANCH   1   7
TORSDOF 3
ENDMDL
