MODEL 1
REMARK minimizedAffinity -5.50963831
REMARK minimizedRMSD -1
REMARK  3 active torsions:
REMARK  status: ('A' for Active; 'I' for Inactive)
REMARK    1  A    between atoms: C3'_2  and  C2'_3 
REMARK    2  A    between atoms: C2'_3  and  C1'_4 
REMARK    3  A    between atoms: C1'_4  and  C1_5 
ROOT
ATOM      1  C1  N4B d   1       0.439   0.009  -0.688  0.00  0.00    -0.075 A 
ATOM      2  C2  N4B d   1       0.165  -0.700   0.502  0.00  0.00     0.002 A 
ATOM      3  C3  N4B d   1      -0.614  -0.128   1.478  0.00  0.00     0.002 A 
ATOM      4  C4  N4B d   1      -1.113   1.153   1.294  0.00  0.00    -0.004 A 
ATOM      5  C5  N4B d   1      -0.865   1.821   0.131  0.00  0.00     0.002 A 
ATOM      6  C6  N4B d   1      -0.087   1.257  -0.860  0.00  0.00     0.002 A 
ENDROOT
BRANCH   1   7
ATOM      7  C1' N4B d   1       1.356  -0.540  -1.746  0.00  0.00     0.057 C 
BRANCH   7   8
ATOM      8  C2' N4B d   1       1.360  -2.064  -1.664  0.00  0.00     0.009 C 
BRANCH   8   9
ATOM      9  C3' N4B d   1       0.577  -2.697  -2.801  0.00  0.00     0.004 C 
ATOM     10  C4' N4B d   1      -0.074  -3.989  -2.408  0.00  0.00     0.003 C 
ENDBRANCH   8   9
ENDBRANCH   7   8
ENDBRANCH   1   7
TORSDOF 3
ENDMDL
