MODEL 1
REMARK minimizedAffinity -6.29738283
REMARK minimizedRMSD -1
REMARK  3 active torsions:
REMARK  status: ('A' for Active; 'I' for Inactive)
REMARK    1  A    between atoms: C3'_2  and  C2'_3 
REMARK    2  A    between atoms: C2'_3  and  C1'_4 
REMARK    3  A    between atoms: C1'_4  and  C1_5 
ROOT
ATOM      1  C1  N4B d   1      -0.419   0.477   0.330  0.00  0.00    -0.075 A 
ATOM      2  C2  N4B d   1      -1.161   0.988   1.417  0.00  0.00     0.002 A 
ATOM      3  C3  N4B d   1      -1.585   2.294   1.405  0.00  0.00     0.002 A 
ATOM      4  C4  N4B d   1      -1.266   3.110   0.330  0.00  0.00    -0.004 A 
ATOM      5  C5  N4B d   1      -0.571   2.601  -0.729  0.00  0.00     0.002 A 
ATOM      6  C6  N4B d   1      -0.141   1.289  -0.732  0.00  0.00     0.002 A 
ENDROOT
BRANCH   1   7
ATOM      7  C1' N4B d   1       0.140  -0.919   0.337  0.00  0.00     0.057 C 
BRANCH   7   8
ATOM      8  C2' N4B d   1       0.610  -1.278  -1.070  0.00  0.00     0.009 C 
BRANCH   8   9
ATOM      9  C3' N4B d   1       0.604  -2.778  -1.306  0.00  0.00     0.004 C 
ATOM     10  C4' N4B d   1       0.117  -3.149  -2.676  0.00  0.00     0.003 C 
ENDBRANCH   8   9
ENDBRANCH   7   8
ENDBRANCH   1   7
TORSDOF 3
ENDMDL
