MODEL 1
REMARK minimizedAffinity 6.91163683
REMARK minimizedRMSD -1
REMARK  1 active torsions:
REMARK  status: ('A' for Active; 'I' for Inactive)
REMARK    1  A    between atoms: C3_4  and  O_7 
ROOT
ATOM      1  C   UNL d   1       4.563   3.490   1.100  0.00  0.00    -0.033 A 
ATOM      2  C1  UNL d   1       5.498   2.926   1.970  0.00  0.00     0.039 A 
ATOM      3  C2  UNL d   1       5.339   1.612   2.413  0.00  0.00    -0.080 A 
ATOM      4  C3  UNL d   1       4.242   0.872   1.978  0.00  0.00     0.150 A 
ATOM      5  C4  UNL d   1       3.308   1.427   1.109  0.00  0.00    -0.007 A 
ATOM      6  C5  UNL d   1       3.468   2.740   0.668  0.00  0.00     0.039 A 
ENDROOT
BRANCH   4   7
ATOM      7  O   UNL d   1       4.041  -0.413   2.387  0.00  0.00    -0.526 OA
ATOM      8  H5  UNL d   1       4.750  -0.652   3.007  0.00  0.00     0.418 HD
ENDBRANCH   4   7
TORSDOF 1
ENDMDL
