MODEL 1
REMARK minimizedAffinity 4.90632677
REMARK minimizedRMSD -1
REMARK  1 active torsions:
REMARK  status: ('A' for Active; 'I' for Inactive)
REMARK    1  A    between atoms: C3_4  and  O_7 
ROOT
ATOM      1  C   UNL d   1      -3.447   0.190   0.557  0.00  0.00    -0.033 A 
ATOM      2  C1  UNL d   1      -3.490   1.320   1.377  0.00  0.00     0.039 A 
ATOM      3  C2  UNL d   1      -2.713   1.374   2.536  0.00  0.00    -0.080 A 
ATOM      4  C3  UNL d   1      -1.898   0.294   2.863  0.00  0.00     0.150 A 
ATOM      5  C4  UNL d   1      -1.847  -0.833   2.049  0.00  0.00    -0.007 A 
ATOM      6  C5  UNL d   1      -2.624  -0.885   0.892  0.00  0.00     0.039 A 
ENDROOT
BRANCH   4   7
ATOM      7  O   UNL d   1      -1.126   0.298   3.986  0.00  0.00    -0.526 OA
ATOM      8  H5  UNL d   1      -1.285   1.128   4.466  0.00  0.00     0.418 HD
ENDBRANCH   4   7
TORSDOF 1
ENDMDL
