MODEL 1
REMARK minimizedAffinity 6.95117426
REMARK minimizedRMSD -1
REMARK  1 active torsions:
REMARK  status: ('A' for Active; 'I' for Inactive)
REMARK    1  A    between atoms: C3_4  and  O_7 
ROOT
ATOM      1  C   UNL d   1       4.959  -5.999   0.663  0.00  0.00    -0.033 A 
ATOM      2  C1  UNL d   1       6.000  -5.072   0.750  0.00  0.00     0.039 A 
ATOM      3  C2  UNL d   1       5.864  -3.810   0.168  0.00  0.00    -0.080 A 
ATOM      4  C3  UNL d   1       4.683  -3.487  -0.495  0.00  0.00     0.150 A 
ATOM      5  C4  UNL d   1       3.640  -4.404  -0.581  0.00  0.00    -0.007 A 
ATOM      6  C5  UNL d   1       3.778  -5.664  -0.001  0.00  0.00     0.039 A 
ENDROOT
BRANCH   4   7
ATOM      7  O   UNL d   1       4.506  -2.270  -1.082  0.00  0.00    -0.526 OA
ATOM      8  H5  UNL d   1       5.320  -1.751  -0.967  0.00  0.00     0.418 HD
ENDBRANCH   4   7
TORSDOF 1
ENDMDL
