MODEL 1
REMARK minimizedAffinity 12.7242098
REMARK minimizedRMSD -1
REMARK  1 active torsions:
REMARK  status: ('A' for Active; 'I' for Inactive)
REMARK    1  A    between atoms: C3_4  and  O_7 
ROOT
ATOM      1  C   UNL d   1       5.690   4.140  -4.602  0.00  0.00    -0.033 A 
ATOM      2  C1  UNL d   1       4.746   3.461  -5.375  0.00  0.00     0.039 A 
ATOM      3  C2  UNL d   1       3.594   2.945  -4.778  0.00  0.00    -0.080 A 
ATOM      4  C3  UNL d   1       3.398   3.115  -3.411  0.00  0.00     0.150 A 
ATOM      5  C4  UNL d   1       4.333   3.793  -2.635  0.00  0.00    -0.007 A 
ATOM      6  C5  UNL d   1       5.483   4.307  -3.233  0.00  0.00     0.039 A 
ENDROOT
BRANCH   4   7
ATOM      7  O   UNL d   1       2.291   2.625  -2.783  0.00  0.00    -0.526 OA
ATOM      8  H5  UNL d   1       1.748   2.156  -3.438  0.00  0.00     0.418 HD
ENDBRANCH   4   7
TORSDOF 1
ENDMDL
