MODEL 1
REMARK minimizedAffinity 2.4735558
REMARK minimizedRMSD -1
REMARK  1 active torsions:
REMARK  status: ('A' for Active; 'I' for Inactive)
REMARK    1  A    between atoms: C3_4  and  O_7 
ROOT
ATOM      1  C   UNL d   1      -1.188  -1.734   1.466  0.00  0.00    -0.033 A 
ATOM      2  C1  UNL d   1      -0.487  -1.455   2.641  0.00  0.00     0.039 A 
ATOM      3  C2  UNL d   1      -0.945  -0.462   3.510  0.00  0.00    -0.080 A 
ATOM      4  C3  UNL d   1      -2.104   0.241   3.194  0.00  0.00     0.150 A 
ATOM      5  C4  UNL d   1      -2.809  -0.034   2.027  0.00  0.00    -0.007 A 
ATOM      6  C5  UNL d   1      -2.350  -1.025   1.160  0.00  0.00     0.039 A 
ENDROOT
BRANCH   4   7
ATOM      7  O   UNL d   1      -2.587   1.222   4.008  0.00  0.00    -0.526 OA
ATOM      8  H5  UNL d   1      -1.981   1.322   4.762  0.00  0.00     0.418 HD
ENDBRANCH   4   7
TORSDOF 1
ENDMDL
