MODEL 1
REMARK minimizedAffinity 9.28752041
REMARK minimizedRMSD -1
REMARK  1 active torsions:
REMARK  status: ('A' for Active; 'I' for Inactive)
REMARK    1  A    between atoms: C3_4  and  O_7 
ROOT
ATOM      1  C   UNL d   1      -2.008  -1.051   1.374  0.00  0.00    -0.033 A 
ATOM      2  C1  UNL d   1      -3.164  -0.293   1.177  0.00  0.00     0.039 A 
ATOM      3  C2  UNL d   1      -3.543   0.663   2.121  0.00  0.00    -0.080 A 
ATOM      4  C3  UNL d   1      -2.759   0.852   3.255  0.00  0.00     0.150 A 
ATOM      5  C4  UNL d   1      -1.603   0.104   3.456  0.00  0.00    -0.007 A 
ATOM      6  C5  UNL d   1      -1.227  -0.851   2.512  0.00  0.00     0.039 A 
ENDROOT
BRANCH   4   7
ATOM      7  O   UNL d   1      -3.091   1.771   4.206  0.00  0.00    -0.526 OA
ATOM      8  H5  UNL d   1      -3.928   2.192   3.948  0.00  0.00     0.418 HD
ENDBRANCH   4   7
TORSDOF 1
ENDMDL
