MODEL 1
REMARK minimizedAffinity 4.66732502
REMARK minimizedRMSD -1
REMARK  1 active torsions:
REMARK  status: ('A' for Active; 'I' for Inactive)
REMARK    1  A    between atoms: C3_4  and  O_7 
ROOT
ATOM      1  C   UNL d   1      -4.867  -4.806   6.000  0.00  0.00    -0.033 A 
ATOM      2  C1  UNL d   1      -4.889  -6.000   5.276  0.00  0.00     0.039 A 
ATOM      3  C2  UNL d   1      -4.574  -5.999   3.915  0.00  0.00    -0.080 A 
ATOM      4  C3  UNL d   1      -4.240  -4.800   3.292  0.00  0.00     0.150 A 
ATOM      5  C4  UNL d   1      -4.213  -3.607   4.008  0.00  0.00    -0.007 A 
ATOM      6  C5  UNL d   1      -4.528  -3.610   5.366  0.00  0.00     0.039 A 
ENDROOT
BRANCH   4   7
ATOM      7  O   UNL d   1      -3.930  -4.748   1.965  0.00  0.00    -0.526 OA
ATOM      8  H5  UNL d   1      -4.018  -5.642   1.594  0.00  0.00     0.418 HD
ENDBRANCH   4   7
TORSDOF 1
ENDMDL
