MODEL 1
REMARK minimizedAffinity 9.97453022
REMARK minimizedRMSD -1
REMARK  1 active torsions:
REMARK  status: ('A' for Active; 'I' for Inactive)
REMARK    1  A    between atoms: C3_4  and  O_7 
ROOT
ATOM      1  C   UNL d   1       1.989   1.755   0.348  0.00  0.00    -0.033 A 
ATOM      2  C1  UNL d   1       1.947   2.888   1.163  0.00  0.00     0.039 A 
ATOM      3  C2  UNL d   1       3.133   3.479   1.603  0.00  0.00    -0.080 A 
ATOM      4  C3  UNL d   1       4.353   2.928   1.220  0.00  0.00     0.150 A 
ATOM      5  C4  UNL d   1       4.402   1.801   0.405  0.00  0.00    -0.007 A 
ATOM      6  C5  UNL d   1       3.217   1.213  -0.032  0.00  0.00     0.039 A 
ENDROOT
BRANCH   4   7
ATOM      7  O   UNL d   1       5.538   3.466   1.627  0.00  0.00    -0.526 OA
ATOM      8  H5  UNL d   1       5.348   4.222   2.208  0.00  0.00     0.418 HD
ENDBRANCH   4   7
TORSDOF 1
ENDMDL
