MODEL 1
REMARK minimizedAffinity 8.4989748
REMARK minimizedRMSD -1
REMARK  1 active torsions:
REMARK  status: ('A' for Active; 'I' for Inactive)
REMARK    1  A    between atoms: C3_4  and  O_7 
ROOT
ATOM      1  C   UNL d   1      -1.729  -5.595  -5.607  0.00  0.00    -0.033 A 
ATOM      2  C1  UNL d   1      -0.594  -4.932  -5.135  0.00  0.00     0.039 A 
ATOM      3  C2  UNL d   1      -0.454  -4.669  -3.771  0.00  0.00    -0.080 A 
ATOM      4  C3  UNL d   1      -1.453  -5.075  -2.890  0.00  0.00     0.150 A 
ATOM      5  C4  UNL d   1      -2.584  -5.740  -3.353  0.00  0.00    -0.007 A 
ATOM      6  C5  UNL d   1      -2.723  -6.000  -4.716  0.00  0.00     0.039 A 
ENDROOT
BRANCH   4   7
ATOM      7  O   UNL d   1      -1.363  -4.837  -1.551  0.00  0.00    -0.526 OA
ATOM      8  H5  UNL d   1      -0.542  -4.345  -1.381  0.00  0.00     0.418 HD
ENDBRANCH   4   7
TORSDOF 1
ENDMDL
