MODEL 1
REMARK minimizedAffinity 3.5833056
REMARK minimizedRMSD -1
REMARK  1 active torsions:
REMARK  status: ('A' for Active; 'I' for Inactive)
REMARK    1  A    between atoms: C3_4  and  O_7 
ROOT
ATOM      1  C   UNL d   1      -1.750  -1.582   1.485  0.00  0.00    -0.033 A 
ATOM      2  C1  UNL d   1      -0.869  -1.282   2.526  0.00  0.00     0.039 A 
ATOM      3  C2  UNL d   1      -1.142  -0.221   3.391  0.00  0.00    -0.080 A 
ATOM      4  C3  UNL d   1      -2.299   0.530   3.207  0.00  0.00     0.150 A 
ATOM      5  C4  UNL d   1      -3.184   0.235   2.175  0.00  0.00    -0.007 A 
ATOM      6  C5  UNL d   1      -2.909  -0.824   1.311  0.00  0.00     0.039 A 
ENDROOT
BRANCH   4   7
ATOM      7  O   UNL d   1      -2.606   1.578   4.023  0.00  0.00    -0.526 OA
ATOM      8  H5  UNL d   1      -1.891   1.682   4.672  0.00  0.00     0.418 HD
ENDBRANCH   4   7
TORSDOF 1
ENDMDL
