MODEL 1
REMARK minimizedAffinity 11.3114433
REMARK minimizedRMSD -1
REMARK  1 active torsions:
REMARK  status: ('A' for Active; 'I' for Inactive)
REMARK    1  A    between atoms: C3_4  and  O_7 
ROOT
ATOM      1  C   UNL d   1       3.139   1.137   0.636  0.00  0.00    -0.033 A 
ATOM      2  C1  UNL d   1       3.736   0.668  -0.536  0.00  0.00     0.039 A 
ATOM      3  C2  UNL d   1       3.313   1.146  -1.777  0.00  0.00    -0.080 A 
ATOM      4  C3  UNL d   1       2.294   2.093  -1.833  0.00  0.00     0.150 A 
ATOM      5  C4  UNL d   1       1.698   2.568  -0.669  0.00  0.00    -0.007 A 
ATOM      6  C5  UNL d   1       2.121   2.088   0.569  0.00  0.00     0.039 A 
ENDROOT
BRANCH   4   7
ATOM      7  O   UNL d   1       1.844   2.587  -3.021  0.00  0.00    -0.526 OA
ATOM      8  H5  UNL d   1       2.328   2.147  -3.740  0.00  0.00     0.418 HD
ENDBRANCH   4   7
TORSDOF 1
ENDMDL
