MODEL 1
REMARK minimizedAffinity 6.4908371
REMARK minimizedRMSD -1
REMARK  1 active torsions:
REMARK  status: ('A' for Active; 'I' for Inactive)
REMARK    1  A    between atoms: C3_4  and  O_7 
ROOT
ATOM      1  C   UNL d   1      -0.362  -1.603   1.830  0.00  0.00    -0.033 A 
ATOM      2  C1  UNL d   1       0.183  -1.610   3.116  0.00  0.00     0.039 A 
ATOM      3  C2  UNL d   1      -0.342  -0.773   4.102  0.00  0.00    -0.080 A 
ATOM      4  C3  UNL d   1      -1.411   0.062   3.792  0.00  0.00     0.150 A 
ATOM      5  C4  UNL d   1      -1.962   0.071   2.514  0.00  0.00    -0.007 A 
ATOM      6  C5  UNL d   1      -1.435  -0.764   1.530  0.00  0.00     0.039 A 
ENDROOT
BRANCH   4   7
ATOM      7  O   UNL d   1      -1.955   0.900   4.720  0.00  0.00    -0.526 OA
ATOM      8  H5  UNL d   1      -1.455   0.807   5.548  0.00  0.00     0.418 HD
ENDBRANCH   4   7
TORSDOF 1
ENDMDL
