MODEL 1
REMARK minimizedAffinity 10.607522
REMARK minimizedRMSD -1
REMARK  1 active torsions:
REMARK  status: ('A' for Active; 'I' for Inactive)
REMARK    1  A    between atoms: C3_4  and  O_7 
ROOT
ATOM      1  C   UNL d   1       5.992   4.738   0.972  0.00  0.00    -0.033 A 
ATOM      2  C1  UNL d   1       5.995   3.546   0.244  0.00  0.00     0.039 A 
ATOM      3  C2  UNL d   1       5.997   3.579  -1.152  0.00  0.00    -0.080 A 
ATOM      4  C3  UNL d   1       5.997   4.807  -1.807  0.00  0.00     0.150 A 
ATOM      5  C4  UNL d   1       5.997   5.998  -1.088  0.00  0.00    -0.007 A 
ATOM      6  C5  UNL d   1       5.994   5.964   0.305  0.00  0.00     0.039 A 
ENDROOT
BRANCH   4   7
ATOM      7  O   UNL d   1       5.994   4.889  -3.168  0.00  0.00    -0.526 OA
ATOM      8  H5  UNL d   1       5.964   3.988  -3.530  0.00  0.00     0.418 HD
ENDBRANCH   4   7
TORSDOF 1
ENDMDL
