MODEL 1
REMARK minimizedAffinity 11.2858477
REMARK minimizedRMSD -1
REMARK  1 active torsions:
REMARK  status: ('A' for Active; 'I' for Inactive)
REMARK    1  A    between atoms: C3_4  and  O_7 
ROOT
ATOM      1  C   UNL d   1       2.638   0.751  -0.758  0.00  0.00    -0.033 A 
ATOM      2  C1  UNL d   1       4.026   0.630  -0.855  0.00  0.00     0.039 A 
ATOM      3  C2  UNL d   1       4.853   1.361  -0.001  0.00  0.00    -0.080 A 
ATOM      4  C3  UNL d   1       4.282   2.209   0.945  0.00  0.00     0.150 A 
ATOM      5  C4  UNL d   1       2.900   2.331   1.049  0.00  0.00    -0.007 A 
ATOM      6  C5  UNL d   1       2.075   1.601   0.194  0.00  0.00     0.039 A 
ENDROOT
BRANCH   4   7
ATOM      7  O   UNL d   1       5.049   2.946   1.797  0.00  0.00    -0.526 OA
ATOM      8  H5  UNL d   1       5.984   2.782   1.590  0.00  0.00     0.418 HD
ENDBRANCH   4   7
TORSDOF 1
ENDMDL
