MODEL 1
REMARK minimizedAffinity 3.14271164
REMARK minimizedRMSD -1
REMARK  2 active torsions:
REMARK  status: ('A' for Active; 'I' for Inactive)
REMARK    1  A    between atoms: C2'_3  and  C1'_4 
REMARK    2  A    between atoms: C1'_4  and  C1_5 
ROOT
ATOM      1  C1  I4B d   1       2.272   2.179  -2.018  0.00  0.00    -0.075 A 
ATOM      2  C2  I4B d   1       1.674   0.967  -1.779  0.00  0.00     0.003 A 
ATOM      3  C3  I4B d   1       1.257   0.623  -0.471  0.00  0.00     0.002 A 
ATOM      4  C4  I4B d   1       1.500   1.494   0.571  0.00  0.00    -0.004 A 
ATOM      5  C5  I4B d   1       2.086   2.733   0.324  0.00  0.00     0.002 A 
ATOM      6  C6  I4B d   1       2.463   3.083  -0.981  0.00  0.00     0.003 A 
ENDROOT
BRANCH   1   7
ATOM      7  C1' I4B d   1       2.730   2.496  -3.406  0.00  0.00     0.060 C 
BRANCH   7   8
ATOM      8  C2' I4B d   1       3.103   1.193  -4.083  0.00  0.00    -0.013 C 
ATOM      9  C4' I4B d   1       2.363   1.023  -5.384  0.00  0.00     0.013 C 
ATOM     10  C3' I4B d   1       4.587   1.192  -4.300  0.00  0.00     0.013 C 
ENDBRANCH   7   8
ENDBRANCH   1   7
TORSDOF 2
ENDMDL
