MODEL 1
REMARK minimizedAffinity 2.94881415
REMARK minimizedRMSD -1
REMARK  2 active torsions:
REMARK  status: ('A' for Active; 'I' for Inactive)
REMARK    1  A    between atoms: C2'_3  and  C1'_4 
REMARK    2  A    between atoms: C1'_4  and  C1_5 
ROOT
ATOM      1  C1  I4B d   1       1.218  -0.223   0.382  0.00  0.00    -0.075 A 
ATOM      2  C2  I4B d   1       0.711   0.511   1.425  0.00  0.00     0.003 A 
ATOM      3  C3  I4B d   1       1.331   1.724   1.812  0.00  0.00     0.002 A 
ATOM      4  C4  I4B d   1       2.479   2.136   1.165  0.00  0.00    -0.004 A 
ATOM      5  C5  I4B d   1       2.979   1.403   0.093  0.00  0.00     0.002 A 
ATOM      6  C6  I4B d   1       2.337   0.222  -0.310  0.00  0.00     0.003 A 
ENDROOT
BRANCH   1   7
ATOM      7  C1' I4B d   1       0.557  -1.515   0.021  0.00  0.00     0.060 C 
BRANCH   7   8
ATOM      8  C2' I4B d   1      -0.851  -1.205  -0.445  0.00  0.00    -0.013 C 
ATOM      9  C4' I4B d   1      -0.870  -0.016  -1.370  0.00  0.00     0.013 C 
ATOM     10  C3' I4B d   1      -1.395  -2.427  -1.122  0.00  0.00     0.013 C 
ENDBRANCH   7   8
ENDBRANCH   1   7
TORSDOF 2
ENDMDL
