MODEL 1
REMARK minimizedAffinity 0.997560918
REMARK minimizedRMSD -1
REMARK  2 active torsions:
REMARK  status: ('A' for Active; 'I' for Inactive)
REMARK    1  A    between atoms: C2'_3  and  C1'_4 
REMARK    2  A    between atoms: C1'_4  and  C1_5 
ROOT
ATOM      1  C1  I4B d   1       1.646  -0.422   0.988  0.00  0.00    -0.075 A 
ATOM      2  C2  I4B d   1       0.339  -0.660   0.641  0.00  0.00     0.003 A 
ATOM      3  C3  I4B d   1       0.016  -1.101  -0.665  0.00  0.00     0.002 A 
ATOM      4  C4  I4B d   1       1.020  -1.242  -1.602  0.00  0.00    -0.004 A 
ATOM      5  C5  I4B d   1       2.347  -1.023  -1.242  0.00  0.00     0.002 A 
ATOM      6  C6  I4B d   1       2.663  -0.622   0.064  0.00  0.00     0.003 A 
ENDROOT
BRANCH   1   7
ATOM      7  C1' I4B d   1       1.947   0.074   2.366  0.00  0.00     0.060 C 
BRANCH   7   8
ATOM      8  C2' I4B d   1       2.466   1.493   2.248  0.00  0.00    -0.013 C 
ATOM      9  C4' I4B d   1       1.335   2.484   2.190  0.00  0.00     0.013 C 
ATOM     10  C3' I4B d   1       3.359   1.758   3.423  0.00  0.00     0.013 C 
ENDBRANCH   7   8
ENDBRANCH   1   7
TORSDOF 2
ENDMDL
