MODEL 1
REMARK minimizedAffinity 17.9484673
REMARK minimizedRMSD -1
REMARK  2 active torsions:
REMARK  status: ('A' for Active; 'I' for Inactive)
REMARK    1  A    between atoms: C2'_3  and  C1'_4 
REMARK    2  A    between atoms: C1'_4  and  C1_5 
ROOT
ATOM      1  C1  I4B d   1       0.219  -0.072   3.153  0.00  0.00    -0.075 A 
ATOM      2  C2  I4B d   1      -0.141  -0.884   2.106  0.00  0.00     0.003 A 
ATOM      3  C3  I4B d   1       0.407  -0.672   0.818  0.00  0.00     0.002 A 
ATOM      4  C4  I4B d   1       1.266   0.388   0.611  0.00  0.00    -0.004 A 
ATOM      5  C5  I4B d   1       1.647   1.197   1.678  0.00  0.00     0.002 A 
ATOM      6  C6  I4B d   1       1.131   0.958   2.959  0.00  0.00     0.003 A 
ENDROOT
BRANCH   1   7
ATOM      7  C1' I4B d   1      -0.404  -0.304   4.493  0.00  0.00     0.060 C 
BRANCH   7   8
ATOM      8  C2' I4B d   1      -0.429  -1.798   4.743  0.00  0.00    -0.013 C 
ATOM      9  C4' I4B d   1       0.362  -2.158   5.973  0.00  0.00     0.013 C 
ATOM     10  C3' I4B d   1      -1.862  -2.220   4.878  0.00  0.00     0.013 C 
ENDBRANCH   7   8
ENDBRANCH   1   7
TORSDOF 2
ENDMDL
