MODEL 1
REMARK minimizedAffinity 5.19074965
REMARK minimizedRMSD -1
REMARK  0 active torsions:
REMARK  status: ('A' for Active; 'I' for Inactive)
ROOT
ATOM      1  C1  DEN d   1       0.678   2.605   2.249  0.00  0.00     0.130 A 
ATOM      2  C2  DEN d   1       0.259   1.247   2.584  0.00  0.00    -0.031 A 
ATOM      3  C3  DEN d   1      -0.473   0.696   1.426  0.00  0.00     0.027 A 
ATOM      4  C4  DEN d   1      -0.993   1.807  -0.843  0.00  0.00     0.027 A 
ATOM      5  C5  DEN d   1      -0.852   2.957  -1.588  0.00  0.00    -0.003 A 
ATOM      6  C6  DEN d   1      -0.226   4.073  -1.098  0.00  0.00     0.001 A 
ATOM      7  C7  DEN d   1       0.322   4.047   0.157  0.00  0.00     0.017 A 
ATOM      8  C8  DEN d   1       0.178   2.894   0.917  0.00  0.00    -0.094 A 
ATOM      9  C9  DEN d   1      -0.447   1.773   0.399  0.00  0.00    -0.072 A 
ENDROOT
TORSDOF 0
ENDMDL
