MODEL 1
REMARK minimizedAffinity 4.01648808
REMARK minimizedRMSD -1
REMARK  0 active torsions:
REMARK  status: ('A' for Active; 'I' for Inactive)
ROOT
ATOM      1  C1  DEN d   1       0.340   3.813   1.593  0.00  0.00     0.130 A 
ATOM      2  C2  DEN d   1       0.236   4.355   0.241  0.00  0.00    -0.031 A 
ATOM      3  C3  DEN d   1      -0.065   3.238  -0.676  0.00  0.00     0.027 A 
ATOM      4  C4  DEN d   1      -0.383   0.736  -0.138  0.00  0.00     0.027 A 
ATOM      5  C5  DEN d   1      -0.378  -0.205   0.868  0.00  0.00    -0.003 A 
ATOM      6  C6  DEN d   1      -0.102   0.119   2.170  0.00  0.00     0.001 A 
ATOM      7  C7  DEN d   1       0.136   1.425   2.509  0.00  0.00     0.017 A 
ATOM      8  C8  DEN d   1       0.140   2.378   1.499  0.00  0.00    -0.094 A 
ATOM      9  C9  DEN d   1      -0.154   2.032   0.191  0.00  0.00    -0.072 A 
ENDROOT
TORSDOF 0
ENDMDL
