MODEL 1
REMARK minimizedAffinity 10.5760241
REMARK minimizedRMSD -1
REMARK  0 active torsions:
REMARK  status: ('A' for Active; 'I' for Inactive)
ROOT
ATOM      1  C1  DEN d   1       0.759   2.910   2.582  0.00  0.00     0.130 A 
ATOM      2  C2  DEN d   1       0.889   1.490   2.894  0.00  0.00    -0.031 A 
ATOM      3  C3  DEN d   1       0.722   0.729   1.640  0.00  0.00     0.027 A 
ATOM      4  C4  DEN d   1       0.283   1.608  -0.745  0.00  0.00     0.027 A 
ATOM      5  C5  DEN d   1       0.083   2.739  -1.505  0.00  0.00    -0.003 A 
ATOM      6  C6  DEN d   1       0.061   3.994  -0.956  0.00  0.00     0.001 A 
ATOM      7  C7  DEN d   1       0.287   4.151   0.386  0.00  0.00     0.017 A 
ATOM      8  C8  DEN d   1       0.482   3.015   1.160  0.00  0.00    -0.094 A 
ATOM      9  C9  DEN d   1       0.512   1.756   0.585  0.00  0.00    -0.072 A 
ENDROOT
TORSDOF 0
ENDMDL
