MODEL 1
REMARK minimizedAffinity 9.23375702
REMARK minimizedRMSD -1
REMARK  0 active torsions:
REMARK  status: ('A' for Active; 'I' for Inactive)
ROOT
ATOM      1  C1  DEN d   1      -0.017   0.723   1.348  0.00  0.00     0.130 A 
ATOM      2  C2  DEN d   1      -0.201   1.677   2.438  0.00  0.00    -0.031 A 
ATOM      3  C3  DEN d   1      -0.457   3.005   1.845  0.00  0.00     0.027 A 
ATOM      4  C4  DEN d   1      -0.591   3.671  -0.643  0.00  0.00     0.027 A 
ATOM      5  C5  DEN d   1      -0.491   3.208  -1.937  0.00  0.00    -0.003 A 
ATOM      6  C6  DEN d   1      -0.195   1.902  -2.223  0.00  0.00     0.001 A 
ATOM      7  C7  DEN d   1      -0.032   1.003  -1.202  0.00  0.00     0.017 A 
ATOM      8  C8  DEN d   1      -0.125   1.464   0.104  0.00  0.00    -0.094 A 
ATOM      9  C9  DEN d   1      -0.437   2.786   0.373  0.00  0.00    -0.072 A 
ENDROOT
TORSDOF 0
ENDMDL
