MODEL 1
REMARK minimizedAffinity 6.98971653
REMARK minimizedRMSD -1
REMARK  0 active torsions:
REMARK  status: ('A' for Active; 'I' for Inactive)
ROOT
ATOM      1  C1  DEN d   1       0.991  -0.534   3.129  0.00  0.00     0.130 A 
ATOM      2  C2  DEN d   1       0.266   0.645   3.593  0.00  0.00    -0.031 A 
ATOM      3  C3  DEN d   1      -0.275   1.343   2.409  0.00  0.00     0.027 A 
ATOM      4  C4  DEN d   1      -0.064   0.713  -0.083  0.00  0.00     0.027 A 
ATOM      5  C5  DEN d   1       0.469  -0.196  -0.970  0.00  0.00    -0.003 A 
ATOM      6  C6  DEN d   1       1.235  -1.255  -0.558  0.00  0.00     0.001 A 
ATOM      7  C7  DEN d   1       1.452  -1.456   0.779  0.00  0.00     0.017 A 
ATOM      8  C8  DEN d   1       0.925  -0.538   1.679  0.00  0.00    -0.094 A 
ATOM      9  C9  DEN d   1       0.143   0.518   1.244  0.00  0.00    -0.072 A 
ENDROOT
TORSDOF 0
ENDMDL
