MODEL 1
REMARK minimizedAffinity 5.39714718
REMARK minimizedRMSD -1
REMARK  0 active torsions:
REMARK  status: ('A' for Active; 'I' for Inactive)
ROOT
ATOM      1  C1  DEN d   1      -1.509   1.535  -1.137  0.00  0.00     0.130 A 
ATOM      2  C2  DEN d   1      -0.063   1.360  -1.039  0.00  0.00    -0.031 A 
ATOM      3  C3  DEN d   1       0.339   0.325  -2.013  0.00  0.00     0.027 A 
ATOM      4  C4  DEN d   1      -1.129  -1.012  -3.658  0.00  0.00     0.027 A 
ATOM      5  C5  DEN d   1      -2.418  -1.220  -4.099  0.00  0.00    -0.003 A 
ATOM      6  C6  DEN d   1      -3.489  -0.554  -3.565  0.00  0.00     0.001 A 
ATOM      7  C7  DEN d   1      -3.286   0.385  -2.588  0.00  0.00     0.017 A 
ATOM      8  C8  DEN d   1      -1.990   0.595  -2.133  0.00  0.00    -0.094 A 
ATOM      9  C9  DEN d   1      -0.920  -0.079  -2.695  0.00  0.00    -0.072 A 
ENDROOT
TORSDOF 0
ENDMDL
