MODEL 1
REMARK minimizedAffinity 5.85871124
REMARK minimizedRMSD -1
REMARK  0 active torsions:
REMARK  status: ('A' for Active; 'I' for Inactive)
ROOT
ATOM      1  C1  DEN d   1       0.181   0.277   0.195  0.00  0.00     0.130 A 
ATOM      2  C2  DEN d   1       0.226  -0.709   1.271  0.00  0.00    -0.031 A 
ATOM      3  C3  DEN d   1       0.448   0.010   2.541  0.00  0.00     0.027 A 
ATOM      4  C4  DEN d   1       0.719   2.543   2.945  0.00  0.00     0.027 A 
ATOM      5  C5  DEN d   1       0.765   3.778   2.337  0.00  0.00    -0.003 A 
ATOM      6  C6  DEN d   1       0.654   3.929   0.980  0.00  0.00     0.001 A 
ATOM      7  C7  DEN d   1       0.447   2.829   0.190  0.00  0.00     0.017 A 
ATOM      8  C8  DEN d   1       0.407   1.580   0.795  0.00  0.00    -0.094 A 
ATOM      9  C9  DEN d   1       0.509   1.450   2.169  0.00  0.00    -0.072 A 
ENDROOT
TORSDOF 0
ENDMDL
