MODEL 1
REMARK minimizedAffinity 3.13579512
REMARK minimizedRMSD -1
REMARK  0 active torsions:
REMARK  status: ('A' for Active; 'I' for Inactive)
ROOT
ATOM      1  C1  DEN d   1       1.365   4.267   1.568  0.00  0.00     0.130 A 
ATOM      2  C2  DEN d   1       1.324   4.838   0.225  0.00  0.00    -0.031 A 
ATOM      3  C3  DEN d   1       0.937   3.766  -0.715  0.00  0.00     0.027 A 
ATOM      4  C4  DEN d   1       0.397   1.293  -0.222  0.00  0.00     0.027 A 
ATOM      5  C5  DEN d   1       0.309   0.339   0.768  0.00  0.00    -0.003 A 
ATOM      6  C6  DEN d   1       0.598   0.617   2.078  0.00  0.00     0.001 A 
ATOM      7  C7  DEN d   1       0.945   1.891   2.441  0.00  0.00     0.017 A 
ATOM      8  C8  DEN d   1       1.043   2.857   1.448  0.00  0.00    -0.094 A 
ATOM      9  C9  DEN d   1       0.735   2.559   0.131  0.00  0.00    -0.072 A 
ENDROOT
TORSDOF 0
ENDMDL
