MODEL 1
REMARK minimizedAffinity 0.17157957
REMARK minimizedRMSD -1
REMARK  0 active torsions:
REMARK  status: ('A' for Active; 'I' for Inactive)
ROOT
ATOM      1  C1  DEN d   1       0.391   2.476   2.497  0.00  0.00     0.130 A 
ATOM      2  C2  DEN d   1      -0.065   3.476   1.535  0.00  0.00    -0.031 A 
ATOM      3  C3  DEN d   1       0.115   2.921   0.179  0.00  0.00     0.027 A 
ATOM      4  C4  DEN d   1       1.047   0.620  -0.523  0.00  0.00     0.027 A 
ATOM      5  C5  DEN d   1       1.573  -0.566  -0.061  0.00  0.00    -0.003 A 
ATOM      6  C6  DEN d   1       1.773  -0.806   1.273  0.00  0.00     0.001 A 
ATOM      7  C7  DEN d   1       1.402   0.137   2.195  0.00  0.00     0.017 A 
ATOM      8  C8  DEN d   1       0.877   1.338   1.737  0.00  0.00    -0.094 A 
ATOM      9  C9  DEN d   1       0.671   1.557   0.385  0.00  0.00    -0.072 A 
ENDROOT
TORSDOF 0
ENDMDL
