MODEL 1
REMARK minimizedAffinity -0.738521755
REMARK minimizedRMSD -1
REMARK  0 active torsions:
REMARK  status: ('A' for Active; 'I' for Inactive)
ROOT
ATOM      1  C   UNL d   1       2.906  -0.158   1.526  0.00  0.00     0.124 A 
ATOM      2  C1  UNL d   1       2.394   1.097   1.229  0.00  0.00     0.062 A 
ATOM      3  C2  UNL d   1       1.148   1.219   0.622  0.00  0.00     0.162 A 
ATOM      4  C3  UNL d   1       0.403   0.082   0.308  0.00  0.00    -0.034 A 
ATOM      5  C4  UNL d   1       0.926  -1.177   0.608  0.00  0.00     0.162 A 
ATOM      6  C5  UNL d   1       2.172  -1.294   1.215  0.00  0.00     0.062 A 
ATOM      7  F   UNL d   1       2.665  -2.508   1.501  0.00  0.00    -0.097 F 
ATOM      8  F1  UNL d   1       0.237  -2.292   0.319  0.00  0.00    -0.096 F 
ATOM      9  I   UNL d   1      -1.461   0.260  -0.600  0.00  0.00    -0.060 I 
ATOM     10  F2  UNL d   1       0.677   2.445   0.347  0.00  0.00    -0.096 F 
ATOM     11  F3  UNL d   1       3.102   2.196   1.528  0.00  0.00    -0.097 F 
ATOM     12  F4  UNL d   1       4.106  -0.273   2.109  0.00  0.00    -0.092 F 
ENDROOT
TORSDOF 0
ENDMDL
