MODEL 1
REMARK minimizedAffinity 0.847111106
REMARK minimizedRMSD -1
REMARK  0 active torsions:
REMARK  status: ('A' for Active; 'I' for Inactive)
ROOT
ATOM      1  C   UNL d   1       1.645  -1.841   1.315  0.00  0.00     0.124 A 
ATOM      2  C1  UNL d   1       1.862  -0.845   0.374  0.00  0.00     0.062 A 
ATOM      3  C2  UNL d   1       0.784  -0.214  -0.240  0.00  0.00     0.162 A 
ATOM      4  C3  UNL d   1      -0.523  -0.576   0.088  0.00  0.00    -0.034 A 
ATOM      5  C4  UNL d   1      -0.733  -1.580   1.036  0.00  0.00     0.162 A 
ATOM      6  C5  UNL d   1       0.348  -2.207   1.645  0.00  0.00     0.062 A 
ATOM      7  F   UNL d   1       0.136  -3.170   2.555  0.00  0.00    -0.097 F 
ATOM      8  F1  UNL d   1      -1.977  -1.953   1.374  0.00  0.00    -0.096 F 
ATOM      9  I   UNL d   1      -2.138   0.365  -0.826  0.00  0.00    -0.060 I 
ATOM     10  F2  UNL d   1       1.023   0.745  -1.146  0.00  0.00    -0.096 F 
ATOM     11  F3  UNL d   1       3.115  -0.490   0.052  0.00  0.00    -0.097 F 
ATOM     12  F4  UNL d   1       2.685  -2.447   1.903  0.00  0.00    -0.092 F 
ENDROOT
TORSDOF 0
ENDMDL
