MODEL 1
REMARK minimizedAffinity -3.64585209
REMARK minimizedRMSD -1
REMARK  0 active torsions:
REMARK  status: ('A' for Active; 'I' for Inactive)
ROOT
ATOM      1  C   UNL d   1      -1.211   0.623   0.028  0.00  0.00     0.124 A 
ATOM      2  C1  UNL d   1      -0.308   1.669   0.156  0.00  0.00     0.062 A 
ATOM      3  C2  UNL d   1       1.032   1.408   0.424  0.00  0.00     0.162 A 
ATOM      4  C3  UNL d   1       1.479   0.094   0.565  0.00  0.00    -0.034 A 
ATOM      5  C4  UNL d   1       0.564  -0.953   0.437  0.00  0.00     0.162 A 
ATOM      6  C5  UNL d   1      -0.775  -0.687   0.169  0.00  0.00     0.062 A 
ATOM      7  F   UNL d   1      -1.646  -1.699   0.046  0.00  0.00    -0.097 F 
ATOM      8  F1  UNL d   1       0.959  -2.228   0.567  0.00  0.00    -0.096 F 
ATOM      9  I   UNL d   1       3.482  -0.301   0.966  0.00  0.00    -0.060 I 
ATOM     10  F2  UNL d   1       1.883   2.438   0.542  0.00  0.00    -0.096 F 
ATOM     11  F3  UNL d   1      -0.728   2.935   0.021  0.00  0.00    -0.097 F 
ATOM     12  F4  UNL d   1      -2.501   0.877  -0.229  0.00  0.00    -0.092 F 
ENDROOT
TORSDOF 0
ENDMDL
