MODEL 1
REMARK minimizedAffinity 5.34690762
REMARK minimizedRMSD -1
REMARK  0 active torsions:
REMARK  status: ('A' for Active; 'I' for Inactive)
ROOT
ATOM      1  C   UNL d   1       2.506  -0.114   1.517  0.00  0.00     0.124 A 
ATOM      2  C1  UNL d   1       2.040   1.184   1.356  0.00  0.00     0.062 A 
ATOM      3  C2  UNL d   1       0.929   1.435   0.557  0.00  0.00     0.162 A 
ATOM      4  C3  UNL d   1       0.274   0.385  -0.088  0.00  0.00    -0.034 A 
ATOM      5  C4  UNL d   1       0.749  -0.917   0.078  0.00  0.00     0.162 A 
ATOM      6  C5  UNL d   1       1.860  -1.163   0.879  0.00  0.00     0.062 A 
ATOM      7  F   UNL d   1       2.308  -2.417   1.033  0.00  0.00    -0.097 F 
ATOM      8  F1  UNL d   1       0.143  -1.950  -0.527  0.00  0.00    -0.096 F 
ATOM      9  I   UNL d   1      -1.388   0.756  -1.285  0.00  0.00    -0.060 I 
ATOM     10  F2  UNL d   1       0.501   2.698   0.419  0.00  0.00    -0.096 F 
ATOM     11  F3  UNL d   1       2.663   2.199   1.972  0.00  0.00    -0.097 F 
ATOM     12  F4  UNL d   1       3.576  -0.352   2.287  0.00  0.00    -0.092 F 
ENDROOT
TORSDOF 0
ENDMDL
