MODEL 1
REMARK minimizedAffinity -1.34970319
REMARK minimizedRMSD -1
REMARK  0 active torsions:
REMARK  status: ('A' for Active; 'I' for Inactive)
ROOT
ATOM      1  C   UNL d   1      -1.157   1.029   0.142  0.00  0.00     0.124 A 
ATOM      2  C1  UNL d   1      -0.103   1.927   0.244  0.00  0.00     0.062 A 
ATOM      3  C2  UNL d   1       1.198   1.463   0.414  0.00  0.00     0.162 A 
ATOM      4  C3  UNL d   1       1.453   0.093   0.482  0.00  0.00    -0.034 A 
ATOM      5  C4  UNL d   1       0.388  -0.804   0.379  0.00  0.00     0.162 A 
ATOM      6  C5  UNL d   1      -0.911  -0.335   0.210  0.00  0.00     0.062 A 
ATOM      7  F   UNL d   1      -1.927  -1.204   0.111  0.00  0.00    -0.097 F 
ATOM      8  F1  UNL d   1       0.598  -2.127   0.441  0.00  0.00    -0.096 F 
ATOM      9  I   UNL d   1       3.397  -0.605   0.736  0.00  0.00    -0.060 I 
ATOM     10  F2  UNL d   1       2.196   2.353   0.509  0.00  0.00    -0.096 F 
ATOM     11  F3  UNL d   1      -0.339   3.245   0.180  0.00  0.00    -0.097 F 
ATOM     12  F4  UNL d   1      -2.408   1.479  -0.021  0.00  0.00    -0.092 F 
ENDROOT
TORSDOF 0
ENDMDL
