MODEL 1
REMARK minimizedAffinity -1.19008303
REMARK minimizedRMSD -1
REMARK  0 active torsions:
REMARK  status: ('A' for Active; 'I' for Inactive)
ROOT
ATOM      1  C   UNL d   1      -1.424  -0.248   1.010  0.00  0.00     0.124 A 
ATOM      2  C1  UNL d   1      -0.748  -1.448   1.187  0.00  0.00     0.062 A 
ATOM      3  C2  UNL d   1       0.608  -1.538   0.888  0.00  0.00     0.162 A 
ATOM      4  C3  UNL d   1       1.299  -0.424   0.411  0.00  0.00    -0.034 A 
ATOM      5  C4  UNL d   1       0.613   0.779   0.235  0.00  0.00     0.162 A 
ATOM      6  C5  UNL d   1      -0.743   0.863   0.535  0.00  0.00     0.062 A 
ATOM      7  F   UNL d   1      -1.394   2.023   0.364  0.00  0.00    -0.097 F 
ATOM      8  F1  UNL d   1       1.246   1.869  -0.222  0.00  0.00    -0.096 F 
ATOM      9  I   UNL d   1       3.328  -0.554  -0.036  0.00  0.00    -0.060 I 
ATOM     10  F2  UNL d   1       1.236  -2.710   1.068  0.00  0.00    -0.096 F 
ATOM     11  F3  UNL d   1      -1.404  -2.524   1.645  0.00  0.00    -0.097 F 
ATOM     12  F4  UNL d   1      -2.729  -0.165   1.297  0.00  0.00    -0.092 F 
ENDROOT
TORSDOF 0
ENDMDL
