MODEL 1
REMARK minimizedAffinity 1.24064755
REMARK minimizedRMSD -1
REMARK  0 active torsions:
REMARK  status: ('A' for Active; 'I' for Inactive)
ROOT
ATOM      1  C   UNL d   1       2.152  -0.047   0.787  0.00  0.00     0.124 A 
ATOM      2  C1  UNL d   1       1.869   1.298   0.596  0.00  0.00     0.062 A 
ATOM      3  C2  UNL d   1       0.672   1.683  -0.001  0.00  0.00     0.162 A 
ATOM      4  C3  UNL d   1      -0.251   0.721  -0.412  0.00  0.00    -0.034 A 
ATOM      5  C4  UNL d   1       0.042  -0.630  -0.217  0.00  0.00     0.162 A 
ATOM      6  C5  UNL d   1       1.239  -1.009   0.380  0.00  0.00     0.062 A 
ATOM      7  F   UNL d   1       1.512  -2.309   0.564  0.00  0.00    -0.097 F 
ATOM      8  F1  UNL d   1      -0.824  -1.581  -0.600  0.00  0.00    -0.096 F 
ATOM      9  I   UNL d   1      -2.042   1.293  -1.305  0.00  0.00    -0.060 I 
ATOM     10  F2  UNL d   1       0.424   2.990  -0.173  0.00  0.00    -0.096 F 
ATOM     11  F3  UNL d   1       2.750   2.230   0.987  0.00  0.00    -0.097 F 
ATOM     12  F4  UNL d   1       3.305  -0.415   1.361  0.00  0.00    -0.092 F 
ENDROOT
TORSDOF 0
ENDMDL
