MODEL 1
REMARK minimizedAffinity -1.39629424
REMARK minimizedRMSD -1
REMARK  0 active torsions:
REMARK  status: ('A' for Active; 'I' for Inactive)
ROOT
ATOM      1  C   UNL d   1       2.138   1.234   0.329  0.00  0.00     0.124 A 
ATOM      2  C1  UNL d   1       1.019   1.925  -0.115  0.00  0.00     0.062 A 
ATOM      3  C2  UNL d   1      -0.216   1.285  -0.187  0.00  0.00     0.162 A 
ATOM      4  C3  UNL d   1      -0.338  -0.053   0.186  0.00  0.00    -0.034 A 
ATOM      5  C4  UNL d   1       0.792  -0.742   0.630  0.00  0.00     0.162 A 
ATOM      6  C5  UNL d   1       2.024  -0.098   0.701  0.00  0.00     0.062 A 
ATOM      7  F   UNL d   1       3.104  -0.768   1.129  0.00  0.00    -0.097 F 
ATOM      8  F1  UNL d   1       0.710  -2.029   0.996  0.00  0.00    -0.096 F 
ATOM      9  I   UNL d   1      -2.182  -1.013   0.079  0.00  0.00    -0.060 I 
ATOM     10  F2  UNL d   1      -1.280   1.978  -0.619  0.00  0.00    -0.096 F 
ATOM     11  F3  UNL d   1       1.126   3.212  -0.475  0.00  0.00    -0.097 F 
ATOM     12  F4  UNL d   1       3.324   1.851   0.396  0.00  0.00    -0.092 F 
ENDROOT
TORSDOF 0
ENDMDL
