MODEL 1
REMARK minimizedAffinity 10.4242182
REMARK minimizedRMSD -1
REMARK  0 active torsions:
REMARK  status: ('A' for Active; 'I' for Inactive)
ROOT
ATOM      1  C2' OXE d   1       1.819  -1.808  -2.680  0.00  0.00     0.078 C 
ATOM      2  C1' OXE d   1       1.528  -3.896  -0.827  0.00  0.00     0.078 C 
ATOM      3  C1  OXE d   1       2.273  -2.662  -0.384  0.00  0.00    -0.078 A 
ATOM      4  C2  OXE d   1       2.451  -1.664  -1.312  0.00  0.00    -0.078 A 
ATOM      5  C3  OXE d   1       3.084  -0.482  -0.940  0.00  0.00     0.003 A 
ATOM      6  C4  OXE d   1       3.674  -0.361   0.324  0.00  0.00    -0.002 A 
ATOM      7  C5  OXE d   1       3.539  -1.382   1.271  0.00  0.00    -0.002 A 
ATOM      8  C6  OXE d   1       2.806  -2.519   0.948  0.00  0.00     0.003 A 
ENDROOT
TORSDOF 0
ENDMDL
