MODEL 1
REMARK minimizedAffinity -1.52983487
REMARK minimizedRMSD -1
REMARK  0 active torsions:
REMARK  status: ('A' for Active; 'I' for Inactive)
ROOT
ATOM      1  C2' OXE d   1      -1.454   1.686   1.679  0.00  0.00     0.078 C 
ATOM      2  C1' OXE d   1       0.537   1.313   3.623  0.00  0.00     0.078 C 
ATOM      3  C1  OXE d   1       0.968   1.387   2.180  0.00  0.00    -0.078 A 
ATOM      4  C2  OXE d   1      -0.017   1.523   1.232  0.00  0.00    -0.078 A 
ATOM      5  C3  OXE d   1       0.331   1.651  -0.110  0.00  0.00     0.003 A 
ATOM      6  C4  OXE d   1       1.661   1.489  -0.516  0.00  0.00    -0.002 A 
ATOM      7  C5  OXE d   1       2.675   1.310   0.430  0.00  0.00    -0.002 A 
ATOM      8  C6  OXE d   1       2.352   1.300   1.782  0.00  0.00     0.003 A 
ENDROOT
TORSDOF 0
ENDMDL
