MODEL 1
REMARK minimizedAffinity 1.82354581
REMARK minimizedRMSD -1
REMARK  0 active torsions:
REMARK  status: ('A' for Active; 'I' for Inactive)
ROOT
ATOM      1  C2' OXE d   1       3.568  -2.948  -3.030  0.00  0.00     0.078 C 
ATOM      2  C1' OXE d   1       2.475  -2.200  -0.555  0.00  0.00     0.078 C 
ATOM      3  C1  OXE d   1       3.405  -1.227  -1.237  0.00  0.00    -0.078 A 
ATOM      4  C2  OXE d   1       3.972  -1.621  -2.425  0.00  0.00    -0.078 A 
ATOM      5  C3  OXE d   1       4.794  -0.740  -3.122  0.00  0.00     0.003 A 
ATOM      6  C4  OXE d   1       5.170   0.481  -2.550  0.00  0.00    -0.002 A 
ATOM      7  C5  OXE d   1       4.636   0.885  -1.322  0.00  0.00    -0.002 A 
ATOM      8  C6  OXE d   1       3.720   0.062  -0.674  0.00  0.00     0.003 A 
ENDROOT
TORSDOF 0
ENDMDL
