MODEL 1
REMARK minimizedAffinity 3.64531898
REMARK minimizedRMSD -1
REMARK  0 active torsions:
REMARK  status: ('A' for Active; 'I' for Inactive)
ROOT
ATOM      1  C2' OXE d   1       0.982   1.547   0.051  0.00  0.00     0.078 C 
ATOM      2  C1' OXE d   1       3.429   0.783  -1.093  0.00  0.00     0.078 C 
ATOM      3  C1  OXE d   1       2.388  -0.287  -0.877  0.00  0.00    -0.078 A 
ATOM      4  C2  OXE d   1       1.212   0.087  -0.274  0.00  0.00    -0.078 A 
ATOM      5  C3  OXE d   1       0.197  -0.850  -0.102  0.00  0.00     0.003 A 
ATOM      6  C4  OXE d   1       0.421  -2.200  -0.396  0.00  0.00    -0.002 A 
ATOM      7  C5  OXE d   1       1.627  -2.610  -0.975  0.00  0.00    -0.002 A 
ATOM      8  C6  OXE d   1       2.603  -1.661  -1.260  0.00  0.00     0.003 A 
ENDROOT
TORSDOF 0
ENDMDL
