MODEL 1
REMARK minimizedAffinity -1.63088953
REMARK minimizedRMSD -1
REMARK  0 active torsions:
REMARK  status: ('A' for Active; 'I' for Inactive)
ROOT
ATOM      1  C2' OXE d   1      -1.503  -0.088  -1.320  0.00  0.00     0.078 C 
ATOM      2  C1' OXE d   1      -0.513  -2.715  -1.331  0.00  0.00     0.078 C 
ATOM      3  C1  OXE d   1       0.421  -1.613  -0.896  0.00  0.00    -0.078 A 
ATOM      4  C2  OXE d   1      -0.058  -0.326  -0.938  0.00  0.00    -0.078 A 
ATOM      5  C3  OXE d   1       0.744   0.722  -0.496  0.00  0.00     0.003 A 
ATOM      6  C4  OXE d   1       2.083   0.495  -0.154  0.00  0.00    -0.002 A 
ATOM      7  C5  OXE d   1       2.602  -0.804  -0.142  0.00  0.00    -0.002 A 
ATOM      8  C6  OXE d   1       1.774  -1.872  -0.468  0.00  0.00     0.003 A 
ENDROOT
TORSDOF 0
ENDMDL
