MODEL 1
REMARK minimizedAffinity 3.12666273
REMARK minimizedRMSD -1
REMARK  0 active torsions:
REMARK  status: ('A' for Active; 'I' for Inactive)
ROOT
ATOM      1  C2' OXE d   1       1.092   1.875   1.269  0.00  0.00     0.078 C 
ATOM      2  C1' OXE d   1       1.283  -0.392  -0.374  0.00  0.00     0.078 C 
ATOM      3  C1  OXE d   1       2.393   0.625  -0.448  0.00  0.00    -0.078 A 
ATOM      4  C2  OXE d   1       2.269   1.754   0.325  0.00  0.00    -0.078 A 
ATOM      5  C3  OXE d   1       3.291   2.699   0.336  0.00  0.00     0.003 A 
ATOM      6  C4  OXE d   1       4.371   2.584  -0.547  0.00  0.00    -0.002 A 
ATOM      7  C5  OXE d   1       4.498   1.462  -1.372  0.00  0.00    -0.002 A 
ATOM      8  C6  OXE d   1       3.541   0.455  -1.304  0.00  0.00     0.003 A 
ENDROOT
TORSDOF 0
ENDMDL
