MODEL 1
REMARK minimizedAffinity -2.87537766
REMARK minimizedRMSD -1
REMARK  0 active torsions:
REMARK  status: ('A' for Active; 'I' for Inactive)
ROOT
ATOM      1  C   UNL d   1       1.722   0.052  -2.568  0.00  0.00     0.023 A 
ATOM      2  C1  UNL d   1       0.579  -0.746  -2.513  0.00  0.00     0.003 A 
ATOM      3  C2  UNL d   1      -0.209  -0.761  -1.360  0.00  0.00     0.048 A 
ATOM      4  C3  UNL d   1       0.151   0.025  -0.266  0.00  0.00     0.023 A 
ATOM      5  C4  UNL d   1       1.293   0.826  -0.317  0.00  0.00     0.048 A 
ATOM      6  C5  UNL d   1       2.078   0.837  -1.471  0.00  0.00     0.003 A 
ATOM      7  I   UNL d   1      -1.020   0.004   1.450  0.00  0.00    -0.146 I 
ENDROOT
TORSDOF 0
ENDMDL
