MODEL 1
REMARK minimizedAffinity -2.89379787
REMARK minimizedRMSD -1
REMARK  0 active torsions:
REMARK  status: ('A' for Active; 'I' for Inactive)
ROOT
ATOM      1  C   UNL d   1      -1.029   0.145   1.563  0.00  0.00     0.023 A 
ATOM      2  C1  UNL d   1      -0.710  -1.002   0.835  0.00  0.00     0.003 A 
ATOM      3  C2  UNL d   1       0.173  -0.923  -0.243  0.00  0.00     0.048 A 
ATOM      4  C3  UNL d   1       0.734   0.305  -0.589  0.00  0.00     0.023 A 
ATOM      5  C4  UNL d   1       0.419   1.455   0.137  0.00  0.00     0.048 A 
ATOM      6  C5  UNL d   1      -0.465   1.372   1.214  0.00  0.00     0.003 A 
ATOM      7  I   UNL d   1       2.049   0.425  -2.194  0.00  0.00    -0.146 I 
ENDROOT
TORSDOF 0
ENDMDL
