MODEL 1
REMARK minimizedAffinity -3.42445827
REMARK minimizedRMSD -1
REMARK  0 active torsions:
REMARK  status: ('A' for Active; 'I' for Inactive)
ROOT
ATOM      1  C   UNL d   1       2.227   0.426  -1.994  0.00  0.00     0.023 A 
ATOM      2  C1  UNL d   1       1.999  -0.727  -1.242  0.00  0.00     0.003 A 
ATOM      3  C2  UNL d   1       0.920  -0.783  -0.358  0.00  0.00     0.048 A 
ATOM      4  C3  UNL d   1       0.072   0.317  -0.230  0.00  0.00     0.023 A 
ATOM      5  C4  UNL d   1       0.296   1.472  -0.981  0.00  0.00     0.048 A 
ATOM      6  C5  UNL d   1       1.377   1.524  -1.863  0.00  0.00     0.003 A 
ATOM      7  I   UNL d   1      -1.535   0.235   1.085  0.00  0.00    -0.146 I 
ENDROOT
TORSDOF 0
ENDMDL
