MODEL 1
REMARK minimizedAffinity -2.9845221
REMARK minimizedRMSD -1
REMARK  0 active torsions:
REMARK  status: ('A' for Active; 'I' for Inactive)
ROOT
ATOM      1  C   UNL d   1       2.250   0.386  -1.876  0.00  0.00     0.023 A 
ATOM      2  C1  UNL d   1       1.161  -0.352  -2.339  0.00  0.00     0.003 A 
ATOM      3  C2  UNL d   1       0.002  -0.449  -1.565  0.00  0.00     0.048 A 
ATOM      4  C3  UNL d   1      -0.060   0.196  -0.330  0.00  0.00     0.023 A 
ATOM      5  C4  UNL d   1       1.027   0.937   0.136  0.00  0.00     0.048 A 
ATOM      6  C5  UNL d   1       2.184   1.030  -0.641  0.00  0.00     0.003 A 
ATOM      7  I   UNL d   1      -1.784   0.055   0.823  0.00  0.00    -0.146 I 
ENDROOT
TORSDOF 0
ENDMDL
