MODEL 1
REMARK minimizedAffinity -2.79089308
REMARK minimizedRMSD -1
REMARK  0 active torsions:
REMARK  status: ('A' for Active; 'I' for Inactive)
ROOT
ATOM      1  C   UNL d   1       2.158   0.483  -1.650  0.00  0.00     0.023 A 
ATOM      2  C1  UNL d   1       1.094  -0.327  -2.050  0.00  0.00     0.003 A 
ATOM      3  C2  UNL d   1      -0.040  -0.440  -1.243  0.00  0.00     0.048 A 
ATOM      4  C3  UNL d   1      -0.105   0.260  -0.039  0.00  0.00     0.023 A 
ATOM      5  C4  UNL d   1       0.957   1.071   0.365  0.00  0.00     0.048 A 
ATOM      6  C5  UNL d   1       2.089   1.181  -0.444  0.00  0.00     0.003 A 
ATOM      7  I   UNL d   1      -1.792   0.093   1.163  0.00  0.00    -0.146 I 
ENDROOT
TORSDOF 0
ENDMDL
