MODEL 1
REMARK minimizedAffinity -4.97749472
REMARK minimizedRMSD -1
REMARK  0 active torsions:
REMARK  status: ('A' for Active; 'I' for Inactive)
ROOT
ATOM      1  C   UNL d   1       2.069  -0.798  -2.671  0.00  0.00     0.023 A 
ATOM      2  C1  UNL d   1       1.348  -1.857  -2.119  0.00  0.00     0.003 A 
ATOM      3  C2  UNL d   1       0.510  -1.637  -1.023  0.00  0.00     0.048 A 
ATOM      4  C3  UNL d   1       0.398  -0.355  -0.485  0.00  0.00     0.023 A 
ATOM      5  C4  UNL d   1       1.117   0.707  -1.035  0.00  0.00     0.048 A 
ATOM      6  C5  UNL d   1       1.953   0.483  -2.130  0.00  0.00     0.003 A 
ATOM      7  I   UNL d   1      -0.848  -0.026   1.145  0.00  0.00    -0.146 I 
ENDROOT
TORSDOF 0
ENDMDL
