MODEL 1
REMARK minimizedAffinity -3.99919176
REMARK minimizedRMSD -1
REMARK  0 active torsions:
REMARK  status: ('A' for Active; 'I' for Inactive)
ROOT
ATOM      1  C   UNL d   1       1.796   0.745  -2.281  0.00  0.00     0.023 A 
ATOM      2  C1  UNL d   1       1.779   1.582  -1.165  0.00  0.00     0.003 A 
ATOM      3  C2  UNL d   1       0.923   1.308  -0.097  0.00  0.00     0.048 A 
ATOM      4  C3  UNL d   1       0.086   0.194  -0.151  0.00  0.00     0.023 A 
ATOM      5  C4  UNL d   1       0.100  -0.648  -1.264  0.00  0.00     0.048 A 
ATOM      6  C5  UNL d   1       0.957  -0.369  -2.330  0.00  0.00     0.003 A 
ATOM      7  I   UNL d   1      -1.189  -0.217   1.438  0.00  0.00    -0.146 I 
ENDROOT
TORSDOF 0
ENDMDL
