MODEL 1
REMARK minimizedAffinity -4.16691875
REMARK minimizedRMSD -1
REMARK  0 active torsions:
REMARK  status: ('A' for Active; 'I' for Inactive)
ROOT
ATOM      1  C   UNL d   1       1.087   0.184  -0.968  0.00  0.00     0.023 A 
ATOM      2  C1  UNL d   1       0.853   1.452  -0.434  0.00  0.00     0.003 A 
ATOM      3  C2  UNL d   1      -0.237   1.664   0.413  0.00  0.00     0.048 A 
ATOM      4  C3  UNL d   1      -1.089   0.604   0.722  0.00  0.00     0.023 A 
ATOM      5  C4  UNL d   1      -0.858  -0.666   0.191  0.00  0.00     0.048 A 
ATOM      6  C5  UNL d   1       0.232  -0.873  -0.656  0.00  0.00     0.003 A 
ATOM      7  I   UNL d   1      -2.711   0.917   1.982  0.00  0.00    -0.146 I 
ENDROOT
TORSDOF 0
ENDMDL
