MODEL 1
REMARK minimizedAffinity -5.01357031
REMARK minimizedRMSD -1
REMARK  0 active torsions:
REMARK  status: ('A' for Active; 'I' for Inactive)
ROOT
ATOM      1  C   UNL d   1       2.242  -0.669  -2.831  0.00  0.00     0.023 A 
ATOM      2  C1  UNL d   1       1.562  -1.796  -2.368  0.00  0.00     0.003 A 
ATOM      3  C2  UNL d   1       0.687  -1.689  -1.285  0.00  0.00     0.048 A 
ATOM      4  C3  UNL d   1       0.497  -0.452  -0.670  0.00  0.00     0.023 A 
ATOM      5  C4  UNL d   1       1.174   0.678  -1.130  0.00  0.00     0.048 A 
ATOM      6  C5  UNL d   1       2.048   0.566  -2.213  0.00  0.00     0.003 A 
ATOM      7  I   UNL d   1      -0.805  -0.290   0.943  0.00  0.00    -0.146 I 
ENDROOT
TORSDOF 0
ENDMDL
