MODEL 1
REMARK minimizedAffinity -2.95690131
REMARK minimizedRMSD -1
REMARK  0 active torsions:
REMARK  status: ('A' for Active; 'I' for Inactive)
ROOT
ATOM      1  C   UNL d   1       2.192  -0.738  -1.919  0.00  0.00     0.023 A 
ATOM      2  C1  UNL d   1       1.915   0.594  -1.612  0.00  0.00     0.003 A 
ATOM      3  C2  UNL d   1       0.980   0.905  -0.623  0.00  0.00     0.048 A 
ATOM      4  C3  UNL d   1       0.326  -0.122   0.057  0.00  0.00     0.023 A 
ATOM      5  C4  UNL d   1       0.600  -1.457  -0.246  0.00  0.00     0.048 A 
ATOM      6  C5  UNL d   1       1.535  -1.762  -1.236  0.00  0.00     0.003 A 
ATOM      7  I   UNL d   1      -1.067   0.338   1.530  0.00  0.00    -0.146 I 
ENDROOT
TORSDOF 0
ENDMDL
