MODEL 1
REMARK minimizedAffinity -1.11355841
REMARK minimizedRMSD -1
REMARK  0 active torsions:
REMARK  status: ('A' for Active; 'I' for Inactive)
ROOT
ATOM      1  C   UNL d   1      -0.074  -0.440   0.883  0.00  0.00     0.023 A 
ATOM      2  C1  UNL d   1       0.472   0.842   0.955  0.00  0.00     0.003 A 
ATOM      3  C2  UNL d   1      -0.247   1.875   1.562  0.00  0.00     0.048 A 
ATOM      4  C3  UNL d   1      -1.509   1.618   2.096  0.00  0.00     0.023 A 
ATOM      5  C4  UNL d   1      -2.058   0.337   2.026  0.00  0.00     0.048 A 
ATOM      6  C5  UNL d   1      -1.337  -0.692   1.418  0.00  0.00     0.003 A 
ATOM      7  I   UNL d   1      -2.579   3.153   3.000  0.00  0.00    -0.146 I 
ENDROOT
TORSDOF 0
ENDMDL
