MODEL 1
REMARK minimizedAffinity -2.29334092
REMARK minimizedRMSD -1
REMARK  0 active torsions:
REMARK  status: ('A' for Active; 'I' for Inactive)
ROOT
ATOM      1  C   UNL d   1       2.727  -0.707  -2.247  0.00  0.00     0.023 A 
ATOM      2  C1  UNL d   1       2.113  -1.833  -1.699  0.00  0.00     0.003 A 
ATOM      3  C2  UNL d   1       1.073  -1.684  -0.778  0.00  0.00     0.048 A 
ATOM      4  C3  UNL d   1       0.653  -0.406  -0.411  0.00  0.00     0.023 A 
ATOM      5  C4  UNL d   1       1.265   0.723  -0.957  0.00  0.00     0.048 A 
ATOM      6  C5  UNL d   1       2.304   0.569  -1.877  0.00  0.00     0.003 A 
ATOM      7  I   UNL d   1      -0.894  -0.182   0.959  0.00  0.00    -0.146 I 
ENDROOT
TORSDOF 0
ENDMDL
