MODEL 1
REMARK minimizedAffinity -4.21786022
REMARK minimizedRMSD -1
REMARK  0 active torsions:
REMARK  status: ('A' for Active; 'I' for Inactive)
ROOT
ATOM      1  C   UNL d   1       2.183  -0.583  -1.693  0.00  0.00     0.023 A 
ATOM      2  C1  UNL d   1       1.598  -1.616  -0.961  0.00  0.00     0.003 A 
ATOM      3  C2  UNL d   1       0.595  -1.334  -0.031  0.00  0.00     0.048 A 
ATOM      4  C3  UNL d   1       0.182  -0.017   0.161  0.00  0.00     0.023 A 
ATOM      5  C4  UNL d   1       0.764   1.021  -0.569  0.00  0.00     0.048 A 
ATOM      6  C5  UNL d   1       1.767   0.734  -1.497  0.00  0.00     0.003 A 
ATOM      7  I   UNL d   1      -1.311   0.406   1.545  0.00  0.00    -0.146 I 
ENDROOT
TORSDOF 0
ENDMDL
