MODEL 1
REMARK minimizedAffinity -5.29030275
REMARK minimizedRMSD -1
REMARK  0 active torsions:
REMARK  status: ('A' for Active; 'I' for Inactive)
ROOT
ATOM      1  C   UNL d   1       1.951  -1.550  -2.762  0.00  0.00     0.023 A 
ATOM      2  C1  UNL d   1       1.652  -0.187  -2.748  0.00  0.00     0.003 A 
ATOM      3  C2  UNL d   1       0.840   0.341  -1.742  0.00  0.00     0.048 A 
ATOM      4  C3  UNL d   1       0.331  -0.499  -0.752  0.00  0.00     0.023 A 
ATOM      5  C4  UNL d   1       0.628  -1.863  -0.761  0.00  0.00     0.048 A 
ATOM      6  C5  UNL d   1       1.440  -2.387  -1.770  0.00  0.00     0.003 A 
ATOM      7  I   UNL d   1      -0.878   0.284   0.746  0.00  0.00    -0.146 I 
ENDROOT
TORSDOF 0
ENDMDL
