MODEL 1
REMARK minimizedAffinity 2.58581257
REMARK minimizedRMSD -1
REMARK  0 active torsions:
REMARK  status: ('A' for Active; 'I' for Inactive)
ROOT
ATOM      1  N1  IND d   1       5.301  -3.888   3.843  0.00  0.00    -0.196 N 
ATOM      2  C2  IND d   1       6.000  -4.112   4.996  0.00  0.00     0.054 A 
ATOM      3  C3  IND d   1       5.509  -3.350   5.999  0.00  0.00    -0.031 A 
ATOM      4  C4  IND d   1       3.499  -1.741   5.998  0.00  0.00     0.051 A 
ATOM      5  C5  IND d   1       2.569  -1.179   5.168  0.00  0.00    -0.031 A 
ATOM      6  C6  IND d   1       2.500  -1.500   3.828  0.00  0.00     0.015 A 
ATOM      7  C7  IND d   1       3.354  -2.407   3.267  0.00  0.00    -0.016 A 
ATOM      8  C8  IND d   1       4.303  -2.974   4.105  0.00  0.00    -0.047 A 
ATOM      9  C9  IND d   1       4.406  -2.621   5.457  0.00  0.00    -0.096 A 
ATOM     10  HN1 IND d   1       5.458  -4.255   3.082  0.00  0.00     0.298 HD
ENDROOT
TORSDOF 0
ENDMDL
