MODEL 1
REMARK minimizedAffinity 10.0191975
REMARK minimizedRMSD -1
REMARK  0 active torsions:
REMARK  status: ('A' for Active; 'I' for Inactive)
ROOT
ATOM      1  N1  IND d   1       2.444   5.398  -1.866  0.00  0.00    -0.196 N 
ATOM      2  C2  IND d   1       1.649   4.419  -2.393  0.00  0.00     0.054 A 
ATOM      3  C3  IND d   1       2.361   3.638  -3.237  0.00  0.00    -0.031 A 
ATOM      4  C4  IND d   1       4.866   3.724  -3.822  0.00  0.00     0.051 A 
ATOM      5  C5  IND d   1       5.996   4.466  -3.618  0.00  0.00    -0.031 A 
ATOM      6  C6  IND d   1       6.000   5.577  -2.800  0.00  0.00     0.015 A 
ATOM      7  C7  IND d   1       4.872   5.984  -2.145  0.00  0.00    -0.016 A 
ATOM      8  C8  IND d   1       3.721   5.237  -2.356  0.00  0.00    -0.047 A 
ATOM      9  C9  IND d   1       3.701   4.133  -3.218  0.00  0.00    -0.096 A 
ATOM     10  HN1 IND d   1       2.189   6.012  -1.321  0.00  0.00     0.298 HD
ENDROOT
TORSDOF 0
ENDMDL
