MODEL 1
REMARK minimizedAffinity 6.58979702
REMARK minimizedRMSD -1
REMARK  0 active torsions:
REMARK  status: ('A' for Active; 'I' for Inactive)
ROOT
ATOM      1  N1  IND d   1       5.608   2.727  -4.726  0.00  0.00    -0.196 N 
ATOM      2  C2  IND d   1       5.063   3.219  -5.879  0.00  0.00     0.054 A 
ATOM      3  C3  IND d   1       4.623   4.484  -5.689  0.00  0.00    -0.031 A 
ATOM      4  C4  IND d   1       4.789   5.976  -3.598  0.00  0.00     0.051 A 
ATOM      5  C5  IND d   1       5.173   5.954  -2.286  0.00  0.00    -0.031 A 
ATOM      6  C6  IND d   1       5.736   4.833  -1.710  0.00  0.00     0.015 A 
ATOM      7  C7  IND d   1       5.947   3.692  -2.430  0.00  0.00    -0.016 A 
ATOM      8  C8  IND d   1       5.551   3.708  -3.760  0.00  0.00    -0.047 A 
ATOM      9  C9  IND d   1       4.941   4.828  -4.339  0.00  0.00    -0.096 A 
ATOM     10  HN1 IND d   1       5.932   1.937  -4.621  0.00  0.00     0.298 HD
ENDROOT
TORSDOF 0
ENDMDL
