MODEL 1
REMARK minimizedAffinity 0.958257318
REMARK minimizedRMSD -1
REMARK  0 active torsions:
REMARK  status: ('A' for Active; 'I' for Inactive)
ROOT
ATOM      1  N1  IND d   1       4.971  -4.087   2.360  0.00  0.00    -0.196 N 
ATOM      2  C2  IND d   1       4.155  -3.323   1.572  0.00  0.00     0.054 A 
ATOM      3  C3  IND d   1       3.481  -2.425   2.325  0.00  0.00    -0.031 A 
ATOM      4  C4  IND d   1       3.638  -1.964   4.853  0.00  0.00     0.051 A 
ATOM      5  C5  IND d   1       4.219  -2.430   5.999  0.00  0.00    -0.031 A 
ATOM      6  C6  IND d   1       5.101  -3.491   5.990  0.00  0.00     0.015 A 
ATOM      7  C7  IND d   1       5.444  -4.122   4.827  0.00  0.00    -0.016 A 
ATOM      8  C8  IND d   1       4.850  -3.656   3.663  0.00  0.00    -0.047 A 
ATOM      9  C9  IND d   1       3.922  -2.607   3.672  0.00  0.00    -0.096 A 
ATOM     10  HN1 IND d   1       5.474  -4.728   2.087  0.00  0.00     0.298 HD
ENDROOT
TORSDOF 0
ENDMDL
