MODEL 1
REMARK minimizedAffinity 9.40919113
REMARK minimizedRMSD -1
REMARK  0 active torsions:
REMARK  status: ('A' for Active; 'I' for Inactive)
ROOT
ATOM      1  N1  IND d   1      -0.604  -2.433  -2.349  0.00  0.00    -0.196 N 
ATOM      2  C2  IND d   1       0.368  -1.525  -2.033  0.00  0.00     0.054 A 
ATOM      3  C3  IND d   1       0.300  -1.199  -0.723  0.00  0.00    -0.031 A 
ATOM      4  C4  IND d   1      -1.262  -2.110   1.110  0.00  0.00     0.051 A 
ATOM      5  C5  IND d   1      -2.340  -2.929   1.297  0.00  0.00    -0.031 A 
ATOM      6  C6  IND d   1      -2.903  -3.642   0.259  0.00  0.00     0.015 A 
ATOM      7  C7  IND d   1      -2.401  -3.569  -1.010  0.00  0.00    -0.016 A 
ATOM      8  C8  IND d   1      -1.312  -2.733  -1.206  0.00  0.00    -0.047 A 
ATOM      9  C9  IND d   1      -0.762  -1.975  -0.164  0.00  0.00    -0.096 A 
ATOM     10  HN1 IND d   1      -0.750  -2.761  -3.130  0.00  0.00     0.298 HD
ENDROOT
TORSDOF 0
ENDMDL
