MODEL 1
REMARK minimizedAffinity 20.9330006
REMARK minimizedRMSD -1
REMARK  0 active torsions:
REMARK  status: ('A' for Active; 'I' for Inactive)
ROOT
ATOM      1  N1  IND d   1       5.333  -4.472   3.851  0.00  0.00    -0.196 N 
ATOM      2  C2  IND d   1       5.985  -4.823   5.000  0.00  0.00     0.054 A 
ATOM      3  C3  IND d   1       5.671  -3.968   6.000  0.00  0.00    -0.031 A 
ATOM      4  C4  IND d   1       4.029  -1.985   6.000  0.00  0.00     0.051 A 
ATOM      5  C5  IND d   1       3.224  -1.253   5.173  0.00  0.00    -0.031 A 
ATOM      6  C6  IND d   1       3.075  -1.565   3.837  0.00  0.00     0.015 A 
ATOM      7  C7  IND d   1       3.720  -2.632   3.278  0.00  0.00    -0.016 A 
ATOM      8  C8  IND d   1       4.544  -3.373   4.113  0.00  0.00    -0.047 A 
ATOM      9  C9  IND d   1       4.733  -3.036   5.460  0.00  0.00    -0.096 A 
ATOM     10  HN1 IND d   1       5.403  -4.871   3.093  0.00  0.00     0.298 HD
ENDROOT
TORSDOF 0
ENDMDL
