MODEL 1
REMARK minimizedAffinity 1.56839204
REMARK minimizedRMSD -1
REMARK  0 active torsions:
REMARK  status: ('A' for Active; 'I' for Inactive)
ROOT
ATOM      1  N1  IND d   1       0.221  -1.621  -2.063  0.00  0.00    -0.196 N 
ATOM      2  C2  IND d   1      -0.057  -2.514  -3.059  0.00  0.00     0.054 A 
ATOM      3  C3  IND d   1      -0.988  -3.404  -2.647  0.00  0.00    -0.031 A 
ATOM      4  C4  IND d   1      -2.265  -3.520  -0.415  0.00  0.00     0.051 A 
ATOM      5  C5  IND d   1      -2.329  -2.940   0.821  0.00  0.00    -0.031 A 
ATOM      6  C6  IND d   1      -1.532  -1.867   1.165  0.00  0.00     0.015 A 
ATOM      7  C7  IND d   1      -0.645  -1.325   0.278  0.00  0.00    -0.016 A 
ATOM      8  C8  IND d   1      -0.573  -1.915  -0.976  0.00  0.00    -0.047 A 
ATOM      9  C9  IND d   1      -1.349  -3.031  -1.316  0.00  0.00    -0.096 A 
ATOM     10  HN1 IND d   1       0.795  -0.982  -2.107  0.00  0.00     0.298 HD
ENDROOT
TORSDOF 0
ENDMDL
