MODEL 1
REMARK minimizedAffinity 4.96323252
REMARK minimizedRMSD -1
REMARK  0 active torsions:
REMARK  status: ('A' for Active; 'I' for Inactive)
ROOT
ATOM      1  N1  IND d   1      -0.470  -1.867  -2.597  0.00  0.00    -0.196 N 
ATOM      2  C2  IND d   1       0.008  -2.632  -1.569  0.00  0.00     0.054 A 
ATOM      3  C3  IND d   1       0.350  -3.861  -2.017  0.00  0.00    -0.031 A 
ATOM      4  C4  IND d   1       0.304  -4.800  -4.413  0.00  0.00     0.051 A 
ATOM      5  C5  IND d   1      -0.087  -4.489  -5.685  0.00  0.00    -0.031 A 
ATOM      6  C6  IND d   1      -0.635  -3.262  -5.999  0.00  0.00     0.015 A 
ATOM      7  C7  IND d   1      -0.801  -2.292  -5.052  0.00  0.00    -0.016 A 
ATOM      8  C8  IND d   1      -0.412  -2.607  -3.758  0.00  0.00    -0.047 A 
ATOM      9  C9  IND d   1       0.105  -3.866  -3.424  0.00  0.00    -0.096 A 
ATOM     10  HN1 IND d   1      -0.758  -1.060  -2.530  0.00  0.00     0.298 HD
ENDROOT
TORSDOF 0
ENDMDL
