MODEL 1
REMARK minimizedAffinity 3.36280441
REMARK minimizedRMSD -1
REMARK  0 active torsions:
REMARK  status: ('A' for Active; 'I' for Inactive)
ROOT
ATOM      1  N1  IND d   1       3.781   3.699  -4.460  0.00  0.00    -0.196 N 
ATOM      2  C2  IND d   1       4.957   3.192  -4.937  0.00  0.00     0.054 A 
ATOM      3  C3  IND d   1       6.000   3.670  -4.222  0.00  0.00    -0.031 A 
ATOM      4  C4  IND d   1       5.999   5.217  -2.164  0.00  0.00     0.051 A 
ATOM      5  C5  IND d   1       5.168   5.968  -1.381  0.00  0.00    -0.031 A 
ATOM      6  C6  IND d   1       3.804   6.000  -1.587  0.00  0.00     0.015 A 
ATOM      7  C7  IND d   1       3.216   5.269  -2.581  0.00  0.00    -0.016 A 
ATOM      8  C8  IND d   1       4.058   4.511  -3.382  0.00  0.00    -0.047 A 
ATOM      9  C9  IND d   1       5.448   4.508  -3.205  0.00  0.00    -0.096 A 
ATOM     10  HN1 IND d   1       2.999   3.538  -4.780  0.00  0.00     0.298 HD
ENDROOT
TORSDOF 0
ENDMDL
