MODEL 1
REMARK minimizedAffinity 6.50263214
REMARK minimizedRMSD -1
REMARK  0 active torsions:
REMARK  status: ('A' for Active; 'I' for Inactive)
ROOT
ATOM      1  N1  IND d   1       0.945  -4.429  -4.417  0.00  0.00    -0.196 N 
ATOM      2  C2  IND d   1       0.173  -5.555  -4.350  0.00  0.00     0.054 A 
ATOM      3  C3  IND d   1      -0.732  -5.446  -3.352  0.00  0.00    -0.031 A 
ATOM      4  C4  IND d   1      -1.192  -3.469  -1.769  0.00  0.00     0.051 A 
ATOM      5  C5  IND d   1      -0.720  -2.234  -1.422  0.00  0.00    -0.031 A 
ATOM      6  C6  IND d   1       0.351  -1.655  -2.072  0.00  0.00     0.015 A 
ATOM      7  C7  IND d   1       0.985  -2.287  -3.103  0.00  0.00    -0.016 A 
ATOM      8  C8  IND d   1       0.513  -3.544  -3.453  0.00  0.00    -0.047 A 
ATOM      9  C9  IND d   1      -0.546  -4.155  -2.770  0.00  0.00    -0.096 A 
ATOM     10  HN1 IND d   1       1.591  -4.295  -4.968  0.00  0.00     0.298 HD
ENDROOT
TORSDOF 0
ENDMDL
