MODEL 1
REMARK minimizedAffinity 6.55909252
REMARK minimizedRMSD -1
REMARK  0 active torsions:
REMARK  status: ('A' for Active; 'I' for Inactive)
ROOT
ATOM      1  N1  IND d   1       4.343  -2.109  -1.288  0.00  0.00    -0.196 N 
ATOM      2  C2  IND d   1       4.055  -2.027   0.045  0.00  0.00     0.054 A 
ATOM      3  C3  IND d   1       2.724  -1.884   0.231  0.00  0.00    -0.031 A 
ATOM      4  C4  IND d   1       0.823  -1.863  -1.505  0.00  0.00     0.051 A 
ATOM      5  C5  IND d   1       0.595  -1.871  -2.853  0.00  0.00    -0.031 A 
ATOM      6  C6  IND d   1       1.625  -1.964  -3.766  0.00  0.00     0.015 A 
ATOM      7  C7  IND d   1       2.927  -2.064  -3.364  0.00  0.00    -0.016 A 
ATOM      8  C8  IND d   1       3.163  -2.048  -1.996  0.00  0.00    -0.047 A 
ATOM      9  C9  IND d   1       2.125  -1.912  -1.066  0.00  0.00    -0.096 A 
ATOM     10  HN1 IND d   1       5.129  -2.186  -1.628  0.00  0.00     0.298 HD
ENDROOT
TORSDOF 0
ENDMDL
