MODEL 1
REMARK minimizedAffinity 9.58611488
REMARK minimizedRMSD -1
REMARK  0 active torsions:
REMARK  status: ('A' for Active; 'I' for Inactive)
ROOT
ATOM      1  N1  IND d   1       2.984  -1.358  -1.500  0.00  0.00    -0.196 N 
ATOM      2  C2  IND d   1       3.733  -1.612  -2.615  0.00  0.00     0.054 A 
ATOM      3  C3  IND d   1       2.975  -2.206  -3.565  0.00  0.00    -0.031 A 
ATOM      4  C4  IND d   1       0.462  -2.763  -3.541  0.00  0.00     0.051 A 
ATOM      5  C5  IND d   1      -0.636  -2.752  -2.727  0.00  0.00    -0.031 A 
ATOM      6  C6  IND d   1      -0.583  -2.264  -1.437  0.00  0.00     0.015 A 
ATOM      7  C7  IND d   1       0.573  -1.755  -0.915  0.00  0.00    -0.016 A 
ATOM      8  C8  IND d   1       1.691  -1.771  -1.736  0.00  0.00    -0.047 A 
ATOM      9  C9  IND d   1       1.654  -2.305  -3.031  0.00  0.00    -0.096 A 
ATOM     10  HN1 IND d   1       3.272  -1.001  -0.773  0.00  0.00     0.298 HD
ENDROOT
TORSDOF 0
ENDMDL
