MODEL 1
REMARK minimizedAffinity 7.04148388
REMARK minimizedRMSD -1
REMARK  0 active torsions:
REMARK  status: ('A' for Active; 'I' for Inactive)
ROOT
ATOM      1  N1  IND d   1       4.804  -1.654   5.997  0.00  0.00    -0.196 N 
ATOM      2  C2  IND d   1       5.997  -2.257   5.711  0.00  0.00     0.054 A 
ATOM      3  C3  IND d   1       5.938  -2.871   4.508  0.00  0.00    -0.031 A 
ATOM      4  C4  IND d   1       4.018  -2.929   2.794  0.00  0.00     0.051 A 
ATOM      5  C5  IND d   1       2.715  -2.553   2.623  0.00  0.00    -0.031 A 
ATOM      6  C6  IND d   1       2.029  -1.842   3.586  0.00  0.00     0.015 A 
ATOM      7  C7  IND d   1       2.626  -1.468   4.757  0.00  0.00    -0.016 A 
ATOM      8  C8  IND d   1       3.947  -1.854   4.937  0.00  0.00    -0.047 A 
ATOM      9  C9  IND d   1       4.635  -2.613   3.981  0.00  0.00    -0.096 A 
ATOM     10  HN1 IND d   1       4.620  -1.223   6.717  0.00  0.00     0.298 HD
ENDROOT
TORSDOF 0
ENDMDL
