MODEL 1
REMARK minimizedAffinity 4.70179367
REMARK minimizedRMSD -1
REMARK  0 active torsions:
REMARK  status: ('A' for Active; 'I' for Inactive)
ROOT
ATOM      1  C4' PXY d   1       6.000   0.365  -1.150  0.00  0.00     0.077 C 
ATOM      2  C1' PXY d   1       1.614  -1.676  -4.315  0.00  0.00     0.077 C 
ATOM      3  C1  PXY d   1       2.759  -1.146  -3.474  0.00  0.00    -0.082 A 
ATOM      4  C2  PXY d   1       3.462  -0.111  -3.905  0.00  0.00     0.003 A 
ATOM      5  C3  PXY d   1       4.521   0.361  -3.172  0.00  0.00     0.003 A 
ATOM      6  C4  PXY d   1       4.830  -0.198  -1.961  0.00  0.00    -0.082 A 
ATOM      7  C5  PXY d   1       4.110  -1.247  -1.510  0.00  0.00     0.003 A 
ATOM      8  C6  PXY d   1       3.065  -1.737  -2.288  0.00  0.00     0.003 A 
ENDROOT
TORSDOF 0
ENDMDL
