MODEL 1
REMARK minimizedAffinity 3.37667561
REMARK minimizedRMSD -1
REMARK  0 active torsions:
REMARK  status: ('A' for Active; 'I' for Inactive)
ROOT
ATOM      1  C4' PXY d   1       5.820  -0.285   2.961  0.00  0.00     0.077 C 
ATOM      2  C1' PXY d   1       0.623   0.556   0.573  0.00  0.00     0.077 C 
ATOM      3  C1  PXY d   1       1.980   0.333   1.211  0.00  0.00    -0.082 A 
ATOM      4  C2  PXY d   1       3.056   0.881   0.668  0.00  0.00     0.003 A 
ATOM      5  C3  PXY d   1       4.295   0.663   1.214  0.00  0.00     0.003 A 
ATOM      6  C4  PXY d   1       4.428  -0.079   2.357  0.00  0.00    -0.082 A 
ATOM      7  C5  PXY d   1       3.334  -0.632   2.922  0.00  0.00     0.003 A 
ATOM      8  C6  PXY d   1       2.090  -0.433   2.330  0.00  0.00     0.003 A 
ENDROOT
TORSDOF 0
ENDMDL
