MODEL 1
REMARK minimizedAffinity 7.33525991
REMARK minimizedRMSD -1
REMARK  0 active torsions:
REMARK  status: ('A' for Active; 'I' for Inactive)
ROOT
ATOM      1  C4' PXY d   1       6.000  -0.025   3.410  0.00  0.00     0.077 C 
ATOM      2  C1' PXY d   1       1.669   1.342  -0.166  0.00  0.00     0.077 C 
ATOM      3  C1  PXY d   1       2.796   0.980   0.781  0.00  0.00    -0.082 A 
ATOM      4  C2  PXY d   1       3.994   1.513   0.606  0.00  0.00     0.003 A 
ATOM      5  C3  PXY d   1       5.033   1.173   1.434  0.00  0.00     0.003 A 
ATOM      6  C4  PXY d   1       4.830   0.318   2.484  0.00  0.00    -0.082 A 
ATOM      7  C5  PXY d   1       3.608  -0.221   2.677  0.00  0.00     0.003 A 
ATOM      8  C6  PXY d   1       2.577   0.106   1.800  0.00  0.00     0.003 A 
ENDROOT
TORSDOF 0
ENDMDL
