MODEL 1
REMARK minimizedAffinity 2.9076221
REMARK minimizedRMSD -1
REMARK  0 active torsions:
REMARK  status: ('A' for Active; 'I' for Inactive)
ROOT
ATOM      1  C4' PXY d   1      -5.250  -5.162   3.299  0.00  0.00     0.077 C 
ATOM      2  C1' PXY d   1      -2.902  -0.623   6.000  0.00  0.00     0.077 C 
ATOM      3  C1  PXY d   1      -3.513  -1.821   5.300  0.00  0.00    -0.082 A 
ATOM      4  C2  PXY d   1      -3.795  -1.751   4.010  0.00  0.00     0.003 A 
ATOM      5  C3  PXY d   1      -4.378  -2.814   3.369  0.00  0.00     0.003 A 
ATOM      6  C4  PXY d   1      -4.624  -3.980   4.044  0.00  0.00    -0.082 A 
ATOM      7  C5  PXY d   1      -4.328  -4.063   5.358  0.00  0.00     0.003 A 
ATOM      8  C6  PXY d   1      -3.776  -2.958   6.000  0.00  0.00     0.003 A 
ENDROOT
TORSDOF 0
ENDMDL
