MODEL 1
REMARK minimizedAffinity 9.3424139
REMARK minimizedRMSD -1
REMARK  0 active torsions:
REMARK  status: ('A' for Active; 'I' for Inactive)
ROOT
ATOM      1  C4' PXY d   1      -2.998  -0.752   6.000  0.00  0.00     0.077 C 
ATOM      2  C1' PXY d   1      -4.805  -5.118   2.670  0.00  0.00     0.077 C 
ATOM      3  C1  PXY d   1      -4.337  -3.979   3.553  0.00  0.00    -0.082 A 
ATOM      4  C2  PXY d   1      -4.075  -2.798   3.015  0.00  0.00     0.003 A 
ATOM      5  C3  PXY d   1      -3.620  -1.766   3.795  0.00  0.00     0.003 A 
ATOM      6  C4  PXY d   1      -3.482  -1.928   5.147  0.00  0.00    -0.082 A 
ATOM      7  C5  PXY d   1      -3.758  -3.126   5.705  0.00  0.00     0.003 A 
ATOM      8  C6  PXY d   1      -4.179  -4.173   4.891  0.00  0.00     0.003 A 
ENDROOT
TORSDOF 0
ENDMDL
