MODEL 1
REMARK minimizedAffinity 2.06186676
REMARK minimizedRMSD -1
REMARK  0 active torsions:
REMARK  status: ('A' for Active; 'I' for Inactive)
ROOT
ATOM      1  C4' PXY d   1       5.985  -0.243   3.261  0.00  0.00     0.077 C 
ATOM      2  C1' PXY d   1       1.054   0.865   0.454  0.00  0.00     0.077 C 
ATOM      3  C1  PXY d   1       2.354   0.577   1.179  0.00  0.00    -0.082 A 
ATOM      4  C2  PXY d   1       2.346  -0.193   2.255  0.00  0.00     0.003 A 
ATOM      5  C3  PXY d   1       3.508  -0.438   2.942  0.00  0.00     0.003 A 
ATOM      6  C4  PXY d   1       4.698   0.067   2.492  0.00  0.00    -0.082 A 
ATOM      7  C5  PXY d   1       4.716   0.845   1.389  0.00  0.00     0.003 A 
ATOM      8  C6  PXY d   1       3.520   1.115   0.730  0.00  0.00     0.003 A 
ENDROOT
TORSDOF 0
ENDMDL
