MODEL 1
REMARK minimizedAffinity 3.70403695
REMARK minimizedRMSD -1
REMARK  0 active torsions:
REMARK  status: ('A' for Active; 'I' for Inactive)
ROOT
ATOM      1  C4' PXY d   1       4.743   2.146   0.155  0.00  0.00     0.077 C 
ATOM      2  C1' PXY d   1       2.278  -2.048   3.277  0.00  0.00     0.077 C 
ATOM      3  C1  PXY d   1       2.935  -0.948   2.466  0.00  0.00    -0.082 A 
ATOM      4  C2  PXY d   1       2.187  -0.146   1.726  0.00  0.00     0.003 A 
ATOM      5  C3  PXY d   1       2.767   0.833   0.962  0.00  0.00     0.003 A 
ATOM      6  C4  PXY d   1       4.122   1.028   0.997  0.00  0.00    -0.082 A 
ATOM      7  C5  PXY d   1       4.891   0.220   1.758  0.00  0.00     0.003 A 
ATOM      8  C6  PXY d   1       4.286  -0.795   2.494  0.00  0.00     0.003 A 
ENDROOT
TORSDOF 0
ENDMDL
