MODEL 1
REMARK minimizedAffinity 5.1630621
REMARK minimizedRMSD -1
REMARK  0 active torsions:
REMARK  status: ('A' for Active; 'I' for Inactive)
ROOT
ATOM      1  C4' PXY d   1      -4.507   4.246   6.000  0.00  0.00     0.077 C 
ATOM      2  C1' PXY d   1       0.682   4.012   3.463  0.00  0.00     0.077 C 
ATOM      3  C1  PXY d   1      -0.683   4.082   4.120  0.00  0.00    -0.082 A 
ATOM      4  C2  PXY d   1      -0.810   3.769   5.399  0.00  0.00     0.003 A 
ATOM      5  C3  PXY d   1      -2.042   3.796   6.000  0.00  0.00     0.003 A 
ATOM      6  C4  PXY d   1      -3.147   4.199   5.298  0.00  0.00    -0.082 A 
ATOM      7  C5  PXY d   1      -3.023   4.530   3.995  0.00  0.00     0.003 A 
ATOM      8  C6  PXY d   1      -1.771   4.456   3.393  0.00  0.00     0.003 A 
ENDROOT
TORSDOF 0
ENDMDL
