MODEL 1
REMARK minimizedAffinity -1.22404253
REMARK minimizedRMSD -1
REMARK  0 active torsions:
REMARK  status: ('A' for Active; 'I' for Inactive)
ROOT
ATOM      1  C4' PXY d   1       1.999  -3.229   3.037  0.00  0.00     0.077 C 
ATOM      2  C1' PXY d   1       2.838   1.743   0.210  0.00  0.00     0.077 C 
ATOM      3  C1  PXY d   1       2.630   0.439   0.955  0.00  0.00    -0.082 A 
ATOM      4  C2  PXY d   1       1.674  -0.390   0.569  0.00  0.00     0.003 A 
ATOM      5  C3  PXY d   1       1.452  -1.558   1.252  0.00  0.00     0.003 A 
ATOM      6  C4  PXY d   1       2.251  -1.906   2.308  0.00  0.00    -0.082 A 
ATOM      7  C5  PXY d   1       3.235  -1.071   2.701  0.00  0.00     0.003 A 
ATOM      8  C6  PXY d   1       3.418   0.130   2.021  0.00  0.00     0.003 A 
ENDROOT
TORSDOF 0
ENDMDL
