MODEL 1
REMARK minimizedAffinity 1.50917566
REMARK minimizedRMSD -1
REMARK  0 active torsions:
REMARK  status: ('A' for Active; 'I' for Inactive)
ROOT
ATOM      1  C4' PXY d   1      -5.685   1.045   2.242  0.00  0.00     0.077 C 
ATOM      2  C1' PXY d   1      -6.000   5.427   6.000  0.00  0.00     0.077 C 
ATOM      3  C1  PXY d   1      -5.911   4.270   5.023  0.00  0.00    -0.082 A 
ATOM      4  C2  PXY d   1      -5.928   4.510   3.722  0.00  0.00     0.003 A 
ATOM      5  C3  PXY d   1      -5.882   3.474   2.825  0.00  0.00     0.003 A 
ATOM      6  C4  PXY d   1      -5.762   2.182   3.265  0.00  0.00    -0.082 A 
ATOM      7  C5  PXY d   1      -5.734   1.930   4.591  0.00  0.00     0.003 A 
ATOM      8  C6  PXY d   1      -5.824   2.993   5.485  0.00  0.00     0.003 A 
ENDROOT
TORSDOF 0
ENDMDL
