MODEL 1
REMARK minimizedAffinity 10.6309032
REMARK minimizedRMSD -1
REMARK  0 active torsions:
REMARK  status: ('A' for Active; 'I' for Inactive)
ROOT
ATOM      1  C4' PXY d   1       2.597  -3.210   3.484  0.00  0.00     0.077 C 
ATOM      2  C1' PXY d   1       1.442   1.667   0.605  0.00  0.00     0.077 C 
ATOM      3  C1  PXY d   1       1.758   0.391   1.359  0.00  0.00    -0.082 A 
ATOM      4  C2  PXY d   1       0.917  -0.629   1.300  0.00  0.00     0.003 A 
ATOM      5  C3  PXY d   1       1.171  -1.779   2.002  0.00  0.00     0.003 A 
ATOM      6  C4  PXY d   1       2.323  -1.906   2.730  0.00  0.00    -0.082 A 
ATOM      7  C5  PXY d   1       3.191  -0.873   2.788  0.00  0.00     0.003 A 
ATOM      8  C6  PXY d   1       2.895   0.301   2.101  0.00  0.00     0.003 A 
ENDROOT
TORSDOF 0
ENDMDL
