MODEL 1
REMARK minimizedAffinity 7.21042728
REMARK minimizedRMSD -1
REMARK  0 active torsions:
REMARK  status: ('A' for Active; 'I' for Inactive)
ROOT
ATOM      1  C4' PXY d   1      -5.999   3.410   2.903  0.00  0.00     0.077 C 
ATOM      2  C1' PXY d   1      -3.312  -1.074   0.437  0.00  0.00     0.077 C 
ATOM      3  C1  PXY d   1      -4.005   0.108   1.083  0.00  0.00    -0.082 A 
ATOM      4  C2  PXY d   1      -5.094  -0.088   1.808  0.00  0.00     0.003 A 
ATOM      5  C3  PXY d   1      -5.753   0.973   2.374  0.00  0.00     0.003 A 
ATOM      6  C4  PXY d   1      -5.261   2.244   2.239  0.00  0.00    -0.082 A 
ATOM      7  C5  PXY d   1      -4.144   2.452   1.510  0.00  0.00     0.003 A 
ATOM      8  C6  PXY d   1      -3.514   1.365   0.910  0.00  0.00     0.003 A 
ENDROOT
TORSDOF 0
ENDMDL
