MODEL 1
REMARK minimizedAffinity 13.295085
REMARK minimizedRMSD -1
REMARK  0 active torsions:
REMARK  status: ('A' for Active; 'I' for Inactive)
ROOT
ATOM      1  C4' PXY d   1      -6.000   2.889   3.112  0.00  0.00     0.077 C 
ATOM      2  C1' PXY d   1      -3.432  -1.550   0.444  0.00  0.00     0.077 C 
ATOM      3  C1  PXY d   1      -4.095  -0.378   1.141  0.00  0.00    -0.082 A 
ATOM      4  C2  PXY d   1      -5.045  -0.601   2.035  0.00  0.00     0.003 A 
ATOM      5  C3  PXY d   1      -5.677   0.447   2.652  0.00  0.00     0.003 A 
ATOM      6  C4  PXY d   1      -5.296   1.736   2.390  0.00  0.00    -0.082 A 
ATOM      7  C5  PXY d   1      -4.321   1.972   1.488  0.00  0.00     0.003 A 
ATOM      8  C6  PXY d   1      -3.720   0.895   0.842  0.00  0.00     0.003 A 
ENDROOT
TORSDOF 0
ENDMDL
