MODEL 1
REMARK minimizedAffinity 4.54214859
REMARK minimizedRMSD -1
REMARK  0 active torsions:
REMARK  status: ('A' for Active; 'I' for Inactive)
ROOT
ATOM      1  C4' PXY d   1       4.868   2.283   0.558  0.00  0.00     0.077 C 
ATOM      2  C1' PXY d   1       1.875  -1.861   3.256  0.00  0.00     0.077 C 
ATOM      3  C1  PXY d   1       2.670  -0.777   2.556  0.00  0.00    -0.082 A 
ATOM      4  C2  PXY d   1       2.034   0.205   1.938  0.00  0.00     0.003 A 
ATOM      5  C3  PXY d   1       2.737   1.176   1.273  0.00  0.00     0.003 A 
ATOM      6  C4  PXY d   1       4.107   1.172   1.286  0.00  0.00    -0.082 A 
ATOM      7  C5  PXY d   1       4.763   0.180   1.923  0.00  0.00     0.003 A 
ATOM      8  C6  PXY d   1       4.030  -0.820   2.558  0.00  0.00     0.003 A 
ENDROOT
TORSDOF 0
ENDMDL
