MODEL 1
REMARK minimizedAffinity 4.62195158
REMARK minimizedRMSD -1
REMARK  0 active torsions:
REMARK  status: ('A' for Active; 'I' for Inactive)
ROOT
ATOM      1  C4' PXY d   1       6.000  -0.290   3.378  0.00  0.00     0.077 C 
ATOM      2  C1' PXY d   1       1.116   0.746   0.464  0.00  0.00     0.077 C 
ATOM      3  C1  PXY d   1       2.404   0.476   1.218  0.00  0.00    -0.082 A 
ATOM      4  C2  PXY d   1       2.378  -0.267   2.312  0.00  0.00     0.003 A 
ATOM      5  C3  PXY d   1       3.528  -0.494   3.023  0.00  0.00     0.003 A 
ATOM      6  C4  PXY d   1       4.726   0.000   2.580  0.00  0.00    -0.082 A 
ATOM      7  C5  PXY d   1       4.762   0.751   1.459  0.00  0.00     0.003 A 
ATOM      8  C6  PXY d   1       3.577   1.004   0.774  0.00  0.00     0.003 A 
ENDROOT
TORSDOF 0
ENDMDL
