MODEL 1
REMARK minimizedAffinity 5.60025311
REMARK minimizedRMSD -1
REMARK  0 active torsions:
REMARK  status: ('A' for Active; 'I' for Inactive)
ROOT
ATOM      1  C4' PXY d   1       6.000  -0.617   2.833  0.00  0.00     0.077 C 
ATOM      2  C1' PXY d   1       0.797   0.961   0.871  0.00  0.00     0.077 C 
ATOM      3  C1  PXY d   1       2.166   0.550   1.374  0.00  0.00    -0.082 A 
ATOM      4  C2  PXY d   1       2.265  -0.244   2.428  0.00  0.00     0.003 A 
ATOM      5  C3  PXY d   1       3.496  -0.601   2.915  0.00  0.00     0.003 A 
ATOM      6  C4  PXY d   1       4.638  -0.183   2.285  0.00  0.00    -0.082 A 
ATOM      7  C5  PXY d   1       4.545   0.618   1.203  0.00  0.00     0.003 A 
ATOM      8  C6  PXY d   1       3.287   1.002   0.749  0.00  0.00     0.003 A 
ENDROOT
TORSDOF 0
ENDMDL
