MODEL 1
REMARK minimizedAffinity 3.69684315
REMARK minimizedRMSD -1
REMARK  0 active torsions:
REMARK  status: ('A' for Active; 'I' for Inactive)
ROOT
ATOM      1  C4' PXY d   1       1.016  -1.588   0.758  0.00  0.00     0.077 C 
ATOM      2  C1' PXY d   1       6.000   0.470   2.842  0.00  0.00     0.077 C 
ATOM      3  C1  PXY d   1       4.690  -0.058   2.291  0.00  0.00    -0.082 A 
ATOM      4  C2  PXY d   1       4.148  -1.142   2.820  0.00  0.00     0.003 A 
ATOM      5  C3  PXY d   1       2.980  -1.652   2.313  0.00  0.00     0.003 A 
ATOM      6  C4  PXY d   1       2.333  -1.014   1.288  0.00  0.00    -0.082 A 
ATOM      7  C5  PXY d   1       2.875   0.099   0.750  0.00  0.00     0.003 A 
ATOM      8  C6  PXY d   1       4.082   0.577   1.252  0.00  0.00     0.003 A 
ENDROOT
TORSDOF 0
ENDMDL
