MODEL 1
REMARK minimizedAffinity 0.489475518
REMARK minimizedRMSD -1
REMARK  0 active torsions:
REMARK  status: ('A' for Active; 'I' for Inactive)
ROOT
ATOM      1  C4' PXY d   1      -6.000   0.002   2.246  0.00  0.00     0.077 C 
ATOM      2  C1' PXY d   1      -4.530   4.144   6.000  0.00  0.00     0.077 C 
ATOM      3  C1  PXY d   1      -4.923   3.067   5.009  0.00  0.00    -0.082 A 
ATOM      4  C2  PXY d   1      -4.894   1.796   5.378  0.00  0.00     0.003 A 
ATOM      5  C3  PXY d   1      -5.215   0.807   4.485  0.00  0.00     0.003 A 
ATOM      6  C4  PXY d   1      -5.621   1.124   3.216  0.00  0.00    -0.082 A 
ATOM      7  C5  PXY d   1      -5.663   2.418   2.835  0.00  0.00     0.003 A 
ATOM      8  C6  PXY d   1      -5.293   3.405   3.744  0.00  0.00     0.003 A 
ENDROOT
TORSDOF 0
ENDMDL
