MODEL 1
REMARK minimizedAffinity 1.26606929
REMARK minimizedRMSD -1
REMARK  0 active torsions:
REMARK  status: ('A' for Active; 'I' for Inactive)
ROOT
ATOM      1  C4' PXY d   1       3.055   0.706  -5.252  0.00  0.00     0.077 C 
ATOM      2  C1' PXY d   1       0.765   6.000  -4.864  0.00  0.00     0.077 C 
ATOM      3  C1  PXY d   1       1.369   4.614  -4.978  0.00  0.00    -0.082 A 
ATOM      4  C2  PXY d   1       0.938   3.646  -4.187  0.00  0.00     0.003 A 
ATOM      5  C3  PXY d   1       1.495   2.395  -4.255  0.00  0.00     0.003 A 
ATOM      6  C4  PXY d   1       2.467   2.118  -5.179  0.00  0.00    -0.082 A 
ATOM      7  C5  PXY d   1       2.905   3.099  -5.997  0.00  0.00     0.003 A 
ATOM      8  C6  PXY d   1       2.355   4.372  -5.884  0.00  0.00     0.003 A 
ENDROOT
TORSDOF 0
ENDMDL
