MODEL 1
REMARK minimizedAffinity 2.28341079
REMARK minimizedRMSD -1
REMARK  0 active torsions:
REMARK  status: ('A' for Active; 'I' for Inactive)
ROOT
ATOM      1  C4' PXY d   1      -4.009  -4.437   3.350  0.00  0.00     0.077 C 
ATOM      2  C1' PXY d   1      -3.794   0.696   6.000  0.00  0.00     0.077 C 
ATOM      3  C1  PXY d   1      -3.858  -0.645   5.295  0.00  0.00    -0.082 A 
ATOM      4  C2  PXY d   1      -3.722  -1.759   5.996  0.00  0.00     0.003 A 
ATOM      5  C3  PXY d   1      -3.745  -2.979   5.370  0.00  0.00     0.003 A 
ATOM      6  C4  PXY d   1      -3.962  -3.061   4.021  0.00  0.00    -0.082 A 
ATOM      7  C5  PXY d   1      -4.111  -1.930   3.301  0.00  0.00     0.003 A 
ATOM      8  C6  PXY d   1      -4.044  -0.700   3.948  0.00  0.00     0.003 A 
ENDROOT
TORSDOF 0
ENDMDL
