MODEL 1
REMARK minimizedAffinity -3.78832459
REMARK minimizedRMSD -1
REMARK  0 active torsions:
REMARK  status: ('A' for Active; 'I' for Inactive)
ROOT
ATOM      1  C4' PXY d   1       1.063  -0.495   3.060  0.00  0.00     0.077 C 
ATOM      2  C1' PXY d   1      -1.153   0.406  -2.202  0.00  0.00     0.077 C 
ATOM      3  C1  PXY d   1      -0.582   0.175  -0.817  0.00  0.00    -0.082 A 
ATOM      4  C2  PXY d   1       0.724   0.034  -0.663  0.00  0.00     0.003 A 
ATOM      5  C3  PXY d   1       1.254  -0.207   0.579  0.00  0.00     0.003 A 
ATOM      6  C4  PXY d   1       0.443  -0.251   1.681  0.00  0.00    -0.082 A 
ATOM      7  C5  PXY d   1      -0.890  -0.098   1.534  0.00  0.00     0.003 A 
ATOM      8  C6  PXY d   1      -1.412   0.105   0.259  0.00  0.00     0.003 A 
ENDROOT
TORSDOF 0
ENDMDL
