MODEL 1
REMARK minimizedAffinity -4.42228365
REMARK minimizedRMSD -1
REMARK  0 active torsions:
REMARK  status: ('A' for Active; 'I' for Inactive)
ROOT
ATOM      1  C4' PXY d   1      -0.989   0.293  -1.605  0.00  0.00     0.077 C 
ATOM      2  C1' PXY d   1       1.816  -1.164   3.235  0.00  0.00     0.077 C 
ATOM      3  C1  PXY d   1       1.092  -0.779   1.960  0.00  0.00    -0.082 A 
ATOM      4  C2  PXY d   1      -0.181  -0.421   2.013  0.00  0.00     0.003 A 
ATOM      5  C3  PXY d   1      -0.860  -0.101   0.866  0.00  0.00     0.003 A 
ATOM      6  C4  PXY d   1      -0.215  -0.094  -0.342  0.00  0.00    -0.082 A 
ATOM      7  C5  PXY d   1       1.086  -0.448  -0.403  0.00  0.00     0.003 A 
ATOM      8  C6  PXY d   1       1.747  -0.809   0.768  0.00  0.00     0.003 A 
ENDROOT
TORSDOF 0
ENDMDL
