MODEL 1
REMARK minimizedAffinity -5.11501741
REMARK minimizedRMSD -1
REMARK  0 active torsions:
REMARK  status: ('A' for Active; 'I' for Inactive)
ROOT
ATOM      1  C4' PXY d   1      -0.379   0.667  -1.473  0.00  0.00     0.077 C 
ATOM      2  C1' PXY d   1       1.765  -1.208   3.557  0.00  0.00     0.077 C 
ATOM      3  C1  PXY d   1       1.215  -0.713   2.234  0.00  0.00    -0.082 A 
ATOM      4  C2  PXY d   1      -0.038  -0.296   2.162  0.00  0.00     0.003 A 
ATOM      5  C3  PXY d   1      -0.562   0.125   0.966  0.00  0.00     0.003 A 
ATOM      6  C4  PXY d   1       0.222   0.168  -0.156  0.00  0.00    -0.082 A 
ATOM      7  C5  PXY d   1       1.504  -0.246  -0.088  0.00  0.00     0.003 A 
ATOM      8  C6  PXY d   1       2.005  -0.708   1.125  0.00  0.00     0.003 A 
ENDROOT
TORSDOF 0
ENDMDL
