MODEL 1
REMARK minimizedAffinity -3.98416758
REMARK minimizedRMSD -1
REMARK  0 active torsions:
REMARK  status: ('A' for Active; 'I' for Inactive)
ROOT
ATOM      1  C4' PXY d   1      -0.652   0.581  -1.875  0.00  0.00     0.077 C 
ATOM      2  C1' PXY d   1       1.593  -1.433   3.056  0.00  0.00     0.077 C 
ATOM      3  C1  PXY d   1       1.016  -0.903   1.758  0.00  0.00    -0.082 A 
ATOM      4  C2  PXY d   1      -0.202  -0.387   1.746  0.00  0.00     0.003 A 
ATOM      5  C3  PXY d   1      -0.751   0.068   0.575  0.00  0.00     0.003 A 
ATOM      6  C4  PXY d   1      -0.026   0.042  -0.586  0.00  0.00    -0.082 A 
ATOM      7  C5  PXY d   1       1.221  -0.473  -0.580  0.00  0.00     0.003 A 
ATOM      8  C6  PXY d   1       1.745  -0.967   0.611  0.00  0.00     0.003 A 
ENDROOT
TORSDOF 0
ENDMDL
