MODEL 1
REMARK minimizedAffinity -5.63397598
REMARK minimizedRMSD -1
REMARK  0 active torsions:
REMARK  status: ('A' for Active; 'I' for Inactive)
ROOT
ATOM      1  C4' PXY d   1      -2.958  -0.825   1.257  0.00  0.00     0.077 C 
ATOM      2  C1' PXY d   1       2.797  -0.288   1.376  0.00  0.00     0.077 C 
ATOM      3  C1  PXY d   1       1.287  -0.420   1.335  0.00  0.00    -0.082 A 
ATOM      4  C2  PXY d   1       0.644  -0.900   2.387  0.00  0.00     0.003 A 
ATOM      5  C3  PXY d   1      -0.718  -1.056   2.356  0.00  0.00     0.003 A 
ATOM      6  C4  PXY d   1      -1.435  -0.666   1.256  0.00  0.00    -0.082 A 
ATOM      7  C5  PXY d   1      -0.787  -0.164   0.183  0.00  0.00     0.003 A 
ATOM      8  C6  PXY d   1       0.600  -0.053   0.219  0.00  0.00     0.003 A 
ENDROOT
TORSDOF 0
ENDMDL
