MODEL 1
REMARK minimizedAffinity -3.03016543
REMARK minimizedRMSD -1
REMARK  0 active torsions:
REMARK  status: ('A' for Active; 'I' for Inactive)
ROOT
ATOM      1  C4' PXY d   1      -1.281   0.876  -1.705  0.00  0.00     0.077 C 
ATOM      2  C1' PXY d   1       1.495  -0.937   3.031  0.00  0.00     0.077 C 
ATOM      3  C1  PXY d   1       0.778  -0.457   1.784  0.00  0.00    -0.082 A 
ATOM      4  C2  PXY d   1      -0.498  -0.115   1.853  0.00  0.00     0.003 A 
ATOM      5  C3  PXY d   1      -1.170   0.290   0.729  0.00  0.00     0.003 A 
ATOM      6  C4  PXY d   1      -0.515   0.396  -0.469  0.00  0.00    -0.082 A 
ATOM      7  C5  PXY d   1       0.790   0.059  -0.546  0.00  0.00     0.003 A 
ATOM      8  C6  PXY d   1       1.443  -0.389   0.599  0.00  0.00     0.003 A 
ENDROOT
TORSDOF 0
ENDMDL
