MODEL 1
REMARK minimizedAffinity -4.42820168
REMARK minimizedRMSD -1
REMARK  0 active torsions:
REMARK  status: ('A' for Active; 'I' for Inactive)
ROOT
ATOM      1  C4' PXY d   1      -0.977   0.498  -1.168  0.00  0.00     0.077 C 
ATOM      2  C1' PXY d   1       2.242  -0.926   3.417  0.00  0.00     0.077 C 
ATOM      3  C1  PXY d   1       1.388  -0.560   2.220  0.00  0.00    -0.082 A 
ATOM      4  C2  PXY d   1       1.970  -0.229   1.078  0.00  0.00     0.003 A 
ATOM      5  C3  PXY d   1       1.213   0.136  -0.006  0.00  0.00     0.003 A 
ATOM      6  C4  PXY d   1      -0.154   0.112   0.064  0.00  0.00    -0.082 A 
ATOM      7  C5  PXY d   1      -0.755  -0.235   1.222  0.00  0.00     0.003 A 
ATOM      8  C6  PXY d   1       0.031  -0.563   2.323  0.00  0.00     0.003 A 
ENDROOT
TORSDOF 0
ENDMDL
