MODEL 1
REMARK minimizedAffinity -2.33658218
REMARK minimizedRMSD -1
REMARK  0 active torsions:
REMARK  status: ('A' for Active; 'I' for Inactive)
ROOT
ATOM      1  C4' PXY d   1      -1.248   1.299  -2.551  0.00  0.00     0.077 C 
ATOM      2  C1' PXY d   1       1.130  -0.291   2.473  0.00  0.00     0.077 C 
ATOM      3  C1  PXY d   1       0.518   0.128   1.151  0.00  0.00    -0.082 A 
ATOM      4  C2  PXY d   1      -0.725   0.579   1.119  0.00  0.00     0.003 A 
ATOM      5  C3  PXY d   1      -1.305   0.932  -0.073  0.00  0.00     0.003 A 
ATOM      6  C4  PXY d   1      -0.586   0.873  -1.237  0.00  0.00    -0.082 A 
ATOM      7  C5  PXY d   1       0.686   0.424  -1.211  0.00  0.00     0.003 A 
ATOM      8  C6  PXY d   1       1.243   0.032   0.003  0.00  0.00     0.003 A 
ENDROOT
TORSDOF 0
ENDMDL
