MODEL 1
REMARK minimizedAffinity -5.17046356
REMARK minimizedRMSD -1
REMARK  0 active torsions:
REMARK  status: ('A' for Active; 'I' for Inactive)
ROOT
ATOM      1  C4' PXY d   1      -0.644   1.440  -1.618  0.00  0.00     0.077 C 
ATOM      2  C1' PXY d   1       1.552  -1.348   2.945  0.00  0.00     0.077 C 
ATOM      3  C1  PXY d   1       0.987  -0.619   1.742  0.00  0.00    -0.082 A 
ATOM      4  C2  PXY d   1       0.018   0.266   1.909  0.00  0.00     0.003 A 
ATOM      5  C3  PXY d   1      -0.526   0.911   0.828  0.00  0.00     0.003 A 
ATOM      6  C4  PXY d   1      -0.037   0.687  -0.431  0.00  0.00    -0.082 A 
ATOM      7  C5  PXY d   1       0.959  -0.207  -0.608  0.00  0.00     0.003 A 
ATOM      8  C6  PXY d   1       1.469  -0.881   0.497  0.00  0.00     0.003 A 
ENDROOT
TORSDOF 0
ENDMDL
