MODEL 1
REMARK minimizedAffinity -3.43963122
REMARK minimizedRMSD -1
REMARK  0 active torsions:
REMARK  status: ('A' for Active; 'I' for Inactive)
ROOT
ATOM      1  C4' PXY d   1      -0.907   0.410  -2.073  0.00  0.00     0.077 C 
ATOM      2  C1' PXY d   1       1.238  -1.066   3.088  0.00  0.00     0.077 C 
ATOM      3  C1  PXY d   1       0.687  -0.680   1.729  0.00  0.00    -0.082 A 
ATOM      4  C2  PXY d   1      -0.457  -0.019   1.651  0.00  0.00     0.003 A 
ATOM      5  C3  PXY d   1      -0.985   0.310   0.429  0.00  0.00     0.003 A 
ATOM      6  C4  PXY d   1      -0.309   0.007  -0.722  0.00  0.00    -0.082 A 
ATOM      7  C5  PXY d   1       0.864  -0.657  -0.650  0.00  0.00     0.003 A 
ATOM      8  C6  PXY d   1       1.363  -1.018   0.598  0.00  0.00     0.003 A 
ENDROOT
TORSDOF 0
ENDMDL
