MODEL 1
REMARK minimizedAffinity -4.83078814
REMARK minimizedRMSD -1
REMARK  0 active torsions:
REMARK  status: ('A' for Active; 'I' for Inactive)
ROOT
ATOM      1  C4' PXY d   1      -1.646   0.167  -2.415  0.00  0.00     0.077 C 
ATOM      2  C1' PXY d   1       2.188  -0.344   1.881  0.00  0.00     0.077 C 
ATOM      3  C1  PXY d   1       1.192  -0.211   0.746  0.00  0.00    -0.082 A 
ATOM      4  C2  PXY d   1       0.044   0.414   0.952  0.00  0.00     0.003 A 
ATOM      5  C3  PXY d   1      -0.881   0.515  -0.054  0.00  0.00     0.003 A 
ATOM      6  C4  PXY d   1      -0.607   0.018  -1.300  0.00  0.00    -0.082 A 
ATOM      7  C5  PXY d   1       0.566  -0.612  -1.522  0.00  0.00     0.003 A 
ATOM      8  C6  PXY d   1       1.475  -0.740  -0.475  0.00  0.00     0.003 A 
ENDROOT
TORSDOF 0
ENDMDL
