MODEL 1
REMARK minimizedAffinity -3.47666097
REMARK minimizedRMSD -1
REMARK  1 active torsions:
REMARK  status: ('A' for Active; 'I' for Inactive)
REMARK    1  A    between atoms: C3_4  and  O_7 
ROOT
ATOM      1  C   UNL d   1      -0.741   0.096  -0.061  0.00  0.00    -0.033 A 
ATOM      2  C1  UNL d   1      -1.282  -0.520   1.070  0.00  0.00     0.039 A 
ATOM      3  C2  UNL d   1      -0.471  -0.795   2.173  0.00  0.00    -0.080 A 
ATOM      4  C3  UNL d   1       0.877  -0.448   2.133  0.00  0.00     0.150 A 
ATOM      5  C4  UNL d   1       1.421   0.170   1.011  0.00  0.00    -0.007 A 
ATOM      6  C5  UNL d   1       0.610   0.442  -0.089  0.00  0.00     0.039 A 
ENDROOT
BRANCH   4   7
ATOM      7  O   UNL d   1       1.709  -0.700   3.183  0.00  0.00    -0.526 OA
ATOM      8  H5  UNL d   1       1.201  -1.155   3.875  0.00  0.00     0.418 HD
ENDBRANCH   4   7
TORSDOF 1
ENDMDL
