MODEL 1
REMARK minimizedAffinity -0.950523794
REMARK minimizedRMSD -1
REMARK  1 active torsions:
REMARK  status: ('A' for Active; 'I' for Inactive)
REMARK    1  A    between atoms: C3_4  and  O_7 
ROOT
ATOM      1  C   UNL d   1      -0.635  -0.369   2.050  0.00  0.00    -0.033 A 
ATOM      2  C1  UNL d   1       0.246  -1.390   2.413  0.00  0.00     0.039 A 
ATOM      3  C2  UNL d   1       1.186  -1.863   1.495  0.00  0.00    -0.080 A 
ATOM      4  C3  UNL d   1       1.235  -1.307   0.220  0.00  0.00     0.150 A 
ATOM      5  C4  UNL d   1       0.364  -0.287  -0.147  0.00  0.00    -0.007 A 
ATOM      6  C5  UNL d   1      -0.575   0.184   0.770  0.00  0.00     0.039 A 
ENDROOT
BRANCH   4   7
ATOM      7  O   UNL d   1       2.132  -1.739  -0.712  0.00  0.00    -0.526 OA
ATOM      8  H5  UNL d   1       2.649  -2.466  -0.327  0.00  0.00     0.418 HD
ENDBRANCH   4   7
TORSDOF 1
ENDMDL
