MODEL 1
REMARK minimizedAffinity -2.45488214
REMARK minimizedRMSD -1
REMARK  1 active torsions:
REMARK  status: ('A' for Active; 'I' for Inactive)
REMARK    1  A    between atoms: C3_4  and  O_7 
ROOT
ATOM      1  C   UNL d   1      -1.009  -0.087   1.368  0.00  0.00    -0.033 A 
ATOM      2  C1  UNL d   1      -0.185  -0.832   2.214  0.00  0.00     0.039 A 
ATOM      3  C2  UNL d   1       0.935  -1.489   1.700  0.00  0.00    -0.080 A 
ATOM      4  C3  UNL d   1       1.220  -1.392   0.340  0.00  0.00     0.150 A 
ATOM      5  C4  UNL d   1       0.405  -0.649  -0.507  0.00  0.00    -0.007 A 
ATOM      6  C5  UNL d   1      -0.713   0.005   0.007  0.00  0.00     0.039 A 
ENDROOT
BRANCH   4   7
ATOM      7  O   UNL d   1       2.299  -2.020  -0.208  0.00  0.00    -0.526 OA
ATOM      8  H5  UNL d   1       2.753  -2.519   0.491  0.00  0.00     0.418 HD
ENDBRANCH   4   7
TORSDOF 1
ENDMDL
