MODEL 1
REMARK minimizedAffinity -4.39048672
REMARK minimizedRMSD -1
REMARK  1 active torsions:
REMARK  status: ('A' for Active; 'I' for Inactive)
REMARK    1  A    between atoms: C3_4  and  O_7 
ROOT
ATOM      1  C   UNL d   1      -0.849   0.090   1.203  0.00  0.00    -0.033 A 
ATOM      2  C1  UNL d   1      -0.335  -0.233  -0.054  0.00  0.00     0.039 A 
ATOM      3  C2  UNL d   1       0.760  -1.093  -0.162  0.00  0.00    -0.080 A 
ATOM      4  C3  UNL d   1       1.329  -1.623   0.992  0.00  0.00     0.150 A 
ATOM      5  C4  UNL d   1       0.820  -1.308   2.248  0.00  0.00    -0.007 A 
ATOM      6  C5  UNL d   1      -0.273  -0.449   2.354  0.00  0.00     0.039 A 
ENDROOT
BRANCH   4   7
ATOM      7  O   UNL d   1       2.402  -2.463   0.937  0.00  0.00    -0.526 OA
ATOM      8  H5  UNL d   1       2.663  -2.568   0.007  0.00  0.00     0.418 HD
ENDBRANCH   4   7
TORSDOF 1
ENDMDL
