MODEL 1
REMARK minimizedAffinity -4.31067038
REMARK minimizedRMSD -1
REMARK  1 active torsions:
REMARK  status: ('A' for Active; 'I' for Inactive)
REMARK    1  A    between atoms: C3_4  and  O_7 
ROOT
ATOM      1  C   UNL d   1      -0.224  -0.882  -0.046  0.00  0.00    -0.033 A 
ATOM      2  C1  UNL d   1       1.155  -0.672   0.001  0.00  0.00     0.039 A 
ATOM      3  C2  UNL d   1       1.836  -0.757   1.217  0.00  0.00    -0.080 A 
ATOM      4  C3  UNL d   1       1.126  -1.052   2.378  0.00  0.00     0.150 A 
ATOM      5  C4  UNL d   1      -0.248  -1.267   2.338  0.00  0.00    -0.007 A 
ATOM      6  C5  UNL d   1      -0.925  -1.181   1.123  0.00  0.00     0.039 A 
ENDROOT
BRANCH   4   7
ATOM      7  O   UNL d   1       1.746  -1.141   3.589  0.00  0.00    -0.526 OA
ATOM      8  H5  UNL d   1       2.689  -0.941   3.467  0.00  0.00     0.418 HD
ENDBRANCH   4   7
TORSDOF 1
ENDMDL
