MODEL 1
REMARK minimizedAffinity -2.41312075
REMARK minimizedRMSD -1
REMARK  1 active torsions:
REMARK  status: ('A' for Active; 'I' for Inactive)
REMARK    1  A    between atoms: C3_4  and  O_7 
ROOT
ATOM      1  C   UNL d   1      -0.959  -0.788   0.756  0.00  0.00    -0.033 A 
ATOM      2  C1  UNL d   1       0.192  -0.021   0.568  0.00  0.00     0.039 A 
ATOM      3  C2  UNL d   1       1.254  -0.121   1.469  0.00  0.00    -0.080 A 
ATOM      4  C3  UNL d   1       1.153  -0.990   2.551  0.00  0.00     0.150 A 
ATOM      5  C4  UNL d   1       0.010  -1.760   2.742  0.00  0.00    -0.007 A 
ATOM      6  C5  UNL d   1      -1.050  -1.659   1.842  0.00  0.00     0.039 A 
ENDROOT
BRANCH   4   7
ATOM      7  O   UNL d   1       2.161  -1.118   3.460  0.00  0.00    -0.526 OA
ATOM      8  H5  UNL d   1       2.874  -0.504   3.216  0.00  0.00     0.418 HD
ENDBRANCH   4   7
TORSDOF 1
ENDMDL
