MODEL 1
REMARK minimizedAffinity -5.53898048
REMARK minimizedRMSD -1
REMARK  3 active torsions:
REMARK  status: ('A' for Active; 'I' for Inactive)
REMARK    1  A    between atoms: C3'_2  and  C2'_3 
REMARK    2  A    between atoms: C2'_3  and  C1'_4 
REMARK    3  A    between atoms: C1'_4  and  C1_5 
ROOT
ATOM      1  C1  N4B d   1      -0.499   0.585   0.360  0.00  0.00    -0.075 A 
ATOM      2  C2  N4B d   1      -1.321   1.632   0.833  0.00  0.00     0.002 A 
ATOM      3  C3  N4B d   1      -0.976   2.939   0.590  0.00  0.00     0.002 A 
ATOM      4  C4  N4B d   1       0.191   3.223  -0.103  0.00  0.00    -0.004 A 
ATOM      5  C5  N4B d   1       0.966   2.206  -0.578  0.00  0.00     0.002 A 
ATOM      6  C6  N4B d   1       0.630   0.888  -0.346  0.00  0.00     0.002 A 
ENDROOT
BRANCH   1   7
ATOM      7  C1' N4B d   1      -0.789  -0.857   0.675  0.00  0.00     0.057 C 
BRANCH   7   8
ATOM      8  C2' N4B d   1       0.126  -1.746  -0.162  0.00  0.00     0.009 C 
BRANCH   8   9
ATOM      9  C3' N4B d   1      -0.616  -2.936  -0.746  0.00  0.00     0.004 C 
ATOM     10  C4' N4B d   1      -0.081  -3.355  -2.082  0.00  0.00     0.003 C 
ENDBRANCH   8   9
ENDBRANCH   7   8
ENDBRANCH   1   7
TORSDOF 3
ENDMDL
