MODEL 1
REMARK minimizedAffinity -2.90279841
REMARK minimizedRMSD -1
REMARK  3 active torsions:
REMARK  status: ('A' for Active; 'I' for Inactive)
REMARK    1  A    between atoms: C3'_2  and  C2'_3 
REMARK    2  A    between atoms: C2'_3  and  C1'_4 
REMARK    3  A    between atoms: C1'_4  and  C1_5 
ROOT
ATOM      1  C1  N4B d   1      -0.207   0.284  -0.039  0.00  0.00    -0.075 A 
ATOM      2  C2  N4B d   1       0.856   0.687  -0.876  0.00  0.00     0.002 A 
ATOM      3  C3  N4B d   1       1.049   2.020  -1.147  0.00  0.00     0.002 A 
ATOM      4  C4  N4B d   1       0.183   2.961  -0.610  0.00  0.00    -0.004 A 
ATOM      5  C5  N4B d   1      -0.826   2.565   0.218  0.00  0.00     0.002 A 
ATOM      6  C6  N4B d   1      -1.029   1.229   0.503  0.00  0.00     0.002 A 
ENDROOT
BRANCH   1   7
ATOM      7  C1' N4B d   1      -0.509  -1.168   0.218  0.00  0.00     0.057 C 
BRANCH   7   8
ATOM      8  C2' N4B d   1      -0.309  -1.956  -1.073  0.00  0.00     0.009 C 
BRANCH   8   9
ATOM      9  C3' N4B d   1      -1.412  -2.977  -1.293  0.00  0.00     0.004 C 
ATOM     10  C4' N4B d   1      -1.862  -3.048  -2.721  0.00  0.00     0.003 C 
ENDBRANCH   8   9
ENDBRANCH   7   8
ENDBRANCH   1   7
TORSDOF 3
ENDMDL
