MODEL 1
REMARK minimizedAffinity -4.65835571
REMARK minimizedRMSD -1
REMARK  3 active torsions:
REMARK  status: ('A' for Active; 'I' for Inactive)
REMARK    1  A    between atoms: C3'_2  and  C2'_3 
REMARK    2  A    between atoms: C2'_3  and  C1'_4 
REMARK    3  A    between atoms: C1'_4  and  C1_5 
ROOT
ATOM      1  C1  N4B d   1       0.785   0.690   0.681  0.00  0.00    -0.075 A 
ATOM      2  C2  N4B d   1       2.188   0.735   0.520  0.00  0.00     0.002 A 
ATOM      3  C3  N4B d   1       2.823   1.943   0.365  0.00  0.00     0.002 A 
ATOM      4  C4  N4B d   1       2.077   3.113   0.349  0.00  0.00    -0.004 A 
ATOM      5  C5  N4B d   1       0.726   3.063   0.531  0.00  0.00     0.002 A 
ATOM      6  C6  N4B d   1       0.075   1.856   0.692  0.00  0.00     0.002 A 
ENDROOT
BRANCH   1   7
ATOM      7  C1' N4B d   1       0.037  -0.612   0.768  0.00  0.00     0.057 C 
BRANCH   7   8
ATOM      8  C2' N4B d   1      -0.005  -1.258  -0.614  0.00  0.00     0.009 C 
BRANCH   8   9
ATOM      9  C3' N4B d   1      -0.774  -2.568  -0.605  0.00  0.00     0.004 C 
ATOM     10  C4' N4B d   1      -0.797  -3.237  -1.947  0.00  0.00     0.003 C 
ENDBRANCH   8   9
ENDBRANCH   7   8
ENDBRANCH   1   7
TORSDOF 3
ENDMDL
