MODEL 1
REMARK minimizedAffinity -4.7938118
REMARK minimizedRMSD -1
REMARK  3 active torsions:
REMARK  status: ('A' for Active; 'I' for Inactive)
REMARK    1  A    between atoms: C3'_2  and  C2'_3 
REMARK    2  A    between atoms: C2'_3  and  C1'_4 
REMARK    3  A    between atoms: C1'_4  and  C1_5 
ROOT
ATOM      1  C1  N4B d   1       0.121   0.326   0.156  0.00  0.00    -0.075 A 
ATOM      2  C2  N4B d   1       1.221   0.961  -0.463  0.00  0.00     0.002 A 
ATOM      3  C3  N4B d   1       1.233   2.327  -0.608  0.00  0.00     0.002 A 
ATOM      4  C4  N4B d   1       0.153   3.074  -0.160  0.00  0.00    -0.004 A 
ATOM      5  C5  N4B d   1      -0.893   2.455   0.460  0.00  0.00     0.002 A 
ATOM      6  C6  N4B d   1      -0.917   1.084   0.616  0.00  0.00     0.002 A 
ENDROOT
BRANCH   1   7
ATOM      7  C1' N4B d   1       0.024  -1.171   0.259  0.00  0.00     0.057 C 
BRANCH   7   8
ATOM      8  C2' N4B d   1      -0.016  -1.768  -1.145  0.00  0.00     0.009 C 
BRANCH   8   9
ATOM      9  C3' N4B d   1      -1.087  -2.837  -1.277  0.00  0.00     0.004 C 
ATOM     10  C4' N4B d   1      -1.203  -3.374  -2.672  0.00  0.00     0.003 C 
ENDBRANCH   8   9
ENDBRANCH   7   8
ENDBRANCH   1   7
TORSDOF 3
ENDMDL
