MODEL 1
REMARK minimizedAffinity -4.01738167
REMARK minimizedRMSD -1
REMARK  3 active torsions:
REMARK  status: ('A' for Active; 'I' for Inactive)
REMARK    1  A    between atoms: C3'_2  and  C2'_3 
REMARK    2  A    between atoms: C2'_3  and  C1'_4 
REMARK    3  A    between atoms: C1'_4  and  C1_5 
ROOT
ATOM      1  C1  N4B d   1      -0.123  -1.696  -0.697  0.00  0.00    -0.075 A 
ATOM      2  C2  N4B d   1       0.765  -1.838  -1.786  0.00  0.00     0.002 A 
ATOM      3  C3  N4B d   1       0.433  -2.653  -2.841  0.00  0.00     0.002 A 
ATOM      4  C4  N4B d   1      -0.768  -3.348  -2.819  0.00  0.00    -0.004 A 
ATOM      5  C5  N4B d   1      -1.631  -3.185  -1.775  0.00  0.00     0.002 A 
ATOM      6  C6  N4B d   1      -1.312  -2.366  -0.711  0.00  0.00     0.002 A 
ENDROOT
BRANCH   1   7
ATOM      7  C1' N4B d   1       0.235  -0.884   0.518  0.00  0.00     0.057 C 
BRANCH   7   8
ATOM      8  C2' N4B d   1       0.438   0.571   0.105  0.00  0.00     0.009 C 
BRANCH   8   9
ATOM      9  C3' N4B d   1      -0.652   1.475   0.656  0.00  0.00     0.004 C 
ATOM     10  C4' N4B d   1      -0.413   2.924   0.351  0.00  0.00     0.003 C 
ENDBRANCH   8   9
ENDBRANCH   7   8
ENDBRANCH   1   7
TORSDOF 3
ENDMDL
