MODEL 1
REMARK minimizedAffinity -1.75854373
REMARK minimizedRMSD -1
REMARK  3 active torsions:
REMARK  status: ('A' for Active; 'I' for Inactive)
REMARK    1  A    between atoms: C3'_2  and  C2'_3 
REMARK    2  A    between atoms: C2'_3  and  C1'_4 
REMARK    3  A    between atoms: C1'_4  and  C1_5 
ROOT
ATOM      1  C1  N4B d   1       0.345   1.655  -0.171  0.00  0.00    -0.075 A 
ATOM      2  C2  N4B d   1      -0.522   0.580   0.122  0.00  0.00     0.002 A 
ATOM      3  C3  N4B d   1      -1.415   0.682   1.160  0.00  0.00     0.002 A 
ATOM      4  C4  N4B d   1      -1.446   1.837   1.928  0.00  0.00    -0.004 A 
ATOM      5  C5  N4B d   1      -0.623   2.880   1.622  0.00  0.00     0.002 A 
ATOM      6  C6  N4B d   1       0.277   2.793   0.579  0.00  0.00     0.002 A 
ENDROOT
BRANCH   1   7
ATOM      7  C1' N4B d   1       1.398   1.557  -1.242  0.00  0.00     0.057 C 
BRANCH   7   8
ATOM      8  C2' N4B d   1       2.774   1.485  -0.587  0.00  0.00     0.009 C 
BRANCH   8   9
ATOM      9  C3' N4B d   1       2.743   0.702   0.715  0.00  0.00     0.004 C 
ATOM     10  C4' N4B d   1       3.513  -0.582   0.639  0.00  0.00     0.003 C 
ENDBRANCH   8   9
ENDBRANCH   7   8
ENDBRANCH   1   7
TORSDOF 3
ENDMDL
