MODEL 1
REMARK minimizedAffinity 0.0803214386
REMARK minimizedRMSD -1
REMARK  3 active torsions:
REMARK  status: ('A' for Active; 'I' for Inactive)
REMARK    1  A    between atoms: C3'_2  and  C2'_3 
REMARK    2  A    between atoms: C2'_3  and  C1'_4 
REMARK    3  A    between atoms: C1'_4  and  C1_5 
ROOT
ATOM      1  C1  N4B d   1       0.079   0.052   0.489  0.00  0.00    -0.075 A 
ATOM      2  C2  N4B d   1       1.423   0.370   0.782  0.00  0.00     0.002 A 
ATOM      3  C3  N4B d   1       1.753   1.634   1.206  0.00  0.00     0.002 A 
ATOM      4  C4  N4B d   1       0.763   2.598   1.325  0.00  0.00    -0.004 A 
ATOM      5  C5  N4B d   1      -0.537   2.276   1.065  0.00  0.00     0.002 A 
ATOM      6  C6  N4B d   1      -0.883   1.008   0.642  0.00  0.00     0.002 A 
ENDROOT
BRANCH   1   7
ATOM      7  C1' N4B d   1      -0.318  -1.291  -0.060  0.00  0.00     0.057 C 
BRANCH   7   8
ATOM      8  C2' N4B d   1      -0.674  -1.143  -1.536  0.00  0.00     0.009 C 
BRANCH   8   9
ATOM      9  C3' N4B d   1      -0.894  -2.489  -2.205  0.00  0.00     0.004 C 
ATOM     10  C4' N4B d   1      -1.910  -3.332  -1.494  0.00  0.00     0.003 C 
ENDBRANCH   8   9
ENDBRANCH   7   8
ENDBRANCH   1   7
TORSDOF 3
ENDMDL
