MODEL 1
REMARK minimizedAffinity -5.37857819
REMARK minimizedRMSD -1
REMARK  3 active torsions:
REMARK  status: ('A' for Active; 'I' for Inactive)
REMARK    1  A    between atoms: C3'_2  and  C2'_3 
REMARK    2  A    between atoms: C2'_3  and  C1'_4 
REMARK    3  A    between atoms: C1'_4  and  C1_5 
ROOT
ATOM      1  C1  N4B d   1       0.064   0.510   0.187  0.00  0.00    -0.075 A 
ATOM      2  C2  N4B d   1       0.464   1.136  -1.014  0.00  0.00     0.002 A 
ATOM      3  C3  N4B d   1       0.164   2.458  -1.232  0.00  0.00     0.002 A 
ATOM      4  C4  N4B d   1      -0.548   3.166  -0.276  0.00  0.00    -0.004 A 
ATOM      5  C5  N4B d   1      -0.908   2.561   0.893  0.00  0.00     0.002 A 
ATOM      6  C6  N4B d   1      -0.610   1.234   1.127  0.00  0.00     0.002 A 
ENDROOT
BRANCH   1   7
ATOM      7  C1' N4B d   1       0.294  -0.957   0.432  0.00  0.00     0.057 C 
BRANCH   7   8
ATOM      8  C2' N4B d   1       0.188  -1.709  -0.891  0.00  0.00     0.009 C 
BRANCH   8   9
ATOM      9  C3' N4B d   1      -0.702  -2.934  -0.778  0.00  0.00     0.004 C 
ATOM     10  C4' N4B d   1      -1.254  -3.374  -2.101  0.00  0.00     0.003 C 
ENDBRANCH   8   9
ENDBRANCH   7   8
ENDBRANCH   1   7
TORSDOF 3
ENDMDL
