MODEL 1
REMARK minimizedAffinity -4.10977459
REMARK minimizedRMSD -1
REMARK  3 active torsions:
REMARK  status: ('A' for Active; 'I' for Inactive)
REMARK    1  A    between atoms: C3'_2  and  C2'_3 
REMARK    2  A    between atoms: C2'_3  and  C1'_4 
REMARK    3  A    between atoms: C1'_4  and  C1_5 
ROOT
ATOM      1  C1  N4B d   1       1.179   0.723  -0.367  0.00  0.00    -0.075 A 
ATOM      2  C2  N4B d   1       2.522   1.109  -0.160  0.00  0.00     0.002 A 
ATOM      3  C3  N4B d   1       3.373   0.288   0.538  0.00  0.00     0.002 A 
ATOM      4  C4  N4B d   1       2.901  -0.911   1.051  0.00  0.00    -0.004 A 
ATOM      5  C5  N4B d   1       1.610  -1.289   0.825  0.00  0.00     0.002 A 
ATOM      6  C6  N4B d   1       0.745  -0.475   0.122  0.00  0.00     0.002 A 
ENDROOT
BRANCH   1   7
ATOM      7  C1' N4B d   1       0.189   1.627  -1.049  0.00  0.00     0.057 C 
BRANCH   7   8
ATOM      8  C2' N4B d   1      -0.103   2.822  -0.146  0.00  0.00     0.009 C 
BRANCH   8   9
ATOM      9  C3' N4B d   1      -0.630   2.392   1.212  0.00  0.00     0.004 C 
ATOM     10  C4' N4B d   1      -1.812   1.474   1.113  0.00  0.00     0.003 C 
ENDBRANCH   8   9
ENDBRANCH   7   8
ENDBRANCH   1   7
TORSDOF 3
ENDMDL
