MODEL 1
REMARK minimizedAffinity -1.15273583
REMARK minimizedRMSD -1
REMARK  3 active torsions:
REMARK  status: ('A' for Active; 'I' for Inactive)
REMARK    1  A    between atoms: C3'_2  and  C2'_3 
REMARK    2  A    between atoms: C2'_3  and  C1'_4 
REMARK    3  A    between atoms: C1'_4  and  C1_5 
ROOT
ATOM      1  C1  N4B d   1       0.195   1.084   0.120  0.00  0.00    -0.075 A 
ATOM      2  C2  N4B d   1      -0.899   0.231   0.385  0.00  0.00     0.002 A 
ATOM      3  C3  N4B d   1      -0.685  -1.102   0.639  0.00  0.00     0.002 A 
ATOM      4  C4  N4B d   1       0.607  -1.606   0.615  0.00  0.00    -0.004 A 
ATOM      5  C5  N4B d   1       1.660  -0.770   0.383  0.00  0.00     0.002 A 
ATOM      6  C6  N4B d   1       1.460   0.572   0.130  0.00  0.00     0.002 A 
ENDROOT
BRANCH   1   7
ATOM      7  C1' N4B d   1       0.003   2.530  -0.248  0.00  0.00     0.057 C 
BRANCH   7   8
ATOM      8  C2' N4B d   1       0.012   3.375   1.022  0.00  0.00     0.009 C 
BRANCH   8   9
ATOM      9  C3' N4B d   1      -1.146   3.029   1.943  0.00  0.00     0.004 C 
ATOM     10  C4' N4B d   1      -0.870   3.371   3.376  0.00  0.00     0.003 C 
ENDBRANCH   8   9
ENDBRANCH   7   8
ENDBRANCH   1   7
TORSDOF 3
ENDMDL
