MODEL 1
REMARK minimizedAffinity -4.93310547
REMARK minimizedRMSD -1
REMARK  3 active torsions:
REMARK  status: ('A' for Active; 'I' for Inactive)
REMARK    1  A    between atoms: C3'_2  and  C2'_3 
REMARK    2  A    between atoms: C2'_3  and  C1'_4 
REMARK    3  A    between atoms: C1'_4  and  C1_5 
ROOT
ATOM      1  C1  N4B d   1       0.191   0.491   0.045  0.00  0.00    -0.075 A 
ATOM      2  C2  N4B d   1       1.192   1.414  -0.331  0.00  0.00     0.002 A 
ATOM      3  C3  N4B d   1       0.965   2.763  -0.203  0.00  0.00     0.002 A 
ATOM      4  C4  N4B d   1      -0.256   3.210   0.279  0.00  0.00    -0.004 A 
ATOM      5  C5  N4B d   1      -1.207   2.312   0.664  0.00  0.00     0.002 A 
ATOM      6  C6  N4B d   1      -0.992   0.953   0.544  0.00  0.00     0.002 A 
ENDROOT
BRANCH   1   7
ATOM      7  C1' N4B d   1       0.361  -0.990  -0.158  0.00  0.00     0.057 C 
BRANCH   7   8
ATOM      8  C2' N4B d   1      -0.999  -1.671  -0.033  0.00  0.00     0.009 C 
BRANCH   8   9
ATOM      9  C3' N4B d   1      -1.006  -3.047  -0.677  0.00  0.00     0.004 C 
ATOM     10  C4' N4B d   1      -2.347  -3.420  -1.235  0.00  0.00     0.003 C 
ENDBRANCH   8   9
ENDBRANCH   7   8
ENDBRANCH   1   7
TORSDOF 3
ENDMDL
