MODEL 1
REMARK minimizedAffinity -0.500528157
REMARK minimizedRMSD -1
REMARK  3 active torsions:
REMARK  status: ('A' for Active; 'I' for Inactive)
REMARK    1  A    between atoms: C3'_2  and  C2'_3 
REMARK    2  A    between atoms: C2'_3  and  C1'_4 
REMARK    3  A    between atoms: C1'_4  and  C1_5 
ROOT
ATOM      1  C1  N4B d   1       0.815   0.556   0.777  0.00  0.00    -0.075 A 
ATOM      2  C2  N4B d   1       0.341   1.875   0.951  0.00  0.00     0.002 A 
ATOM      3  C3  N4B d   1      -0.993   2.153   0.778  0.00  0.00     0.002 A 
ATOM      4  C4  N4B d   1      -1.864   1.137   0.415  0.00  0.00    -0.004 A 
ATOM      5  C5  N4B d   1      -1.402  -0.139   0.275  0.00  0.00     0.002 A 
ATOM      6  C6  N4B d   1      -0.065  -0.434   0.449  0.00  0.00     0.002 A 
ENDROOT
BRANCH   1   7
ATOM      7  C1' N4B d   1       2.278   0.219   0.871  0.00  0.00     0.057 C 
BRANCH   7   8
ATOM      8  C2' N4B d   1       3.086   1.512   0.938  0.00  0.00     0.009 C 
BRANCH   8   9
ATOM      9  C3' N4B d   1       4.552   1.284   0.611  0.00  0.00     0.004 C 
ATOM     10  C4' N4B d   1       5.175   2.445  -0.104  0.00  0.00     0.003 C 
ENDBRANCH   8   9
ENDBRANCH   7   8
ENDBRANCH   1   7
TORSDOF 3
ENDMDL
