MODEL 1
REMARK minimizedAffinity -5.02573729
REMARK minimizedRMSD -1
REMARK  3 active torsions:
REMARK  status: ('A' for Active; 'I' for Inactive)
REMARK    1  A    between atoms: C3'_2  and  C2'_3 
REMARK    2  A    between atoms: C2'_3  and  C1'_4 
REMARK    3  A    between atoms: C1'_4  and  C1_5 
ROOT
ATOM      1  C1  N4B d   1      -0.380   0.473  -0.000  0.00  0.00    -0.075 A 
ATOM      2  C2  N4B d   1      -0.482   1.272   1.160  0.00  0.00     0.002 A 
ATOM      3  C3  N4B d   1      -0.337   2.635   1.070  0.00  0.00     0.002 A 
ATOM      4  C4  N4B d   1      -0.071   3.217  -0.160  0.00  0.00    -0.004 A 
ATOM      5  C5  N4B d   1       0.001   2.441  -1.280  0.00  0.00     0.002 A 
ATOM      6  C6  N4B d   1      -0.147   1.071  -1.205  0.00  0.00     0.002 A 
ENDROOT
BRANCH   1   7
ATOM      7  C1' N4B d   1      -0.446  -1.028   0.061  0.00  0.00     0.057 C 
BRANCH   7   8
ATOM      8  C2' N4B d   1       0.371  -1.613  -1.087  0.00  0.00     0.009 C 
BRANCH   8   9
ATOM      9  C3' N4B d   1      -0.158  -2.966  -1.530  0.00  0.00     0.004 C 
ATOM     10  C4' N4B d   1      -1.356  -3.406  -0.744  0.00  0.00     0.003 C 
ENDBRANCH   8   9
ENDBRANCH   7   8
ENDBRANCH   1   7
TORSDOF 3
ENDMDL
