MODEL 1
REMARK minimizedAffinity -3.67232704
REMARK minimizedRMSD -1
REMARK  3 active torsions:
REMARK  status: ('A' for Active; 'I' for Inactive)
REMARK    1  A    between atoms: C3'_2  and  C2'_3 
REMARK    2  A    between atoms: C2'_3  and  C1'_4 
REMARK    3  A    between atoms: C1'_4  and  C1_5 
ROOT
ATOM      1  C1  N4B d   1       0.471  -0.570   0.145  0.00  0.00    -0.075 A 
ATOM      2  C2  N4B d   1       1.773  -0.448   0.678  0.00  0.00     0.002 A 
ATOM      3  C3  N4B d   1       2.539   0.651   0.375  0.00  0.00     0.002 A 
ATOM      4  C4  N4B d   1       2.034   1.627  -0.470  0.00  0.00    -0.004 A 
ATOM      5  C5  N4B d   1       0.766   1.515  -0.960  0.00  0.00     0.002 A 
ATOM      6  C6  N4B d   1      -0.017   0.418  -0.661  0.00  0.00     0.002 A 
ENDROOT
BRANCH   1   7
ATOM      7  C1' N4B d   1      -0.372  -1.794   0.379  0.00  0.00     0.057 C 
BRANCH   7   8
ATOM      8  C2' N4B d   1      -0.569  -2.526  -0.945  0.00  0.00     0.009 C 
BRANCH   8   9
ATOM      9  C3' N4B d   1      -1.540  -3.687  -0.812  0.00  0.00     0.004 C 
ATOM     10  C4' N4B d   1      -2.604  -3.678  -1.869  0.00  0.00     0.003 C 
ENDBRANCH   8   9
ENDBRANCH   7   8
ENDBRANCH   1   7
TORSDOF 3
ENDMDL
