MODEL 1
REMARK minimizedAffinity 10.2646933
REMARK minimizedRMSD -1
REMARK  2 active torsions:
REMARK  status: ('A' for Active; 'I' for Inactive)
REMARK    1  A    between atoms: C2'_3  and  C1'_4 
REMARK    2  A    between atoms: C1'_4  and  C1_5 
ROOT
ATOM      1  C1  I4B d   1       0.815  -2.872  -1.176  0.00  0.00    -0.075 A 
ATOM      2  C2  I4B d   1       0.008  -2.510  -2.226  0.00  0.00     0.003 A 
ATOM      3  C3  I4B d   1      -1.240  -3.150  -2.419  0.00  0.00     0.002 A 
ATOM      4  C4  I4B d   1      -1.617  -4.174  -1.574  0.00  0.00    -0.004 A 
ATOM      5  C5  I4B d   1      -0.808  -4.523  -0.497  0.00  0.00     0.002 A 
ATOM      6  C6  I4B d   1       0.410  -3.860  -0.289  0.00  0.00     0.003 A 
ENDROOT
BRANCH   1   7
ATOM      7  C1' I4B d   1       2.142  -2.198  -1.022  0.00  0.00     0.060 C 
BRANCH   7   8
ATOM      8  C2' I4B d   1       2.013  -1.161   0.075  0.00  0.00    -0.013 C 
ATOM      9  C4' I4B d   1       2.509  -1.697   1.393  0.00  0.00     0.013 C 
ATOM     10  C3' I4B d   1       2.789   0.052  -0.342  0.00  0.00     0.013 C 
ENDBRANCH   7   8
ENDBRANCH   1   7
TORSDOF 2
ENDMDL
