MODEL 1
REMARK minimizedAffinity 7.97778463
REMARK minimizedRMSD -1
REMARK  2 active torsions:
REMARK  status: ('A' for Active; 'I' for Inactive)
REMARK    1  A    between atoms: C2'_3  and  C1'_4 
REMARK    2  A    between atoms: C1'_4  and  C1_5 
ROOT
ATOM      1  C1  I4B d   1       2.180  -0.799  -0.451  0.00  0.00    -0.075 A 
ATOM      2  C2  I4B d   1       1.949   0.313  -1.221  0.00  0.00     0.003 A 
ATOM      3  C3  I4B d   1       2.166   1.607  -0.688  0.00  0.00     0.002 A 
ATOM      4  C4  I4B d   1       2.562   1.743   0.627  0.00  0.00    -0.004 A 
ATOM      5  C5  I4B d   1       2.817   0.613   1.399  0.00  0.00     0.002 A 
ATOM      6  C6  I4B d   1       2.637  -0.666   0.854  0.00  0.00     0.003 A 
ENDROOT
BRANCH   1   7
ATOM      7  C1' I4B d   1       1.909  -2.149  -1.035  0.00  0.00     0.060 C 
BRANCH   7   8
ATOM      8  C2' I4B d   1       1.743  -1.985  -2.532  0.00  0.00    -0.013 C 
ATOM      9  C4' I4B d   1       2.568  -2.994  -3.286  0.00  0.00     0.013 C 
ATOM     10  C3' I4B d   1       0.285  -2.128  -2.854  0.00  0.00     0.013 C 
ENDBRANCH   7   8
ENDBRANCH   1   7
TORSDOF 2
ENDMDL
