MODEL 1
REMARK minimizedAffinity 17.4440556
REMARK minimizedRMSD -1
REMARK  2 active torsions:
REMARK  status: ('A' for Active; 'I' for Inactive)
REMARK    1  A    between atoms: C2'_3  and  C1'_4 
REMARK    2  A    between atoms: C1'_4  and  C1_5 
ROOT
ATOM      1  C1  I4B d   1       3.222   0.858  -0.544  0.00  0.00    -0.075 A 
ATOM      2  C2  I4B d   1       4.008   0.769   0.578  0.00  0.00     0.003 A 
ATOM      3  C3  I4B d   1       3.994  -0.407   1.366  0.00  0.00     0.002 A 
ATOM      4  C4  I4B d   1       3.147  -1.442   1.027  0.00  0.00    -0.004 A 
ATOM      5  C5  I4B d   1       2.368  -1.359  -0.123  0.00  0.00     0.002 A 
ATOM      6  C6  I4B d   1       2.414  -0.207  -0.921  0.00  0.00     0.003 A 
ENDROOT
BRANCH   1   7
ATOM      7  C1' I4B d   1       3.238   2.127  -1.336  0.00  0.00     0.060 C 
BRANCH   7   8
ATOM      8  C2' I4B d   1       4.594   2.246  -2.001  0.00  0.00    -0.013 C 
ATOM      9  C4' I4B d   1       4.677   1.377  -3.228  0.00  0.00     0.013 C 
ATOM     10  C3' I4B d   1       4.816   3.689  -2.344  0.00  0.00     0.013 C 
ENDBRANCH   7   8
ENDBRANCH   1   7
TORSDOF 2
ENDMDL
