MODEL 1
REMARK minimizedAffinity 17.2912712
REMARK minimizedRMSD -1
REMARK  2 active torsions:
REMARK  status: ('A' for Active; 'I' for Inactive)
REMARK    1  A    between atoms: C2'_3  and  C1'_4 
REMARK    2  A    between atoms: C1'_4  and  C1_5 
ROOT
ATOM      1  C1  I4B d   1       3.735   0.806   0.639  0.00  0.00    -0.075 A 
ATOM      2  C2  I4B d   1       3.195  -0.346   1.152  0.00  0.00     0.003 A 
ATOM      3  C3  I4B d   1       2.179  -1.034   0.445  0.00  0.00     0.002 A 
ATOM      4  C4  I4B d   1       1.701  -0.510  -0.739  0.00  0.00    -0.004 A 
ATOM      5  C5  I4B d   1       2.266   0.647  -1.269  0.00  0.00     0.002 A 
ATOM      6  C6  I4B d   1       3.298   1.302  -0.583  0.00  0.00     0.003 A 
ENDROOT
BRANCH   1   7
ATOM      7  C1' I4B d   1       4.783   1.525   1.428  0.00  0.00     0.060 C 
BRANCH   7   8
ATOM      8  C2' I4B d   1       4.397   2.989   1.493  0.00  0.00    -0.013 C 
ATOM      9  C4' I4B d   1       3.525   3.270   2.688  0.00  0.00     0.013 C 
ATOM     10  C3' I4B d   1       5.659   3.798   1.541  0.00  0.00     0.013 C 
ENDBRANCH   7   8
ENDBRANCH   1   7
TORSDOF 2
ENDMDL
