MODEL 1
REMARK minimizedAffinity 17.4847546
REMARK minimizedRMSD -1
REMARK  2 active torsions:
REMARK  status: ('A' for Active; 'I' for Inactive)
REMARK    1  A    between atoms: C2'_3  and  C1'_4 
REMARK    2  A    between atoms: C1'_4  and  C1_5 
ROOT
ATOM      1  C1  I4B d   1       2.860   3.460   3.104  0.00  0.00    -0.075 A 
ATOM      2  C2  I4B d   1       2.247   2.743   4.102  0.00  0.00     0.003 A 
ATOM      3  C3  I4B d   1       1.512   3.411   5.111  0.00  0.00     0.002 A 
ATOM      4  C4  I4B d   1       1.459   4.790   5.113  0.00  0.00    -0.004 A 
ATOM      5  C5  I4B d   1       2.061   5.514   4.088  0.00  0.00     0.002 A 
ATOM      6  C6  I4B d   1       2.756   4.844   3.070  0.00  0.00     0.003 A 
ENDROOT
BRANCH   1   7
ATOM      7  C1' I4B d   1       3.656   2.724   2.073  0.00  0.00     0.060 C 
BRANCH   7   8
ATOM      8  C2' I4B d   1       2.684   2.013   1.154  0.00  0.00    -0.013 C 
ATOM      9  C4' I4B d   1       2.724   2.593  -0.236  0.00  0.00     0.013 C 
ATOM     10  C3' I4B d   1       3.039   0.556   1.143  0.00  0.00     0.013 C 
ENDBRANCH   7   8
ENDBRANCH   1   7
TORSDOF 2
ENDMDL
