MODEL 1
REMARK minimizedAffinity 13.430398
REMARK minimizedRMSD -1
REMARK  1 active torsions:
REMARK  status: ('A' for Active; 'I' for Inactive)
REMARK    1  A    between atoms: C1_2  and  C2_3 
ROOT
ATOM      1  C2  UNL d   1      -0.106   1.790   2.503  0.00  0.00    -0.076 A 
ATOM      2  C3  UNL d   1       1.192   1.249   2.508  0.00  0.00     0.004 A 
ATOM      3  C4  UNL d   1       1.523   0.188   3.349  0.00  0.00    -0.003 A 
ATOM      4  C5  UNL d   1       0.563  -0.349   4.198  0.00  0.00     0.000 A 
ATOM      5  C6  UNL d   1      -0.734   0.163   4.194  0.00  0.00     0.000 A 
ATOM      6  C7  UNL d   1      -1.090   1.222   3.340  0.00  0.00    -0.073 A 
ATOM      7  C8  UNL d   1      -2.501   1.739   3.381  0.00  0.00     0.078 C 
ENDROOT
BRANCH   1   8
ATOM      8  C1  UNL d   1      -0.400   2.958   1.589  0.00  0.00     0.053 C 
ATOM      9  C   UNL d   1       0.154   2.756   0.188  0.00  0.00     0.018 C 
ENDBRANCH   1   8
TORSDOF 1
ENDMDL
