MODEL 1
REMARK minimizedAffinity 13.3827181
REMARK minimizedRMSD -1
REMARK  1 active torsions:
REMARK  status: ('A' for Active; 'I' for Inactive)
REMARK    1  A    between atoms: C1_2  and  C2_3 
ROOT
ATOM      1  C2  UNL d   1       0.580   3.429   0.039  0.00  0.00    -0.076 A 
ATOM      2  C3  UNL d   1       1.142   4.330  -0.881  0.00  0.00     0.004 A 
ATOM      3  C4  UNL d   1       0.604   5.604  -1.057  0.00  0.00    -0.003 A 
ATOM      4  C5  UNL d   1      -0.504   5.997  -0.315  0.00  0.00     0.000 A 
ATOM      5  C6  UNL d   1      -1.064   5.122   0.615  0.00  0.00     0.000 A 
ATOM      6  C7  UNL d   1      -0.524   3.840   0.816  0.00  0.00    -0.073 A 
ATOM      7  C8  UNL d   1      -1.171   2.935   1.828  0.00  0.00     0.078 C 
ENDROOT
BRANCH   1   8
ATOM      8  C1  UNL d   1       1.190   2.051   0.168  0.00  0.00     0.053 C 
ATOM      9  C   UNL d   1       0.606   1.061  -0.829  0.00  0.00     0.018 C 
ENDBRANCH   1   8
TORSDOF 1
ENDMDL
