MODEL 1
REMARK minimizedAffinity 4.27571344
REMARK minimizedRMSD -1
REMARK  1 active torsions:
REMARK  status: ('A' for Active; 'I' for Inactive)
REMARK    1  A    between atoms: C1_2  and  C2_3 
ROOT
ATOM      1  C2  UNL d   1       0.060   1.574   1.180  0.00  0.00    -0.076 A 
ATOM      2  C3  UNL d   1       1.050   0.672   0.753  0.00  0.00     0.004 A 
ATOM      3  C4  UNL d   1       1.403  -0.428   1.534  0.00  0.00    -0.003 A 
ATOM      4  C5  UNL d   1       0.772  -0.643   2.754  0.00  0.00     0.000 A 
ATOM      5  C6  UNL d   1      -0.225   0.233   3.185  0.00  0.00     0.000 A 
ATOM      6  C7  UNL d   1      -0.604   1.336   2.402  0.00  0.00    -0.073 A 
ATOM      7  C8  UNL d   1      -1.681   2.251   2.918  0.00  0.00     0.078 C 
ENDROOT
BRANCH   1   8
ATOM      8  C1  UNL d   1      -0.262   2.763   0.304  0.00  0.00     0.053 C 
ATOM      9  C   UNL d   1      -0.621   2.359  -1.118  0.00  0.00     0.018 C 
ENDBRANCH   1   8
TORSDOF 1
ENDMDL
