MODEL 1
REMARK minimizedAffinity 15.6473522
REMARK minimizedRMSD -1
REMARK  1 active torsions:
REMARK  status: ('A' for Active; 'I' for Inactive)
REMARK    1  A    between atoms: C1_2  and  C2_3 
ROOT
ATOM      1  C2  UNL d   1       3.076  -3.676  -0.396  0.00  0.00    -0.076 A 
ATOM      2  C3  UNL d   1       4.481  -3.711  -0.432  0.00  0.00     0.004 A 
ATOM      3  C4  UNL d   1       5.157  -4.785  -1.008  0.00  0.00    -0.003 A 
ATOM      4  C5  UNL d   1       4.439  -5.841  -1.559  0.00  0.00     0.000 A 
ATOM      5  C6  UNL d   1       3.045  -5.814  -1.548  0.00  0.00     0.000 A 
ATOM      6  C7  UNL d   1       2.348  -4.731  -0.986  0.00  0.00    -0.073 A 
ATOM      7  C8  UNL d   1       0.844  -4.757  -0.996  0.00  0.00     0.078 C 
ENDROOT
BRANCH   1   8
ATOM      8  C1  UNL d   1       2.397  -2.498   0.266  0.00  0.00     0.053 C 
ATOM      9  C   UNL d   1       3.152  -1.195   0.053  0.00  0.00     0.018 C 
ENDBRANCH   1   8
TORSDOF 1
ENDMDL
