MODEL 1
REMARK minimizedAffinity 7.3668642
REMARK minimizedRMSD -1
REMARK  1 active torsions:
REMARK  status: ('A' for Active; 'I' for Inactive)
REMARK    1  A    between atoms: C1_2  and  C2_3 
ROOT
ATOM      1  C2  UNL d   1      -2.064   2.124  -2.113  0.00  0.00    -0.076 A 
ATOM      2  C3  UNL d   1      -1.032   3.070  -2.245  0.00  0.00     0.004 A 
ATOM      3  C4  UNL d   1      -0.064   3.217  -1.254  0.00  0.00    -0.003 A 
ATOM      4  C5  UNL d   1      -0.110   2.421  -0.115  0.00  0.00     0.000 A 
ATOM      5  C6  UNL d   1      -1.116   1.466   0.025  0.00  0.00     0.000 A 
ATOM      6  C7  UNL d   1      -2.091   1.293  -0.973  0.00  0.00    -0.073 A 
ATOM      7  C8  UNL d   1      -3.157   0.251  -0.767  0.00  0.00     0.078 C 
ENDROOT
BRANCH   1   8
ATOM      8  C1  UNL d   1      -3.103   2.028  -3.207  0.00  0.00     0.053 C 
ATOM      9  C   UNL d   1      -3.528   3.392  -3.729  0.00  0.00     0.018 C 
ENDBRANCH   1   8
TORSDOF 1
ENDMDL
