MODEL 1
REMARK minimizedAffinity 7.1281476
REMARK minimizedRMSD -1
REMARK  1 active torsions:
REMARK  status: ('A' for Active; 'I' for Inactive)
REMARK    1  A    between atoms: C1_2  and  C2_3 
ROOT
ATOM      1  C2  UNL d   1       0.122   3.608  -0.897  0.00  0.00    -0.076 A 
ATOM      2  C3  UNL d   1       1.028   3.551   0.176  0.00  0.00     0.004 A 
ATOM      3  C4  UNL d   1       0.751   2.788   1.309  0.00  0.00    -0.003 A 
ATOM      4  C5  UNL d   1      -0.437   2.069   1.387  0.00  0.00     0.000 A 
ATOM      5  C6  UNL d   1      -1.339   2.100   0.324  0.00  0.00     0.000 A 
ATOM      6  C7  UNL d   1      -1.068   2.851  -0.832  0.00  0.00    -0.073 A 
ATOM      7  C8  UNL d   1      -2.079   2.853  -1.946  0.00  0.00     0.078 C 
ENDROOT
BRANCH   1   8
ATOM      8  C1  UNL d   1       0.464   4.474  -2.089  0.00  0.00     0.053 C 
ATOM      9  C   UNL d   1       0.879   5.881  -1.687  0.00  0.00     0.018 C 
ENDBRANCH   1   8
TORSDOF 1
ENDMDL
