MODEL 1
REMARK minimizedAffinity 1.47457874
REMARK minimizedRMSD -1
REMARK  1 active torsions:
REMARK  status: ('A' for Active; 'I' for Inactive)
REMARK    1  A    between atoms: C1_2  and  C2_3 
ROOT
ATOM      1  C2  UNL d   1       0.121   1.149  -0.440  0.00  0.00    -0.076 A 
ATOM      2  C3  UNL d   1      -0.792   2.015  -1.067  0.00  0.00     0.004 A 
ATOM      3  C4  UNL d   1      -1.076   1.894  -2.426  0.00  0.00    -0.003 A 
ATOM      4  C5  UNL d   1      -0.453   0.906  -3.180  0.00  0.00     0.000 A 
ATOM      5  C6  UNL d   1       0.442   0.028  -2.571  0.00  0.00     0.000 A 
ATOM      6  C7  UNL d   1       0.728   0.125  -1.198  0.00  0.00    -0.073 A 
ATOM      7  C8  UNL d   1       1.706  -0.845  -0.594  0.00  0.00     0.078 C 
ENDROOT
BRANCH   1   8
ATOM      8  C1  UNL d   1       0.410   1.345   1.031  0.00  0.00     0.053 C 
ATOM      9  C   UNL d   1      -0.640   2.200   1.723  0.00  0.00     0.018 C 
ENDBRANCH   1   8
TORSDOF 1
ENDMDL
