MODEL 1
REMARK minimizedAffinity 5.7051897
REMARK minimizedRMSD -1
REMARK  1 active torsions:
REMARK  status: ('A' for Active; 'I' for Inactive)
REMARK    1  A    between atoms: C1_2  and  C2_3 
ROOT
ATOM      1  C2  UNL d   1      -5.156  -1.008   3.136  0.00  0.00    -0.076 A 
ATOM      2  C3  UNL d   1      -5.157  -2.405   3.287  0.00  0.00     0.004 A 
ATOM      3  C4  UNL d   1      -5.563  -2.997   4.482  0.00  0.00    -0.003 A 
ATOM      4  C5  UNL d   1      -5.976  -2.201   5.545  0.00  0.00     0.000 A 
ATOM      5  C6  UNL d   1      -5.999  -0.814   5.406  0.00  0.00     0.000 A 
ATOM      6  C7  UNL d   1      -5.608  -0.202   4.203  0.00  0.00    -0.073 A 
ATOM      7  C8  UNL d   1      -5.646   1.299   4.111  0.00  0.00     0.078 C 
ENDROOT
BRANCH   1   8
ATOM      8  C1  UNL d   1      -4.679  -0.422   1.826  0.00  0.00     0.053 C 
ATOM      9  C   UNL d   1      -5.583   0.694   1.324  0.00  0.00     0.018 C 
ENDBRANCH   1   8
TORSDOF 1
ENDMDL
