MODEL 1
REMARK minimizedAffinity -3.86670494
REMARK minimizedRMSD -1
REMARK  0 active torsions:
REMARK  status: ('A' for Active; 'I' for Inactive)
ROOT
ATOM      1  C   UNL d   1      -0.881  -0.168  -0.641  0.00  0.00     0.172 C 
ATOM      2  N   UNL d   1       0.507  -0.082  -0.250  0.00  0.00    -0.070 N 
ATOM      3  C1  UNL d   1       1.165   1.062   0.114  0.00  0.00    -0.004 A 
ATOM      4  C2  UNL d   1       2.467   0.723   0.413  0.00  0.00    -0.047 A 
ATOM      5  C3  UNL d   1       2.596  -0.673   0.221  0.00  0.00    -0.047 A 
ATOM      6  C4  UNL d   1       1.368  -1.146  -0.190  0.00  0.00    -0.004 A 
ENDROOT
TORSDOF 0
ENDMDL
