MODEL 1
REMARK minimizedAffinity -1.01639998
REMARK minimizedRMSD -1
REMARK  0 active torsions:
REMARK  status: ('A' for Active; 'I' for Inactive)
ROOT
ATOM      1  C   UNL d   1       2.869   0.341   1.139  0.00  0.00     0.172 C 
ATOM      2  N   UNL d   1       1.475   0.193   0.791  0.00  0.00    -0.070 N 
ATOM      3  C1  UNL d   1       0.619   1.214   0.475  0.00  0.00    -0.004 A 
ATOM      4  C2  UNL d   1      -0.615   0.662   0.206  0.00  0.00    -0.047 A 
ATOM      5  C3  UNL d   1      -0.496  -0.739   0.367  0.00  0.00    -0.047 A 
ATOM      6  C4  UNL d   1       0.808  -1.002   0.729  0.00  0.00    -0.004 A 
ENDROOT
TORSDOF 0
ENDMDL
