MODEL 1
REMARK minimizedAffinity -3.86007595
REMARK minimizedRMSD -1
REMARK  0 active torsions:
REMARK  status: ('A' for Active; 'I' for Inactive)
ROOT
ATOM      1  C   UNL d   1       0.515   0.757  -0.045  0.00  0.00     0.172 C 
ATOM      2  N   UNL d   1       1.333  -0.155   0.719  0.00  0.00    -0.070 N 
ATOM      3  C1  UNL d   1       2.629   0.065   1.102  0.00  0.00    -0.004 A 
ATOM      4  C2  UNL d   1       3.053  -1.037   1.812  0.00  0.00    -0.047 A 
ATOM      5  C3  UNL d   1       1.974  -1.952   1.856  0.00  0.00    -0.047 A 
ATOM      6  C4  UNL d   1       0.922  -1.381   1.172  0.00  0.00    -0.004 A 
ENDROOT
TORSDOF 0
ENDMDL
