MODEL 1
REMARK minimizedAffinity -2.85248041
REMARK minimizedRMSD -1
REMARK  0 active torsions:
REMARK  status: ('A' for Active; 'I' for Inactive)
ROOT
ATOM      1  C   UNL d   1       3.043   0.063   0.949  0.00  0.00     0.172 C 
ATOM      2  N   UNL d   1       1.704   0.100   0.409  0.00  0.00    -0.070 N 
ATOM      3  C1  UNL d   1       1.021   1.231   0.046  0.00  0.00    -0.004 A 
ATOM      4  C2  UNL d   1      -0.217   0.844  -0.420  0.00  0.00    -0.047 A 
ATOM      5  C3  UNL d   1      -0.280  -0.567  -0.333  0.00  0.00    -0.047 A 
ATOM      6  C4  UNL d   1       0.922  -1.001   0.183  0.00  0.00    -0.004 A 
ENDROOT
TORSDOF 0
ENDMDL
