MODEL 1
REMARK minimizedAffinity -3.32885957
REMARK minimizedRMSD -1
REMARK  0 active torsions:
REMARK  status: ('A' for Active; 'I' for Inactive)
ROOT
ATOM      1  C   UNL d   1       0.590  -2.211   1.342  0.00  0.00     0.172 C 
ATOM      2  N   UNL d   1       0.997  -0.919   0.843  0.00  0.00    -0.070 N 
ATOM      3  C1  UNL d   1       0.173   0.010   0.265  0.00  0.00    -0.004 A 
ATOM      4  C2  UNL d   1       0.941   1.103  -0.073  0.00  0.00    -0.047 A 
ATOM      5  C3  UNL d   1       2.273   0.822   0.315  0.00  0.00    -0.047 A 
ATOM      6  C4  UNL d   1       2.279  -0.436   0.879  0.00  0.00    -0.004 A 
ENDROOT
TORSDOF 0
ENDMDL
