MODEL 1
REMARK minimizedAffinity -3.04636002
REMARK minimizedRMSD -1
REMARK  0 active torsions:
REMARK  status: ('A' for Active; 'I' for Inactive)
ROOT
ATOM      1  C   UNL d   1       1.108  -0.017   0.230  0.00  0.00     0.172 C 
ATOM      2  N   UNL d   1      -0.116   0.090  -0.530  0.00  0.00    -0.070 N 
ATOM      3  C1  UNL d   1      -1.360  -0.279  -0.094  0.00  0.00    -0.004 A 
ATOM      4  C2  UNL d   1      -2.256  -0.019  -1.109  0.00  0.00    -0.047 A 
ATOM      5  C3  UNL d   1      -1.525   0.523  -2.192  0.00  0.00    -0.047 A 
ATOM      6  C4  UNL d   1      -0.202   0.580  -1.806  0.00  0.00    -0.004 A 
ENDROOT
TORSDOF 0
ENDMDL
