MODEL 1
REMARK minimizedAffinity -3.6932292
REMARK minimizedRMSD -1
REMARK  0 active torsions:
REMARK  status: ('A' for Active; 'I' for Inactive)
ROOT
ATOM      1  C   UNL d   1      -1.262  -0.079  -0.637  0.00  0.00     0.172 C 
ATOM      2  N   UNL d   1       0.034  -0.069   0.002  0.00  0.00    -0.070 N 
ATOM      3  C1  UNL d   1       0.616   1.011   0.609  0.00  0.00    -0.004 A 
ATOM      4  C2  UNL d   1       1.843   0.612   1.093  0.00  0.00    -0.047 A 
ATOM      5  C3  UNL d   1       2.004  -0.754   0.764  0.00  0.00    -0.047 A 
ATOM      6  C4  UNL d   1       0.869  -1.151   0.089  0.00  0.00    -0.004 A 
ENDROOT
TORSDOF 0
ENDMDL
