MODEL 1
REMARK minimizedAffinity 0.94609499
REMARK minimizedRMSD -1
REMARK  1 active torsions:
REMARK  status: ('A' for Active; 'I' for Inactive)
REMARK    1  A    between atoms: C1_2  and  C2_3 
ROOT
ATOM      1  C2  UNL d   1      -1.866  -1.889  -1.529  0.00  0.00    -0.073 A 
ATOM      2  C3  UNL d   1      -0.931  -2.266  -2.500  0.00  0.00    -0.002 A 
ATOM      3  C4  UNL d   1       0.362  -2.633  -2.129  0.00  0.00     0.004 A 
ATOM      4  C5  UNL d   1       0.733  -2.634  -0.784  0.00  0.00    -0.004 A 
ATOM      5  C6  UNL d   1      -0.190  -2.272   0.202  0.00  0.00    -0.075 A 
ATOM      6  C7  UNL d   1       0.193  -2.265   1.653  0.00  0.00     0.076 C 
ATOM      7  C8  UNL d   1      -1.487  -1.901  -0.179  0.00  0.00     0.001 A 
ENDROOT
BRANCH   1   8
ATOM      8  C1  UNL d   1      -3.266  -1.497  -1.926  0.00  0.00     0.053 C 
ATOM      9  C   UNL d   1      -3.275  -0.474  -3.050  0.00  0.00     0.018 C 
ENDBRANCH   1   8
TORSDOF 1
ENDMDL
