MODEL 1
REMARK minimizedAffinity -0.458014816
REMARK minimizedRMSD -1
REMARK  1 active torsions:
REMARK  status: ('A' for Active; 'I' for Inactive)
REMARK    1  A    between atoms: C1_2  and  C2_3 
ROOT
ATOM      1  C2  UNL d   1       0.991  -0.560   1.258  0.00  0.00    -0.073 A 
ATOM      2  C3  UNL d   1       2.147  -0.540   2.046  0.00  0.00    -0.002 A 
ATOM      3  C4  UNL d   1       3.010   0.555   2.004  0.00  0.00     0.004 A 
ATOM      4  C5  UNL d   1       2.724   1.643   1.181  0.00  0.00    -0.004 A 
ATOM      5  C6  UNL d   1       1.568   1.648   0.394  0.00  0.00    -0.075 A 
ATOM      6  C7  UNL d   1       1.246   2.810  -0.499  0.00  0.00     0.076 C 
ATOM      7  C8  UNL d   1       0.707   0.543   0.440  0.00  0.00     0.001 A 
ENDROOT
BRANCH   1   8
ATOM      8  C1  UNL d   1       0.052  -1.738   1.304  0.00  0.00     0.053 C 
ATOM      9  C   UNL d   1      -1.332  -1.384   0.783  0.00  0.00     0.018 C 
ENDBRANCH   1   8
TORSDOF 1
ENDMDL
