MODEL 1
REMARK minimizedAffinity 0.560584784
REMARK minimizedRMSD -1
REMARK  1 active torsions:
REMARK  status: ('A' for Active; 'I' for Inactive)
REMARK    1  A    between atoms: C1_2  and  C2_3 
ROOT
ATOM      1  C2  UNL d   1       0.603   0.461   1.192  0.00  0.00    -0.073 A 
ATOM      2  C3  UNL d   1       1.705   0.191   2.012  0.00  0.00    -0.002 A 
ATOM      3  C4  UNL d   1       2.907   0.873   1.823  0.00  0.00     0.004 A 
ATOM      4  C5  UNL d   1       3.019   1.836   0.820  0.00  0.00    -0.004 A 
ATOM      5  C6  UNL d   1       1.925   2.128  -0.002  0.00  0.00    -0.075 A 
ATOM      6  C7  UNL d   1       2.029   3.159  -1.087  0.00  0.00     0.076 C 
ATOM      7  C8  UNL d   1       0.722   1.437   0.192  0.00  0.00     0.001 A 
ENDROOT
BRANCH   1   8
ATOM      8  C1  UNL d   1      -0.700  -0.269   1.396  0.00  0.00     0.053 C 
ATOM      9  C   UNL d   1      -0.485  -1.697   1.872  0.00  0.00     0.018 C 
ENDBRANCH   1   8
TORSDOF 1
ENDMDL
