MODEL 1
REMARK minimizedAffinity 2.07020831
REMARK minimizedRMSD -1
REMARK  1 active torsions:
REMARK  status: ('A' for Active; 'I' for Inactive)
REMARK    1  A    between atoms: C1_2  and  C2_3 
ROOT
ATOM      1  C2  UNL d   1       1.115  -1.589   2.803  0.00  0.00    -0.073 A 
ATOM      2  C3  UNL d   1       1.196  -1.743   1.414  0.00  0.00    -0.002 A 
ATOM      3  C4  UNL d   1       1.515  -0.654   0.602  0.00  0.00     0.004 A 
ATOM      4  C5  UNL d   1       1.762   0.596   1.169  0.00  0.00    -0.004 A 
ATOM      5  C6  UNL d   1       1.698   0.767   2.556  0.00  0.00    -0.075 A 
ATOM      6  C7  UNL d   1       1.959   2.106   3.181  0.00  0.00     0.076 C 
ATOM      7  C8  UNL d   1       1.375  -0.331   3.364  0.00  0.00     0.001 A 
ENDROOT
BRANCH   1   8
ATOM      8  C1  UNL d   1       0.778  -2.764   3.685  0.00  0.00     0.053 C 
ATOM      9  C   UNL d   1       1.862  -3.830   3.653  0.00  0.00     0.018 C 
ENDBRANCH   1   8
TORSDOF 1
ENDMDL
