MODEL 1
REMARK minimizedAffinity 1.42574036
REMARK minimizedRMSD -1
REMARK  1 active torsions:
REMARK  status: ('A' for Active; 'I' for Inactive)
REMARK    1  A    between atoms: C1_2  and  C2_3 
ROOT
ATOM      1  C2  UNL d   1       1.476  -0.302   2.271  0.00  0.00    -0.073 A 
ATOM      2  C3  UNL d   1       0.622  -0.328   1.162  0.00  0.00    -0.002 A 
ATOM      3  C4  UNL d   1      -0.044  -1.504   0.814  0.00  0.00     0.004 A 
ATOM      4  C5  UNL d   1       0.130  -2.661   1.573  0.00  0.00    -0.004 A 
ATOM      5  C6  UNL d   1       0.970  -2.651   2.691  0.00  0.00    -0.075 A 
ATOM      6  C7  UNL d   1       1.170  -3.888   3.517  0.00  0.00     0.076 C 
ATOM      7  C8  UNL d   1       1.638  -1.468   3.033  0.00  0.00     0.001 A 
ENDROOT
BRANCH   1   8
ATOM      8  C1  UNL d   1       2.193   0.967   2.655  0.00  0.00     0.053 C 
ATOM      9  C   UNL d   1       2.200   1.184   4.160  0.00  0.00     0.018 C 
ENDBRANCH   1   8
TORSDOF 1
ENDMDL
