MODEL 1
REMARK minimizedAffinity 16.8836651
REMARK minimizedRMSD -1
REMARK  0 active torsions:
REMARK  status: ('A' for Active; 'I' for Inactive)
ROOT
ATOM      1  C   UNL d   1      -2.023  -1.812  -4.309  0.00  0.00     0.124 A 
ATOM      2  C1  UNL d   1      -2.800  -1.522  -3.197  0.00  0.00     0.062 A 
ATOM      3  C2  UNL d   1      -2.306  -0.693  -2.194  0.00  0.00     0.162 A 
ATOM      4  C3  UNL d   1      -1.027  -0.147  -2.299  0.00  0.00    -0.034 A 
ATOM      5  C4  UNL d   1      -0.250  -0.444  -3.420  0.00  0.00     0.162 A 
ATOM      6  C5  UNL d   1      -0.749  -1.273  -4.420  0.00  0.00     0.062 A 
ATOM      7  F   UNL d   1       0.004  -1.552  -5.494  0.00  0.00    -0.097 F 
ATOM      8  F1  UNL d   1       0.984   0.065  -3.554  0.00  0.00    -0.096 F 
ATOM      9  I   UNL d   1      -0.284   1.093  -0.802  0.00  0.00    -0.060 I 
ATOM     10  F2  UNL d   1      -3.080  -0.430  -1.130  0.00  0.00    -0.096 F 
ATOM     11  F3  UNL d   1      -4.031  -2.043  -3.087  0.00  0.00    -0.097 F 
ATOM     12  F4  UNL d   1      -2.500  -2.611  -5.272  0.00  0.00    -0.092 F 
ENDROOT
TORSDOF 0
ENDMDL
