MODEL 1
REMARK minimizedAffinity 11.5304966
REMARK minimizedRMSD -1
REMARK  0 active torsions:
REMARK  status: ('A' for Active; 'I' for Inactive)
ROOT
ATOM      1  C   UNL d   1      -0.877  -0.221   2.562  0.00  0.00     0.124 A 
ATOM      2  C1  UNL d   1      -0.467   1.011   3.051  0.00  0.00     0.062 A 
ATOM      3  C2  UNL d   1       0.428   1.790   2.324  0.00  0.00     0.162 A 
ATOM      4  C3  UNL d   1       0.919   1.340   1.098  0.00  0.00    -0.034 A 
ATOM      5  C4  UNL d   1       0.503   0.099   0.613  0.00  0.00     0.162 A 
ATOM      6  C5  UNL d   1      -0.392  -0.676   1.344  0.00  0.00     0.062 A 
ATOM      7  F   UNL d   1      -0.787  -1.866   0.869  0.00  0.00    -0.097 F 
ATOM      8  F1  UNL d   1       0.955  -0.364  -0.562  0.00  0.00    -0.096 F 
ATOM      9  I   UNL d   1       2.258   2.502   0.008  0.00  0.00    -0.060 I 
ATOM     10  F2  UNL d   1       0.807   2.977   2.821  0.00  0.00    -0.096 F 
ATOM     11  F3  UNL d   1      -0.933   1.452   4.228  0.00  0.00    -0.097 F 
ATOM     12  F4  UNL d   1      -1.738  -0.969   3.264  0.00  0.00    -0.092 F 
ENDROOT
TORSDOF 0
ENDMDL
