MODEL 1
REMARK minimizedAffinity 7.45389605
REMARK minimizedRMSD -1
REMARK  0 active torsions:
REMARK  status: ('A' for Active; 'I' for Inactive)
ROOT
ATOM      1  C   UNL d   1      -0.386  -1.576  -3.693  0.00  0.00     0.124 A 
ATOM      2  C1  UNL d   1      -1.699  -1.384  -3.288  0.00  0.00     0.062 A 
ATOM      3  C2  UNL d   1      -1.986  -1.087  -1.959  0.00  0.00     0.162 A 
ATOM      4  C3  UNL d   1      -0.957  -0.978  -1.025  0.00  0.00    -0.034 A 
ATOM      5  C4  UNL d   1       0.362  -1.172  -1.439  0.00  0.00     0.162 A 
ATOM      6  C5  UNL d   1       0.644  -1.470  -2.768  0.00  0.00     0.062 A 
ATOM      7  F   UNL d   1       1.914  -1.654  -3.158  0.00  0.00    -0.097 F 
ATOM      8  F1  UNL d   1       1.376  -1.075  -0.566  0.00  0.00    -0.096 F 
ATOM      9  I   UNL d   1      -1.381  -0.533   0.964  0.00  0.00    -0.060 I 
ATOM     10  F2  UNL d   1      -3.265  -0.907  -1.596  0.00  0.00    -0.096 F 
ATOM     11  F3  UNL d   1      -2.696  -1.487  -4.180  0.00  0.00    -0.097 F 
ATOM     12  F4  UNL d   1      -0.113  -1.863  -4.972  0.00  0.00    -0.092 F 
ENDROOT
TORSDOF 0
ENDMDL
