MODEL 1
REMARK minimizedAffinity 6.569139
REMARK minimizedRMSD -1
REMARK  0 active torsions:
REMARK  status: ('A' for Active; 'I' for Inactive)
ROOT
ATOM      1  C   UNL d   1      -2.537   5.979  -1.800  0.00  0.00     0.124 A 
ATOM      2  C1  UNL d   1      -3.187   5.986  -3.026  0.00  0.00     0.062 A 
ATOM      3  C2  UNL d   1      -2.452   5.992  -4.208  0.00  0.00     0.162 A 
ATOM      4  C3  UNL d   1      -1.058   5.990  -4.169  0.00  0.00    -0.034 A 
ATOM      5  C4  UNL d   1      -0.411   5.984  -2.932  0.00  0.00     0.162 A 
ATOM      6  C5  UNL d   1      -1.150   5.978  -1.754  0.00  0.00     0.062 A 
ATOM      7  F   UNL d   1      -0.520   5.971  -0.570  0.00  0.00    -0.097 F 
ATOM      8  F1  UNL d   1       0.928   5.982  -2.859  0.00  0.00    -0.096 F 
ATOM      9  I   UNL d   1       0.045   5.999  -5.935  0.00  0.00    -0.060 I 
ATOM     10  F2  UNL d   1      -3.107   5.999  -5.378  0.00  0.00    -0.096 F 
ATOM     11  F3  UNL d   1      -4.527   5.988  -3.073  0.00  0.00    -0.097 F 
ATOM     12  F4  UNL d   1      -3.247   5.974  -0.664  0.00  0.00    -0.092 F 
ENDROOT
TORSDOF 0
ENDMDL
