MODEL 1
REMARK minimizedAffinity 17.8593979
REMARK minimizedRMSD -1
REMARK  0 active torsions:
REMARK  status: ('A' for Active; 'I' for Inactive)
ROOT
ATOM      1  C   UNL d   1       4.140   2.993  -3.962  0.00  0.00     0.124 A 
ATOM      2  C1  UNL d   1       2.783   2.750  -3.801  0.00  0.00     0.062 A 
ATOM      3  C2  UNL d   1       1.846   3.600  -4.381  0.00  0.00     0.162 A 
ATOM      4  C3  UNL d   1       2.263   4.701  -5.129  0.00  0.00    -0.034 A 
ATOM      5  C4  UNL d   1       3.630   4.939  -5.286  0.00  0.00     0.162 A 
ATOM      6  C5  UNL d   1       4.562   4.087  -4.704  0.00  0.00     0.062 A 
ATOM      7  F   UNL d   1       5.873   4.323  -4.861  0.00  0.00    -0.097 F 
ATOM      8  F1  UNL d   1       4.065   5.989  -5.999  0.00  0.00    -0.096 F 
ATOM      9  I   UNL d   1       0.865   5.974  -5.999  0.00  0.00    -0.060 I 
ATOM     10  F2  UNL d   1       0.542   3.340  -4.209  0.00  0.00    -0.096 F 
ATOM     11  F3  UNL d   1       2.373   1.694  -3.083  0.00  0.00    -0.097 F 
ATOM     12  F4  UNL d   1       5.040   2.174  -3.401  0.00  0.00    -0.092 F 
ENDROOT
TORSDOF 0
ENDMDL
