MODEL 1
REMARK minimizedAffinity 19.5531654
REMARK minimizedRMSD -1
REMARK  0 active torsions:
REMARK  status: ('A' for Active; 'I' for Inactive)
ROOT
ATOM      1  C   UNL d   1      -0.991   0.216   1.169  0.00  0.00     0.124 A 
ATOM      2  C1  UNL d   1       0.343  -0.069   1.425  0.00  0.00     0.062 A 
ATOM      3  C2  UNL d   1       1.345   0.749   0.911  0.00  0.00     0.162 A 
ATOM      4  C3  UNL d   1       1.016   1.862   0.137  0.00  0.00    -0.034 A 
ATOM      5  C4  UNL d   1      -0.328   2.141  -0.118  0.00  0.00     0.162 A 
ATOM      6  C5  UNL d   1      -1.325   1.320   0.398  0.00  0.00     0.062 A 
ATOM      7  F   UNL d   1      -2.613   1.597   0.149  0.00  0.00    -0.097 F 
ATOM      8  F1  UNL d   1      -0.679   3.203  -0.859  0.00  0.00    -0.096 F 
ATOM      9  I   UNL d   1       2.511   3.088  -0.633  0.00  0.00    -0.060 I 
ATOM     10  F2  UNL d   1       2.625   0.450   1.175  0.00  0.00    -0.096 F 
ATOM     11  F3  UNL d   1       0.668  -1.136   2.169  0.00  0.00    -0.097 F 
ATOM     12  F4  UNL d   1      -1.953  -0.574   1.663  0.00  0.00    -0.092 F 
ENDROOT
TORSDOF 0
ENDMDL
