MODEL 1
REMARK minimizedAffinity 6.53032541
REMARK minimizedRMSD -1
REMARK  0 active torsions:
REMARK  status: ('A' for Active; 'I' for Inactive)
ROOT
ATOM      1  C   UNL d   1      -0.728  -0.355   2.384  0.00  0.00     0.124 A 
ATOM      2  C1  UNL d   1      -0.250  -0.784   1.153  0.00  0.00     0.062 A 
ATOM      3  C2  UNL d   1       0.613   0.024   0.418  0.00  0.00     0.162 A 
ATOM      4  C3  UNL d   1       1.003   1.269   0.911  0.00  0.00    -0.034 A 
ATOM      5  C4  UNL d   1       0.517   1.693   2.149  0.00  0.00     0.162 A 
ATOM      6  C5  UNL d   1      -0.344   0.882   2.880  0.00  0.00     0.062 A 
ATOM      7  F   UNL d   1      -0.806   1.298   4.069  0.00  0.00    -0.097 F 
ATOM      8  F1  UNL d   1       0.873   2.885   2.653  0.00  0.00    -0.096 F 
ATOM      9  I   UNL d   1       2.293   2.480  -0.185  0.00  0.00    -0.060 I 
ATOM     10  F2  UNL d   1       1.060  -0.415  -0.768  0.00  0.00    -0.096 F 
ATOM     11  F3  UNL d   1      -0.620  -1.979   0.671  0.00  0.00    -0.097 F 
ATOM     12  F4  UNL d   1      -1.559  -1.134   3.089  0.00  0.00    -0.092 F 
ENDROOT
TORSDOF 0
ENDMDL
