MODEL 1
REMARK minimizedAffinity 16.7583847
REMARK minimizedRMSD -1
REMARK  0 active torsions:
REMARK  status: ('A' for Active; 'I' for Inactive)
ROOT
ATOM      1  C   UNL d   1      -0.859   5.957  -4.163  0.00  0.00     0.124 A 
ATOM      2  C1  UNL d   1      -2.245   5.927  -4.211  0.00  0.00     0.062 A 
ATOM      3  C2  UNL d   1      -2.986   5.912  -3.033  0.00  0.00     0.162 A 
ATOM      4  C3  UNL d   1      -2.342   5.927  -1.796  0.00  0.00    -0.034 A 
ATOM      5  C4  UNL d   1      -0.947   5.956  -1.756  0.00  0.00     0.162 A 
ATOM      6  C5  UNL d   1      -0.211   5.971  -2.936  0.00  0.00     0.062 A 
ATOM      7  F   UNL d   1       1.129   5.999  -2.887  0.00  0.00    -0.097 F 
ATOM      8  F1  UNL d   1      -0.295   5.971  -0.583  0.00  0.00    -0.096 F 
ATOM      9  I   UNL d   1      -3.446   5.905  -0.032  0.00  0.00    -0.060 I 
ATOM     10  F2  UNL d   1      -4.325   5.884  -3.109  0.00  0.00    -0.096 F 
ATOM     11  F3  UNL d   1      -2.874   5.913  -5.395  0.00  0.00    -0.097 F 
ATOM     12  F4  UNL d   1      -0.148   5.970  -5.298  0.00  0.00    -0.092 F 
ENDROOT
TORSDOF 0
ENDMDL
