MODEL 1
REMARK minimizedAffinity 8.486516
REMARK minimizedRMSD -1
REMARK  0 active torsions:
REMARK  status: ('A' for Active; 'I' for Inactive)
ROOT
ATOM      1  C   UNL d   1      -3.536   5.904  -0.801  0.00  0.00     0.124 A 
ATOM      2  C1  UNL d   1      -3.742   5.948  -2.173  0.00  0.00     0.062 A 
ATOM      3  C2  UNL d   1      -2.656   5.945  -3.044  0.00  0.00     0.162 A 
ATOM      4  C3  UNL d   1      -1.354   5.896  -2.546  0.00  0.00    -0.034 A 
ATOM      5  C4  UNL d   1      -1.155   5.853  -1.164  0.00  0.00     0.162 A 
ATOM      6  C5  UNL d   1      -2.244   5.857  -0.298  0.00  0.00     0.062 A 
ATOM      7  F   UNL d   1      -2.043   5.815   1.027  0.00  0.00    -0.097 F 
ATOM      8  F1  UNL d   1       0.083   5.806  -0.651  0.00  0.00    -0.096 F 
ATOM      9  I   UNL d   1       0.272   5.891  -3.844  0.00  0.00    -0.060 I 
ATOM     10  F2  UNL d   1      -2.884   5.987  -4.365  0.00  0.00    -0.096 F 
ATOM     11  F3  UNL d   1      -4.989   5.994  -2.662  0.00  0.00    -0.097 F 
ATOM     12  F4  UNL d   1      -4.583   5.908   0.034  0.00  0.00    -0.092 F 
ENDROOT
TORSDOF 0
ENDMDL
