MODEL 1
REMARK minimizedAffinity 20.1676254
REMARK minimizedRMSD -1
REMARK  0 active torsions:
REMARK  status: ('A' for Active; 'I' for Inactive)
ROOT
ATOM      1  C   UNL d   1      -4.487  -2.584  -3.663  0.00  0.00     0.124 A 
ATOM      2  C1  UNL d   1      -4.145  -2.280  -2.352  0.00  0.00     0.062 A 
ATOM      3  C2  UNL d   1      -2.839  -1.914  -2.037  0.00  0.00     0.162 A 
ATOM      4  C3  UNL d   1      -1.867  -1.847  -3.034  0.00  0.00    -0.034 A 
ATOM      5  C4  UNL d   1      -2.218  -2.155  -4.350  0.00  0.00     0.162 A 
ATOM      6  C5  UNL d   1      -3.524  -2.521  -4.660  0.00  0.00     0.062 A 
ATOM      7  F   UNL d   1      -3.853  -2.814  -5.926  0.00  0.00    -0.097 F 
ATOM      8  F1  UNL d   1      -1.308  -2.102  -5.333  0.00  0.00    -0.096 F 
ATOM      9  I   UNL d   1       0.086  -1.300  -2.567  0.00  0.00    -0.060 I 
ATOM     10  F2  UNL d   1      -2.537  -1.625  -0.762  0.00  0.00    -0.096 F 
ATOM     11  F3  UNL d   1      -5.073  -2.341  -1.387  0.00  0.00    -0.097 F 
ATOM     12  F4  UNL d   1      -5.743  -2.937  -3.963  0.00  0.00    -0.092 F 
ENDROOT
TORSDOF 0
ENDMDL
