MODEL 1
REMARK minimizedAffinity 4.24143839
REMARK minimizedRMSD -1
REMARK  0 active torsions:
REMARK  status: ('A' for Active; 'I' for Inactive)
ROOT
ATOM      1  C   UNL d   1      -2.054   5.962  -1.690  0.00  0.00     0.124 A 
ATOM      2  C1  UNL d   1      -2.778   5.976  -2.874  0.00  0.00     0.062 A 
ATOM      3  C2  UNL d   1      -2.117   5.983  -4.099  0.00  0.00     0.162 A 
ATOM      4  C3  UNL d   1      -0.723   5.976  -4.146  0.00  0.00    -0.034 A 
ATOM      5  C4  UNL d   1      -0.002   5.963  -2.951  0.00  0.00     0.162 A 
ATOM      6  C5  UNL d   1      -0.667   5.956  -1.730  0.00  0.00     0.062 A 
ATOM      7  F   UNL d   1       0.034   5.943  -0.587  0.00  0.00    -0.097 F 
ATOM      8  F1  UNL d   1       1.340   5.956  -2.960  0.00  0.00    -0.096 F 
ATOM      9  I   UNL d   1       0.270   5.987  -5.976  0.00  0.00    -0.060 I 
ATOM     10  F2  UNL d   1      -2.842   5.996  -5.228  0.00  0.00    -0.096 F 
ATOM     11  F3  UNL d   1      -4.119   5.982  -2.839  0.00  0.00    -0.097 F 
ATOM     12  F4  UNL d   1      -2.693   5.956  -0.513  0.00  0.00    -0.092 F 
ENDROOT
TORSDOF 0
ENDMDL
