MODEL 1
REMARK minimizedAffinity 8.3360281
REMARK minimizedRMSD -1
REMARK  0 active torsions:
REMARK  status: ('A' for Active; 'I' for Inactive)
ROOT
ATOM      1  C   UNL d   1       1.354   2.190   0.398  0.00  0.00     0.124 A 
ATOM      2  C1  UNL d   1       0.657   1.737   1.510  0.00  0.00     0.062 A 
ATOM      3  C2  UNL d   1      -0.019   0.522   1.465  0.00  0.00     0.162 A 
ATOM      4  C3  UNL d   1      -0.003  -0.251   0.303  0.00  0.00    -0.034 A 
ATOM      5  C4  UNL d   1       0.699   0.212  -0.811  0.00  0.00     0.162 A 
ATOM      6  C5  UNL d   1       1.374   1.427  -0.761  0.00  0.00     0.062 A 
ATOM      7  F   UNL d   1       2.046   1.863  -1.837  0.00  0.00    -0.097 F 
ATOM      8  F1  UNL d   1       0.736  -0.505  -1.944  0.00  0.00    -0.096 F 
ATOM      9  I   UNL d   1      -1.013  -2.068   0.232  0.00  0.00    -0.060 I 
ATOM     10  F2  UNL d   1      -0.684   0.109   2.554  0.00  0.00    -0.096 F 
ATOM     11  F3  UNL d   1       0.636   2.473   2.631  0.00  0.00    -0.097 F 
ATOM     12  F4  UNL d   1       2.003   3.360   0.443  0.00  0.00    -0.092 F 
ENDROOT
TORSDOF 0
ENDMDL
