MODEL 1
REMARK minimizedAffinity 11.7603817
REMARK minimizedRMSD -1
REMARK  0 active torsions:
REMARK  status: ('A' for Active; 'I' for Inactive)
ROOT
ATOM      1  C   UNL d   1       0.368   2.246   0.545  0.00  0.00     0.124 A 
ATOM      2  C1  UNL d   1       1.339   2.870  -0.226  0.00  0.00     0.062 A 
ATOM      3  C2  UNL d   1       2.686   2.590  -0.018  0.00  0.00     0.162 A 
ATOM      4  C3  UNL d   1       3.072   1.680   0.966  0.00  0.00    -0.034 A 
ATOM      5  C4  UNL d   1       2.090   1.056   1.739  0.00  0.00     0.162 A 
ATOM      6  C5  UNL d   1       0.745   1.339   1.526  0.00  0.00     0.062 A 
ATOM      7  F   UNL d   1      -0.191   0.735   2.273  0.00  0.00    -0.097 F 
ATOM      8  F1  UNL d   1       2.426   0.176   2.693  0.00  0.00    -0.096 F 
ATOM      9  I   UNL d   1       5.085   1.258   1.281  0.00  0.00    -0.060 I 
ATOM     10  F2  UNL d   1       3.602   3.208  -0.778  0.00  0.00    -0.096 F 
ATOM     11  F3  UNL d   1       0.978   3.747  -1.175  0.00  0.00    -0.097 F 
ATOM     12  F4  UNL d   1      -0.927   2.518   0.343  0.00  0.00    -0.092 F 
ENDROOT
TORSDOF 0
ENDMDL
