MODEL 1
REMARK minimizedAffinity 6.19776249
REMARK minimizedRMSD -1
REMARK  0 active torsions:
REMARK  status: ('A' for Active; 'I' for Inactive)
ROOT
ATOM      1  C   UNL d   1       1.572   2.233   0.787  0.00  0.00     0.124 A 
ATOM      2  C1  UNL d   1       1.999   2.525  -0.500  0.00  0.00     0.062 A 
ATOM      3  C2  UNL d   1       1.947   1.551  -1.493  0.00  0.00     0.162 A 
ATOM      4  C3  UNL d   1       1.464   0.275  -1.202  0.00  0.00    -0.034 A 
ATOM      5  C4  UNL d   1       1.038  -0.012   0.096  0.00  0.00     0.162 A 
ATOM      6  C5  UNL d   1       1.092   0.965   1.084  0.00  0.00     0.062 A 
ATOM      7  F   UNL d   1       0.679   0.681   2.328  0.00  0.00    -0.097 F 
ATOM      8  F1  UNL d   1       0.568  -1.229   0.410  0.00  0.00    -0.096 F 
ATOM      9  I   UNL d   1       1.385  -1.185  -2.684  0.00  0.00    -0.060 I 
ATOM     10  F2  UNL d   1       2.366   1.861  -2.729  0.00  0.00    -0.096 F 
ATOM     11  F3  UNL d   1       2.464   3.749  -0.789  0.00  0.00    -0.097 F 
ATOM     12  F4  UNL d   1       1.624   3.171   1.741  0.00  0.00    -0.092 F 
ENDROOT
TORSDOF 0
ENDMDL
