MODEL 1
REMARK minimizedAffinity -0.770353615
REMARK minimizedRMSD -1
REMARK  0 active torsions:
REMARK  status: ('A' for Active; 'I' for Inactive)
ROOT
ATOM      1  C   UNL d   1      -2.297  -0.737  -1.153  0.00  0.00    -0.002 A 
ATOM      2  C1  UNL d   1      -1.615   0.273  -1.816  0.00  0.00     0.010 A 
ATOM      3  C2  UNL d   1      -0.346   0.671  -1.391  0.00  0.00     0.041 A 
ATOM      4  C3  UNL d   1       0.232   0.030  -0.278  0.00  0.00    -0.075 A 
ATOM      5  S   UNL d   1       1.775   0.352   0.421  0.00  0.00     0.015 SA
ATOM      6  C4  UNL d   1       1.566  -0.845   1.617  0.00  0.00     0.022 A 
ATOM      7  C5  UNL d   1       0.354  -1.483   1.501  0.00  0.00     0.026 A 
ATOM      8  C6  UNL d   1      -0.434  -0.990   0.407  0.00  0.00    -0.082 A 
ATOM      9  C7  UNL d   1      -1.720  -1.371  -0.049  0.00  0.00     0.045 A 
ENDROOT
TORSDOF 0
ENDMDL
