MODEL 1
REMARK minimizedAffinity 1.3771807
REMARK minimizedRMSD -1
REMARK  0 active torsions:
REMARK  status: ('A' for Active; 'I' for Inactive)
ROOT
ATOM      1  C   UNL d   1      -2.600  -0.810  -1.357  0.00  0.00    -0.002 A 
ATOM      2  C1  UNL d   1      -2.568  -1.762  -0.347  0.00  0.00     0.010 A 
ATOM      3  C2  UNL d   1      -1.440  -1.896   0.466  0.00  0.00     0.041 A 
ATOM      4  C3  UNL d   1      -0.336  -1.049   0.246  0.00  0.00    -0.075 A 
ATOM      5  S   UNL d   1       1.151  -1.033   1.118  0.00  0.00     0.015 SA
ATOM      6  C4  UNL d   1       1.778   0.238   0.171  0.00  0.00     0.022 A 
ATOM      7  C5  UNL d   1       0.888   0.652  -0.792  0.00  0.00     0.026 A 
ATOM      8  C6  UNL d   1      -0.346  -0.083  -0.764  0.00  0.00    -0.082 A 
ATOM      9  C7  UNL d   1      -1.503   0.028  -1.572  0.00  0.00     0.045 A 
ENDROOT
TORSDOF 0
ENDMDL
