MODEL 1
REMARK minimizedAffinity 1.36306703
REMARK minimizedRMSD -1
REMARK  0 active torsions:
REMARK  status: ('A' for Active; 'I' for Inactive)
ROOT
ATOM      1  C   UNL d   1      -0.695  -0.037  -1.152  0.00  0.00    -0.002 A 
ATOM      2  C1  UNL d   1      -1.400   0.337  -0.017  0.00  0.00     0.010 A 
ATOM      3  C2  UNL d   1      -0.791   1.105   0.977  0.00  0.00     0.041 A 
ATOM      4  C3  UNL d   1       0.552   1.496   0.808  0.00  0.00    -0.075 A 
ATOM      5  S   UNL d   1       1.504   2.440   1.893  0.00  0.00     0.015 SA
ATOM      6  C4  UNL d   1       2.869   2.369   0.875  0.00  0.00     0.022 A 
ATOM      7  C5  UNL d   1       2.623   1.647  -0.268  0.00  0.00     0.026 A 
ATOM      8  C6  UNL d   1       1.283   1.133  -0.326  0.00  0.00    -0.082 A 
ATOM      9  C7  UNL d   1       0.637   0.353  -1.316  0.00  0.00     0.045 A 
ENDROOT
TORSDOF 0
ENDMDL
