MODEL 1
REMARK minimizedAffinity -1.64738727
REMARK minimizedRMSD -1
REMARK  0 active torsions:
REMARK  status: ('A' for Active; 'I' for Inactive)
ROOT
ATOM      1  C   UNL d   1       2.971   2.426   1.730  0.00  0.00    -0.002 A 
ATOM      2  C1  UNL d   1       2.862   1.503   2.760  0.00  0.00     0.010 A 
ATOM      3  C2  UNL d   1       2.038   0.383   2.627  0.00  0.00     0.041 A 
ATOM      4  C3  UNL d   1       1.320   0.205   1.428  0.00  0.00    -0.075 A 
ATOM      5  S   UNL d   1       0.252  -1.091   1.040  0.00  0.00     0.015 SA
ATOM      6  C4  UNL d   1      -0.085  -0.451  -0.503  0.00  0.00     0.022 A 
ATOM      7  C5  UNL d   1       0.593   0.723  -0.733  0.00  0.00     0.026 A 
ATOM      8  C6  UNL d   1       1.414   1.120   0.376  0.00  0.00    -0.082 A 
ATOM      9  C7  UNL d   1       2.257   2.245   0.542  0.00  0.00     0.045 A 
ENDROOT
TORSDOF 0
ENDMDL
