MODEL 1
REMARK minimizedAffinity 6.47691774
REMARK minimizedRMSD -1
REMARK  0 active torsions:
REMARK  status: ('A' for Active; 'I' for Inactive)
ROOT
ATOM      1  C   UNL d   1      -2.983  -0.567  -1.485  0.00  0.00    -0.002 A 
ATOM      2  C1  UNL d   1      -1.768  -0.007  -1.852  0.00  0.00     0.010 A 
ATOM      3  C2  UNL d   1      -0.625  -0.219  -1.079  0.00  0.00     0.041 A 
ATOM      4  C3  UNL d   1      -0.724  -1.013   0.081  0.00  0.00    -0.075 A 
ATOM      5  S   UNL d   1       0.543  -1.410   1.181  0.00  0.00     0.015 SA
ATOM      6  C4  UNL d   1      -0.499  -2.333   2.164  0.00  0.00     0.022 A 
ATOM      7  C5  UNL d   1      -1.786  -2.349   1.680  0.00  0.00     0.026 A 
ATOM      8  C6  UNL d   1      -1.937  -1.589   0.471  0.00  0.00    -0.082 A 
ATOM      9  C7  UNL d   1      -3.077  -1.354  -0.334  0.00  0.00     0.045 A 
ENDROOT
TORSDOF 0
ENDMDL
