MODEL 1
REMARK minimizedAffinity 16.4920807
REMARK minimizedRMSD -1
REMARK  0 active torsions:
REMARK  status: ('A' for Active; 'I' for Inactive)
ROOT
ATOM      1  C   UNL d   1      -2.783  -1.243  -1.133  0.00  0.00    -0.002 A 
ATOM      2  C1  UNL d   1      -1.908  -0.603  -1.999  0.00  0.00     0.010 A 
ATOM      3  C2  UNL d   1      -0.577  -0.390  -1.635  0.00  0.00     0.041 A 
ATOM      4  C3  UNL d   1      -0.135  -0.839  -0.375  0.00  0.00    -0.075 A 
ATOM      5  S   UNL d   1       1.451  -0.689   0.285  0.00  0.00     0.015 SA
ATOM      6  C4  UNL d   1       1.004  -1.473   1.731  0.00  0.00     0.022 A 
ATOM      7  C5  UNL d   1      -0.319  -1.846   1.728  0.00  0.00     0.026 A 
ATOM      8  C6  UNL d   1      -0.997  -1.487   0.514  0.00  0.00    -0.082 A 
ATOM      9  C7  UNL d   1      -2.341  -1.687   0.116  0.00  0.00     0.045 A 
ENDROOT
TORSDOF 0
ENDMDL
