MODEL 1
REMARK minimizedAffinity -3.74795532
REMARK minimizedRMSD -1
REMARK  0 active torsions:
REMARK  status: ('A' for Active; 'I' for Inactive)
ROOT
ATOM      1  C   UNL d   1       1.774  -0.181   0.901  0.00  0.00    -0.002 A 
ATOM      2  C1  UNL d   1       1.214  -1.395   1.273  0.00  0.00     0.010 A 
ATOM      3  C2  UNL d   1      -0.018  -1.798   0.753  0.00  0.00     0.041 A 
ATOM      4  C3  UNL d   1      -0.683  -0.952  -0.157  0.00  0.00    -0.075 A 
ATOM      5  S   UNL d   1      -2.200  -1.238  -0.923  0.00  0.00     0.015 SA
ATOM      6  C4  UNL d   1      -2.141   0.244  -1.762  0.00  0.00     0.022 A 
ATOM      7  C5  UNL d   1      -0.998   0.953  -1.476  0.00  0.00     0.026 A 
ATOM      8  C6  UNL d   1      -0.139   0.275  -0.547  0.00  0.00    -0.082 A 
ATOM      9  C7  UNL d   1       1.111   0.655  -0.001  0.00  0.00     0.045 A 
ENDROOT
TORSDOF 0
ENDMDL
