MODEL 1
REMARK minimizedAffinity -2.86427093
REMARK minimizedRMSD -1
REMARK  0 active torsions:
REMARK  status: ('A' for Active; 'I' for Inactive)
ROOT
ATOM      1  C   UNL d   1      -2.621  -0.426  -1.467  0.00  0.00    -0.002 A 
ATOM      2  C1  UNL d   1      -2.520  -1.433  -0.518  0.00  0.00     0.010 A 
ATOM      3  C2  UNL d   1      -1.374  -1.555   0.270  0.00  0.00     0.041 A 
ATOM      4  C3  UNL d   1      -0.321  -0.637   0.088  0.00  0.00    -0.075 A 
ATOM      5  S   UNL d   1       1.178  -0.591   0.939  0.00  0.00     0.015 SA
ATOM      6  C4  UNL d   1       1.719   0.767   0.063  0.00  0.00     0.022 A 
ATOM      7  C5  UNL d   1       0.792   1.189  -0.860  0.00  0.00     0.026 A 
ATOM      8  C6  UNL d   1      -0.400   0.387  -0.861  0.00  0.00    -0.082 A 
ATOM      9  C7  UNL d   1      -1.575   0.483  -1.645  0.00  0.00     0.045 A 
ENDROOT
TORSDOF 0
ENDMDL
