MODEL 1
REMARK minimizedAffinity -1.69895005
REMARK minimizedRMSD -1
REMARK  0 active torsions:
REMARK  status: ('A' for Active; 'I' for Inactive)
ROOT
ATOM      1  C   UNL d   1      -0.390  -0.471  -1.156  0.00  0.00    -0.002 A 
ATOM      2  C1  UNL d   1      -1.395   0.396  -0.750  0.00  0.00     0.010 A 
ATOM      3  C2  UNL d   1      -1.100   1.494   0.062  0.00  0.00     0.041 A 
ATOM      4  C3  UNL d   1       0.234   1.708   0.460  0.00  0.00    -0.075 A 
ATOM      5  S   UNL d   1       0.829   2.987   1.452  0.00  0.00     0.015 SA
ATOM      6  C4  UNL d   1       2.431   2.413   1.359  0.00  0.00     0.022 A 
ATOM      7  C5  UNL d   1       2.528   1.274   0.594  0.00  0.00     0.026 A 
ATOM      8  C6  UNL d   1       1.263   0.850   0.063  0.00  0.00    -0.082 A 
ATOM      9  C7  UNL d   1       0.932  -0.254  -0.759  0.00  0.00     0.045 A 
ENDROOT
TORSDOF 0
ENDMDL
