MODEL 1
REMARK minimizedAffinity -1.86122274
REMARK minimizedRMSD -1
REMARK  1 active torsions:
REMARK  status: ('A' for Active; 'I' for Inactive)
REMARK    1  A    between atoms: C1_2  and  C2_3 
ROOT
ATOM      1  C2  UNL d   1       3.540   3.253  -5.998  0.00  0.00    -0.077 A 
ATOM      2  C3  UNL d   1       4.580   4.192  -5.997  0.00  0.00     0.002 A 
ATOM      3  C4  UNL d   1       4.298   5.559  -5.999  0.00  0.00     0.002 A 
ATOM      4  C5  UNL d   1       2.976   5.999  -5.997  0.00  0.00    -0.004 A 
ATOM      5  C6  UNL d   1       1.934   5.073  -6.000  0.00  0.00     0.002 A 
ATOM      6  C7  UNL d   1       2.214   3.706  -6.000  0.00  0.00     0.002 A 
ENDROOT
BRANCH   1   7
ATOM      7  C1  UNL d   1       3.842   1.778  -5.947  0.00  0.00     0.055 C 
ATOM      8  C   UNL d   1       5.341   1.518  -5.997  0.00  0.00     0.019 C 
ENDBRANCH   1   7
TORSDOF 1
ENDMDL
