MODEL 1
REMARK minimizedAffinity -0.0576372147
REMARK minimizedRMSD -1
REMARK  1 active torsions:
REMARK  status: ('A' for Active; 'I' for Inactive)
REMARK    1  A    between atoms: C1_2  and  C2_3 
ROOT
ATOM      1  C2  UNL d   1       2.586   4.401   3.739  0.00  0.00    -0.077 A 
ATOM      2  C3  UNL d   1       3.031   5.156   4.833  0.00  0.00     0.002 A 
ATOM      3  C4  UNL d   1       2.138   5.954   5.551  0.00  0.00     0.002 A 
ATOM      4  C5  UNL d   1       0.794   6.000   5.185  0.00  0.00    -0.004 A 
ATOM      5  C6  UNL d   1       0.342   5.254   4.098  0.00  0.00     0.002 A 
ATOM      6  C7  UNL d   1       1.234   4.458   3.378  0.00  0.00     0.002 A 
ENDROOT
BRANCH   1   7
ATOM      7  C1  UNL d   1       3.538   3.502   2.993  0.00  0.00     0.055 C 
ATOM      8  C   UNL d   1       2.853   2.826   1.815  0.00  0.00     0.019 C 
ENDBRANCH   1   7
TORSDOF 1
ENDMDL
