MODEL 1
REMARK minimizedAffinity -2.6013577
REMARK minimizedRMSD -1
REMARK  1 active torsions:
REMARK  status: ('A' for Active; 'I' for Inactive)
REMARK    1  A    between atoms: C1_2  and  C2_3 
ROOT
ATOM      1  C2  UNL d   1       3.505   4.290   3.513  0.00  0.00    -0.077 A 
ATOM      2  C3  UNL d   1       2.227   4.787   3.221  0.00  0.00     0.002 A 
ATOM      3  C4  UNL d   1       1.577   5.636   4.118  0.00  0.00     0.002 A 
ATOM      4  C5  UNL d   1       2.198   5.999   5.312  0.00  0.00    -0.004 A 
ATOM      5  C6  UNL d   1       3.468   5.509   5.612  0.00  0.00     0.002 A 
ATOM      6  C7  UNL d   1       4.119   4.659   4.717  0.00  0.00     0.002 A 
ENDROOT
BRANCH   1   7
ATOM      7  C1  UNL d   1       4.228   3.414   2.524  0.00  0.00     0.055 C 
ATOM      8  C   UNL d   1       3.332   3.049   1.350  0.00  0.00     0.019 C 
ENDBRANCH   1   7
TORSDOF 1
ENDMDL
