MODEL 1
REMARK minimizedAffinity -0.87154001
REMARK minimizedRMSD -1
REMARK  1 active torsions:
REMARK  status: ('A' for Active; 'I' for Inactive)
REMARK    1  A    between atoms: C1_2  and  C2_3 
ROOT
ATOM      1  C2  UNL d   1       2.284   5.383   4.932  0.00  0.00    -0.077 A 
ATOM      2  C3  UNL d   1       2.492   4.217   4.183  0.00  0.00     0.002 A 
ATOM      3  C4  UNL d   1       1.459   3.677   3.414  0.00  0.00     0.002 A 
ATOM      4  C5  UNL d   1       0.213   4.299   3.383  0.00  0.00    -0.004 A 
ATOM      5  C6  UNL d   1      -0.005   5.459   4.126  0.00  0.00     0.002 A 
ATOM      6  C7  UNL d   1       1.026   5.999   4.896  0.00  0.00     0.002 A 
ENDROOT
BRANCH   1   7
ATOM      7  C1  UNL d   1       3.411   5.994   5.723  0.00  0.00     0.055 C 
ATOM      8  C   UNL d   1       4.707   5.999   4.926  0.00  0.00     0.019 C 
ENDBRANCH   1   7
TORSDOF 1
ENDMDL
