MODEL 1
REMARK minimizedAffinity -2.27931595
REMARK minimizedRMSD -1
REMARK  0 active torsions:
REMARK  status: ('A' for Active; 'I' for Inactive)
ROOT
ATOM      1  C   UNL d   1       1.319   1.113  -1.329  0.00  0.00     0.124 A 
ATOM      2  C1  UNL d   1       0.070   0.765  -0.833  0.00  0.00     0.062 A 
ATOM      3  C2  UNL d   1      -0.184  -0.542  -0.428  0.00  0.00     0.162 A 
ATOM      4  C3  UNL d   1       0.815  -1.512  -0.517  0.00  0.00    -0.034 A 
ATOM      5  C4  UNL d   1       2.068  -1.156  -1.017  0.00  0.00     0.162 A 
ATOM      6  C5  UNL d   1       2.317   0.152  -1.420  0.00  0.00     0.062 A 
ATOM      7  F   UNL d   1       3.524   0.486  -1.899  0.00  0.00    -0.097 F 
ATOM      8  F1  UNL d   1       3.051  -2.063  -1.116  0.00  0.00    -0.096 F 
ATOM      9  I   UNL d   1       0.439  -3.468   0.087  0.00  0.00    -0.060 I 
ATOM     10  F2  UNL d   1      -1.400  -0.850   0.047  0.00  0.00    -0.096 F 
ATOM     11  F3  UNL d   1      -0.896   1.691  -0.744  0.00  0.00    -0.097 F 
ATOM     12  F4  UNL d   1       1.560   2.371  -1.718  0.00  0.00    -0.092 F 
ENDROOT
TORSDOF 0
ENDMDL
