MODEL 1
REMARK minimizedAffinity 2.4790535
REMARK minimizedRMSD -1
REMARK  0 active torsions:
REMARK  status: ('A' for Active; 'I' for Inactive)
ROOT
ATOM      1  C   UNL d   1       0.292   0.609  -0.591  0.00  0.00     0.124 A 
ATOM      2  C1  UNL d   1      -0.940   1.121  -0.208  0.00  0.00     0.062 A 
ATOM      3  C2  UNL d   1      -1.333   1.074   1.127  0.00  0.00     0.162 A 
ATOM      4  C3  UNL d   1      -0.492   0.515   2.089  0.00  0.00    -0.034 A 
ATOM      5  C4  UNL d   1       0.745   0.002   1.696  0.00  0.00     0.162 A 
ATOM      6  C5  UNL d   1       1.133   0.050   0.361  0.00  0.00     0.062 A 
ATOM      7  F   UNL d   1       2.324  -0.444  -0.007  0.00  0.00    -0.097 F 
ATOM      8  F1  UNL d   1       1.578  -0.543   2.595  0.00  0.00    -0.096 F 
ATOM      9  I   UNL d   1      -1.076   0.444   4.085  0.00  0.00    -0.060 I 
ATOM     10  F2  UNL d   1      -2.529   1.576   1.468  0.00  0.00    -0.096 F 
ATOM     11  F3  UNL d   1      -1.755   1.660  -1.126  0.00  0.00    -0.097 F 
ATOM     12  F4  UNL d   1       0.667   0.654  -1.875  0.00  0.00    -0.092 F 
ENDROOT
TORSDOF 0
ENDMDL
