MODEL 1
REMARK minimizedAffinity -1.87746155
REMARK minimizedRMSD -1
REMARK  0 active torsions:
REMARK  status: ('A' for Active; 'I' for Inactive)
ROOT
ATOM      1  C   UNL d   1       2.084  -0.672  -1.449  0.00  0.00     0.124 A 
ATOM      2  C1  UNL d   1       1.633   0.610  -1.166  0.00  0.00     0.062 A 
ATOM      3  C2  UNL d   1       0.503   0.795  -0.374  0.00  0.00     0.162 A 
ATOM      4  C3  UNL d   1      -0.184  -0.304   0.141  0.00  0.00    -0.034 A 
ATOM      5  C4  UNL d   1       0.276  -1.590  -0.149  0.00  0.00     0.162 A 
ATOM      6  C5  UNL d   1       1.405  -1.770  -0.941  0.00  0.00     0.062 A 
ATOM      7  F   UNL d   1       1.839  -3.009  -1.214  0.00  0.00    -0.097 F 
ATOM      8  F1  UNL d   1      -0.361  -2.670   0.329  0.00  0.00    -0.096 F 
ATOM      9  I   UNL d   1      -1.873  -0.032   1.325  0.00  0.00    -0.060 I 
ATOM     10  F2  UNL d   1       0.090   2.045  -0.116  0.00  0.00    -0.096 F 
ATOM     11  F3  UNL d   1       2.286   1.673  -1.656  0.00  0.00    -0.097 F 
ATOM     12  F4  UNL d   1       3.170  -0.847  -2.212  0.00  0.00    -0.092 F 
ENDROOT
TORSDOF 0
ENDMDL
