MODEL 1
REMARK minimizedAffinity -3.35144949
REMARK minimizedRMSD -1
REMARK  0 active torsions:
REMARK  status: ('A' for Active; 'I' for Inactive)
ROOT
ATOM      1  C   UNL d   1      -2.911   0.212   3.639  0.00  0.00     0.124 A 
ATOM      2  C1  UNL d   1      -1.603   0.650   3.487  0.00  0.00     0.062 A 
ATOM      3  C2  UNL d   1      -0.938   0.462   2.278  0.00  0.00     0.162 A 
ATOM      4  C3  UNL d   1      -1.581  -0.167   1.212  0.00  0.00    -0.034 A 
ATOM      5  C4  UNL d   1      -2.897  -0.606   1.373  0.00  0.00     0.162 A 
ATOM      6  C5  UNL d   1      -3.556  -0.415   2.583  0.00  0.00     0.062 A 
ATOM      7  F   UNL d   1      -4.820  -0.839   2.729  0.00  0.00    -0.097 F 
ATOM      8  F1  UNL d   1      -3.545  -1.214   0.369  0.00  0.00    -0.096 F 
ATOM      9  I   UNL d   1      -0.591  -0.450  -0.597  0.00  0.00    -0.060 I 
ATOM     10  F2  UNL d   1       0.326   0.895   2.159  0.00  0.00    -0.096 F 
ATOM     11  F3  UNL d   1      -0.976   1.255   4.506  0.00  0.00    -0.097 F 
ATOM     12  F4  UNL d   1      -3.548   0.393   4.804  0.00  0.00    -0.092 F 
ENDROOT
TORSDOF 0
ENDMDL
