MODEL 1
REMARK minimizedAffinity 5.03531456
REMARK minimizedRMSD -1
REMARK  0 active torsions:
REMARK  status: ('A' for Active; 'I' for Inactive)
ROOT
ATOM      1  C   UNL d   1       1.356  -0.608  -1.692  0.00  0.00     0.124 A 
ATOM      2  C1  UNL d   1       1.477  -1.416  -0.570  0.00  0.00     0.062 A 
ATOM      3  C2  UNL d   1       0.911  -1.024   0.639  0.00  0.00     0.162 A 
ATOM      4  C3  UNL d   1       0.217   0.183   0.733  0.00  0.00    -0.034 A 
ATOM      5  C4  UNL d   1       0.101   0.991  -0.399  0.00  0.00     0.162 A 
ATOM      6  C5  UNL d   1       0.669   0.594  -1.606  0.00  0.00     0.062 A 
ATOM      7  F   UNL d   1       0.552   1.377  -2.689  0.00  0.00    -0.097 F 
ATOM      8  F1  UNL d   1      -0.558   2.157  -0.344  0.00  0.00    -0.096 F 
ATOM      9  I   UNL d   1      -0.631   0.773   2.540  0.00  0.00    -0.060 I 
ATOM     10  F2  UNL d   1       1.043  -1.825   1.707  0.00  0.00    -0.096 F 
ATOM     11  F3  UNL d   1       2.141  -2.578  -0.651  0.00  0.00    -0.097 F 
ATOM     12  F4  UNL d   1       1.903  -0.987  -2.854  0.00  0.00    -0.092 F 
ENDROOT
TORSDOF 0
ENDMDL
