MODEL 1
REMARK minimizedAffinity -0.539485693
REMARK minimizedRMSD -1
REMARK  0 active torsions:
REMARK  status: ('A' for Active; 'I' for Inactive)
ROOT
ATOM      1  C   UNL d   1      -0.934  -0.494   0.135  0.00  0.00     0.124 A 
ATOM      2  C1  UNL d   1      -0.263  -1.681  -0.123  0.00  0.00     0.062 A 
ATOM      3  C2  UNL d   1       1.041  -1.657  -0.609  0.00  0.00     0.162 A 
ATOM      4  C3  UNL d   1       1.683  -0.441  -0.841  0.00  0.00    -0.034 A 
ATOM      5  C4  UNL d   1       1.002   0.749  -0.581  0.00  0.00     0.162 A 
ATOM      6  C5  UNL d   1      -0.301   0.720  -0.095  0.00  0.00     0.062 A 
ATOM      7  F   UNL d   1      -0.948   1.868   0.153  0.00  0.00    -0.097 F 
ATOM      8  F1  UNL d   1       1.590   1.936  -0.793  0.00  0.00    -0.096 F 
ATOM      9  I   UNL d   1       3.633  -0.401  -1.569  0.00  0.00    -0.060 I 
ATOM     10  F2  UNL d   1       1.665  -2.820  -0.849  0.00  0.00    -0.096 F 
ATOM     11  F3  UNL d   1      -0.872  -2.855   0.098  0.00  0.00    -0.097 F 
ATOM     12  F4  UNL d   1      -2.189  -0.520   0.602  0.00  0.00    -0.092 F 
ENDROOT
TORSDOF 0
ENDMDL
