MODEL 1
REMARK minimizedAffinity 1.05387199
REMARK minimizedRMSD -1
REMARK  0 active torsions:
REMARK  status: ('A' for Active; 'I' for Inactive)
ROOT
ATOM      1  C   UNL d   1       1.185   1.074  -0.843  0.00  0.00     0.124 A 
ATOM      2  C1  UNL d   1      -0.163   0.972  -0.527  0.00  0.00     0.062 A 
ATOM      3  C2  UNL d   1      -0.760  -0.279  -0.407  0.00  0.00     0.162 A 
ATOM      4  C3  UNL d   1      -0.010  -1.439  -0.602  0.00  0.00    -0.034 A 
ATOM      5  C4  UNL d   1       1.345  -1.328  -0.920  0.00  0.00     0.162 A 
ATOM      6  C5  UNL d   1       1.937  -0.075  -1.039  0.00  0.00     0.062 A 
ATOM      7  F   UNL d   1       3.239   0.022  -1.344  0.00  0.00    -0.097 F 
ATOM      8  F1  UNL d   1       2.095  -2.423  -1.113  0.00  0.00    -0.096 F 
ATOM      9  I   UNL d   1      -0.900  -3.312  -0.423  0.00  0.00    -0.060 I 
ATOM     10  F2  UNL d   1      -2.065  -0.348  -0.101  0.00  0.00    -0.096 F 
ATOM     11  F3  UNL d   1      -0.892   2.081  -0.339  0.00  0.00    -0.097 F 
ATOM     12  F4  UNL d   1       1.757   2.280  -0.959  0.00  0.00    -0.092 F 
ENDROOT
TORSDOF 0
ENDMDL
