MODEL 1
REMARK minimizedAffinity -0.555551887
REMARK minimizedRMSD -1
REMARK  0 active torsions:
REMARK  status: ('A' for Active; 'I' for Inactive)
ROOT
ATOM      1  C   UNL d   1       1.900  -0.236  -1.163  0.00  0.00     0.124 A 
ATOM      2  C1  UNL d   1       1.262   0.943  -0.806  0.00  0.00     0.062 A 
ATOM      3  C2  UNL d   1       0.114   0.907  -0.020  0.00  0.00     0.162 A 
ATOM      4  C3  UNL d   1      -0.403  -0.313   0.416  0.00  0.00    -0.034 A 
ATOM      5  C4  UNL d   1       0.244  -1.495   0.052  0.00  0.00     0.162 A 
ATOM      6  C5  UNL d   1       1.391  -1.454  -0.734  0.00  0.00     0.062 A 
ATOM      7  F   UNL d   1       2.006  -2.595  -1.078  0.00  0.00    -0.097 F 
ATOM      8  F1  UNL d   1      -0.226  -2.686   0.453  0.00  0.00    -0.096 F 
ATOM      9  I   UNL d   1      -2.120  -0.371   1.592  0.00  0.00    -0.060 I 
ATOM     10  F2  UNL d   1      -0.483   2.063   0.310  0.00  0.00    -0.096 F 
ATOM     11  F3  UNL d   1       1.751   2.121  -1.220  0.00  0.00    -0.097 F 
ATOM     12  F4  UNL d   1       3.004  -0.199  -1.920  0.00  0.00    -0.092 F 
ENDROOT
TORSDOF 0
ENDMDL
