MODEL 1
REMARK minimizedAffinity -3.31576276
REMARK minimizedRMSD -1
REMARK  0 active torsions:
REMARK  status: ('A' for Active; 'I' for Inactive)
ROOT
ATOM      1  C   UNL d   1       2.652  -0.760  -1.409  0.00  0.00     0.124 A 
ATOM      2  C1  UNL d   1       1.877  -1.745  -0.812  0.00  0.00     0.062 A 
ATOM      3  C2  UNL d   1       0.701  -1.405  -0.149  0.00  0.00     0.162 A 
ATOM      4  C3  UNL d   1       0.292  -0.073  -0.080  0.00  0.00    -0.034 A 
ATOM      5  C4  UNL d   1       1.077   0.912  -0.682  0.00  0.00     0.162 A 
ATOM      6  C5  UNL d   1       2.252   0.567  -1.343  0.00  0.00     0.062 A 
ATOM      7  F   UNL d   1       2.999   1.520  -1.919  0.00  0.00    -0.097 F 
ATOM      8  F1  UNL d   1       0.714   2.203  -0.634  0.00  0.00    -0.096 F 
ATOM      9  I   UNL d   1      -1.465   0.440   0.910  0.00  0.00    -0.060 I 
ATOM     10  F2  UNL d   1      -0.028  -2.377   0.418  0.00  0.00    -0.096 F 
ATOM     11  F3  UNL d   1       2.262  -3.027  -0.874  0.00  0.00    -0.097 F 
ATOM     12  F4  UNL d   1       3.783  -1.090  -2.045  0.00  0.00    -0.092 F 
ENDROOT
TORSDOF 0
ENDMDL
