MODEL 1
REMARK minimizedAffinity -2.76813269
REMARK minimizedRMSD -1
REMARK  0 active torsions:
REMARK  status: ('A' for Active; 'I' for Inactive)
ROOT
ATOM      1  C   UNL d   1       2.566  -1.011  -1.147  0.00  0.00     0.124 A 
ATOM      2  C1  UNL d   1       1.566  -1.913  -0.815  0.00  0.00     0.062 A 
ATOM      3  C2  UNL d   1       0.334  -1.455  -0.356  0.00  0.00     0.162 A 
ATOM      4  C3  UNL d   1       0.096  -0.087  -0.227  0.00  0.00    -0.034 A 
ATOM      5  C4  UNL d   1       1.107   0.815  -0.562  0.00  0.00     0.162 A 
ATOM      6  C5  UNL d   1       2.336   0.352  -1.021  0.00  0.00     0.062 A 
ATOM      7  F   UNL d   1       3.302   1.226  -1.341  0.00  0.00    -0.097 F 
ATOM      8  F1  UNL d   1       0.912   2.137  -0.451  0.00  0.00    -0.096 F 
ATOM      9  I   UNL d   1      -1.745   0.602   0.459  0.00  0.00    -0.060 I 
ATOM     10  F2  UNL d   1      -0.615  -2.350  -0.042  0.00  0.00    -0.096 F 
ATOM     11  F3  UNL d   1       1.786  -3.230  -0.935  0.00  0.00    -0.097 F 
ATOM     12  F4  UNL d   1       3.751  -1.454  -1.587  0.00  0.00    -0.092 F 
ENDROOT
TORSDOF 0
ENDMDL
