MODEL 1
REMARK minimizedAffinity -2.27803969
REMARK minimizedRMSD -1
REMARK  0 active torsions:
REMARK  status: ('A' for Active; 'I' for Inactive)
ROOT
ATOM      1  C   UNL d   1       1.432   1.715  -1.167  0.00  0.00     0.124 A 
ATOM      2  C1  UNL d   1       2.347   0.673  -1.238  0.00  0.00     0.062 A 
ATOM      3  C2  UNL d   1       1.944  -0.632  -0.970  0.00  0.00     0.162 A 
ATOM      4  C3  UNL d   1       0.619  -0.903  -0.629  0.00  0.00    -0.034 A 
ATOM      5  C4  UNL d   1      -0.295   0.149  -0.559  0.00  0.00     0.162 A 
ATOM      6  C5  UNL d   1       0.112   1.452  -0.828  0.00  0.00     0.062 A 
ATOM      7  F   UNL d   1      -0.773   2.457  -0.759  0.00  0.00    -0.097 F 
ATOM      8  F1  UNL d   1      -1.577  -0.076  -0.234  0.00  0.00    -0.096 F 
ATOM      9  I   UNL d   1       0.012  -2.853  -0.228  0.00  0.00    -0.060 I 
ATOM     10  F2  UNL d   1       2.849  -1.619  -1.046  0.00  0.00    -0.096 F 
ATOM     11  F3  UNL d   1       3.622   0.925  -1.565  0.00  0.00    -0.097 F 
ATOM     12  F4  UNL d   1       1.822   2.970  -1.425  0.00  0.00    -0.092 F 
ENDROOT
TORSDOF 0
ENDMDL
