MODEL 1
REMARK minimizedAffinity -2.36576319
REMARK minimizedRMSD -1
REMARK  0 active torsions:
REMARK  status: ('A' for Active; 'I' for Inactive)
ROOT
ATOM      1  C   UNL d   1       1.468   0.809  -1.436  0.00  0.00     0.124 A 
ATOM      2  C1  UNL d   1       2.122  -0.373  -1.755  0.00  0.00     0.062 A 
ATOM      3  C2  UNL d   1       1.576  -1.598  -1.382  0.00  0.00     0.162 A 
ATOM      4  C3  UNL d   1       0.368  -1.647  -0.686  0.00  0.00    -0.034 A 
ATOM      5  C4  UNL d   1      -0.283  -0.454  -0.367  0.00  0.00     0.162 A 
ATOM      6  C5  UNL d   1       0.267   0.767  -0.742  0.00  0.00     0.062 A 
ATOM      7  F   UNL d   1      -0.367   1.908  -0.433  0.00  0.00    -0.097 F 
ATOM      8  F1  UNL d   1      -1.446  -0.466   0.301  0.00  0.00    -0.096 F 
ATOM      9  I   UNL d   1      -0.452  -3.477  -0.127  0.00  0.00    -0.060 I 
ATOM     10  F2  UNL d   1       2.229  -2.724  -1.704  0.00  0.00    -0.096 F 
ATOM     11  F3  UNL d   1       3.283  -0.336  -2.424  0.00  0.00    -0.097 F 
ATOM     12  F4  UNL d   1       1.996   1.986  -1.795  0.00  0.00    -0.092 F 
ENDROOT
TORSDOF 0
ENDMDL
