MODEL 1
REMARK minimizedAffinity -0.919408143
REMARK minimizedRMSD -1
REMARK  0 active torsions:
REMARK  status: ('A' for Active; 'I' for Inactive)
ROOT
ATOM      1  C   UNL d   1       1.520  -0.776  -1.952  0.00  0.00     0.124 A 
ATOM      2  C1  UNL d   1       1.584  -1.567  -0.814  0.00  0.00     0.062 A 
ATOM      3  C2  UNL d   1       0.734  -1.317   0.261  0.00  0.00     0.162 A 
ATOM      4  C3  UNL d   1      -0.187  -0.272   0.201  0.00  0.00    -0.034 A 
ATOM      5  C4  UNL d   1      -0.244   0.521  -0.947  0.00  0.00     0.162 A 
ATOM      6  C5  UNL d   1       0.607   0.267  -2.018  0.00  0.00     0.062 A 
ATOM      7  F   UNL d   1       0.544   1.033  -3.117  0.00  0.00    -0.097 F 
ATOM      8  F1  UNL d   1      -1.118   1.534  -1.038  0.00  0.00    -0.096 F 
ATOM      9  I   UNL d   1      -1.458   0.105   1.805  0.00  0.00    -0.060 I 
ATOM     10  F2  UNL d   1       0.818  -2.098   1.348  0.00  0.00    -0.096 F 
ATOM     11  F3  UNL d   1       2.466  -2.574  -0.747  0.00  0.00    -0.097 F 
ATOM     12  F4  UNL d   1       2.339  -1.018  -2.984  0.00  0.00    -0.092 F 
ENDROOT
TORSDOF 0
ENDMDL
