MODEL 1
REMARK minimizedAffinity -3.3845222
REMARK minimizedRMSD -1
REMARK  0 active torsions:
REMARK  status: ('A' for Active; 'I' for Inactive)
ROOT
ATOM      1  C   UNL d   1       0.450   0.978  -0.928  0.00  0.00     0.124 A 
ATOM      2  C1  UNL d   1      -0.691   0.205  -0.767  0.00  0.00     0.062 A 
ATOM      3  C2  UNL d   1      -0.585  -1.173  -0.599  0.00  0.00     0.162 A 
ATOM      4  C3  UNL d   1       0.668  -1.786  -0.589  0.00  0.00    -0.034 A 
ATOM      5  C4  UNL d   1       1.811  -1.002  -0.753  0.00  0.00     0.162 A 
ATOM      6  C5  UNL d   1       1.700   0.374  -0.921  0.00  0.00     0.062 A 
ATOM      7  F   UNL d   1       2.804   1.120  -1.077  0.00  0.00    -0.097 F 
ATOM      8  F1  UNL d   1       3.031  -1.560  -0.749  0.00  0.00    -0.096 F 
ATOM      9  I   UNL d   1       0.830  -3.846  -0.338  0.00  0.00    -0.060 I 
ATOM     10  F2  UNL d   1      -1.705  -1.895  -0.445  0.00  0.00    -0.096 F 
ATOM     11  F3  UNL d   1      -1.899   0.786  -0.775  0.00  0.00    -0.097 F 
ATOM     12  F4  UNL d   1       0.346   2.303  -1.091  0.00  0.00    -0.092 F 
ENDROOT
TORSDOF 0
ENDMDL
