MODEL 1
REMARK minimizedAffinity -2.81134486
REMARK minimizedRMSD -1
REMARK  0 active torsions:
REMARK  status: ('A' for Active; 'I' for Inactive)
ROOT
ATOM      1  C   UNL d   1       2.221  -0.515  -1.503  0.00  0.00     0.124 A 
ATOM      2  C1  UNL d   1       1.461  -1.587  -1.057  0.00  0.00     0.062 A 
ATOM      3  C2  UNL d   1       0.388  -1.374  -0.197  0.00  0.00     0.162 A 
ATOM      4  C3  UNL d   1       0.067  -0.083   0.222  0.00  0.00    -0.034 A 
ATOM      5  C4  UNL d   1       0.837   0.990  -0.230  0.00  0.00     0.162 A 
ATOM      6  C5  UNL d   1       1.909   0.772  -1.090  0.00  0.00     0.062 A 
ATOM      7  F   UNL d   1       2.643   1.809  -1.520  0.00  0.00    -0.097 F 
ATOM      8  F1  UNL d   1       0.557   2.244   0.153  0.00  0.00    -0.096 F 
ATOM      9  I   UNL d   1      -1.537   0.240   1.508  0.00  0.00    -0.060 I 
ATOM     10  F2  UNL d   1      -0.330  -2.429   0.218  0.00  0.00    -0.096 F 
ATOM     11  F3  UNL d   1       1.762  -2.832  -1.455  0.00  0.00    -0.097 F 
ATOM     12  F4  UNL d   1       3.254  -0.723  -2.330  0.00  0.00    -0.092 F 
ENDROOT
TORSDOF 0
ENDMDL
