MODEL 1
REMARK minimizedAffinity -2.56146979
REMARK minimizedRMSD -1
REMARK  0 active torsions:
REMARK  status: ('A' for Active; 'I' for Inactive)
ROOT
ATOM      1  C   UNL d   1      -0.484   1.349  -1.096  0.00  0.00     0.124 A 
ATOM      2  C1  UNL d   1      -1.297   0.353  -0.572  0.00  0.00     0.062 A 
ATOM      3  C2  UNL d   1      -0.776  -0.912  -0.315  0.00  0.00     0.162 A 
ATOM      4  C3  UNL d   1       0.565  -1.188  -0.581  0.00  0.00    -0.034 A 
ATOM      5  C4  UNL d   1       1.376  -0.182  -1.110  0.00  0.00     0.162 A 
ATOM      6  C5  UNL d   1       0.850   1.081  -1.364  0.00  0.00     0.062 A 
ATOM      7  F   UNL d   1       1.636   2.042  -1.871  0.00  0.00    -0.097 F 
ATOM      8  F1  UNL d   1       2.669  -0.413  -1.378  0.00  0.00    -0.096 F 
ATOM      9  I   UNL d   1       1.348  -3.078  -0.199  0.00  0.00    -0.060 I 
ATOM     10  F2  UNL d   1      -1.583  -1.855   0.192  0.00  0.00    -0.096 F 
ATOM     11  F3  UNL d   1      -2.587   0.609  -0.312  0.00  0.00    -0.097 F 
ATOM     12  F4  UNL d   1      -0.989   2.565  -1.343  0.00  0.00    -0.092 F 
ENDROOT
TORSDOF 0
ENDMDL
