MODEL 1
REMARK minimizedAffinity -5.02295971
REMARK minimizedRMSD -1
REMARK  0 active torsions:
REMARK  status: ('A' for Active; 'I' for Inactive)
ROOT
ATOM      1  C   UNL d   1       0.620   0.771  -0.928  0.00  0.00     0.124 A 
ATOM      2  C1  UNL d   1      -0.761   0.775  -0.790  0.00  0.00     0.062 A 
ATOM      3  C2  UNL d   1      -1.461  -0.426  -0.725  0.00  0.00     0.162 A 
ATOM      4  C3  UNL d   1      -0.782  -1.642  -0.797  0.00  0.00    -0.034 A 
ATOM      5  C4  UNL d   1       0.607  -1.638  -0.936  0.00  0.00     0.162 A 
ATOM      6  C5  UNL d   1       1.303  -0.435  -1.000  0.00  0.00     0.062 A 
ATOM      7  F   UNL d   1       2.637  -0.441  -1.133  0.00  0.00    -0.097 F 
ATOM      8  F1  UNL d   1       1.292  -2.789  -1.008  0.00  0.00    -0.096 F 
ATOM      9  I   UNL d   1      -1.826  -3.440  -0.700  0.00  0.00    -0.060 I 
ATOM     10  F2  UNL d   1      -2.796  -0.392  -0.593  0.00  0.00    -0.096 F 
ATOM     11  F3  UNL d   1      -1.423   1.939  -0.721  0.00  0.00    -0.097 F 
ATOM     12  F4  UNL d   1       1.292   1.928  -0.991  0.00  0.00    -0.092 F 
ENDROOT
TORSDOF 0
ENDMDL
