MODEL 1
REMARK minimizedAffinity -2.33570266
REMARK minimizedRMSD -1
REMARK  0 active torsions:
REMARK  status: ('A' for Active; 'I' for Inactive)
ROOT
ATOM      1  C   UNL d   1       1.937  -1.419  -1.457  0.00  0.00     0.124 A 
ATOM      2  C1  UNL d   1       0.804  -1.572  -0.669  0.00  0.00     0.062 A 
ATOM      3  C2  UNL d   1      -0.095  -0.520  -0.523  0.00  0.00     0.162 A 
ATOM      4  C3  UNL d   1       0.134   0.695  -1.168  0.00  0.00    -0.034 A 
ATOM      5  C4  UNL d   1       1.275   0.843  -1.958  0.00  0.00     0.162 A 
ATOM      6  C5  UNL d   1       2.171  -0.212  -2.100  0.00  0.00     0.062 A 
ATOM      7  F   UNL d   1       3.265  -0.061  -2.861  0.00  0.00    -0.097 F 
ATOM      8  F1  UNL d   1       1.526   1.998  -2.591  0.00  0.00    -0.096 F 
ATOM      9  I   UNL d   1      -1.209   2.271  -0.952  0.00  0.00    -0.060 I 
ATOM     10  F2  UNL d   1      -1.181  -0.697   0.244  0.00  0.00    -0.096 F 
ATOM     11  F3  UNL d   1       0.576  -2.737  -0.046  0.00  0.00    -0.097 F 
ATOM     12  F4  UNL d   1       2.801  -2.432  -1.595  0.00  0.00    -0.092 F 
ENDROOT
TORSDOF 0
ENDMDL
