MODEL 1
REMARK minimizedAffinity 1.03044093
REMARK minimizedRMSD -1
REMARK  0 active torsions:
REMARK  status: ('A' for Active; 'I' for Inactive)
ROOT
ATOM      1  C1  DEN d   1      -1.999   1.648   0.689  0.00  0.00     0.130 A 
ATOM      2  C2  DEN d   1      -1.980   2.014   2.103  0.00  0.00    -0.031 A 
ATOM      3  C3  DEN d   1      -0.944   1.201   2.771  0.00  0.00     0.027 A 
ATOM      4  C4  DEN d   1       0.627  -0.576   1.759  0.00  0.00     0.027 A 
ATOM      5  C5  DEN d   1       0.975  -1.239   0.603  0.00  0.00    -0.003 A 
ATOM      6  C6  DEN d   1       0.338  -1.013  -0.589  0.00  0.00     0.001 A 
ATOM      7  C7  DEN d   1      -0.651  -0.067  -0.661  0.00  0.00     0.017 A 
ATOM      8  C8  DEN d   1      -1.012   0.600   0.502  0.00  0.00    -0.094 A 
ATOM      9  C9  DEN d   1      -0.347   0.366   1.694  0.00  0.00    -0.072 A 
ENDROOT
TORSDOF 0
ENDMDL
