MODEL 1
REMARK minimizedAffinity -3.09289432
REMARK minimizedRMSD -1
REMARK  0 active torsions:
REMARK  status: ('A' for Active; 'I' for Inactive)
ROOT
ATOM      1  C1  DEN d   1       0.436   1.645  -1.045  0.00  0.00     0.130 A 
ATOM      2  C2  DEN d   1       1.520   0.743  -1.426  0.00  0.00    -0.031 A 
ATOM      3  C3  DEN d   1       1.529  -0.386  -0.474  0.00  0.00     0.027 A 
ATOM      4  C4  DEN d   1      -0.023  -0.826   1.538  0.00  0.00     0.027 A 
ATOM      5  C5  DEN d   1      -1.086  -0.335   2.264  0.00  0.00    -0.003 A 
ATOM      6  C6  DEN d   1      -1.689   0.857   1.961  0.00  0.00     0.001 A 
ATOM      7  C7  DEN d   1      -1.262   1.577   0.877  0.00  0.00     0.017 A 
ATOM      8  C8  DEN d   1      -0.187   1.092   0.144  0.00  0.00    -0.094 A 
ATOM      9  C9  DEN d   1       0.401  -0.121   0.459  0.00  0.00    -0.072 A 
ENDROOT
TORSDOF 0
ENDMDL
