MODEL 1
REMARK minimizedAffinity -1.72272849
REMARK minimizedRMSD -1
REMARK  0 active torsions:
REMARK  status: ('A' for Active; 'I' for Inactive)
ROOT
ATOM      1  C1  DEN d   1      -1.240  -0.207   2.024  0.00  0.00     0.130 A 
ATOM      2  C2  DEN d   1      -1.602   1.183   2.285  0.00  0.00    -0.031 A 
ATOM      3  C3  DEN d   1      -1.086   2.006   1.172  0.00  0.00     0.027 A 
ATOM      4  C4  DEN d   1       0.227   1.265  -0.921  0.00  0.00     0.027 A 
ATOM      5  C5  DEN d   1       0.780   0.186  -1.575  0.00  0.00    -0.003 A 
ATOM      6  C6  DEN d   1       0.729  -1.083  -1.064  0.00  0.00     0.001 A 
ATOM      7  C7  DEN d   1       0.071  -1.314   0.116  0.00  0.00     0.017 A 
ATOM      8  C8  DEN d   1      -0.483  -0.230   0.785  0.00  0.00    -0.094 A 
ATOM      9  C9  DEN d   1      -0.431   1.043   0.246  0.00  0.00    -0.072 A 
ENDROOT
TORSDOF 0
ENDMDL
