MODEL 1
REMARK minimizedAffinity -1.32998323
REMARK minimizedRMSD -1
REMARK  0 active torsions:
REMARK  status: ('A' for Active; 'I' for Inactive)
ROOT
ATOM      1  C1  DEN d   1      -0.674  -0.877   0.638  0.00  0.00     0.130 A 
ATOM      2  C2  DEN d   1       0.524  -1.664   0.359  0.00  0.00    -0.031 A 
ATOM      3  C3  DEN d   1       1.387  -0.877  -0.544  0.00  0.00     0.027 A 
ATOM      4  C4  DEN d   1       0.989   1.474  -1.527  0.00  0.00     0.027 A 
ATOM      5  C5  DEN d   1       0.110   2.533  -1.585  0.00  0.00    -0.003 A 
ATOM      6  C6  DEN d   1      -1.097   2.515  -0.938  0.00  0.00     0.001 A 
ATOM      7  C7  DEN d   1      -1.439   1.435  -0.169  0.00  0.00     0.017 A 
ATOM      8  C8  DEN d   1      -0.561   0.361  -0.112  0.00  0.00    -0.094 A 
ATOM      9  C9  DEN d   1       0.660   0.403  -0.763  0.00  0.00    -0.072 A 
ENDROOT
TORSDOF 0
ENDMDL
