MODEL 1
REMARK minimizedAffinity -1.90864038
REMARK minimizedRMSD -1
REMARK  0 active torsions:
REMARK  status: ('A' for Active; 'I' for Inactive)
ROOT
ATOM      1  C1  DEN d   1      -0.743   1.868   1.230  0.00  0.00     0.130 A 
ATOM      2  C2  DEN d   1      -1.518   0.914   2.018  0.00  0.00    -0.031 A 
ATOM      3  C3  DEN d   1      -1.224  -0.442   1.511  0.00  0.00     0.027 A 
ATOM      4  C4  DEN d   1       0.351  -1.152  -0.404  0.00  0.00     0.027 A 
ATOM      5  C5  DEN d   1       1.216  -0.695  -1.373  0.00  0.00    -0.003 A 
ATOM      6  C6  DEN d   1       1.460   0.639  -1.564  0.00  0.00     0.001 A 
ATOM      7  C7  DEN d   1       0.867   1.562  -0.744  0.00  0.00     0.017 A 
ATOM      8  C8  DEN d   1      -0.012   1.109   0.231  0.00  0.00    -0.094 A 
ATOM      9  C9  DEN d   1      -0.236  -0.244   0.417  0.00  0.00    -0.072 A 
ENDROOT
TORSDOF 0
ENDMDL
