MODEL 1
REMARK minimizedAffinity -3.45343566
REMARK minimizedRMSD -1
REMARK  0 active torsions:
REMARK  status: ('A' for Active; 'I' for Inactive)
ROOT
ATOM      1  C1  DEN d   1      -0.607  -0.491   2.135  0.00  0.00     0.130 A 
ATOM      2  C2  DEN d   1      -1.258   0.688   2.699  0.00  0.00    -0.031 A 
ATOM      3  C3  DEN d   1      -1.086   1.803   1.746  0.00  0.00     0.027 A 
ATOM      4  C4  DEN d   1       0.115   1.817  -0.536  0.00  0.00     0.027 A 
ATOM      5  C5  DEN d   1       0.831   1.055  -1.433  0.00  0.00    -0.003 A 
ATOM      6  C6  DEN d   1       1.144  -0.256  -1.190  0.00  0.00     0.001 A 
ATOM      7  C7  DEN d   1       0.702  -0.858  -0.041  0.00  0.00     0.017 A 
ATOM      8  C8  DEN d   1      -0.014  -0.094   0.871  0.00  0.00    -0.094 A 
ATOM      9  C9  DEN d   1      -0.331   1.227   0.601  0.00  0.00    -0.072 A 
ENDROOT
TORSDOF 0
ENDMDL
