MODEL 1
REMARK minimizedAffinity -4.89417171
REMARK minimizedRMSD -1
REMARK  0 active torsions:
REMARK  status: ('A' for Active; 'I' for Inactive)
ROOT
ATOM      1  C1  DEN d   1      -0.232  -1.711  -0.458  0.00  0.00     0.130 A 
ATOM      2  C2  DEN d   1       0.998  -1.280  -1.115  0.00  0.00    -0.031 A 
ATOM      3  C3  DEN d   1       1.061   0.193  -1.047  0.00  0.00     0.027 A 
ATOM      4  C4  DEN d   1      -0.618   1.841   0.012  0.00  0.00     0.027 A 
ATOM      5  C5  DEN d   1      -1.819   1.946   0.678  0.00  0.00    -0.003 A 
ATOM      6  C6  DEN d   1      -2.586   0.852   0.979  0.00  0.00     0.001 A 
ATOM      7  C7  DEN d   1      -2.138  -0.401   0.654  0.00  0.00     0.017 A 
ATOM      8  C8  DEN d   1      -0.931  -0.515  -0.024  0.00  0.00    -0.094 A 
ATOM      9  C9  DEN d   1      -0.165   0.603  -0.309  0.00  0.00    -0.072 A 
ENDROOT
TORSDOF 0
ENDMDL
