MODEL 1
REMARK minimizedAffinity -5.47478199
REMARK minimizedRMSD -1
REMARK  0 active torsions:
REMARK  status: ('A' for Active; 'I' for Inactive)
ROOT
ATOM      1  C1  DEN d   1       0.782  -0.165   0.013  0.00  0.00     0.130 A 
ATOM      2  C2  DEN d   1      -0.480   0.458   0.401  0.00  0.00    -0.031 A 
ATOM      3  C3  DEN d   1      -1.570  -0.234  -0.315  0.00  0.00     0.027 A 
ATOM      4  C4  DEN d   1      -1.427  -2.204  -1.974  0.00  0.00     0.027 A 
ATOM      5  C5  DEN d   1      -0.569  -3.063  -2.625  0.00  0.00    -0.003 A 
ATOM      6  C6  DEN d   1       0.790  -2.995  -2.469  0.00  0.00     0.001 A 
ATOM      7  C7  DEN d   1       1.330  -2.076  -1.608  0.00  0.00     0.017 A 
ATOM      8  C8  DEN d   1       0.472  -1.202  -0.954  0.00  0.00    -0.094 A 
ATOM      9  C9  DEN d   1      -0.900  -1.294  -1.115  0.00  0.00    -0.072 A 
ENDROOT
TORSDOF 0
ENDMDL
