MODEL 1
REMARK minimizedAffinity -4.435431
REMARK minimizedRMSD -1
REMARK  0 active torsions:
REMARK  status: ('A' for Active; 'I' for Inactive)
ROOT
ATOM      1  C1  DEN d   1      -1.062   3.751   0.220  0.00  0.00     0.130 A 
ATOM      2  C2  DEN d   1      -0.285   3.649  -1.012  0.00  0.00    -0.031 A 
ATOM      3  C3  DEN d   1       0.081   2.232  -1.206  0.00  0.00     0.027 A 
ATOM      4  C4  DEN d   1      -0.482   0.195   0.272  0.00  0.00     0.027 A 
ATOM      5  C5  DEN d   1      -1.110  -0.215   1.428  0.00  0.00    -0.003 A 
ATOM      6  C6  DEN d   1      -1.732   0.666   2.272  0.00  0.00     0.001 A 
ATOM      7  C7  DEN d   1      -1.779   1.997   1.950  0.00  0.00     0.017 A 
ATOM      8  C8  DEN d   1      -1.141   2.418   0.791  0.00  0.00    -0.094 A 
ATOM      9  C9  DEN d   1      -0.528   1.511  -0.056  0.00  0.00    -0.072 A 
ENDROOT
TORSDOF 0
ENDMDL
