MODEL 1
REMARK minimizedAffinity -1.21689403
REMARK minimizedRMSD -1
REMARK  0 active torsions:
REMARK  status: ('A' for Active; 'I' for Inactive)
ROOT
ATOM      1  C1  DEN d   1      -0.596   0.019  -1.397  0.00  0.00     0.130 A 
ATOM      2  C2  DEN d   1       0.557  -0.776  -0.984  0.00  0.00    -0.031 A 
ATOM      3  C3  DEN d   1       0.761  -0.566   0.464  0.00  0.00     0.027 A 
ATOM      4  C4  DEN d   1      -0.593   0.900   2.097  0.00  0.00     0.027 A 
ATOM      5  C5  DEN d   1      -1.655   1.771   2.208  0.00  0.00    -0.003 A 
ATOM      6  C6  DEN d   1      -2.410   2.142   1.128  0.00  0.00     0.001 A 
ATOM      7  C7  DEN d   1      -2.143   1.606  -0.104  0.00  0.00     0.017 A 
ATOM      8  C8  DEN d   1      -1.070   0.733  -0.225  0.00  0.00    -0.094 A 
ATOM      9  C9  DEN d   1      -0.326   0.360   0.881  0.00  0.00    -0.072 A 
ENDROOT
TORSDOF 0
ENDMDL
