MODEL 1
REMARK minimizedAffinity -4.45858955
REMARK minimizedRMSD -1
REMARK  0 active torsions:
REMARK  status: ('A' for Active; 'I' for Inactive)
ROOT
ATOM      1  C1  DEN d   1      -1.094   2.501   1.947  0.00  0.00     0.130 A 
ATOM      2  C2  DEN d   1      -1.862   3.208   0.926  0.00  0.00    -0.031 A 
ATOM      3  C3  DEN d   1      -2.097   2.277  -0.196  0.00  0.00     0.027 A 
ATOM      4  C4  DEN d   1      -1.355  -0.181  -0.446  0.00  0.00     0.027 A 
ATOM      5  C5  DEN d   1      -0.670  -1.213   0.156  0.00  0.00    -0.003 A 
ATOM      6  C6  DEN d   1      -0.056  -1.072   1.372  0.00  0.00     0.001 A 
ATOM      7  C7  DEN d   1      -0.151   0.117   2.046  0.00  0.00     0.017 A 
ATOM      8  C8  DEN d   1      -0.833   1.165   1.442  0.00  0.00    -0.094 A 
ATOM      9  C9  DEN d   1      -1.458   0.998   0.218  0.00  0.00    -0.072 A 
ENDROOT
TORSDOF 0
ENDMDL
