MODEL 1
REMARK minimizedAffinity -6.59821367
REMARK minimizedRMSD -1
REMARK  0 active torsions:
REMARK  status: ('A' for Active; 'I' for Inactive)
ROOT
ATOM      1  C1  DEN d   1      -1.463  -0.706  -3.500  0.00  0.00     0.130 A 
ATOM      2  C2  DEN d   1      -2.242  -1.725  -2.803  0.00  0.00    -0.031 A 
ATOM      3  C3  DEN d   1      -1.812  -1.742  -1.390  0.00  0.00     0.027 A 
ATOM      4  C4  DEN d   1      -0.028  -0.293  -0.220  0.00  0.00     0.027 A 
ATOM      5  C5  DEN d   1       0.906   0.703  -0.402  0.00  0.00    -0.003 A 
ATOM      6  C6  DEN d   1       1.138   1.270  -1.627  0.00  0.00     0.001 A 
ATOM      7  C7  DEN d   1       0.395   0.878  -2.709  0.00  0.00     0.017 A 
ATOM      8  C8  DEN d   1      -0.544  -0.131  -2.534  0.00  0.00    -0.094 A 
ATOM      9  C9  DEN d   1      -0.772  -0.684  -1.285  0.00  0.00    -0.072 A 
ENDROOT
TORSDOF 0
ENDMDL
