MODEL 1
REMARK minimizedAffinity -4.10120392
REMARK minimizedRMSD -1
REMARK  0 active torsions:
REMARK  status: ('A' for Active; 'I' for Inactive)
ROOT
ATOM      1  C1  DEN d   1      -0.733  -1.384  -0.865  0.00  0.00     0.130 A 
ATOM      2  C2  DEN d   1       0.660  -1.151  -1.236  0.00  0.00    -0.031 A 
ATOM      3  C3  DEN d   1       1.090   0.121  -0.621  0.00  0.00     0.027 A 
ATOM      4  C4  DEN d   1      -0.258   1.742   0.866  0.00  0.00     0.027 A 
ATOM      5  C5  DEN d   1      -1.485   1.976   1.445  0.00  0.00    -0.003 A 
ATOM      6  C6  DEN d   1      -2.549   1.131   1.269  0.00  0.00     0.001 A 
ATOM      7  C7  DEN d   1      -2.393  -0.012   0.531  0.00  0.00     0.017 A 
ATOM      8  C8  DEN d   1      -1.161  -0.251  -0.063  0.00  0.00    -0.094 A 
ATOM      9  C9  DEN d   1      -0.094   0.608   0.137  0.00  0.00    -0.072 A 
ENDROOT
TORSDOF 0
ENDMDL
