MODEL 1
REMARK minimizedAffinity -1.4256469
REMARK minimizedRMSD -1
REMARK  0 active torsions:
REMARK  status: ('A' for Active; 'I' for Inactive)
ROOT
ATOM      1  C2' OXE d   1       2.404  -0.661   0.317  0.00  0.00     0.078 C 
ATOM      2  C1' OXE d   1       1.430   1.801  -0.615  0.00  0.00     0.078 C 
ATOM      3  C1  OXE d   1       0.432   0.811  -0.068  0.00  0.00    -0.078 A 
ATOM      4  C2  OXE d   1       0.912  -0.409   0.343  0.00  0.00    -0.078 A 
ATOM      5  C3  OXE d   1       0.042  -1.337   0.907  0.00  0.00     0.003 A 
ATOM      6  C4  OXE d   1      -1.338  -1.100   0.918  0.00  0.00    -0.002 A 
ATOM      7  C5  OXE d   1      -1.852   0.120   0.468  0.00  0.00    -0.002 A 
ATOM      8  C6  OXE d   1      -0.978   1.101   0.012  0.00  0.00     0.003 A 
ENDROOT
TORSDOF 0
ENDMDL
