MODEL 1
REMARK minimizedAffinity -4.80704594
REMARK minimizedRMSD -1
REMARK  0 active torsions:
REMARK  status: ('A' for Active; 'I' for Inactive)
ROOT
ATOM      1  C2' OXE d   1       1.456  -1.518  -0.002  0.00  0.00     0.078 C 
ATOM      2  C1' OXE d   1      -1.152  -2.371   0.587  0.00  0.00     0.078 C 
ATOM      3  C1  OXE d   1      -0.859  -0.894   0.674  0.00  0.00    -0.078 A 
ATOM      4  C2  OXE d   1       0.432  -0.491   0.430  0.00  0.00    -0.078 A 
ATOM      5  C3  OXE d   1       0.744   0.866   0.443  0.00  0.00     0.003 A 
ATOM      6  C4  OXE d   1      -0.206   1.808   0.853  0.00  0.00    -0.002 A 
ATOM      7  C5  OXE d   1      -1.516   1.414   1.145  0.00  0.00    -0.002 A 
ATOM      8  C6  OXE d   1      -1.869   0.075   1.020  0.00  0.00     0.003 A 
ENDROOT
TORSDOF 0
ENDMDL
