MODEL 1
REMARK minimizedAffinity -1.41284347
REMARK minimizedRMSD -1
REMARK  0 active torsions:
REMARK  status: ('A' for Active; 'I' for Inactive)
ROOT
ATOM      1  C2' OXE d   1      -3.293   0.775   1.017  0.00  0.00     0.078 C 
ATOM      2  C1' OXE d   1      -2.102  -1.689   0.392  0.00  0.00     0.078 C 
ATOM      3  C1  OXE d   1      -1.254  -0.447   0.274  0.00  0.00    -0.078 A 
ATOM      4  C2  OXE d   1      -1.858   0.759   0.537  0.00  0.00    -0.078 A 
ATOM      5  C3  OXE d   1      -1.106   1.930   0.496  0.00  0.00     0.003 A 
ATOM      6  C4  OXE d   1       0.218   1.907   0.042  0.00  0.00    -0.002 A 
ATOM      7  C5  OXE d   1       0.841   0.693  -0.269  0.00  0.00    -0.002 A 
ATOM      8  C6  OXE d   1       0.133  -0.494  -0.117  0.00  0.00     0.003 A 
ENDROOT
TORSDOF 0
ENDMDL
