MODEL 1
REMARK minimizedAffinity -5.22013617
REMARK minimizedRMSD -1
REMARK  0 active torsions:
REMARK  status: ('A' for Active; 'I' for Inactive)
ROOT
ATOM      1  C2' OXE d   1       2.063  -1.033   0.515  0.00  0.00     0.078 C 
ATOM      2  C1' OXE d   1       0.632   1.147  -0.522  0.00  0.00     0.078 C 
ATOM      3  C1  OXE d   1      -0.157  -0.001   0.055  0.00  0.00    -0.078 A 
ATOM      4  C2  OXE d   1       0.550  -1.085   0.518  0.00  0.00    -0.078 A 
ATOM      5  C3  OXE d   1      -0.126  -2.147   1.110  0.00  0.00     0.003 A 
ATOM      6  C4  OXE d   1      -1.525  -2.192   1.100  0.00  0.00    -0.002 A 
ATOM      7  C5  OXE d   1      -2.265  -1.116   0.597  0.00  0.00    -0.002 A 
ATOM      8  C6  OXE d   1      -1.598   0.002   0.111  0.00  0.00     0.003 A 
ENDROOT
TORSDOF 0
ENDMDL
