MODEL 1
REMARK minimizedAffinity -3.82467532
REMARK minimizedRMSD -1
REMARK  0 active torsions:
REMARK  status: ('A' for Active; 'I' for Inactive)
ROOT
ATOM      1  C2' OXE d   1      -2.602   0.130   0.786  0.00  0.00     0.078 C 
ATOM      2  C1' OXE d   1      -1.526  -2.460   0.898  0.00  0.00     0.078 C 
ATOM      3  C1  OXE d   1      -0.645  -1.355   0.372  0.00  0.00    -0.078 A 
ATOM      4  C2  OXE d   1      -1.196  -0.099   0.277  0.00  0.00    -0.078 A 
ATOM      5  C3  OXE d   1      -0.410   0.967  -0.151  0.00  0.00     0.003 A 
ATOM      6  C4  OXE d   1       0.887   0.745  -0.629  0.00  0.00    -0.002 A 
ATOM      7  C5  OXE d   1       1.453  -0.533  -0.579  0.00  0.00    -0.002 A 
ATOM      8  C6  OXE d   1       0.717  -1.584  -0.043  0.00  0.00     0.003 A 
ENDROOT
TORSDOF 0
ENDMDL
