MODEL 1
REMARK minimizedAffinity -0.999932051
REMARK minimizedRMSD -1
REMARK  0 active torsions:
REMARK  status: ('A' for Active; 'I' for Inactive)
ROOT
ATOM      1  C2' OXE d   1      -1.058  -2.089   1.614  0.00  0.00     0.078 C 
ATOM      2  C1' OXE d   1      -2.095   0.511   1.407  0.00  0.00     0.078 C 
ATOM      3  C1  OXE d   1      -0.862   0.180   0.605  0.00  0.00    -0.078 A 
ATOM      4  C2  OXE d   1      -0.334  -1.080   0.748  0.00  0.00    -0.078 A 
ATOM      5  C3  OXE d   1       0.771  -1.455  -0.011  0.00  0.00     0.003 A 
ATOM      6  C4  OXE d   1       1.440  -0.513  -0.802  0.00  0.00    -0.002 A 
ATOM      7  C5  OXE d   1       0.942   0.788  -0.930  0.00  0.00    -0.002 A 
ATOM      8  C6  OXE d   1      -0.230   1.138  -0.269  0.00  0.00     0.003 A 
ENDROOT
TORSDOF 0
ENDMDL
