MODEL 1
REMARK minimizedAffinity -4.76951265
REMARK minimizedRMSD -1
REMARK  0 active torsions:
REMARK  status: ('A' for Active; 'I' for Inactive)
ROOT
ATOM      1  C2' OXE d   1      -1.139  -2.282   0.733  0.00  0.00     0.078 C 
ATOM      2  C1' OXE d   1      -2.185   0.319   0.880  0.00  0.00     0.078 C 
ATOM      3  C1  OXE d   1      -0.781   0.155   0.355  0.00  0.00    -0.078 A 
ATOM      4  C2  OXE d   1      -0.260  -1.117   0.330  0.00  0.00    -0.078 A 
ATOM      5  C3  OXE d   1       1.010  -1.331  -0.196  0.00  0.00     0.003 A 
ATOM      6  C4  OXE d   1       1.820  -0.247  -0.557  0.00  0.00    -0.002 A 
ATOM      7  C5  OXE d   1       1.323   1.059  -0.503  0.00  0.00    -0.002 A 
ATOM      8  C6  OXE d   1       0.013   1.273  -0.090  0.00  0.00     0.003 A 
ENDROOT
TORSDOF 0
ENDMDL
