MODEL 1
REMARK minimizedAffinity -5.0172348
REMARK minimizedRMSD -1
REMARK  0 active torsions:
REMARK  status: ('A' for Active; 'I' for Inactive)
ROOT
ATOM      1  C2' OXE d   1       0.370   0.359  -0.003  0.00  0.00     0.078 C 
ATOM      2  C1' OXE d   1      -1.939   1.516   1.098  0.00  0.00     0.078 C 
ATOM      3  C1  OXE d   1      -1.805   0.015   1.161  0.00  0.00    -0.078 A 
ATOM      4  C2  OXE d   1      -0.694  -0.546   0.578  0.00  0.00    -0.078 A 
ATOM      5  C3  OXE d   1      -0.495  -1.922   0.656  0.00  0.00     0.003 A 
ATOM      6  C4  OXE d   1      -1.490  -2.753   1.187  0.00  0.00    -0.002 A 
ATOM      7  C5  OXE d   1      -2.647  -2.205   1.749  0.00  0.00    -0.002 A 
ATOM      8  C6  OXE d   1      -2.801  -0.823   1.783  0.00  0.00     0.003 A 
ENDROOT
TORSDOF 0
ENDMDL
