MODEL 1
REMARK minimizedAffinity -2.72987509
REMARK minimizedRMSD -1
REMARK  0 active torsions:
REMARK  status: ('A' for Active; 'I' for Inactive)
ROOT
ATOM      1  C2' OXE d   1      -2.125   0.820   0.997  0.00  0.00     0.078 C 
ATOM      2  C1' OXE d   1       0.163   1.513  -0.475  0.00  0.00     0.078 C 
ATOM      3  C1  OXE d   1       0.137   0.159   0.189  0.00  0.00    -0.078 A 
ATOM      4  C2  OXE d   1      -0.967  -0.153   0.945  0.00  0.00    -0.078 A 
ATOM      5  C3  OXE d   1      -1.066  -1.411   1.534  0.00  0.00     0.003 A 
ATOM      6  C4  OXE d   1       0.014  -2.301   1.490  0.00  0.00    -0.002 A 
ATOM      7  C5  OXE d   1       1.164  -1.987   0.758  0.00  0.00    -0.002 A 
ATOM      8  C6  OXE d   1       1.224  -0.781   0.067  0.00  0.00     0.003 A 
ENDROOT
TORSDOF 0
ENDMDL
