MODEL 1
REMARK minimizedAffinity -3.87287807
REMARK minimizedRMSD -1
REMARK  0 active torsions:
REMARK  status: ('A' for Active; 'I' for Inactive)
ROOT
ATOM      1  C2' OXE d   1       1.905  -1.261   0.108  0.00  0.00     0.078 C 
ATOM      2  C1' OXE d   1       0.251   0.864  -0.683  0.00  0.00     0.078 C 
ATOM      3  C1  OXE d   1      -0.404  -0.342  -0.057  0.00  0.00    -0.078 A 
ATOM      4  C2  OXE d   1       0.408  -1.397   0.284  0.00  0.00    -0.078 A 
ATOM      5  C3  OXE d   1      -0.137  -2.511   0.915  0.00  0.00     0.003 A 
ATOM      6  C4  OXE d   1      -1.524  -2.633   1.065  0.00  0.00    -0.002 A 
ATOM      7  C5  OXE d   1      -2.373  -1.587   0.688  0.00  0.00    -0.002 A 
ATOM      8  C6  OXE d   1      -1.827  -0.420   0.165  0.00  0.00     0.003 A 
ENDROOT
TORSDOF 0
ENDMDL
