MODEL 1
REMARK minimizedAffinity -4.20401239
REMARK minimizedRMSD -1
REMARK  0 active torsions:
REMARK  status: ('A' for Active; 'I' for Inactive)
ROOT
ATOM      1  C2' OXE d   1       2.230  -0.741   0.880  0.00  0.00     0.078 C 
ATOM      2  C1' OXE d   1       0.803   0.984  -0.813  0.00  0.00     0.078 C 
ATOM      3  C1  OXE d   1       0.024  -0.062  -0.056  0.00  0.00    -0.078 A 
ATOM      4  C2  OXE d   1       0.736  -0.932   0.734  0.00  0.00    -0.078 A 
ATOM      5  C3  OXE d   1       0.061  -1.881   1.497  0.00  0.00     0.003 A 
ATOM      6  C4  OXE d   1      -1.320  -2.058   1.348  0.00  0.00    -0.002 A 
ATOM      7  C5  OXE d   1      -2.059  -1.208   0.518  0.00  0.00    -0.002 A 
ATOM      8  C6  OXE d   1      -1.410  -0.180  -0.157  0.00  0.00     0.003 A 
ENDROOT
TORSDOF 0
ENDMDL
