MODEL 1
REMARK minimizedAffinity -5.07989454
REMARK minimizedRMSD -1
REMARK  0 active torsions:
REMARK  status: ('A' for Active; 'I' for Inactive)
ROOT
ATOM      1  C2' OXE d   1       0.081   1.015  -0.173  0.00  0.00     0.078 C 
ATOM      2  C1' OXE d   1       1.956  -1.019   0.301  0.00  0.00     0.078 C 
ATOM      3  C1  OXE d   1       0.508  -1.313   0.602  0.00  0.00    -0.078 A 
ATOM      4  C2  OXE d   1      -0.396  -0.297   0.411  0.00  0.00    -0.078 A 
ATOM      5  C3  OXE d   1      -1.752  -0.531   0.621  0.00  0.00     0.003 A 
ATOM      6  C4  OXE d   1      -2.185  -1.744   1.171  0.00  0.00    -0.002 A 
ATOM      7  C5  OXE d   1      -1.275  -2.780   1.410  0.00  0.00    -0.002 A 
ATOM      8  C6  OXE d   1       0.066  -2.596   1.092  0.00  0.00     0.003 A 
ENDROOT
TORSDOF 0
ENDMDL
