MODEL 1
REMARK minimizedAffinity -4.0224247
REMARK minimizedRMSD -1
REMARK  0 active torsions:
REMARK  status: ('A' for Active; 'I' for Inactive)
ROOT
ATOM      1  C2' OXE d   1       0.714   0.672  -0.992  0.00  0.00     0.078 C 
ATOM      2  C1' OXE d   1       1.998  -0.777   1.041  0.00  0.00     0.078 C 
ATOM      3  C1  OXE d   1       0.607  -1.205   0.643  0.00  0.00    -0.078 A 
ATOM      4  C2  OXE d   1      -0.032  -0.461  -0.320  0.00  0.00    -0.078 A 
ATOM      5  C3  OXE d   1      -1.294  -0.845  -0.763  0.00  0.00     0.003 A 
ATOM      6  C4  OXE d   1      -1.980  -1.888  -0.130  0.00  0.00    -0.002 A 
ATOM      7  C5  OXE d   1      -1.364  -2.634   0.880  0.00  0.00    -0.002 A 
ATOM      8  C6  OXE d   1      -0.057  -2.333   1.248  0.00  0.00     0.003 A 
ENDROOT
TORSDOF 0
ENDMDL
