MODEL 1
REMARK minimizedAffinity -1.13846028
REMARK minimizedRMSD -1
REMARK  0 active torsions:
REMARK  status: ('A' for Active; 'I' for Inactive)
ROOT
ATOM      1  C2' OXE d   1      -2.645   0.801   0.787  0.00  0.00     0.078 C 
ATOM      2  C1' OXE d   1      -1.855  -1.884   0.997  0.00  0.00     0.078 C 
ATOM      3  C1  OXE d   1      -0.851  -0.896   0.460  0.00  0.00    -0.078 A 
ATOM      4  C2  OXE d   1      -1.261   0.408   0.317  0.00  0.00    -0.078 A 
ATOM      5  C3  OXE d   1      -0.357   1.371  -0.122  0.00  0.00     0.003 A 
ATOM      6  C4  OXE d   1       0.917   0.998  -0.564  0.00  0.00    -0.002 A 
ATOM      7  C5  OXE d   1       1.342  -0.331  -0.464  0.00  0.00    -0.002 A 
ATOM      8  C6  OXE d   1       0.487  -1.281   0.084  0.00  0.00     0.003 A 
ENDROOT
TORSDOF 0
ENDMDL
