MODEL 1
REMARK minimizedAffinity -6.48070431
REMARK minimizedRMSD -1
REMARK  0 active torsions:
REMARK  status: ('A' for Active; 'I' for Inactive)
ROOT
ATOM      1  C2' OXE d   1       0.287   1.123   0.107  0.00  0.00     0.078 C 
ATOM      2  C1' OXE d   1       1.177  -1.532   0.296  0.00  0.00     0.078 C 
ATOM      3  C1  OXE d   1      -0.169  -1.197   0.890  0.00  0.00    -0.078 A 
ATOM      4  C2  OXE d   1      -0.576   0.114   0.834  0.00  0.00    -0.078 A 
ATOM      5  C3  OXE d   1      -1.832   0.467   1.318  0.00  0.00     0.003 A 
ATOM      6  C4  OXE d   1      -2.619  -0.470   1.998  0.00  0.00    -0.002 A 
ATOM      7  C5  OXE d   1      -2.206  -1.803   2.101  0.00  0.00    -0.002 A 
ATOM      8  C6  OXE d   1      -1.005  -2.191   1.516  0.00  0.00     0.003 A 
ENDROOT
TORSDOF 0
ENDMDL
