MODEL 1
REMARK minimizedAffinity -3.96071124
REMARK minimizedRMSD -1
REMARK  0 active torsions:
REMARK  status: ('A' for Active; 'I' for Inactive)
ROOT
ATOM      1  C2' OXE d   1       2.098  -1.096   0.721  0.00  0.00     0.078 C 
ATOM      2  C1' OXE d   1       0.676   1.078  -0.344  0.00  0.00     0.078 C 
ATOM      3  C1  OXE d   1      -0.118  -0.074   0.220  0.00  0.00    -0.078 A 
ATOM      4  C2  OXE d   1       0.586  -1.154   0.696  0.00  0.00    -0.078 A 
ATOM      5  C3  OXE d   1      -0.096  -2.219   1.278  0.00  0.00     0.003 A 
ATOM      6  C4  OXE d   1      -1.495  -2.270   1.241  0.00  0.00    -0.002 A 
ATOM      7  C5  OXE d   1      -2.231  -1.198   0.724  0.00  0.00    -0.002 A 
ATOM      8  C6  OXE d   1      -1.560  -0.077   0.249  0.00  0.00     0.003 A 
ENDROOT
TORSDOF 0
ENDMDL
