MODEL 1
REMARK minimizedAffinity -2.18001342
REMARK minimizedRMSD -1
REMARK  0 active torsions:
REMARK  status: ('A' for Active; 'I' for Inactive)
ROOT
ATOM      1  O1  BZF d   1       3.881  -4.344  -2.101  0.00  0.00    -0.204 OA
ATOM      2  C2  BZF d   1       2.906  -5.238  -1.704  0.00  0.00     0.174 A 
ATOM      3  C3  BZF d   1       2.478  -5.975  -2.750  0.00  0.00    -0.012 A 
ATOM      4  C3A BZF d   1       3.299  -5.576  -3.852  0.00  0.00    -0.107 A 
ATOM      5  C4  BZF d   1       3.366  -5.961  -5.160  0.00  0.00     0.055 A 
ATOM      6  C5  BZF d   1       4.230  -5.323  -5.993  0.00  0.00    -0.016 A 
ATOM      7  C6  BZF d   1       5.036  -4.294  -5.553  0.00  0.00     0.022 A 
ATOM      8  C7  BZF d   1       5.008  -3.880  -4.263  0.00  0.00     0.029 A 
ATOM      9  C7A BZF d   1       4.160  -4.545  -3.411  0.00  0.00     0.058 A 
ENDROOT
TORSDOF 0
ENDMDL
