MODEL 1
REMARK minimizedAffinity -3.64439917
REMARK minimizedRMSD -1
REMARK  0 active torsions:
REMARK  status: ('A' for Active; 'I' for Inactive)
ROOT
ATOM      1  O1  BZF d   1       3.776  -0.487  -5.005  0.00  0.00    -0.204 OA
ATOM      2  C2  BZF d   1       4.795  -0.219  -4.111  0.00  0.00     0.174 A 
ATOM      3  C3  BZF d   1       5.374  -1.361  -3.689  0.00  0.00    -0.012 A 
ATOM      4  C3A BZF d   1       4.734  -2.404  -4.431  0.00  0.00    -0.107 A 
ATOM      5  C4  BZF d   1       4.886  -3.760  -4.466  0.00  0.00     0.055 A 
ATOM      6  C5  BZF d   1       4.054  -4.499  -5.246  0.00  0.00    -0.016 A 
ATOM      7  C6  BZF d   1       3.056  -3.915  -5.998  0.00  0.00     0.022 A 
ATOM      8  C7  BZF d   1       2.869  -2.572  -6.000  0.00  0.00     0.029 A 
ATOM      9  C7A BZF d   1       3.730  -1.821  -5.238  0.00  0.00     0.058 A 
ENDROOT
TORSDOF 0
ENDMDL
