MODEL 1
REMARK minimizedAffinity 9.21489143
REMARK minimizedRMSD -1
REMARK  0 active torsions:
REMARK  status: ('A' for Active; 'I' for Inactive)
ROOT
ATOM      1  O1  BZF d   1      -0.216   1.053  -0.339  0.00  0.00    -0.204 OA
ATOM      2  C2  BZF d   1       0.094   2.227  -0.998  0.00  0.00     0.174 A 
ATOM      3  C3  BZF d   1       1.176   2.813  -0.447  0.00  0.00    -0.012 A 
ATOM      4  C3A BZF d   1       1.622   1.905   0.565  0.00  0.00    -0.107 A 
ATOM      5  C4  BZF d   1       2.663   1.922   1.448  0.00  0.00     0.055 A 
ATOM      6  C5  BZF d   1       2.777   0.915   2.354  0.00  0.00    -0.016 A 
ATOM      7  C6  BZF d   1       1.866  -0.119   2.408  0.00  0.00     0.022 A 
ATOM      8  C7  BZF d   1       0.819  -0.181   1.550  0.00  0.00     0.029 A 
ATOM      9  C7A BZF d   1       0.720   0.817   0.612  0.00  0.00     0.058 A 
ENDROOT
TORSDOF 0
ENDMDL
