MODEL 1
REMARK minimizedAffinity 9.92560768
REMARK minimizedRMSD -1
REMARK  0 active torsions:
REMARK  status: ('A' for Active; 'I' for Inactive)
ROOT
ATOM      1  O1  BZF d   1       0.368  -0.637   0.714  0.00  0.00    -0.204 OA
ATOM      2  C2  BZF d   1      -0.963  -0.594   0.348  0.00  0.00     0.174 A 
ATOM      3  C3  BZF d   1      -1.293   0.628  -0.117  0.00  0.00    -0.012 A 
ATOM      4  C3A BZF d   1      -0.069   1.370  -0.123  0.00  0.00    -0.107 A 
ATOM      5  C4  BZF d   1       0.254   2.644  -0.494  0.00  0.00     0.055 A 
ATOM      6  C5  BZF d   1       1.526   3.084  -0.306  0.00  0.00    -0.016 A 
ATOM      7  C6  BZF d   1       2.497   2.281   0.254  0.00  0.00     0.022 A 
ATOM      8  C7  BZF d   1       2.225   1.008   0.633  0.00  0.00     0.029 A 
ATOM      9  C7A BZF d   1       0.949   0.549   0.414  0.00  0.00     0.058 A 
ENDROOT
TORSDOF 0
ENDMDL
