MODEL 1
REMARK minimizedAffinity 1.50391054
REMARK minimizedRMSD -1
REMARK  0 active torsions:
REMARK  status: ('A' for Active; 'I' for Inactive)
ROOT
ATOM      1  O1  BZF d   1      -1.972  -1.804  -2.926  0.00  0.00    -0.204 OA
ATOM      2  C2  BZF d   1      -2.350  -0.676  -3.629  0.00  0.00     0.174 A 
ATOM      3  C3  BZF d   1      -2.166   0.435  -2.886  0.00  0.00    -0.012 A 
ATOM      4  C3A BZF d   1      -1.554  -0.019  -1.675  0.00  0.00    -0.107 A 
ATOM      5  C4  BZF d   1      -1.115   0.617  -0.549  0.00  0.00     0.055 A 
ATOM      6  C5  BZF d   1      -0.633  -0.125   0.483  0.00  0.00    -0.016 A 
ATOM      7  C6  BZF d   1      -0.580  -1.502   0.425  0.00  0.00     0.022 A 
ATOM      8  C7  BZF d   1      -1.000  -2.177  -0.673  0.00  0.00     0.029 A 
ATOM      9  C7A BZF d   1      -1.457  -1.429  -1.730  0.00  0.00     0.058 A 
ENDROOT
TORSDOF 0
ENDMDL
