MODEL 1
REMARK minimizedAffinity -0.56666702
REMARK minimizedRMSD -1
REMARK  0 active torsions:
REMARK  status: ('A' for Active; 'I' for Inactive)
ROOT
ATOM      1  O1  BZF d   1       1.958  -1.248   3.749  0.00  0.00    -0.204 OA
ATOM      2  C2  BZF d   1       1.869  -2.459   3.090  0.00  0.00     0.174 A 
ATOM      3  C3  BZF d   1       2.042  -2.296   1.763  0.00  0.00    -0.012 A 
ATOM      4  C3A BZF d   1       2.344  -0.908   1.591  0.00  0.00    -0.107 A 
ATOM      5  C4  BZF d   1       2.632  -0.139   0.500  0.00  0.00     0.055 A 
ATOM      6  C5  BZF d   1       2.807   1.199   0.663  0.00  0.00    -0.016 A 
ATOM      7  C6  BZF d   1       2.696   1.800   1.900  0.00  0.00     0.022 A 
ATOM      8  C7  BZF d   1       2.418   1.077   3.012  0.00  0.00     0.029 A 
ATOM      9  C7A BZF d   1       2.273  -0.280   2.855  0.00  0.00     0.058 A 
ENDROOT
TORSDOF 0
ENDMDL
