MODEL 1
REMARK minimizedAffinity 0.504763424
REMARK minimizedRMSD -1
REMARK  0 active torsions:
REMARK  status: ('A' for Active; 'I' for Inactive)
ROOT
ATOM      1  O1  BZF d   1       2.924   0.133   1.309  0.00  0.00    -0.204 OA
ATOM      2  C2  BZF d   1       3.081  -1.099   1.915  0.00  0.00     0.174 A 
ATOM      3  C3  BZF d   1       1.925  -1.792   1.899  0.00  0.00    -0.012 A 
ATOM      4  C3A BZF d   1       1.009  -0.978   1.160  0.00  0.00    -0.107 A 
ATOM      5  C4  BZF d   1      -0.297  -1.132   0.789  0.00  0.00     0.055 A 
ATOM      6  C5  BZF d   1      -0.922  -0.119   0.135  0.00  0.00    -0.016 A 
ATOM      7  C6  BZF d   1      -0.274   1.063  -0.161  0.00  0.00     0.022 A 
ATOM      8  C7  BZF d   1       1.022   1.261   0.182  0.00  0.00     0.029 A 
ATOM      9  C7A BZF d   1       1.666   0.226   0.814  0.00  0.00     0.058 A 
ENDROOT
TORSDOF 0
ENDMDL
