MODEL 1
REMARK minimizedAffinity -4.14932442
REMARK minimizedRMSD -1
REMARK  1 active torsions:
REMARK  status: ('A' for Active; 'I' for Inactive)
REMARK    1  A    between atoms: C3_4  and  O_7 
ROOT
ATOM      1  C   UNL d   1       0.859  -2.281   2.538  0.00  0.00    -0.033 A 
ATOM      2  C1  UNL d   1       1.427  -1.874   1.329  0.00  0.00     0.039 A 
ATOM      3  C2  UNL d   1       0.825  -0.863   0.578  0.00  0.00    -0.080 A 
ATOM      4  C3  UNL d   1      -0.342  -0.266   1.048  0.00  0.00     0.150 A 
ATOM      5  C4  UNL d   1      -0.911  -0.663   2.254  0.00  0.00    -0.007 A 
ATOM      6  C5  UNL d   1      -0.309  -1.674   3.001  0.00  0.00     0.039 A 
ENDROOT
BRANCH   4   7
ATOM      7  O   UNL d   1      -0.968   0.722   0.348  0.00  0.00    -0.526 OA
ATOM      8  H5  UNL d   1      -0.479   0.872  -0.478  0.00  0.00     0.418 HD
ENDBRANCH   4   7
TORSDOF 1
ENDMDL
