MODEL 1
REMARK minimizedAffinity -3.51830578
REMARK minimizedRMSD -1
REMARK  1 active torsions:
REMARK  status: ('A' for Active; 'I' for Inactive)
REMARK    1  A    between atoms: C3_4  and  O_7 
ROOT
ATOM      1  C   UNL d   1       1.875  -1.005   0.049  0.00  0.00    -0.033 A 
ATOM      2  C1  UNL d   1       2.065  -1.875   1.125  0.00  0.00     0.039 A 
ATOM      3  C2  UNL d   1       1.125  -1.929   2.156  0.00  0.00    -0.080 A 
ATOM      4  C3  UNL d   1       0.000  -1.111   2.098  0.00  0.00     0.150 A 
ATOM      5  C4  UNL d   1      -0.197  -0.245   1.028  0.00  0.00    -0.007 A 
ATOM      6  C5  UNL d   1       0.743  -0.191   0.000  0.00  0.00     0.039 A 
ENDROOT
BRANCH   4   7
ATOM      7  O   UNL d   1      -0.942  -1.125   3.083  0.00  0.00    -0.526 OA
ATOM      8  H5  UNL d   1      -0.659  -1.750   3.771  0.00  0.00     0.418 HD
ENDBRANCH   4   7
TORSDOF 1
ENDMDL
