MODEL 1
REMARK minimizedAffinity -4.4100914
REMARK minimizedRMSD -1
REMARK  1 active torsions:
REMARK  status: ('A' for Active; 'I' for Inactive)
REMARK    1  A    between atoms: C3_4  and  O_7 
ROOT
ATOM      1  C   UNL d   1      -2.055   2.337  -2.193  0.00  0.00    -0.033 A 
ATOM      2  C1  UNL d   1      -0.700   2.674  -2.178  0.00  0.00     0.039 A 
ATOM      3  C2  UNL d   1      -0.073   3.102  -3.350  0.00  0.00    -0.080 A 
ATOM      4  C3  UNL d   1      -0.811   3.191  -4.527  0.00  0.00     0.150 A 
ATOM      5  C4  UNL d   1      -2.162   2.861  -4.547  0.00  0.00    -0.007 A 
ATOM      6  C5  UNL d   1      -2.786   2.433  -3.377  0.00  0.00     0.039 A 
ENDROOT
BRANCH   4   7
ATOM      7  O   UNL d   1      -0.241   3.599  -5.696  0.00  0.00    -0.526 OA
ATOM      8  H5  UNL d   1       0.703   3.766  -5.536  0.00  0.00     0.418 HD
ENDBRANCH   4   7
TORSDOF 1
ENDMDL
