MODEL 1
REMARK minimizedAffinity -5.16537046
REMARK minimizedRMSD -1
REMARK  1 active torsions:
REMARK  status: ('A' for Active; 'I' for Inactive)
REMARK    1  A    between atoms: C3_4  and  O_7 
ROOT
ATOM      1  C   UNL d   1       1.646  -1.488   0.878  0.00  0.00    -0.033 A 
ATOM      2  C1  UNL d   1       0.927  -0.393   0.395  0.00  0.00     0.039 A 
ATOM      3  C2  UNL d   1      -0.173   0.091   1.106  0.00  0.00    -0.080 A 
ATOM      4  C3  UNL d   1      -0.542  -0.527   2.298  0.00  0.00     0.150 A 
ATOM      5  C4  UNL d   1       0.172  -1.616   2.787  0.00  0.00    -0.007 A 
ATOM      6  C5  UNL d   1       1.269  -2.098   2.075  0.00  0.00     0.039 A 
ENDROOT
BRANCH   4   7
ATOM      7  O   UNL d   1      -1.611  -0.094   3.024  0.00  0.00    -0.526 OA
ATOM      8  H5  UNL d   1      -2.026   0.646   2.550  0.00  0.00     0.418 HD
ENDBRANCH   4   7
TORSDOF 1
ENDMDL
