MODEL 1
REMARK minimizedAffinity -0.855187058
REMARK minimizedRMSD -1
REMARK  1 active torsions:
REMARK  status: ('A' for Active; 'I' for Inactive)
REMARK    1  A    between atoms: C3_4  and  O_7 
ROOT
ATOM      1  C   UNL d   1      -0.378   0.987  -0.280  0.00  0.00    -0.033 A 
ATOM      2  C1  UNL d   1       0.896   1.057  -0.847  0.00  0.00     0.039 A 
ATOM      3  C2  UNL d   1       1.840   0.066  -0.573  0.00  0.00    -0.080 A 
ATOM      4  C3  UNL d   1       1.498  -0.990   0.267  0.00  0.00     0.150 A 
ATOM      5  C4  UNL d   1       0.229  -1.069   0.832  0.00  0.00    -0.007 A 
ATOM      6  C5  UNL d   1      -0.711  -0.078   0.559  0.00  0.00     0.039 A 
ENDROOT
BRANCH   4   7
ATOM      7  O   UNL d   1       2.387  -1.979   0.567  0.00  0.00    -0.526 OA
ATOM      8  H5  UNL d   1       3.231  -1.778   0.129  0.00  0.00     0.418 HD
ENDBRANCH   4   7
TORSDOF 1
ENDMDL
