MODEL 1
REMARK minimizedAffinity -5.58802414
REMARK minimizedRMSD -1
REMARK  1 active torsions:
REMARK  status: ('A' for Active; 'I' for Inactive)
REMARK    1  A    between atoms: C3_4  and  O_7 
ROOT
ATOM      1  C   UNL d   1       1.058  -2.504   1.710  0.00  0.00    -0.033 A 
ATOM      2  C1  UNL d   1       1.680  -1.903   0.614  0.00  0.00     0.039 A 
ATOM      3  C2  UNL d   1       1.149  -0.737   0.060  0.00  0.00    -0.080 A 
ATOM      4  C3  UNL d   1      -0.002  -0.181   0.612  0.00  0.00     0.150 A 
ATOM      5  C4  UNL d   1      -0.625  -0.772   1.707  0.00  0.00    -0.007 A 
ATOM      6  C5  UNL d   1      -0.094  -1.938   2.258  0.00  0.00     0.039 A 
ENDROOT
BRANCH   4   7
ATOM      7  O   UNL d   1      -0.561   0.954   0.103  0.00  0.00    -0.526 OA
ATOM      8  H5  UNL d   1      -0.040   1.234  -0.668  0.00  0.00     0.418 HD
ENDBRANCH   4   7
TORSDOF 1
ENDMDL
