MODEL 1
REMARK minimizedAffinity -4.63867188
REMARK minimizedRMSD -1
REMARK  1 active torsions:
REMARK  status: ('A' for Active; 'I' for Inactive)
REMARK    1  A    between atoms: C3_4  and  O_7 
ROOT
ATOM      1  C   UNL d   1       1.064  -2.949   1.858  0.00  0.00    -0.033 A 
ATOM      2  C1  UNL d   1      -0.006  -2.199   2.349  0.00  0.00     0.039 A 
ATOM      3  C2  UNL d   1      -0.456  -1.079   1.647  0.00  0.00    -0.080 A 
ATOM      4  C3  UNL d   1       0.170  -0.723   0.456  0.00  0.00     0.150 A 
ATOM      5  C4  UNL d   1       1.234  -1.468  -0.041  0.00  0.00    -0.007 A 
ATOM      6  C5  UNL d   1       1.683  -2.585   0.662  0.00  0.00     0.039 A 
ENDROOT
BRANCH   4   7
ATOM      7  O   UNL d   1      -0.231   0.364  -0.263  0.00  0.00    -0.526 OA
ATOM      8  H5  UNL d   1      -0.957   0.799   0.216  0.00  0.00     0.418 HD
ENDBRANCH   4   7
TORSDOF 1
ENDMDL
