MODEL 1
REMARK minimizedAffinity -3.40803146
REMARK minimizedRMSD -1
REMARK  1 active torsions:
REMARK  status: ('A' for Active; 'I' for Inactive)
REMARK    1  A    between atoms: C3_4  and  O_7 
ROOT
ATOM      1  C   UNL d   1       0.011  -2.851   3.062  0.00  0.00    -0.033 A 
ATOM      2  C1  UNL d   1      -1.164  -2.113   3.218  0.00  0.00     0.039 A 
ATOM      3  C2  UNL d   1      -1.468  -1.086   2.323  0.00  0.00    -0.080 A 
ATOM      4  C3  UNL d   1      -0.592  -0.807   1.278  0.00  0.00     0.150 A 
ATOM      5  C4  UNL d   1       0.579  -1.541   1.115  0.00  0.00    -0.007 A 
ATOM      6  C5  UNL d   1       0.882  -2.566   2.010  0.00  0.00     0.039 A 
ENDROOT
BRANCH   4   7
ATOM      7  O   UNL d   1      -0.844   0.190   0.383  0.00  0.00    -0.526 OA
ATOM      8  H5  UNL d   1      -1.673   0.629   0.637  0.00  0.00     0.418 HD
ENDBRANCH   4   7
TORSDOF 1
ENDMDL
