MODEL 1
REMARK minimizedAffinity -4.86032486
REMARK minimizedRMSD -1
REMARK  1 active torsions:
REMARK  status: ('A' for Active; 'I' for Inactive)
REMARK    1  A    between atoms: C3_4  and  O_7 
ROOT
ATOM      1  C   UNL d   1       1.898  -1.976   1.728  0.00  0.00    -0.033 A 
ATOM      2  C1  UNL d   1       2.493  -1.111   0.807  0.00  0.00     0.039 A 
ATOM      3  C2  UNL d   1       1.711  -0.194   0.102  0.00  0.00    -0.080 A 
ATOM      4  C3  UNL d   1       0.338  -0.151   0.327  0.00  0.00     0.150 A 
ATOM      5  C4  UNL d   1      -0.261  -1.007   1.246  0.00  0.00    -0.007 A 
ATOM      6  C5  UNL d   1       0.522  -1.923   1.948  0.00  0.00     0.039 A 
ENDROOT
BRANCH   4   7
ATOM      7  O   UNL d   1      -0.467   0.723  -0.340  0.00  0.00    -0.526 OA
ATOM      8  H5  UNL d   1       0.080   1.231  -0.962  0.00  0.00     0.418 HD
ENDBRANCH   4   7
TORSDOF 1
ENDMDL
