MODEL 1
REMARK minimizedAffinity -3.85075617
REMARK minimizedRMSD -1
REMARK  1 active torsions:
REMARK  status: ('A' for Active; 'I' for Inactive)
REMARK    1  A    between atoms: C3_4  and  O_7 
ROOT
ATOM      1  C   UNL d   1       0.766   0.425  -0.539  0.00  0.00    -0.033 A 
ATOM      2  C1  UNL d   1       1.931  -0.336  -0.660  0.00  0.00     0.039 A 
ATOM      3  C2  UNL d   1       2.007  -1.598  -0.068  0.00  0.00    -0.080 A 
ATOM      4  C3  UNL d   1       0.913  -2.088   0.640  0.00  0.00     0.150 A 
ATOM      5  C4  UNL d   1      -0.251  -1.337   0.762  0.00  0.00    -0.007 A 
ATOM      6  C5  UNL d   1      -0.325  -0.076   0.171  0.00  0.00     0.039 A 
ENDROOT
BRANCH   4   7
ATOM      7  O   UNL d   1       0.942  -3.312   1.239  0.00  0.00    -0.526 OA
ATOM      8  H5  UNL d   1       1.819  -3.704   1.096  0.00  0.00     0.418 HD
ENDBRANCH   4   7
TORSDOF 1
ENDMDL
