MODEL 1
REMARK minimizedAffinity -4.30083513
REMARK minimizedRMSD -1
REMARK  1 active torsions:
REMARK  status: ('A' for Active; 'I' for Inactive)
REMARK    1  A    between atoms: C3_4  and  O_7 
ROOT
ATOM      1  C   UNL d   1       0.893  -2.270   2.414  0.00  0.00    -0.033 A 
ATOM      2  C1  UNL d   1      -0.391  -1.723   2.454  0.00  0.00     0.039 A 
ATOM      3  C2  UNL d   1      -0.750  -0.712   1.560  0.00  0.00    -0.080 A 
ATOM      4  C3  UNL d   1       0.183  -0.258   0.632  0.00  0.00     0.150 A 
ATOM      5  C4  UNL d   1       1.463  -0.801   0.584  0.00  0.00    -0.007 A 
ATOM      6  C5  UNL d   1       1.819  -1.810   1.478  0.00  0.00     0.039 A 
ENDROOT
BRANCH   4   7
ATOM      7  O   UNL d   1      -0.119   0.730  -0.257  0.00  0.00    -0.526 OA
ATOM      8  H5  UNL d   1      -1.028   1.029  -0.088  0.00  0.00     0.418 HD
ENDBRANCH   4   7
TORSDOF 1
ENDMDL
