MODEL 1
REMARK minimizedAffinity -5.11267471
REMARK minimizedRMSD -1
REMARK  1 active torsions:
REMARK  status: ('A' for Active; 'I' for Inactive)
REMARK    1  A    between atoms: C3_4  and  O_7 
ROOT
ATOM      1  C   UNL d   1      -0.927   0.645   0.700  0.00  0.00    -0.033 A 
ATOM      2  C1  UNL d   1       0.144   0.856  -0.169  0.00  0.00     0.039 A 
ATOM      3  C2  UNL d   1       1.166  -0.091  -0.264  0.00  0.00    -0.080 A 
ATOM      4  C3  UNL d   1       1.104  -1.243   0.515  0.00  0.00     0.150 A 
ATOM      5  C4  UNL d   1       0.037  -1.462   1.380  0.00  0.00    -0.007 A 
ATOM      6  C5  UNL d   1      -0.982  -0.515   1.474  0.00  0.00     0.039 A 
ENDROOT
BRANCH   4   7
ATOM      7  O   UNL d   1       2.080  -2.194   0.460  0.00  0.00    -0.526 OA
ATOM      8  H5  UNL d   1       2.766  -1.894  -0.159  0.00  0.00     0.418 HD
ENDBRANCH   4   7
TORSDOF 1
ENDMDL
