MODEL 1
REMARK minimizedAffinity -3.72894287
REMARK minimizedRMSD -1
REMARK  1 active torsions:
REMARK  status: ('A' for Active; 'I' for Inactive)
REMARK    1  A    between atoms: C3_4  and  O_7 
ROOT
ATOM      1  C   UNL d   1       0.239  -0.058  -0.296  0.00  0.00    -0.033 A 
ATOM      2  C1  UNL d   1       0.041  -1.245   0.412  0.00  0.00     0.039 A 
ATOM      3  C2  UNL d   1      -0.910  -1.300   1.434  0.00  0.00    -0.080 A 
ATOM      4  C3  UNL d   1      -1.655  -0.164   1.736  0.00  0.00     0.150 A 
ATOM      5  C4  UNL d   1      -1.465   1.021   1.032  0.00  0.00    -0.007 A 
ATOM      6  C5  UNL d   1      -0.515   1.075   0.013  0.00  0.00     0.039 A 
ENDROOT
BRANCH   4   7
ATOM      7  O   UNL d   1      -2.590  -0.169   2.728  0.00  0.00    -0.526 OA
ATOM      8  H5  UNL d   1      -2.591  -1.046   3.146  0.00  0.00     0.418 HD
ENDBRANCH   4   7
TORSDOF 1
ENDMDL
