MODEL 1
REMARK minimizedAffinity -5.87091684
REMARK minimizedRMSD -1
REMARK  1 active torsions:
REMARK  status: ('A' for Active; 'I' for Inactive)
REMARK    1  A    between atoms: C3_4  and  O_7 
ROOT
ATOM      1  C   UNL d   1      -1.115  -0.808   2.054  0.00  0.00    -0.033 A 
ATOM      2  C1  UNL d   1      -0.605  -1.772   2.926  0.00  0.00     0.039 A 
ATOM      3  C2  UNL d   1       0.453  -2.590   2.523  0.00  0.00    -0.080 A 
ATOM      4  C3  UNL d   1       0.990  -2.434   1.248  0.00  0.00     0.150 A 
ATOM      5  C4  UNL d   1       0.489  -1.474   0.376  0.00  0.00    -0.007 A 
ATOM      6  C5  UNL d   1      -0.567  -0.658   0.779  0.00  0.00     0.039 A 
ENDROOT
BRANCH   4   7
ATOM      7  O   UNL d   1       2.019  -3.213   0.809  0.00  0.00    -0.526 OA
ATOM      8  H5  UNL d   1       2.243  -3.850   1.507  0.00  0.00     0.418 HD
ENDBRANCH   4   7
TORSDOF 1
ENDMDL
