MODEL 1
REMARK minimizedAffinity -4.81108618
REMARK minimizedRMSD -1
REMARK  1 active torsions:
REMARK  status: ('A' for Active; 'I' for Inactive)
REMARK    1  A    between atoms: C3_4  and  O_7 
ROOT
ATOM      1  C   UNL d   1       1.508  -2.363   0.812  0.00  0.00    -0.033 A 
ATOM      2  C1  UNL d   1       2.145  -1.482  -0.064  0.00  0.00     0.039 A 
ATOM      3  C2  UNL d   1       1.459  -0.372  -0.561  0.00  0.00    -0.080 A 
ATOM      4  C3  UNL d   1       0.140  -0.154  -0.174  0.00  0.00     0.150 A 
ATOM      5  C4  UNL d   1      -0.500  -1.025   0.701  0.00  0.00    -0.007 A 
ATOM      6  C5  UNL d   1       0.186  -2.134   1.196  0.00  0.00     0.039 A 
ENDROOT
BRANCH   4   7
ATOM      7  O   UNL d   1      -0.572   0.913  -0.637  0.00  0.00    -0.526 OA
ATOM      8  H5  UNL d   1      -0.011   1.412  -1.255  0.00  0.00     0.418 HD
ENDBRANCH   4   7
TORSDOF 1
ENDMDL
