MODEL 1
REMARK minimizedAffinity -5.36643648
REMARK minimizedRMSD -1
REMARK  1 active torsions:
REMARK  status: ('A' for Active; 'I' for Inactive)
REMARK    1  A    between atoms: C3_4  and  O_7 
ROOT
ATOM      1  C   UNL d   1       0.143   0.540   0.016  0.00  0.00    -0.033 A 
ATOM      2  C1  UNL d   1      -0.673  -0.476   0.516  0.00  0.00     0.039 A 
ATOM      3  C2  UNL d   1      -0.128  -1.725   0.821  0.00  0.00    -0.080 A 
ATOM      4  C3  UNL d   1       1.232  -1.943   0.624  0.00  0.00     0.150 A 
ATOM      5  C4  UNL d   1       2.052  -0.934   0.131  0.00  0.00    -0.007 A 
ATOM      6  C5  UNL d   1       1.506   0.312  -0.175  0.00  0.00     0.039 A 
ENDROOT
BRANCH   4   7
ATOM      7  O   UNL d   1       1.809  -3.147   0.904  0.00  0.00    -0.526 OA
ATOM      8  H5  UNL d   1       1.116  -3.756   1.210  0.00  0.00     0.418 HD
ENDBRANCH   4   7
TORSDOF 1
ENDMDL
