MODEL 1
REMARK minimizedAffinity -3.74678206
REMARK minimizedRMSD -1
REMARK  1 active torsions:
REMARK  status: ('A' for Active; 'I' for Inactive)
REMARK    1  A    between atoms: C3_4  and  O_7 
ROOT
ATOM      1  C   UNL d   1       0.214   0.677  -0.338  0.00  0.00    -0.033 A 
ATOM      2  C1  UNL d   1      -0.553  -0.224   0.403  0.00  0.00     0.039 A 
ATOM      3  C2  UNL d   1      -0.041  -1.483   0.722  0.00  0.00    -0.080 A 
ATOM      4  C3  UNL d   1       1.238  -1.829   0.294  0.00  0.00     0.150 A 
ATOM      5  C4  UNL d   1       2.009  -0.935  -0.441  0.00  0.00    -0.007 A 
ATOM      6  C5  UNL d   1       1.496   0.321  -0.759  0.00  0.00     0.039 A 
ENDROOT
BRANCH   4   7
ATOM      7  O   UNL d   1       1.778  -3.048   0.577  0.00  0.00    -0.526 OA
ATOM      8  H5  UNL d   1       1.121  -3.571   1.066  0.00  0.00     0.418 HD
ENDBRANCH   4   7
TORSDOF 1
ENDMDL
