MODEL 1
REMARK minimizedAffinity -5.25810623
REMARK minimizedRMSD -1
REMARK  1 active torsions:
REMARK  status: ('A' for Active; 'I' for Inactive)
REMARK    1  A    between atoms: C3_4  and  O_7 
ROOT
ATOM      1  C   UNL d   1       1.308  -2.892   1.861  0.00  0.00    -0.033 A 
ATOM      2  C1  UNL d   1       1.777  -2.172   0.760  0.00  0.00     0.039 A 
ATOM      3  C2  UNL d   1       1.003  -1.146   0.215  0.00  0.00    -0.080 A 
ATOM      4  C3  UNL d   1      -0.234  -0.848   0.779  0.00  0.00     0.150 A 
ATOM      5  C4  UNL d   1      -0.705  -1.558   1.879  0.00  0.00    -0.007 A 
ATOM      6  C5  UNL d   1       0.068  -2.584   2.422  0.00  0.00     0.039 A 
ENDROOT
BRANCH   4   7
ATOM      7  O   UNL d   1      -1.026   0.141   0.278  0.00  0.00    -0.526 OA
ATOM      8  H5  UNL d   1      -0.585   0.526  -0.497  0.00  0.00     0.418 HD
ENDBRANCH   4   7
TORSDOF 1
ENDMDL
