MODEL 1
REMARK minimizedAffinity 5.41889334
REMARK minimizedRMSD -1
REMARK  0 active torsions:
REMARK  status: ('A' for Active; 'I' for Inactive)
ROOT
ATOM      1  O1  BZF d   1       1.460  -2.177   2.148  0.00  0.00    -0.204 OA
ATOM      2  C2  BZF d   1       1.897  -1.616   3.333  0.00  0.00     0.174 A 
ATOM      3  C3  BZF d   1       1.107  -0.586   3.695  0.00  0.00    -0.012 A 
ATOM      4  C3A BZF d   1       0.059  -0.555   2.722  0.00  0.00    -0.107 A 
ATOM      5  C4  BZF d   1      -1.042   0.236   2.551  0.00  0.00     0.055 A 
ATOM      6  C5  BZF d   1      -1.825   0.050   1.456  0.00  0.00    -0.016 A 
ATOM      7  C6  BZF d   1      -1.535  -0.911   0.510  0.00  0.00     0.022 A 
ATOM      8  C7  BZF d   1      -0.457  -1.723   0.639  0.00  0.00     0.029 A 
ATOM      9  C7A BZF d   1       0.318  -1.560   1.761  0.00  0.00     0.058 A 
ENDROOT
TORSDOF 0
ENDMDL
