MODEL 1
REMARK minimizedAffinity -1.11695588
REMARK minimizedRMSD -1
REMARK  0 active torsions:
REMARK  status: ('A' for Active; 'I' for Inactive)
ROOT
ATOM      1  O1  BZF d   1      -0.365  -3.003  -3.632  0.00  0.00    -0.204 OA
ATOM      2  C2  BZF d   1      -0.613  -2.767  -2.293  0.00  0.00     0.174 A 
ATOM      3  C3  BZF d   1      -0.750  -1.447  -2.057  0.00  0.00    -0.012 A 
ATOM      4  C3A BZF d   1      -0.667  -0.824  -3.343  0.00  0.00    -0.107 A 
ATOM      5  C4  BZF d   1      -0.747   0.472  -3.765  0.00  0.00     0.055 A 
ATOM      6  C5  BZF d   1      -0.552   0.752  -5.081  0.00  0.00    -0.016 A 
ATOM      7  C6  BZF d   1      -0.271  -0.238  -5.999  0.00  0.00     0.022 A 
ATOM      8  C7  BZF d   1      -0.186  -1.539  -5.629  0.00  0.00     0.029 A 
ATOM      9  C7A BZF d   1      -0.415  -1.829  -4.305  0.00  0.00     0.058 A 
ENDROOT
TORSDOF 0
ENDMDL
