MODEL 1
REMARK minimizedAffinity 3.35717416
REMARK minimizedRMSD -1
REMARK  0 active torsions:
REMARK  status: ('A' for Active; 'I' for Inactive)
ROOT
ATOM      1  O1  BZF d   1      -0.775  -0.378  -2.045  0.00  0.00    -0.204 OA
ATOM      2  C2  BZF d   1      -0.421  -1.644  -1.618  0.00  0.00     0.174 A 
ATOM      3  C3  BZF d   1      -0.070  -2.420  -2.664  0.00  0.00    -0.012 A 
ATOM      4  C3A BZF d   1      -0.125  -1.560  -3.806  0.00  0.00    -0.107 A 
ATOM      5  C4  BZF d   1       0.130  -1.747  -5.135  0.00  0.00     0.055 A 
ATOM      6  C5  BZF d   1      -0.091  -0.722  -6.000  0.00  0.00    -0.016 A 
ATOM      7  C6  BZF d   1      -0.571   0.498  -5.573  0.00  0.00     0.022 A 
ATOM      8  C7  BZF d   1      -0.834   0.732  -4.264  0.00  0.00     0.029 A 
ATOM      9  C7A BZF d   1      -0.581  -0.291  -3.383  0.00  0.00     0.058 A 
ENDROOT
TORSDOF 0
ENDMDL
