MODEL 1
REMARK minimizedAffinity 2.00410748
REMARK minimizedRMSD -1
REMARK  0 active torsions:
REMARK  status: ('A' for Active; 'I' for Inactive)
ROOT
ATOM      1  O1  BZF d   1      -0.747  -0.606  -2.069  0.00  0.00    -0.204 OA
ATOM      2  C2  BZF d   1      -0.558  -1.870  -1.544  0.00  0.00     0.174 A 
ATOM      3  C3  BZF d   1      -0.358  -2.772  -2.526  0.00  0.00    -0.012 A 
ATOM      4  C3A BZF d   1      -0.333  -2.010  -3.737  0.00  0.00    -0.107 A 
ATOM      5  C4  BZF d   1      -0.155  -2.340  -5.050  0.00  0.00     0.055 A 
ATOM      6  C5  BZF d   1      -0.260  -1.369  -5.995  0.00  0.00    -0.016 A 
ATOM      7  C6  BZF d   1      -0.549  -0.061  -5.664  0.00  0.00     0.022 A 
ATOM      8  C7  BZF d   1      -0.729   0.315  -4.374  0.00  0.00     0.029 A 
ATOM      9  C7A BZF d   1      -0.590  -0.657  -3.414  0.00  0.00     0.058 A 
ENDROOT
TORSDOF 0
ENDMDL
