MODEL 1
REMARK minimizedAffinity -0.651789844
REMARK minimizedRMSD -1
REMARK  0 active torsions:
REMARK  status: ('A' for Active; 'I' for Inactive)
ROOT
ATOM      1  O1  BZF d   1      -4.046   1.230   0.728  0.00  0.00    -0.204 OA
ATOM      2  C2  BZF d   1      -4.353   0.588  -0.456  0.00  0.00     0.174 A 
ATOM      3  C3  BZF d   1      -3.479  -0.409  -0.700  0.00  0.00    -0.012 A 
ATOM      4  C3A BZF d   1      -2.623  -0.448   0.445  0.00  0.00    -0.107 A 
ATOM      5  C4  BZF d   1      -1.565  -1.236   0.801  0.00  0.00     0.055 A 
ATOM      6  C5  BZF d   1      -0.899  -0.966   1.954  0.00  0.00    -0.016 A 
ATOM      7  C6  BZF d   1      -1.260   0.084   2.773  0.00  0.00     0.022 A 
ATOM      8  C7  BZF d   1      -2.305   0.890   2.465  0.00  0.00     0.029 A 
ATOM      9  C7A BZF d   1      -3.001   0.600   1.316  0.00  0.00     0.058 A 
ENDROOT
TORSDOF 0
ENDMDL
