MODEL 1
REMARK minimizedAffinity -2.87783957
REMARK minimizedRMSD -1
REMARK  0 active torsions:
REMARK  status: ('A' for Active; 'I' for Inactive)
ROOT
ATOM      1  O1  BZF d   1       2.547  -3.018  -0.676  0.00  0.00    -0.204 OA
ATOM      2  C2  BZF d   1       3.722  -3.018  -1.403  0.00  0.00     0.174 A 
ATOM      3  C3  BZF d   1       3.468  -2.928  -2.724  0.00  0.00    -0.012 A 
ATOM      4  C3A BZF d   1       2.049  -2.774  -2.825  0.00  0.00    -0.107 A 
ATOM      5  C4  BZF d   1       1.194  -2.618  -3.878  0.00  0.00     0.055 A 
ATOM      6  C5  BZF d   1      -0.143  -2.569  -3.641  0.00  0.00    -0.016 A 
ATOM      7  C6  BZF d   1      -0.659  -2.678  -2.367  0.00  0.00     0.022 A 
ATOM      8  C7  BZF d   1       0.150  -2.828  -1.290  0.00  0.00     0.029 A 
ATOM      9  C7A BZF d   1       1.503  -2.845  -1.522  0.00  0.00     0.058 A 
ENDROOT
TORSDOF 0
ENDMDL
