MODEL 1
REMARK minimizedAffinity -2.86219645
REMARK minimizedRMSD -1
REMARK  0 active torsions:
REMARK  status: ('A' for Active; 'I' for Inactive)
ROOT
ATOM      1  O1  BZF d   1       1.151  -1.879  -3.034  0.00  0.00    -0.204 OA
ATOM      2  C2  BZF d   1       0.010  -1.840  -2.257  0.00  0.00     0.174 A 
ATOM      3  C3  BZF d   1      -0.865  -0.933  -2.738  0.00  0.00    -0.012 A 
ATOM      4  C3A BZF d   1      -0.270  -0.436  -3.940  0.00  0.00    -0.107 A 
ATOM      5  C4  BZF d   1      -0.665   0.477  -4.876  0.00  0.00     0.055 A 
ATOM      6  C5  BZF d   1       0.181   0.789  -5.892  0.00  0.00    -0.016 A 
ATOM      7  C6  BZF d   1       1.430   0.214  -6.000  0.00  0.00     0.022 A 
ATOM      8  C7  BZF d   1       1.865  -0.700  -5.099  0.00  0.00     0.029 A 
ATOM      9  C7A BZF d   1       0.999  -1.043  -4.089  0.00  0.00     0.058 A 
ENDROOT
TORSDOF 0
ENDMDL
