MODEL 1
REMARK minimizedAffinity 1.98461056
REMARK minimizedRMSD -1
REMARK  0 active torsions:
REMARK  status: ('A' for Active; 'I' for Inactive)
ROOT
ATOM      1  O1  BZF d   1      -4.251   0.747  -5.313  0.00  0.00    -0.204 OA
ATOM      2  C2  BZF d   1      -4.985  -0.258  -4.712  0.00  0.00     0.174 A 
ATOM      3  C3  BZF d   1      -4.220  -1.348  -4.500  0.00  0.00    -0.012 A 
ATOM      4  C3A BZF d   1      -2.904  -0.971  -4.915  0.00  0.00    -0.107 A 
ATOM      5  C4  BZF d   1      -1.703  -1.621  -4.933  0.00  0.00     0.055 A 
ATOM      6  C5  BZF d   1      -0.622  -0.995  -5.469  0.00  0.00    -0.016 A 
ATOM      7  C6  BZF d   1      -0.707   0.275  -5.999  0.00  0.00     0.022 A 
ATOM      8  C7  BZF d   1      -1.875   0.962  -5.999  0.00  0.00     0.029 A 
ATOM      9  C7A BZF d   1      -2.962   0.346  -5.428  0.00  0.00     0.058 A 
ENDROOT
TORSDOF 0
ENDMDL
