MODEL 1
REMARK minimizedAffinity -1.68993413
REMARK minimizedRMSD -1
REMARK  0 active torsions:
REMARK  status: ('A' for Active; 'I' for Inactive)
ROOT
ATOM      1  O1  BZF d   1      -2.438   1.405  -5.527  0.00  0.00    -0.204 OA
ATOM      2  C2  BZF d   1      -3.428   0.481  -5.253  0.00  0.00     0.174 A 
ATOM      3  C3  BZF d   1      -2.926  -0.770  -5.246  0.00  0.00    -0.012 A 
ATOM      4  C3A BZF d   1      -1.517  -0.612  -5.442  0.00  0.00    -0.107 A 
ATOM      5  C4  BZF d   1      -0.474  -1.490  -5.514  0.00  0.00     0.055 A 
ATOM      6  C5  BZF d   1       0.770  -1.018  -5.788  0.00  0.00    -0.016 A 
ATOM      7  C6  BZF d   1       1.006   0.325  -6.000  0.00  0.00     0.022 A 
ATOM      8  C7  BZF d   1       0.005   1.235  -5.934  0.00  0.00     0.029 A 
ATOM      9  C7A BZF d   1      -1.248   0.765  -5.625  0.00  0.00     0.058 A 
ENDROOT
TORSDOF 0
ENDMDL
