MODEL 1
REMARK minimizedAffinity 6.30576754
REMARK minimizedRMSD -1
REMARK  0 active torsions:
REMARK  status: ('A' for Active; 'I' for Inactive)
ROOT
ATOM      1  N1  IND d   1       4.105  -1.928  -1.831  0.00  0.00    -0.196 N 
ATOM      2  C2  IND d   1       4.370  -2.135  -0.506  0.00  0.00     0.054 A 
ATOM      3  C3  IND d   1       4.383  -3.459  -0.231  0.00  0.00    -0.031 A 
ATOM      4  C4  IND d   1       4.094  -5.463  -1.820  0.00  0.00     0.051 A 
ATOM      5  C5  IND d   1       3.794  -5.775  -3.117  0.00  0.00    -0.031 A 
ATOM      6  C6  IND d   1       3.582  -4.801  -4.071  0.00  0.00     0.015 A 
ATOM      7  C7  IND d   1       3.672  -3.473  -3.765  0.00  0.00    -0.016 A 
ATOM      8  C8  IND d   1       3.969  -3.152  -2.448  0.00  0.00    -0.047 A 
ATOM      9  C9  IND d   1       4.144  -4.135  -1.466  0.00  0.00    -0.096 A 
ATOM     10  HN1 IND d   1       4.034  -1.161  -2.215  0.00  0.00     0.298 HD
ENDROOT
TORSDOF 0
ENDMDL
