MODEL 1
REMARK minimizedAffinity -1.22704327
REMARK minimizedRMSD -1
REMARK  0 active torsions:
REMARK  status: ('A' for Active; 'I' for Inactive)
ROOT
ATOM      1  N1  IND d   1       3.667  -2.310  -3.088  0.00  0.00    -0.196 N 
ATOM      2  C2  IND d   1       2.984  -2.963  -4.075  0.00  0.00     0.054 A 
ATOM      3  C3  IND d   1       3.187  -4.297  -3.985  0.00  0.00    -0.031 A 
ATOM      4  C4  IND d   1       4.520  -5.632  -2.234  0.00  0.00     0.051 A 
ATOM      5  C5  IND d   1       5.348  -5.472  -1.158  0.00  0.00    -0.031 A 
ATOM      6  C6  IND d   1       5.662  -4.225  -0.659  0.00  0.00     0.015 A 
ATOM      7  C7  IND d   1       5.148  -3.086  -1.213  0.00  0.00    -0.016 A 
ATOM      8  C8  IND d   1       4.313  -3.245  -2.309  0.00  0.00    -0.047 A 
ATOM      9  C9  IND d   1       4.025  -4.506  -2.847  0.00  0.00    -0.096 A 
ATOM     10  HN1 IND d   1       3.690  -1.458  -2.973  0.00  0.00     0.298 HD
ENDROOT
TORSDOF 0
ENDMDL
