MODEL 1
REMARK minimizedAffinity 4.71266985
REMARK minimizedRMSD -1
REMARK  0 active torsions:
REMARK  status: ('A' for Active; 'I' for Inactive)
ROOT
ATOM      1  N1  IND d   1       2.234  -5.106   0.027  0.00  0.00    -0.196 N 
ATOM      2  C2  IND d   1       1.569  -5.670  -1.026  0.00  0.00     0.054 A 
ATOM      3  C3  IND d   1       1.952  -5.095  -2.187  0.00  0.00    -0.031 A 
ATOM      4  C4  IND d   1       3.731  -3.281  -2.605  0.00  0.00     0.051 A 
ATOM      5  C5  IND d   1       4.579  -2.433  -1.950  0.00  0.00    -0.031 A 
ATOM      6  C6  IND d   1       4.693  -2.434  -0.574  0.00  0.00     0.015 A 
ATOM      7  C7  IND d   1       3.968  -3.296   0.199  0.00  0.00    -0.016 A 
ATOM      8  C8  IND d   1       3.101  -4.154  -0.462  0.00  0.00    -0.047 A 
ATOM      9  C9  IND d   1       2.950  -4.127  -1.854  0.00  0.00    -0.096 A 
ATOM     10  HN1 IND d   1       2.129  -5.312   0.855  0.00  0.00     0.298 HD
ENDROOT
TORSDOF 0
ENDMDL
