MODEL 1
REMARK minimizedAffinity 3.66958785
REMARK minimizedRMSD -1
REMARK  0 active torsions:
REMARK  status: ('A' for Active; 'I' for Inactive)
ROOT
ATOM      1  N1  IND d   1      -4.367   0.098  -1.507  0.00  0.00    -0.196 N 
ATOM      2  C2  IND d   1      -3.003   0.000  -1.526  0.00  0.00     0.054 A 
ATOM      3  C3  IND d   1      -2.452   1.178  -1.896  0.00  0.00    -0.031 A 
ATOM      4  C4  IND d   1      -3.595   3.426  -2.417  0.00  0.00     0.051 A 
ATOM      5  C5  IND d   1      -4.826   3.999  -2.567  0.00  0.00    -0.031 A 
ATOM      6  C6  IND d   1      -5.991   3.288  -2.365  0.00  0.00     0.015 A 
ATOM      7  C7  IND d   1      -5.967   1.974  -1.992  0.00  0.00    -0.016 A 
ATOM      8  C8  IND d   1      -4.719   1.386  -1.846  0.00  0.00    -0.047 A 
ATOM      9  C9  IND d   1      -3.533   2.092  -2.091  0.00  0.00    -0.096 A 
ATOM     10  HN1 IND d   1      -4.913  -0.538  -1.316  0.00  0.00     0.298 HD
ENDROOT
TORSDOF 0
ENDMDL
