MODEL 1
REMARK minimizedAffinity 7.37981796
REMARK minimizedRMSD -1
REMARK  0 active torsions:
REMARK  status: ('A' for Active; 'I' for Inactive)
ROOT
ATOM      1  N1  IND d   1       3.698  -1.304  -2.680  0.00  0.00    -0.196 N 
ATOM      2  C2  IND d   1       4.079  -1.185  -3.988  0.00  0.00     0.054 A 
ATOM      3  C3  IND d   1       4.326  -2.403  -4.519  0.00  0.00    -0.031 A 
ATOM      4  C4  IND d   1       4.073  -4.733  -3.454  0.00  0.00     0.051 A 
ATOM      5  C5  IND d   1       3.788  -5.351  -2.269  0.00  0.00    -0.031 A 
ATOM      6  C6  IND d   1       3.448  -4.637  -1.138  0.00  0.00     0.015 A 
ATOM      7  C7  IND d   1       3.370  -3.273  -1.153  0.00  0.00    -0.016 A 
ATOM      8  C8  IND d   1       3.666  -2.642  -2.354  0.00  0.00    -0.047 A 
ATOM      9  C9  IND d   1       4.052  -3.359  -3.493  0.00  0.00    -0.096 A 
ATOM     10  HN1 IND d   1       3.509  -0.653  -2.151  0.00  0.00     0.298 HD
ENDROOT
TORSDOF 0
ENDMDL
