MODEL 1
REMARK minimizedAffinity 9.03079605
REMARK minimizedRMSD -1
REMARK  0 active torsions:
REMARK  status: ('A' for Active; 'I' for Inactive)
ROOT
ATOM      1  N1  IND d   1       0.448   4.615  -1.999  0.00  0.00    -0.196 N 
ATOM      2  C2  IND d   1       0.763   5.711  -1.245  0.00  0.00     0.054 A 
ATOM      3  C3  IND d   1       0.639   5.428   0.071  0.00  0.00    -0.031 A 
ATOM      4  C4  IND d   1       0.033   3.203   1.216  0.00  0.00     0.051 A 
ATOM      5  C5  IND d   1      -0.374   1.927   0.943  0.00  0.00    -0.031 A 
ATOM      6  C6  IND d   1      -0.528   1.472  -0.351  0.00  0.00     0.015 A 
ATOM      7  C7  IND d   1      -0.269   2.276  -1.424  0.00  0.00    -0.016 A 
ATOM      8  C8  IND d   1       0.138   3.574  -1.151  0.00  0.00    -0.047 A 
ATOM      9  C9  IND d   1       0.255   4.055   0.160  0.00  0.00    -0.096 A 
ATOM     10  HN1 IND d   1       0.444   4.581  -2.858  0.00  0.00     0.298 HD
ENDROOT
TORSDOF 0
ENDMDL
