MODEL 1
REMARK minimizedAffinity -6.65816593
REMARK minimizedRMSD -1
REMARK  3 active torsions:
REMARK  status: ('A' for Active; 'I' for Inactive)
REMARK    1  A    between atoms: C3'_2  and  C2'_3 
REMARK    2  A    between atoms: C2'_3  and  C1'_4 
REMARK    3  A    between atoms: C1'_4  and  C1_5 
ROOT
ATOM      1  C1  N4B d   1      -0.332   0.695   0.249  0.00  0.00    -0.075 A 
ATOM      2  C2  N4B d   1       0.570   0.480   1.314  0.00  0.00     0.002 A 
ATOM      3  C3  N4B d   1       0.227   0.852   2.590  0.00  0.00     0.002 A 
ATOM      4  C4  N4B d   1      -1.001   1.454   2.823  0.00  0.00    -0.004 A 
ATOM      5  C5  N4B d   1      -1.877   1.634   1.793  0.00  0.00     0.002 A 
ATOM      6  C6  N4B d   1      -1.547   1.262   0.505  0.00  0.00     0.002 A 
ENDROOT
BRANCH   1   7
ATOM      7  C1' N4B d   1       0.033   0.384  -1.177  0.00  0.00     0.057 C 
BRANCH   7   8
ATOM      8  C2' N4B d   1       0.500   1.664  -1.864  0.00  0.00     0.009 C 
BRANCH   8   9
ATOM      9  C3' N4B d   1       0.556   1.510  -3.375  0.00  0.00     0.004 C 
ATOM     10  C4' N4B d   1       1.045   0.159  -3.803  0.00  0.00     0.003 C 
ENDBRANCH   8   9
ENDBRANCH   7   8
ENDBRANCH   1   7
TORSDOF 3
ENDMDL
