MODEL 1
REMARK minimizedAffinity -6.46567726
REMARK minimizedRMSD -1
REMARK  3 active torsions:
REMARK  status: ('A' for Active; 'I' for Inactive)
REMARK    1  A    between atoms: C3'_2  and  C2'_3 
REMARK    2  A    between atoms: C2'_3  and  C1'_4 
REMARK    3  A    between atoms: C1'_4  and  C1_5 
ROOT
ATOM      1  C1  N4B d   1      -0.129   0.682   0.898  0.00  0.00    -0.075 A 
ATOM      2  C2  N4B d   1       1.062   0.254   1.526  0.00  0.00     0.002 A 
ATOM      3  C3  N4B d   1       1.207   0.386   2.885  0.00  0.00     0.002 A 
ATOM      4  C4  N4B d   1       0.186   0.957   3.632  0.00  0.00    -0.004 A 
ATOM      5  C5  N4B d   1      -0.971   1.343   3.021  0.00  0.00     0.002 A 
ATOM      6  C6  N4B d   1      -1.131   1.213   1.656  0.00  0.00     0.002 A 
ENDROOT
BRANCH   1   7
ATOM      7  C1' N4B d   1      -0.298   0.637  -0.596  0.00  0.00     0.057 C 
BRANCH   7   8
ATOM      8  C2' N4B d   1       0.325  -0.648  -1.133  0.00  0.00     0.009 C 
BRANCH   8   9
ATOM      9  C3' N4B d   1       1.294  -0.377  -2.271  0.00  0.00     0.004 C 
ATOM     10  C4' N4B d   1       0.693  -0.639  -3.620  0.00  0.00     0.003 C 
ENDBRANCH   8   9
ENDBRANCH   7   8
ENDBRANCH   1   7
TORSDOF 3
ENDMDL
