MODEL 1
REMARK minimizedAffinity -2.56138277
REMARK minimizedRMSD -1
REMARK  3 active torsions:
REMARK  status: ('A' for Active; 'I' for Inactive)
REMARK    1  A    between atoms: C3'_2  and  C2'_3 
REMARK    2  A    between atoms: C2'_3  and  C1'_4 
REMARK    3  A    between atoms: C1'_4  and  C1_5 
ROOT
ATOM      1  C1  N4B d   1      -0.109  -0.290  -0.189  0.00  0.00    -0.075 A 
ATOM      2  C2  N4B d   1       0.789  -0.240   0.900  0.00  0.00     0.002 A 
ATOM      3  C3  N4B d   1       0.310  -0.089   2.179  0.00  0.00     0.002 A 
ATOM      4  C4  N4B d   1      -1.055   0.033   2.389  0.00  0.00    -0.004 A 
ATOM      5  C5  N4B d   1      -1.917  -0.042   1.335  0.00  0.00     0.002 A 
ATOM      6  C6  N4B d   1      -1.450  -0.198   0.045  0.00  0.00     0.002 A 
ENDROOT
BRANCH   1   7
ATOM      7  C1' N4B d   1       0.373  -0.367  -1.612  0.00  0.00     0.057 C 
BRANCH   7   8
ATOM      8  C2' N4B d   1       0.782   1.026  -2.079  0.00  0.00     0.009 C 
BRANCH   8   9
ATOM      9  C3' N4B d   1       1.784   0.972  -3.219  0.00  0.00     0.004 C 
ATOM     10  C4' N4B d   1       1.180   1.345  -4.540  0.00  0.00     0.003 C 
ENDBRANCH   8   9
ENDBRANCH   7   8
ENDBRANCH   1   7
TORSDOF 3
ENDMDL
