MODEL 1
REMARK minimizedAffinity -4.91947651
REMARK minimizedRMSD -1
REMARK  3 active torsions:
REMARK  status: ('A' for Active; 'I' for Inactive)
REMARK    1  A    between atoms: C3'_2  and  C2'_3 
REMARK    2  A    between atoms: C2'_3  and  C1'_4 
REMARK    3  A    between atoms: C1'_4  and  C1_5 
ROOT
ATOM      1  C1  N4B d   1      -0.073   0.218  -0.867  0.00  0.00    -0.075 A 
ATOM      2  C2  N4B d   1      -0.745   1.245  -0.169  0.00  0.00     0.002 A 
ATOM      3  C3  N4B d   1      -1.802   0.940   0.652  0.00  0.00     0.002 A 
ATOM      4  C4  N4B d   1      -2.216  -0.378   0.776  0.00  0.00    -0.004 A 
ATOM      5  C5  N4B d   1      -1.545  -1.368   0.118  0.00  0.00     0.002 A 
ATOM      6  C6  N4B d   1      -0.478  -1.075  -0.707  0.00  0.00     0.002 A 
ENDROOT
BRANCH   1   7
ATOM      7  C1' N4B d   1       1.034   0.513  -1.842  0.00  0.00     0.057 C 
BRANCH   7   8
ATOM      8  C2' N4B d   1       0.886   1.944  -2.349  0.00  0.00     0.009 C 
BRANCH   8   9
ATOM      9  C3' N4B d   1       1.458   2.114  -3.746  0.00  0.00     0.004 C 
ATOM     10  C4' N4B d   1       0.939   1.093  -4.714  0.00  0.00     0.003 C 
ENDBRANCH   8   9
ENDBRANCH   7   8
ENDBRANCH   1   7
TORSDOF 3
ENDMDL
