MODEL 1
REMARK minimizedAffinity -3.25226927
REMARK minimizedRMSD -1
REMARK  3 active torsions:
REMARK  status: ('A' for Active; 'I' for Inactive)
REMARK    1  A    between atoms: C3'_2  and  C2'_3 
REMARK    2  A    between atoms: C2'_3  and  C1'_4 
REMARK    3  A    between atoms: C1'_4  and  C1_5 
ROOT
ATOM      1  C1  N4B d   1       0.185  -0.690   0.805  0.00  0.00    -0.075 A 
ATOM      2  C2  N4B d   1      -0.656  -0.271   1.859  0.00  0.00     0.002 A 
ATOM      3  C3  N4B d   1      -0.176  -0.227   3.145  0.00  0.00     0.002 A 
ATOM      4  C4  N4B d   1       1.130  -0.614   3.403  0.00  0.00    -0.004 A 
ATOM      5  C5  N4B d   1       1.944  -0.994   2.376  0.00  0.00     0.002 A 
ATOM      6  C6  N4B d   1       1.476  -1.039   1.078  0.00  0.00     0.002 A 
ENDROOT
BRANCH   1   7
ATOM      7  C1' N4B d   1      -0.320  -0.836  -0.604  0.00  0.00     0.057 C 
BRANCH   7   8
ATOM      8  C2' N4B d   1       0.250   0.291  -1.460  0.00  0.00     0.009 C 
BRANCH   8   9
ATOM      9  C3' N4B d   1       0.353  -0.103  -2.924  0.00  0.00     0.004 C 
ATOM     10  C4' N4B d   1       1.052   0.930  -3.755  0.00  0.00     0.003 C 
ENDBRANCH   8   9
ENDBRANCH   7   8
ENDBRANCH   1   7
TORSDOF 3
ENDMDL
