MODEL 1
REMARK minimizedAffinity -4.13455677
REMARK minimizedRMSD -1
REMARK  3 active torsions:
REMARK  status: ('A' for Active; 'I' for Inactive)
REMARK    1  A    between atoms: C3'_2  and  C2'_3 
REMARK    2  A    between atoms: C2'_3  and  C1'_4 
REMARK    3  A    between atoms: C1'_4  and  C1_5 
ROOT
ATOM      1  C1  N4B d   1      -0.034   0.157   0.694  0.00  0.00    -0.075 A 
ATOM      2  C2  N4B d   1      -1.430   0.100   0.898  0.00  0.00     0.002 A 
ATOM      3  C3  N4B d   1      -1.996   0.761   1.960  0.00  0.00     0.002 A 
ATOM      4  C4  N4B d   1      -1.188   1.468   2.838  0.00  0.00    -0.004 A 
ATOM      5  C5  N4B d   1       0.157   1.539   2.619  0.00  0.00     0.002 A 
ATOM      6  C6  N4B d   1       0.739   0.883   1.553  0.00  0.00     0.002 A 
ENDROOT
BRANCH   1   7
ATOM      7  C1' N4B d   1       0.640  -0.620  -0.404  0.00  0.00     0.057 C 
BRANCH   7   8
ATOM      8  C2' N4B d   1       0.998   0.330  -1.543  0.00  0.00     0.009 C 
BRANCH   8   9
ATOM      9  C3' N4B d   1       0.325  -0.067  -2.846  0.00  0.00     0.004 C 
ATOM     10  C4' N4B d   1       0.894   0.649  -4.034  0.00  0.00     0.003 C 
ENDBRANCH   8   9
ENDBRANCH   7   8
ENDBRANCH   1   7
TORSDOF 3
ENDMDL
