MODEL 1
REMARK minimizedAffinity -1.63391995
REMARK minimizedRMSD -1
REMARK  3 active torsions:
REMARK  status: ('A' for Active; 'I' for Inactive)
REMARK    1  A    between atoms: C3'_2  and  C2'_3 
REMARK    2  A    between atoms: C2'_3  and  C1'_4 
REMARK    3  A    between atoms: C1'_4  and  C1_5 
ROOT
ATOM      1  C1  N4B d   1      -0.843   0.330   0.630  0.00  0.00    -0.075 A 
ATOM      2  C2  N4B d   1       0.231   0.883  -0.102  0.00  0.00     0.002 A 
ATOM      3  C3  N4B d   1       0.573   0.355  -1.323  0.00  0.00     0.002 A 
ATOM      4  C4  N4B d   1      -0.130  -0.731  -1.822  0.00  0.00    -0.004 A 
ATOM      5  C5  N4B d   1      -1.182  -1.243  -1.120  0.00  0.00     0.002 A 
ATOM      6  C6  N4B d   1      -1.539  -0.721   0.107  0.00  0.00     0.002 A 
ENDROOT
BRANCH   1   7
ATOM      7  C1' N4B d   1      -1.199   0.817   2.008  0.00  0.00     0.057 C 
BRANCH   7   8
ATOM      8  C2' N4B d   1      -0.055   0.493   2.965  0.00  0.00     0.009 C 
BRANCH   8   9
ATOM      9  C3' N4B d   1       0.887  -0.551   2.390  0.00  0.00     0.004 C 
ATOM     10  C4' N4B d   1       2.332  -0.216   2.617  0.00  0.00     0.003 C 
ENDBRANCH   8   9
ENDBRANCH   7   8
ENDBRANCH   1   7
TORSDOF 3
ENDMDL
