MODEL 1
REMARK minimizedAffinity -4.66589737
REMARK minimizedRMSD -1
REMARK  3 active torsions:
REMARK  status: ('A' for Active; 'I' for Inactive)
REMARK    1  A    between atoms: C3'_2  and  C2'_3 
REMARK    2  A    between atoms: C2'_3  and  C1'_4 
REMARK    3  A    between atoms: C1'_4  and  C1_5 
ROOT
ATOM      1  C1  N4B d   1       0.903  -0.334  -2.032  0.00  0.00    -0.075 A 
ATOM      2  C2  N4B d   1       0.119  -0.410  -3.204  0.00  0.00     0.002 A 
ATOM      3  C3  N4B d   1       0.565   0.167  -4.367  0.00  0.00     0.002 A 
ATOM      4  C4  N4B d   1       1.778   0.839  -4.378  0.00  0.00    -0.004 A 
ATOM      5  C5  N4B d   1       2.541   0.887  -3.248  0.00  0.00     0.002 A 
ATOM      6  C6  N4B d   1       2.107   0.307  -2.073  0.00  0.00     0.002 A 
ENDROOT
BRANCH   1   7
ATOM      7  C1' N4B d   1       0.418  -0.875  -0.715  0.00  0.00     0.057 C 
BRANCH   7   8
ATOM      8  C2' N4B d   1       0.034   0.289   0.194  0.00  0.00     0.009 C 
BRANCH   8   9
ATOM      9  C3' N4B d   1      -1.464   0.348   0.439  0.00  0.00     0.004 C 
ATOM     10  C4' N4B d   1      -1.813   0.394   1.897  0.00  0.00     0.003 C 
ENDBRANCH   8   9
ENDBRANCH   7   8
ENDBRANCH   1   7
TORSDOF 3
ENDMDL
