MODEL 1
REMARK minimizedAffinity -1.93202174
REMARK minimizedRMSD -1
REMARK  0 active torsions:
REMARK  status: ('A' for Active; 'I' for Inactive)
ROOT
ATOM      1  C   UNL d   1       4.100   4.767  -5.454  0.00  0.00     0.020 A 
ATOM      2  C1  UNL d   1       5.354   5.376  -5.426  0.00  0.00     0.020 A 
ATOM      3  C2  UNL d   1       5.922   5.749  -4.206  0.00  0.00     0.034 A 
ATOM      4  C3  UNL d   1       5.236   5.513  -3.009  0.00  0.00     0.017 A 
ATOM      5  C4  UNL d   1       3.977   4.903  -3.038  0.00  0.00     0.017 A 
ATOM      6  C5  UNL d   1       3.413   4.531  -4.263  0.00  0.00     0.034 A 
ATOM      7 Cl   UNL d   1       3.069   4.580  -1.603  0.00  0.00    -0.070 Cl
ATOM      8 Cl1  UNL d   1       5.998   6.000  -1.536  0.00  0.00    -0.070 Cl
ENDROOT
TORSDOF 0
ENDMDL
