MODEL 1
REMARK minimizedAffinity -4.68012333
REMARK minimizedRMSD -1
REMARK  0 active torsions:
REMARK  status: ('A' for Active; 'I' for Inactive)
ROOT
ATOM      1  C   UNL d   1       4.133   3.335  -5.995  0.00  0.00     0.020 A 
ATOM      2  C1  UNL d   1       5.434   3.019  -5.605  0.00  0.00     0.020 A 
ATOM      3  C2  UNL d   1       5.991   3.624  -4.477  0.00  0.00     0.034 A 
ATOM      4  C3  UNL d   1       5.248   4.549  -3.735  0.00  0.00     0.017 A 
ATOM      5  C4  UNL d   1       3.942   4.866  -4.127  0.00  0.00     0.017 A 
ATOM      6  C5  UNL d   1       3.389   4.256  -5.257  0.00  0.00     0.034 A 
ATOM      7 Cl   UNL d   1       2.963   5.997  -3.261  0.00  0.00    -0.070 Cl
ATOM      8 Cl1  UNL d   1       6.000   5.259  -2.351  0.00  0.00    -0.070 Cl
ENDROOT
TORSDOF 0
ENDMDL
