MODEL 1
REMARK minimizedAffinity 5.34503365
REMARK minimizedRMSD -1
REMARK  0 active torsions:
REMARK  status: ('A' for Active; 'I' for Inactive)
ROOT
ATOM      1  C   UNL d   1       6.000  -1.910  -3.086  0.00  0.00     0.020 A 
ATOM      2  C1  UNL d   1       5.387  -1.143  -4.075  0.00  0.00     0.020 A 
ATOM      3  C2  UNL d   1       4.122  -1.496  -4.550  0.00  0.00     0.034 A 
ATOM      4  C3  UNL d   1       3.466  -2.620  -4.035  0.00  0.00     0.017 A 
ATOM      5  C4  UNL d   1       4.082  -3.390  -3.042  0.00  0.00     0.017 A 
ATOM      6  C5  UNL d   1       5.349  -3.032  -2.571  0.00  0.00     0.034 A 
ATOM      7 Cl   UNL d   1       3.335  -4.791  -2.358  0.00  0.00    -0.070 Cl
ATOM      8 Cl1  UNL d   1       1.903  -2.999  -4.667  0.00  0.00    -0.070 Cl
ENDROOT
TORSDOF 0
ENDMDL
