MODEL 1
REMARK minimizedAffinity 8.86972046
REMARK minimizedRMSD -1
REMARK  0 active torsions:
REMARK  status: ('A' for Active; 'I' for Inactive)
ROOT
ATOM      1  C   UNL d   1      -1.210  -2.215  -2.487  0.00  0.00     0.020 A 
ATOM      2  C1  UNL d   1       0.052  -2.264  -1.897  0.00  0.00     0.020 A 
ATOM      3  C2  UNL d   1       1.116  -2.864  -2.574  0.00  0.00     0.034 A 
ATOM      4  C3  UNL d   1       0.920  -3.418  -3.844  0.00  0.00     0.017 A 
ATOM      5  C4  UNL d   1      -0.348  -3.368  -4.435  0.00  0.00     0.017 A 
ATOM      6  C5  UNL d   1      -1.410  -2.765  -3.753  0.00  0.00     0.034 A 
ATOM      7 Cl   UNL d   1      -0.668  -4.029  -6.000  0.00  0.00    -0.070 Cl
ATOM      8 Cl1  UNL d   1       2.280  -4.144  -4.623  0.00  0.00    -0.070 Cl
ENDROOT
TORSDOF 0
ENDMDL
