MODEL 1
REMARK minimizedAffinity 1.00306761
REMARK minimizedRMSD -1
REMARK  0 active torsions:
REMARK  status: ('A' for Active; 'I' for Inactive)
ROOT
ATOM      1  C   UNL d   1       5.595  -3.203  -0.772  0.00  0.00     0.020 A 
ATOM      2  C1  UNL d   1       4.639  -2.230  -1.056  0.00  0.00     0.020 A 
ATOM      3  C2  UNL d   1       4.086  -2.146  -2.336  0.00  0.00     0.034 A 
ATOM      4  C3  UNL d   1       4.489  -3.038  -3.336  0.00  0.00     0.017 A 
ATOM      5  C4  UNL d   1       5.450  -4.015  -3.050  0.00  0.00     0.017 A 
ATOM      6  C5  UNL d   1       6.000  -4.094  -1.767  0.00  0.00     0.034 A 
ATOM      7 Cl   UNL d   1       5.997  -5.150  -4.233  0.00  0.00    -0.070 Cl
ATOM      8 Cl1  UNL d   1       3.764  -2.877  -4.896  0.00  0.00    -0.070 Cl
ENDROOT
TORSDOF 0
ENDMDL
