MODEL 1
REMARK minimizedAffinity -1.55874693
REMARK minimizedRMSD -1
REMARK  0 active torsions:
REMARK  status: ('A' for Active; 'I' for Inactive)
ROOT
ATOM      1  C   UNL d   1       4.333   3.571  -5.299  0.00  0.00     0.020 A 
ATOM      2  C1  UNL d   1       5.610   4.128  -5.245  0.00  0.00     0.020 A 
ATOM      3  C2  UNL d   1       6.000   4.873  -4.130  0.00  0.00     0.034 A 
ATOM      4  C3  UNL d   1       5.112   5.063  -3.065  0.00  0.00     0.017 A 
ATOM      5  C4  UNL d   1       3.831   4.503  -3.121  0.00  0.00     0.017 A 
ATOM      6  C5  UNL d   1       3.446   3.758  -4.239  0.00  0.00     0.034 A 
ATOM      7 Cl   UNL d   1       2.680   4.694  -1.845  0.00  0.00    -0.070 Cl
ATOM      8 Cl1  UNL d   1       5.661   5.995  -1.718  0.00  0.00    -0.070 Cl
ENDROOT
TORSDOF 0
ENDMDL
