MODEL 1
REMARK minimizedAffinity 10.9788885
REMARK minimizedRMSD -1
REMARK  0 active torsions:
REMARK  status: ('A' for Active; 'I' for Inactive)
ROOT
ATOM      1  C   UNL d   1       5.743  -2.595  -4.688  0.00  0.00     0.020 A 
ATOM      2  C1  UNL d   1       4.427  -2.631  -5.149  0.00  0.00     0.020 A 
ATOM      3  C2  UNL d   1       3.368  -2.587  -4.241  0.00  0.00     0.034 A 
ATOM      4  C3  UNL d   1       3.621  -2.507  -2.867  0.00  0.00     0.017 A 
ATOM      5  C4  UNL d   1       4.942  -2.471  -2.405  0.00  0.00     0.017 A 
ATOM      6  C5  UNL d   1       5.999  -2.515  -3.319  0.00  0.00     0.034 A 
ATOM      7 Cl   UNL d   1       5.334  -2.372  -0.724  0.00  0.00    -0.070 Cl
ATOM      8 Cl1  UNL d   1       2.263  -2.456  -1.800  0.00  0.00    -0.070 Cl
ENDROOT
TORSDOF 0
ENDMDL
