MODEL 1
REMARK minimizedAffinity 6.19085264
REMARK minimizedRMSD -1
REMARK  0 active torsions:
REMARK  status: ('A' for Active; 'I' for Inactive)
ROOT
ATOM      1  C   UNL d   1       6.000   5.212  -2.118  0.00  0.00     0.020 A 
ATOM      2  C1  UNL d   1       4.847   5.987  -2.236  0.00  0.00     0.020 A 
ATOM      3  C2  UNL d   1       3.691   5.438  -2.796  0.00  0.00     0.034 A 
ATOM      4  C3  UNL d   1       3.687   4.111  -3.240  0.00  0.00     0.017 A 
ATOM      5  C4  UNL d   1       4.845   3.334  -3.122  0.00  0.00     0.017 A 
ATOM      6  C5  UNL d   1       5.999   3.888  -2.560  0.00  0.00     0.034 A 
ATOM      7 Cl   UNL d   1       4.915   1.689  -3.647  0.00  0.00    -0.070 Cl
ATOM      8 Cl1  UNL d   1       2.222   3.497  -3.923  0.00  0.00    -0.070 Cl
ENDROOT
TORSDOF 0
ENDMDL
