MODEL 1
REMARK minimizedAffinity 5.74807739
REMARK minimizedRMSD -1
REMARK  0 active torsions:
REMARK  status: ('A' for Active; 'I' for Inactive)
ROOT
ATOM      1  C   UNL d   1       5.992  -3.899  -2.902  0.00  0.00     0.020 A 
ATOM      2  C1  UNL d   1       5.654  -3.160  -1.770  0.00  0.00     0.020 A 
ATOM      3  C2  UNL d   1       4.414  -2.522  -1.697  0.00  0.00     0.034 A 
ATOM      4  C3  UNL d   1       3.508  -2.622  -2.759  0.00  0.00     0.017 A 
ATOM      5  C4  UNL d   1       3.848  -3.364  -3.895  0.00  0.00     0.017 A 
ATOM      6  C5  UNL d   1       5.091  -4.001  -3.963  0.00  0.00     0.034 A 
ATOM      7 Cl   UNL d   1       2.783  -3.534  -5.246  0.00  0.00    -0.070 Cl
ATOM      8 Cl1  UNL d   1       1.992  -1.807  -2.601  0.00  0.00    -0.070 Cl
ENDROOT
TORSDOF 0
ENDMDL
