MODEL 1
REMARK minimizedAffinity 8.80778885
REMARK minimizedRMSD -1
REMARK  0 active torsions:
REMARK  status: ('A' for Active; 'I' for Inactive)
ROOT
ATOM      1  C   UNL d   1       5.231  -2.248  -3.126  0.00  0.00     0.020 A 
ATOM      2  C1  UNL d   1       5.350  -2.320  -4.513  0.00  0.00     0.020 A 
ATOM      3  C2  UNL d   1       4.232  -2.616  -5.295  0.00  0.00     0.034 A 
ATOM      4  C3  UNL d   1       2.990  -2.842  -4.691  0.00  0.00     0.017 A 
ATOM      5  C4  UNL d   1       2.872  -2.770  -3.298  0.00  0.00     0.017 A 
ATOM      6  C5  UNL d   1       3.994  -2.473  -2.520  0.00  0.00     0.034 A 
ATOM      7 Cl   UNL d   1       1.372  -3.037  -2.480  0.00  0.00    -0.070 Cl
ATOM      8 Cl1  UNL d   1       1.649  -3.204  -5.719  0.00  0.00    -0.070 Cl
ENDROOT
TORSDOF 0
ENDMDL
