MODEL 1
REMARK minimizedAffinity 9.73884869
REMARK minimizedRMSD -1
REMARK  0 active torsions:
REMARK  status: ('A' for Active; 'I' for Inactive)
ROOT
ATOM      1  C   UNL d   1       1.812  -4.254  -6.000  0.00  0.00     0.020 A 
ATOM      2  C1  UNL d   1       2.664  -3.808  -4.990  0.00  0.00     0.020 A 
ATOM      3  C2  UNL d   1       2.133  -3.288  -3.808  0.00  0.00     0.034 A 
ATOM      4  C3  UNL d   1       0.747  -3.212  -3.633  0.00  0.00     0.017 A 
ATOM      5  C4  UNL d   1      -0.108  -3.660  -4.647  0.00  0.00     0.017 A 
ATOM      6  C5  UNL d   1       0.429  -4.181  -5.828  0.00  0.00     0.034 A 
ATOM      7 Cl   UNL d   1      -1.829  -3.599  -4.503  0.00  0.00    -0.070 Cl
ATOM      8 Cl1  UNL d   1       0.159  -2.558  -2.145  0.00  0.00    -0.070 Cl
ENDROOT
TORSDOF 0
ENDMDL
