MODEL 1
REMARK minimizedAffinity 8.01196194
REMARK minimizedRMSD -1
REMARK  0 active torsions:
REMARK  status: ('A' for Active; 'I' for Inactive)
ROOT
ATOM      1  C   UNL d   1      -4.121  -3.065   1.352  0.00  0.00     0.020 A 
ATOM      2  C1  UNL d   1      -2.848  -2.994   1.915  0.00  0.00     0.020 A 
ATOM      3  C2  UNL d   1      -1.744  -2.702   1.111  0.00  0.00     0.034 A 
ATOM      4  C3  UNL d   1      -1.912  -2.480  -0.261  0.00  0.00     0.017 A 
ATOM      5  C4  UNL d   1      -3.191  -2.552  -0.825  0.00  0.00     0.017 A 
ATOM      6  C5  UNL d   1      -4.292  -2.845  -0.015  0.00  0.00     0.034 A 
ATOM      7 Cl   UNL d   1      -3.477  -2.291  -2.510  0.00  0.00    -0.070 Cl
ATOM      8 Cl1  UNL d   1      -0.503  -2.123  -1.195  0.00  0.00    -0.070 Cl
ENDROOT
TORSDOF 0
ENDMDL
