MODEL 1
REMARK minimizedAffinity 3.37997365
REMARK minimizedRMSD -1
REMARK  0 active torsions:
REMARK  status: ('A' for Active; 'I' for Inactive)
ROOT
ATOM      1  C   UNL d   1       5.993   5.923  -2.323  0.00  0.00     0.020 A 
ATOM      2  C1  UNL d   1       5.997   5.981  -0.930  0.00  0.00     0.020 A 
ATOM      3  C2  UNL d   1       4.972   5.373  -0.203  0.00  0.00     0.034 A 
ATOM      4  C3  UNL d   1       3.938   4.705  -0.869  0.00  0.00     0.017 A 
ATOM      5  C4  UNL d   1       3.935   4.647  -2.267  0.00  0.00     0.017 A 
ATOM      6  C5  UNL d   1       4.964   5.258  -2.990  0.00  0.00     0.034 A 
ATOM      7 Cl   UNL d   1       2.693   3.841  -3.159  0.00  0.00    -0.070 Cl
ATOM      8 Cl1  UNL d   1       2.702   3.975   0.094  0.00  0.00    -0.070 Cl
ENDROOT
TORSDOF 0
ENDMDL
