MODEL 1
REMARK minimizedAffinity 13.2555084
REMARK minimizedRMSD -1
REMARK  0 active torsions:
REMARK  status: ('A' for Active; 'I' for Inactive)
ROOT
ATOM      1  C   UNL d   1      -1.876  -0.768   5.999  0.00  0.00     0.020 A 
ATOM      2  C1  UNL d   1      -2.609   0.375   5.679  0.00  0.00     0.020 A 
ATOM      3  C2  UNL d   1      -2.879   0.680   4.343  0.00  0.00     0.034 A 
ATOM      4  C3  UNL d   1      -2.416  -0.158   3.322  0.00  0.00     0.017 A 
ATOM      5  C4  UNL d   1      -1.681  -1.305   3.645  0.00  0.00     0.017 A 
ATOM      6  C5  UNL d   1      -1.413  -1.606   4.984  0.00  0.00     0.034 A 
ATOM      7 Cl   UNL d   1      -1.076  -2.387   2.440  0.00  0.00    -0.070 Cl
ATOM      8 Cl1  UNL d   1      -2.787   0.280   1.693  0.00  0.00    -0.070 Cl
ENDROOT
TORSDOF 0
ENDMDL
