MODEL 1
REMARK minimizedAffinity 6.48421717
REMARK minimizedRMSD -1
REMARK  0 active torsions:
REMARK  status: ('A' for Active; 'I' for Inactive)
ROOT
ATOM      1  C   UNL d   1       4.907   5.229  -0.493  0.00  0.00     0.020 A 
ATOM      2  C1  UNL d   1       5.966   5.877  -1.129  0.00  0.00     0.020 A 
ATOM      3  C2  UNL d   1       5.999   5.957  -2.523  0.00  0.00     0.034 A 
ATOM      4  C3  UNL d   1       4.972   5.388  -3.285  0.00  0.00     0.017 A 
ATOM      5  C4  UNL d   1       3.910   4.738  -2.645  0.00  0.00     0.017 A 
ATOM      6  C5  UNL d   1       3.882   4.661  -1.250  0.00  0.00     0.034 A 
ATOM      7 Cl   UNL d   1       2.607   4.012  -3.518  0.00  0.00    -0.070 Cl
ATOM      8 Cl1  UNL d   1       5.078   5.524  -5.004  0.00  0.00    -0.070 Cl
ENDROOT
TORSDOF 0
ENDMDL
