MODEL 1
REMARK minimizedAffinity 9.35426998
REMARK minimizedRMSD -1
REMARK  0 active torsions:
REMARK  status: ('A' for Active; 'I' for Inactive)
ROOT
ATOM      1  C   UNL d   1       1.231   4.440  -0.412  0.00  0.00     0.020 A 
ATOM      2  C1  UNL d   1       2.399   4.268   0.331  0.00  0.00     0.020 A 
ATOM      3  C2  UNL d   1       3.643   4.490  -0.263  0.00  0.00     0.034 A 
ATOM      4  C3  UNL d   1       3.723   4.885  -1.603  0.00  0.00     0.017 A 
ATOM      5  C4  UNL d   1       2.551   5.058  -2.348  0.00  0.00     0.017 A 
ATOM      6  C5  UNL d   1       1.307   4.835  -1.748  0.00  0.00     0.034 A 
ATOM      7 Cl   UNL d   1       2.569   5.545  -4.006  0.00  0.00    -0.070 Cl
ATOM      8 Cl1  UNL d   1       5.295   5.142  -2.273  0.00  0.00    -0.070 Cl
ENDROOT
TORSDOF 0
ENDMDL
