MODEL 1
REMARK minimizedAffinity 14.6328831
REMARK minimizedRMSD -1
REMARK  0 active torsions:
REMARK  status: ('A' for Active; 'I' for Inactive)
ROOT
ATOM      1  C   UNL d   1       3.117  -1.936   5.421  0.00  0.00     0.020 A 
ATOM      2  C1  UNL d   1       3.157  -1.713   4.045  0.00  0.00     0.020 A 
ATOM      3  C2  UNL d   1       4.047  -2.434   3.247  0.00  0.00     0.034 A 
ATOM      4  C3  UNL d   1       4.902  -3.381   3.824  0.00  0.00     0.017 A 
ATOM      5  C4  UNL d   1       4.861  -3.604   5.205  0.00  0.00     0.017 A 
ATOM      6  C5  UNL d   1       3.967  -2.880   6.000  0.00  0.00     0.034 A 
ATOM      7 Cl   UNL d   1       5.883  -4.756   5.989  0.00  0.00    -0.070 Cl
ATOM      8 Cl1  UNL d   1       5.977  -4.236   2.776  0.00  0.00    -0.070 Cl
ENDROOT
TORSDOF 0
ENDMDL
