MODEL 1
REMARK minimizedAffinity 7.38441992
REMARK minimizedRMSD -1
REMARK  0 active torsions:
REMARK  status: ('A' for Active; 'I' for Inactive)
ROOT
ATOM      1  C   UNL d   1       5.403  -1.836  -3.655  0.00  0.00     0.020 A 
ATOM      2  C1  UNL d   1       4.029  -2.041  -3.769  0.00  0.00     0.020 A 
ATOM      3  C2  UNL d   1       3.208  -1.019  -4.251  0.00  0.00     0.034 A 
ATOM      4  C3  UNL d   1       3.761   0.213  -4.621  0.00  0.00     0.017 A 
ATOM      5  C4  UNL d   1       5.141   0.417  -4.506  0.00  0.00     0.017 A 
ATOM      6  C5  UNL d   1       5.958  -0.609  -4.023  0.00  0.00     0.034 A 
ATOM      7 Cl   UNL d   1       5.896   1.909  -4.943  0.00  0.00    -0.070 Cl
ATOM      8 Cl1  UNL d   1       2.687   1.431  -5.209  0.00  0.00    -0.070 Cl
ENDROOT
TORSDOF 0
ENDMDL
