MODEL 1
REMARK minimizedAffinity 8.68450546
REMARK minimizedRMSD -1
REMARK  0 active torsions:
REMARK  status: ('A' for Active; 'I' for Inactive)
ROOT
ATOM      1  C   UNL d   1       6.000   5.387  -1.730  0.00  0.00     0.020 A 
ATOM      2  C1  UNL d   1       4.797   6.000  -1.382  0.00  0.00     0.020 A 
ATOM      3  C2  UNL d   1       3.593   5.520  -1.901  0.00  0.00     0.034 A 
ATOM      4  C3  UNL d   1       3.588   4.424  -2.771  0.00  0.00     0.017 A 
ATOM      5  C4  UNL d   1       4.796   3.810  -3.121  0.00  0.00     0.017 A 
ATOM      6  C5  UNL d   1       5.999   4.294  -2.598  0.00  0.00     0.034 A 
ATOM      7 Cl   UNL d   1       4.871   2.453  -4.189  0.00  0.00    -0.070 Cl
ATOM      8 Cl1  UNL d   1       2.062   3.883  -3.375  0.00  0.00    -0.070 Cl
ENDROOT
TORSDOF 0
ENDMDL
