MODEL 1
REMARK minimizedAffinity -0.546435714
REMARK minimizedRMSD -1
REMARK  2 active torsions:
REMARK  status: ('A' for Active; 'I' for Inactive)
REMARK    1  A    between atoms: C1_2  and  C2_3 
REMARK    2  A    between atoms: C2_3  and  C3_4 
ROOT
ATOM      1  C3  UNL d   1      -0.226   1.071  -1.377  0.00  0.00    -0.075 A 
ATOM      2  C4  UNL d   1      -0.739  -0.116  -0.834  0.00  0.00     0.002 A 
ATOM      3  C5  UNL d   1      -1.027  -1.205  -1.658  0.00  0.00     0.002 A 
ATOM      4  C6  UNL d   1      -0.816  -1.117  -3.032  0.00  0.00    -0.004 A 
ATOM      5  C7  UNL d   1      -0.323   0.063  -3.584  0.00  0.00     0.002 A 
ATOM      6  C8  UNL d   1      -0.029   1.152  -2.762  0.00  0.00     0.002 A 
ENDROOT
BRANCH   1   7
ATOM      7  C2  UNL d   1       0.116   2.242  -0.487  0.00  0.00     0.056 C 
BRANCH   7   8
ATOM      8  C1  UNL d   1      -0.058   3.608  -1.160  0.00  0.00     0.007 C 
ATOM      9  C   UNL d   1       0.738   4.716  -0.484  0.00  0.00     0.009 C 
ENDBRANCH   7   8
ENDBRANCH   1   7
TORSDOF 2
ENDMDL
