MODEL 1
REMARK minimizedAffinity -1.87578201
REMARK minimizedRMSD -1
REMARK  2 active torsions:
REMARK  status: ('A' for Active; 'I' for Inactive)
REMARK    1  A    between atoms: C1_2  and  C2_3 
REMARK    2  A    between atoms: C2_3  and  C3_4 
ROOT
ATOM      1  C3  UNL d   1      -4.465   2.639  -3.609  0.00  0.00    -0.075 A 
ATOM      2  C4  UNL d   1      -4.172   3.296  -4.813  0.00  0.00     0.002 A 
ATOM      3  C5  UNL d   1      -4.797   2.912  -5.999  0.00  0.00     0.002 A 
ATOM      4  C6  UNL d   1      -5.713   1.862  -6.000  0.00  0.00    -0.004 A 
ATOM      5  C7  UNL d   1      -5.998   1.191  -4.812  0.00  0.00     0.002 A 
ATOM      6  C8  UNL d   1      -5.378   1.576  -3.623  0.00  0.00     0.002 A 
ENDROOT
BRANCH   1   7
ATOM      7  C2  UNL d   1      -3.814   3.069  -2.316  0.00  0.00     0.056 C 
BRANCH   7   8
ATOM      8  C1  UNL d   1      -2.491   3.820  -2.503  0.00  0.00     0.007 C 
ATOM      9  C   UNL d   1      -1.408   3.382  -1.526  0.00  0.00     0.009 C 
ENDBRANCH   7   8
ENDBRANCH   1   7
TORSDOF 2
ENDMDL
