MODEL 1
REMARK minimizedAffinity 4.5389595
REMARK minimizedRMSD -1
REMARK  2 active torsions:
REMARK  status: ('A' for Active; 'I' for Inactive)
REMARK    1  A    between atoms: C1_2  and  C2_3 
REMARK    2  A    between atoms: C2_3  and  C3_4 
ROOT
ATOM      1  C3  UNL d   1       1.311  -3.275  -0.633  0.00  0.00    -0.075 A 
ATOM      2  C4  UNL d   1       0.485  -2.340  -1.275  0.00  0.00     0.002 A 
ATOM      3  C5  UNL d   1      -0.721  -2.738  -1.852  0.00  0.00     0.002 A 
ATOM      4  C6  UNL d   1      -1.112  -4.075  -1.803  0.00  0.00    -0.004 A 
ATOM      5  C7  UNL d   1      -0.292  -5.015  -1.183  0.00  0.00     0.002 A 
ATOM      6  C8  UNL d   1       0.914  -4.618  -0.601  0.00  0.00     0.002 A 
ENDROOT
BRANCH   1   7
ATOM      7  C2  UNL d   1       2.603  -2.845   0.019  0.00  0.00     0.056 C 
BRANCH   7   8
ATOM      8  C1  UNL d   1       3.370  -1.774  -0.763  0.00  0.00     0.007 C 
ATOM      9  C   UNL d   1       4.870  -2.030  -0.820  0.00  0.00     0.009 C 
ENDBRANCH   7   8
ENDBRANCH   1   7
TORSDOF 2
ENDMDL
