MODEL 1
REMARK minimizedAffinity 1.60786319
REMARK minimizedRMSD -1
REMARK  2 active torsions:
REMARK  status: ('A' for Active; 'I' for Inactive)
REMARK    1  A    between atoms: C1_2  and  C2_3 
REMARK    2  A    between atoms: C2_3  and  C3_4 
ROOT
ATOM      1  C3  UNL d   1      -0.357  -3.004  -2.342  0.00  0.00    -0.075 A 
ATOM      2  C4  UNL d   1       0.485  -2.602  -3.389  0.00  0.00     0.002 A 
ATOM      3  C5  UNL d   1       0.015  -2.568  -4.702  0.00  0.00     0.002 A 
ATOM      4  C6  UNL d   1      -1.296  -2.944  -4.986  0.00  0.00    -0.004 A 
ATOM      5  C7  UNL d   1      -2.136  -3.361  -3.956  0.00  0.00     0.002 A 
ATOM      6  C8  UNL d   1      -1.670  -3.392  -2.640  0.00  0.00     0.002 A 
ENDROOT
BRANCH   1   7
ATOM      7  C2  UNL d   1       0.137  -3.016  -0.915  0.00  0.00     0.056 C 
BRANCH   7   8
ATOM      8  C1  UNL d   1       0.957  -4.257  -0.548  0.00  0.00     0.007 C 
ATOM      9  C   UNL d   1       0.209  -5.562  -0.784  0.00  0.00     0.009 C 
ENDBRANCH   7   8
ENDBRANCH   1   7
TORSDOF 2
ENDMDL
