MODEL 1
REMARK minimizedAffinity 5.68840456
REMARK minimizedRMSD -1
REMARK  2 active torsions:
REMARK  status: ('A' for Active; 'I' for Inactive)
REMARK    1  A    between atoms: C1_2  and  C2_3 
REMARK    2  A    between atoms: C2_3  and  C3_4 
ROOT
ATOM      1  C3  UNL d   1      -1.182   3.878  -1.049  0.00  0.00    -0.075 A 
ATOM      2  C4  UNL d   1      -0.042   4.687  -1.159  0.00  0.00     0.002 A 
ATOM      3  C5  UNL d   1       1.100   4.407  -0.408  0.00  0.00     0.002 A 
ATOM      4  C6  UNL d   1       1.114   3.323   0.466  0.00  0.00    -0.004 A 
ATOM      5  C7  UNL d   1      -0.019   2.522   0.595  0.00  0.00     0.002 A 
ATOM      6  C8  UNL d   1      -1.162   2.798  -0.157  0.00  0.00     0.002 A 
ENDROOT
BRANCH   1   7
ATOM      7  C2  UNL d   1      -2.412   4.159  -1.880  0.00  0.00     0.056 C 
BRANCH   7   8
ATOM      8  C1  UNL d   1      -3.312   2.938  -2.094  0.00  0.00     0.007 C 
ATOM      9  C   UNL d   1      -3.937   2.888  -3.482  0.00  0.00     0.009 C 
ENDBRANCH   7   8
ENDBRANCH   1   7
TORSDOF 2
ENDMDL
