MODEL 1
REMARK minimizedAffinity -4.90321636
REMARK minimizedRMSD -1
REMARK  2 active torsions:
REMARK  status: ('A' for Active; 'I' for Inactive)
REMARK    1  A    between atoms: C1_2  and  C2_3 
REMARK    2  A    between atoms: C2_3  and  C3_4 
ROOT
ATOM      1  C3  UNL d   1      -5.185   2.419  -4.868  0.00  0.00    -0.075 A 
ATOM      2  C4  UNL d   1      -6.000   1.290  -5.035  0.00  0.00     0.002 A 
ATOM      3  C5  UNL d   1      -5.470   0.103  -5.543  0.00  0.00     0.002 A 
ATOM      4  C6  UNL d   1      -4.125   0.033  -5.900  0.00  0.00    -0.004 A 
ATOM      5  C7  UNL d   1      -3.310   1.153  -5.753  0.00  0.00     0.002 A 
ATOM      6  C8  UNL d   1      -3.836   2.341  -5.241  0.00  0.00     0.002 A 
ENDROOT
BRANCH   1   7
ATOM      7  C2  UNL d   1      -5.744   3.697  -4.291  0.00  0.00     0.056 C 
BRANCH   7   8
ATOM      8  C1  UNL d   1      -5.397   3.920  -2.815  0.00  0.00     0.007 C 
ATOM      9  C   UNL d   1      -5.504   2.654  -1.975  0.00  0.00     0.009 C 
ENDBRANCH   7   8
ENDBRANCH   1   7
TORSDOF 2
ENDMDL
