MODEL 1
REMARK minimizedAffinity 5.90292025
REMARK minimizedRMSD -1
REMARK  2 active torsions:
REMARK  status: ('A' for Active; 'I' for Inactive)
REMARK    1  A    between atoms: C1_2  and  C2_3 
REMARK    2  A    between atoms: C2_3  and  C3_4 
ROOT
ATOM      1  C3  UNL d   1      -1.441   3.416  -1.435  0.00  0.00    -0.075 A 
ATOM      2  C4  UNL d   1      -1.399   4.814  -1.331  0.00  0.00     0.002 A 
ATOM      3  C5  UNL d   1      -0.229   5.460  -0.931  0.00  0.00     0.002 A 
ATOM      4  C6  UNL d   1       0.908   4.717  -0.620  0.00  0.00    -0.004 A 
ATOM      5  C7  UNL d   1       0.872   3.327  -0.703  0.00  0.00     0.002 A 
ATOM      6  C8  UNL d   1      -0.296   2.679  -1.108  0.00  0.00     0.002 A 
ENDROOT
BRANCH   1   7
ATOM      7  C2  UNL d   1      -2.696   2.714  -1.896  0.00  0.00     0.056 C 
BRANCH   7   8
ATOM      8  C1  UNL d   1      -3.631   3.593  -2.733  0.00  0.00     0.007 C 
ATOM      9  C   UNL d   1      -5.105   3.264  -2.531  0.00  0.00     0.009 C 
ENDBRANCH   7   8
ENDBRANCH   1   7
TORSDOF 2
ENDMDL
