MODEL 1
REMARK minimizedAffinity 3.95104003
REMARK minimizedRMSD -1
REMARK  2 active torsions:
REMARK  status: ('A' for Active; 'I' for Inactive)
REMARK    1  A    between atoms: C1_2  and  C2_3 
REMARK    2  A    between atoms: C2_3  and  C3_4 
ROOT
ATOM      1  C3  UNL d   1      -2.415   4.376  -2.092  0.00  0.00    -0.075 A 
ATOM      2  C4  UNL d   1      -1.918   5.665  -1.853  0.00  0.00     0.002 A 
ATOM      3  C5  UNL d   1      -0.906   5.871  -0.915  0.00  0.00     0.002 A 
ATOM      4  C6  UNL d   1      -0.386   4.795  -0.199  0.00  0.00    -0.004 A 
ATOM      5  C7  UNL d   1      -0.883   3.512  -0.417  0.00  0.00     0.002 A 
ATOM      6  C8  UNL d   1      -1.893   3.303  -1.358  0.00  0.00     0.002 A 
ENDROOT
BRANCH   1   7
ATOM      7  C2  UNL d   1      -3.490   4.143  -3.127  0.00  0.00     0.056 C 
BRANCH   7   8
ATOM      8  C1  UNL d   1      -4.291   2.854  -2.915  0.00  0.00     0.007 C 
ATOM      9  C   UNL d   1      -5.657   3.093  -2.287  0.00  0.00     0.009 C 
ENDBRANCH   7   8
ENDBRANCH   1   7
TORSDOF 2
ENDMDL
