MODEL 1
REMARK minimizedAffinity 11.1637173
REMARK minimizedRMSD -1
REMARK  2 active torsions:
REMARK  status: ('A' for Active; 'I' for Inactive)
REMARK    1  A    between atoms: C1_2  and  C2_3 
REMARK    2  A    between atoms: C2_3  and  C3_4 
ROOT
ATOM      1  C3  UNL d   1      -0.107   1.420  -0.391  0.00  0.00    -0.075 A 
ATOM      2  C4  UNL d   1      -1.490   1.223  -0.511  0.00  0.00     0.002 A 
ATOM      3  C5  UNL d   1      -1.992   0.172  -1.280  0.00  0.00     0.002 A 
ATOM      4  C6  UNL d   1      -1.120  -0.686  -1.946  0.00  0.00    -0.004 A 
ATOM      5  C7  UNL d   1       0.256  -0.489  -1.848  0.00  0.00     0.002 A 
ATOM      6  C8  UNL d   1       0.761   0.558  -1.075  0.00  0.00     0.002 A 
ENDROOT
BRANCH   1   7
ATOM      7  C2  UNL d   1       0.443   2.537   0.464  0.00  0.00     0.056 C 
BRANCH   7   8
ATOM      8  C1  UNL d   1       0.079   3.940  -0.033  0.00  0.00     0.007 C 
ATOM      9  C   UNL d   1       1.264   4.694  -0.621  0.00  0.00     0.009 C 
ENDBRANCH   7   8
ENDBRANCH   1   7
TORSDOF 2
ENDMDL
