MODEL 1
REMARK minimizedAffinity -2.22424984
REMARK minimizedRMSD -1
REMARK  1 active torsions:
REMARK  status: ('A' for Active; 'I' for Inactive)
REMARK    1  A    between atoms: C1_2  and  C2_3 
ROOT
ATOM      1  C2  UNL d   1       5.826  -1.133   4.817  0.00  0.00    -0.077 A 
ATOM      2  C3  UNL d   1       5.830  -0.378   5.998  0.00  0.00     0.002 A 
ATOM      3  C4  UNL d   1       5.919   1.015   5.946  0.00  0.00     0.002 A 
ATOM      4  C5  UNL d   1       6.000   1.663   4.716  0.00  0.00    -0.004 A 
ATOM      5  C6  UNL d   1       5.999   0.921   3.535  0.00  0.00     0.002 A 
ATOM      6  C7  UNL d   1       5.911  -0.471   3.586  0.00  0.00     0.002 A 
ENDROOT
BRANCH   1   7
ATOM      7  C1  UNL d   1       5.681  -2.632   4.870  0.00  0.00     0.055 C 
ATOM      8  C   UNL d   1       4.908  -3.155   3.668  0.00  0.00     0.019 C 
ENDBRANCH   1   7
TORSDOF 1
ENDMDL
