MODEL 1
REMARK minimizedAffinity -2.301476
REMARK minimizedRMSD -1
REMARK  1 active torsions:
REMARK  status: ('A' for Active; 'I' for Inactive)
REMARK    1  A    between atoms: C1_2  and  C2_3 
ROOT
ATOM      1  C2  UNL d   1       5.869   1.990   4.456  0.00  0.00    -0.077 A 
ATOM      2  C3  UNL d   1       5.998   1.490   5.759  0.00  0.00     0.002 A 
ATOM      3  C4  UNL d   1       5.923   0.117   6.000  0.00  0.00     0.002 A 
ATOM      4  C5  UNL d   1       5.722  -0.768   4.942  0.00  0.00    -0.004 A 
ATOM      5  C6  UNL d   1       5.590  -0.281   3.642  0.00  0.00     0.002 A 
ATOM      6  C7  UNL d   1       5.664   1.092   3.400  0.00  0.00     0.002 A 
ENDROOT
BRANCH   1   7
ATOM      7  C1  UNL d   1       6.000   3.466   4.187  0.00  0.00     0.055 C 
ATOM      8  C   UNL d   1       4.824   3.987   3.375  0.00  0.00     0.019 C 
ENDBRANCH   1   7
TORSDOF 1
ENDMDL
