MODEL 1
REMARK minimizedAffinity -3.36817646
REMARK minimizedRMSD -1
REMARK  1 active torsions:
REMARK  status: ('A' for Active; 'I' for Inactive)
REMARK    1  A    between atoms: C1_2  and  C2_3 
ROOT
ATOM      1  C2  UNL d   1       5.396   2.128   4.295  0.00  0.00    -0.077 A 
ATOM      2  C3  UNL d   1       5.396   1.688   5.626  0.00  0.00     0.002 A 
ATOM      3  C4  UNL d   1       5.694   0.358   5.930  0.00  0.00     0.002 A 
ATOM      4  C5  UNL d   1       5.999  -0.540   4.909  0.00  0.00    -0.004 A 
ATOM      5  C6  UNL d   1       6.000  -0.112   3.582  0.00  0.00     0.002 A 
ATOM      6  C7  UNL d   1       5.700   1.216   3.276  0.00  0.00     0.002 A 
ENDROOT
BRANCH   1   7
ATOM      7  C1  UNL d   1       5.122   3.573   3.968  0.00  0.00     0.055 C 
ATOM      8  C   UNL d   1       5.916   4.505   4.872  0.00  0.00     0.019 C 
ENDBRANCH   1   7
TORSDOF 1
ENDMDL
