MODEL 1
REMARK minimizedAffinity -3.84127879
REMARK minimizedRMSD -1
REMARK  1 active torsions:
REMARK  status: ('A' for Active; 'I' for Inactive)
REMARK    1  A    between atoms: C1_2  and  C2_3 
ROOT
ATOM      1  C2  UNL d   1       5.381   1.914   4.138  0.00  0.00    -0.077 A 
ATOM      2  C3  UNL d   1       5.872   1.009   3.186  0.00  0.00     0.002 A 
ATOM      3  C4  UNL d   1       5.984  -0.348   3.494  0.00  0.00     0.002 A 
ATOM      4  C5  UNL d   1       5.604  -0.813   4.751  0.00  0.00    -0.004 A 
ATOM      5  C6  UNL d   1       5.116   0.079   5.705  0.00  0.00     0.002 A 
ATOM      6  C7  UNL d   1       5.005   1.436   5.400  0.00  0.00     0.002 A 
ENDROOT
BRANCH   1   7
ATOM      7  C1  UNL d   1       5.213   3.370   3.791  0.00  0.00     0.055 C 
ATOM      8  C   UNL d   1       5.997   3.735   2.539  0.00  0.00     0.019 C 
ENDBRANCH   1   7
TORSDOF 1
ENDMDL
