MODEL 1
REMARK minimizedAffinity 2.3487556
REMARK minimizedRMSD -1
REMARK  1 active torsions:
REMARK  status: ('A' for Active; 'I' for Inactive)
REMARK    1  A    between atoms: C1_2  and  C2_3 
ROOT
ATOM      1  C2  UNL d   1       5.930   0.682   4.503  0.00  0.00    -0.077 A 
ATOM      2  C3  UNL d   1       5.974   0.153   5.801  0.00  0.00     0.002 A 
ATOM      3  C4  UNL d   1       6.000  -1.229   6.000  0.00  0.00     0.002 A 
ATOM      4  C5  UNL d   1       5.987  -2.092   4.906  0.00  0.00    -0.004 A 
ATOM      5  C6  UNL d   1       5.942  -1.576   3.612  0.00  0.00     0.002 A 
ATOM      6  C7  UNL d   1       5.915  -0.195   3.411  0.00  0.00     0.002 A 
ENDROOT
BRANCH   1   7
ATOM      7  C1  UNL d   1       5.952   2.172   4.285  0.00  0.00     0.055 C 
ATOM      8  C   UNL d   1       4.847   2.609   3.335  0.00  0.00     0.019 C 
ENDBRANCH   1   7
TORSDOF 1
ENDMDL
