MODEL 1
REMARK minimizedAffinity -1.56483734
REMARK minimizedRMSD -1
REMARK  1 active torsions:
REMARK  status: ('A' for Active; 'I' for Inactive)
REMARK    1  A    between atoms: C1_2  and  C2_3 
ROOT
ATOM      1  C2  UNL d   1       5.963   1.217   4.769  0.00  0.00    -0.077 A 
ATOM      2  C3  UNL d   1       5.981   1.064   3.376  0.00  0.00     0.002 A 
ATOM      3  C4  UNL d   1       5.997   2.185   2.543  0.00  0.00     0.002 A 
ATOM      4  C5  UNL d   1       5.998   3.465   3.093  0.00  0.00    -0.004 A 
ATOM      5  C6  UNL d   1       5.978   3.627   4.478  0.00  0.00     0.002 A 
ATOM      6  C7  UNL d   1       5.961   2.508   5.312  0.00  0.00     0.002 A 
ENDROOT
BRANCH   1   7
ATOM      7  C1  UNL d   1       5.996   0.010   5.670  0.00  0.00     0.055 C 
ATOM      8  C   UNL d   1       5.845  -1.278   4.875  0.00  0.00     0.019 C 
ENDBRANCH   1   7
TORSDOF 1
ENDMDL
