MODEL 1
REMARK minimizedAffinity -2.32785535
REMARK minimizedRMSD -1
REMARK  1 active torsions:
REMARK  status: ('A' for Active; 'I' for Inactive)
REMARK    1  A    between atoms: C1_2  and  C2_3 
ROOT
ATOM      1  C2  UNL d   1       5.656   2.428   4.636  0.00  0.00    -0.077 A 
ATOM      2  C3  UNL d   1       6.000   1.829   5.856  0.00  0.00     0.002 A 
ATOM      3  C4  UNL d   1       5.950   0.441   6.000  0.00  0.00     0.002 A 
ATOM      4  C5  UNL d   1       5.562  -0.359   4.927  0.00  0.00    -0.004 A 
ATOM      5  C6  UNL d   1       5.216   0.228   3.710  0.00  0.00     0.002 A 
ATOM      6  C7  UNL d   1       5.264   1.615   3.565  0.00  0.00     0.002 A 
ENDROOT
BRANCH   1   7
ATOM      7  C1  UNL d   1       5.756   3.921   4.465  0.00  0.00     0.055 C 
ATOM      8  C   UNL d   1       5.985   4.297   3.008  0.00  0.00     0.019 C 
ENDBRANCH   1   7
TORSDOF 1
ENDMDL
