MODEL 1
REMARK minimizedAffinity -1.80669034
REMARK minimizedRMSD -1
REMARK  1 active torsions:
REMARK  status: ('A' for Active; 'I' for Inactive)
REMARK    1  A    between atoms: C1_2  and  C2_3 
ROOT
ATOM      1  C2  UNL d   1       5.303   2.028   3.400  0.00  0.00    -0.077 A 
ATOM      2  C3  UNL d   1       5.308   1.008   2.438  0.00  0.00     0.002 A 
ATOM      3  C4  UNL d   1       5.656  -0.296   2.793  0.00  0.00     0.002 A 
ATOM      4  C5  UNL d   1       5.998  -0.594   4.111  0.00  0.00    -0.004 A 
ATOM      5  C6  UNL d   1       5.997   0.414   5.075  0.00  0.00     0.002 A 
ATOM      6  C7  UNL d   1       5.651   1.719   4.721  0.00  0.00     0.002 A 
ENDROOT
BRANCH   1   7
ATOM      7  C1  UNL d   1       4.880   3.425   3.029  0.00  0.00     0.055 C 
ATOM      8  C   UNL d   1       5.997   4.427   3.281  0.00  0.00     0.019 C 
ENDBRANCH   1   7
TORSDOF 1
ENDMDL
