MODEL 1
REMARK minimizedAffinity 2.25998831
REMARK minimizedRMSD -1
REMARK  1 active torsions:
REMARK  status: ('A' for Active; 'I' for Inactive)
REMARK    1  A    between atoms: C1_2  and  C2_3 
ROOT
ATOM      1  C2  UNL d   1       5.965   1.851   3.740  0.00  0.00    -0.077 A 
ATOM      2  C3  UNL d   1       5.985   2.832   2.739  0.00  0.00     0.002 A 
ATOM      3  C4  UNL d   1       5.999   4.186   3.077  0.00  0.00     0.002 A 
ATOM      4  C5  UNL d   1       5.998   4.572   4.416  0.00  0.00    -0.004 A 
ATOM      5  C6  UNL d   1       5.976   3.603   5.419  0.00  0.00     0.002 A 
ATOM      6  C7  UNL d   1       5.961   2.249   5.083  0.00  0.00     0.002 A 
ENDROOT
BRANCH   1   7
ATOM      7  C1  UNL d   1       6.000   0.389   3.377  0.00  0.00     0.055 C 
ATOM      8  C   UNL d   1       4.849   0.021   2.452  0.00  0.00     0.019 C 
ENDBRANCH   1   7
TORSDOF 1
ENDMDL
