MODEL 1
REMARK minimizedAffinity -0.437996268
REMARK minimizedRMSD -1
REMARK  1 active torsions:
REMARK  status: ('A' for Active; 'I' for Inactive)
REMARK    1  A    between atoms: C1_2  and  C2_3 
ROOT
ATOM      1  C2  UNL d   1       5.976   1.129   3.903  0.00  0.00    -0.077 A 
ATOM      2  C3  UNL d   1       5.995  -0.092   3.215  0.00  0.00     0.002 A 
ATOM      3  C4  UNL d   1       5.927  -1.298   3.916  0.00  0.00     0.002 A 
ATOM      4  C5  UNL d   1       5.835  -1.294   5.307  0.00  0.00    -0.004 A 
ATOM      5  C6  UNL d   1       5.817  -0.084   5.999  0.00  0.00     0.002 A 
ATOM      6  C7  UNL d   1       5.886   1.122   5.301  0.00  0.00     0.002 A 
ENDROOT
BRANCH   1   7
ATOM      7  C1  UNL d   1       6.000   2.432   3.146  0.00  0.00     0.055 C 
ATOM      8  C   UNL d   1       5.998   3.623   4.093  0.00  0.00     0.019 C 
ENDBRANCH   1   7
TORSDOF 1
ENDMDL
