MODEL 1
REMARK minimizedAffinity 4.23650742
REMARK minimizedRMSD -1
REMARK  1 active torsions:
REMARK  status: ('A' for Active; 'I' for Inactive)
REMARK    1  A    between atoms: C1_2  and  C2_3 
ROOT
ATOM      1  C2  UNL d   1       5.979   3.601   2.956  0.00  0.00    -0.077 A 
ATOM      2  C3  UNL d   1       5.972   2.582   1.993  0.00  0.00     0.002 A 
ATOM      3  C4  UNL d   1       5.980   1.241   2.383  0.00  0.00     0.002 A 
ATOM      4  C5  UNL d   1       5.990   0.907   3.735  0.00  0.00    -0.004 A 
ATOM      5  C6  UNL d   1       5.999   1.913   4.701  0.00  0.00     0.002 A 
ATOM      6  C7  UNL d   1       5.992   3.254   4.313  0.00  0.00     0.002 A 
ENDROOT
BRANCH   1   7
ATOM      7  C1  UNL d   1       5.921   5.047   2.538  0.00  0.00     0.055 C 
ATOM      8  C   UNL d   1       5.942   5.973   3.745  0.00  0.00     0.019 C 
ENDBRANCH   1   7
TORSDOF 1
ENDMDL
