MODEL 1
REMARK minimizedAffinity 1.37830102
REMARK minimizedRMSD -1
REMARK  0 active torsions:
REMARK  status: ('A' for Active; 'I' for Inactive)
ROOT
ATOM      1  C   UNL d   1      -5.922  -1.023   5.965  0.00  0.00     0.172 C 
ATOM      2  N   UNL d   1      -5.953   0.169   5.151  0.00  0.00    -0.070 N 
ATOM      3  C1  UNL d   1      -5.972   0.201   3.782  0.00  0.00    -0.004 A 
ATOM      4  C2  UNL d   1      -5.999   1.522   3.390  0.00  0.00    -0.047 A 
ATOM      5  C3  UNL d   1      -5.995   2.312   4.564  0.00  0.00    -0.047 A 
ATOM      6  C4  UNL d   1      -5.966   1.449   5.640  0.00  0.00    -0.004 A 
ENDROOT
TORSDOF 0
ENDMDL
