MODEL 1
REMARK minimizedAffinity 0.999780893
REMARK minimizedRMSD -1
REMARK  0 active torsions:
REMARK  status: ('A' for Active; 'I' for Inactive)
ROOT
ATOM      1  C   UNL d   1       3.392   1.662  -5.769  0.00  0.00     0.172 C 
ATOM      2  N   UNL d   1       3.336   0.722  -4.674  0.00  0.00    -0.070 N 
ATOM      3  C1  UNL d   1       2.804  -0.538  -4.730  0.00  0.00    -0.004 A 
ATOM      4  C2  UNL d   1       2.944  -1.112  -3.485  0.00  0.00    -0.047 A 
ATOM      5  C3  UNL d   1       3.582  -0.163  -2.651  0.00  0.00    -0.047 A 
ATOM      6  C4  UNL d   1       3.813   0.963  -3.413  0.00  0.00    -0.004 A 
ENDROOT
TORSDOF 0
ENDMDL
