MODEL 1
REMARK minimizedAffinity 1.99097252
REMARK minimizedRMSD -1
REMARK  0 active torsions:
REMARK  status: ('A' for Active; 'I' for Inactive)
ROOT
ATOM      1  C   UNL d   1      -2.853  -5.979   1.774  0.00  0.00     0.172 C 
ATOM      2  N   UNL d   1      -1.596  -5.986   2.484  0.00  0.00    -0.070 N 
ATOM      3  C1  UNL d   1      -0.354  -5.995   1.908  0.00  0.00    -0.004 A 
ATOM      4  C2  UNL d   1       0.581  -5.999   2.921  0.00  0.00    -0.047 A 
ATOM      5  C3  UNL d   1      -0.124  -5.995   4.148  0.00  0.00    -0.047 A 
ATOM      6  C4  UNL d   1      -1.470  -5.987   3.848  0.00  0.00    -0.004 A 
ENDROOT
TORSDOF 0
ENDMDL
