MODEL 1
REMARK minimizedAffinity 0.0845357627
REMARK minimizedRMSD -1
REMARK  0 active torsions:
REMARK  status: ('A' for Active; 'I' for Inactive)
ROOT
ATOM      1  C   UNL d   1      -3.000  -6.000   1.546  0.00  0.00     0.172 C 
ATOM      2  N   UNL d   1      -1.702  -6.000   2.178  0.00  0.00    -0.070 N 
ATOM      3  C1  UNL d   1      -1.471  -5.999   3.528  0.00  0.00    -0.004 A 
ATOM      4  C2  UNL d   1      -0.106  -5.999   3.722  0.00  0.00    -0.047 A 
ATOM      5  C3  UNL d   1       0.504  -5.999   2.445  0.00  0.00    -0.047 A 
ATOM      6  C4  UNL d   1      -0.507  -5.999   1.507  0.00  0.00    -0.004 A 
ENDROOT
TORSDOF 0
ENDMDL
