MODEL 1
REMARK minimizedAffinity 1.96776891
REMARK minimizedRMSD -1
REMARK  0 active torsions:
REMARK  status: ('A' for Active; 'I' for Inactive)
ROOT
ATOM      1  C   UNL d   1      -0.939  -5.997   1.888  0.00  0.00     0.172 C 
ATOM      2  N   UNL d   1       0.310  -5.997   2.613  0.00  0.00    -0.070 N 
ATOM      3  C1  UNL d   1       0.442  -5.999   3.976  0.00  0.00    -0.004 A 
ATOM      4  C2  UNL d   1       1.788  -5.999   4.270  0.00  0.00    -0.047 A 
ATOM      5  C3  UNL d   1       2.490  -5.996   3.041  0.00  0.00    -0.047 A 
ATOM      6  C4  UNL d   1       1.550  -5.995   2.032  0.00  0.00    -0.004 A 
ENDROOT
TORSDOF 0
ENDMDL
