MODEL 1
REMARK minimizedAffinity 0.114174046
REMARK minimizedRMSD -1
REMARK  0 active torsions:
REMARK  status: ('A' for Active; 'I' for Inactive)
ROOT
ATOM      1  C   UNL d   1      -1.520  -5.994   2.989  0.00  0.00     0.172 C 
ATOM      2  N   UNL d   1      -2.700  -5.996   2.157  0.00  0.00    -0.070 N 
ATOM      3  C1  UNL d   1      -3.994  -5.996   2.606  0.00  0.00    -0.004 A 
ATOM      4  C2  UNL d   1      -4.823  -5.998   1.505  0.00  0.00    -0.047 A 
ATOM      5  C3  UNL d   1      -3.999  -5.999   0.354  0.00  0.00    -0.047 A 
ATOM      6  C4  UNL d   1      -2.690  -5.997   0.787  0.00  0.00    -0.004 A 
ENDROOT
TORSDOF 0
ENDMDL
