MODEL 1
REMARK minimizedAffinity 0.409907728
REMARK minimizedRMSD -1
REMARK  0 active torsions:
REMARK  status: ('A' for Active; 'I' for Inactive)
ROOT
ATOM      1  C   UNL d   1      -0.518  -5.616   2.994  0.00  0.00     0.172 C 
ATOM      2  N   UNL d   1       0.806  -5.696   3.564  0.00  0.00    -0.070 N 
ATOM      3  C1  UNL d   1       1.122  -5.485   4.880  0.00  0.00    -0.004 A 
ATOM      4  C2  UNL d   1       2.483  -5.655   5.019  0.00  0.00    -0.047 A 
ATOM      5  C3  UNL d   1       3.002  -5.979   3.744  0.00  0.00    -0.047 A 
ATOM      6  C4  UNL d   1       1.942  -5.998   2.862  0.00  0.00    -0.004 A 
ENDROOT
TORSDOF 0
ENDMDL
