MODEL 1
REMARK minimizedAffinity -2.00977111
REMARK minimizedRMSD -1
REMARK  0 active torsions:
REMARK  status: ('A' for Active; 'I' for Inactive)
ROOT
ATOM      1  C   UNL d   1       1.501  -4.877   5.309  0.00  0.00     0.172 C 
ATOM      2  N   UNL d   1       1.105  -5.274   3.978  0.00  0.00    -0.070 N 
ATOM      3  C1  UNL d   1       1.946  -5.726   2.996  0.00  0.00    -0.004 A 
ATOM      4  C2  UNL d   1       1.184  -6.000   1.881  0.00  0.00    -0.047 A 
ATOM      5  C3  UNL d   1      -0.161  -5.702   2.203  0.00  0.00    -0.047 A 
ATOM      6  C4  UNL d   1      -0.181  -5.254   3.507  0.00  0.00    -0.004 A 
ENDROOT
TORSDOF 0
ENDMDL
