MODEL 1
REMARK minimizedAffinity 8.24468231
REMARK minimizedRMSD -1
REMARK  0 active torsions:
REMARK  status: ('A' for Active; 'I' for Inactive)
ROOT
ATOM      1  C   UNL d   1       0.658   1.271   1.829  0.00  0.00     0.172 C 
ATOM      2  N   UNL d   1       0.019   0.065   1.358  0.00  0.00    -0.070 N 
ATOM      3  C1  UNL d   1      -0.881  -0.690   2.063  0.00  0.00    -0.004 A 
ATOM      4  C2  UNL d   1      -1.255  -1.751   1.268  0.00  0.00    -0.047 A 
ATOM      5  C3  UNL d   1      -0.556  -1.631   0.044  0.00  0.00    -0.047 A 
ATOM      6  C4  UNL d   1       0.225  -0.498   0.126  0.00  0.00    -0.004 A 
ENDROOT
TORSDOF 0
ENDMDL
