MODEL 1
REMARK minimizedAffinity 1.9695121
REMARK minimizedRMSD -1
REMARK  0 active torsions:
REMARK  status: ('A' for Active; 'I' for Inactive)
ROOT
ATOM      1  C   UNL d   1      -0.814  -5.999   2.398  0.00  0.00     0.172 C 
ATOM      2  N   UNL d   1       0.027  -5.993   3.572  0.00  0.00    -0.070 N 
ATOM      3  C1  UNL d   1      -0.413  -5.999   4.869  0.00  0.00    -0.004 A 
ATOM      4  C2  UNL d   1       0.694  -5.990   5.689  0.00  0.00    -0.047 A 
ATOM      5  C3  UNL d   1       1.839  -5.978   4.857  0.00  0.00    -0.047 A 
ATOM      6  C4  UNL d   1       1.397  -5.980   3.551  0.00  0.00    -0.004 A 
ENDROOT
TORSDOF 0
ENDMDL
