MODEL 1
REMARK minimizedAffinity 1.2612052
REMARK minimizedRMSD -1
REMARK  0 active torsions:
REMARK  status: ('A' for Active; 'I' for Inactive)
ROOT
ATOM      1  C   UNL d   1       1.124  -5.984   5.318  0.00  0.00     0.172 C 
ATOM      2  N   UNL d   1       0.501  -5.990   4.016  0.00  0.00    -0.070 N 
ATOM      3  C1  UNL d   1       1.159  -5.993   2.815  0.00  0.00    -0.004 A 
ATOM      4  C2  UNL d   1       0.212  -5.999   1.814  0.00  0.00    -0.047 A 
ATOM      5  C3  UNL d   1      -1.060  -5.999   2.434  0.00  0.00    -0.047 A 
ATOM      6  C4  UNL d   1      -0.852  -5.993   3.798  0.00  0.00    -0.004 A 
ENDROOT
TORSDOF 0
ENDMDL
