MODEL 1
REMARK minimizedAffinity 3.86781311
REMARK minimizedRMSD -1
REMARK  0 active torsions:
REMARK  status: ('A' for Active; 'I' for Inactive)
ROOT
ATOM      1  C   UNL d   1      -2.012  -0.681  -2.405  0.00  0.00     0.172 C 
ATOM      2  N   UNL d   1      -1.562  -1.608  -3.417  0.00  0.00    -0.070 N 
ATOM      3  C1  UNL d   1      -0.526  -1.398  -4.287  0.00  0.00    -0.004 A 
ATOM      4  C2  UNL d   1      -0.415  -2.514  -5.088  0.00  0.00    -0.047 A 
ATOM      5  C3  UNL d   1      -1.419  -3.426  -4.686  0.00  0.00    -0.047 A 
ATOM      6  C4  UNL d   1      -2.115  -2.839  -3.649  0.00  0.00    -0.004 A 
ENDROOT
TORSDOF 0
ENDMDL
