MODEL 1
REMARK minimizedAffinity -2.89671659
REMARK minimizedRMSD -1
REMARK  1 active torsions:
REMARK  status: ('A' for Active; 'I' for Inactive)
REMARK    1  A    between atoms: C3_4  and  O_7 
ROOT
ATOM      1  C   UNL d   1       0.820  -0.589  -3.383  0.00  0.00    -0.033 A 
ATOM      2  C1  UNL d   1       1.377  -1.860  -3.536  0.00  0.00     0.039 A 
ATOM      3  C2  UNL d   1       2.759  -2.007  -3.669  0.00  0.00    -0.080 A 
ATOM      4  C3  UNL d   1       3.572  -0.877  -3.646  0.00  0.00     0.150 A 
ATOM      5  C4  UNL d   1       3.024   0.392  -3.489  0.00  0.00    -0.007 A 
ATOM      6  C5  UNL d   1       1.644   0.537  -3.358  0.00  0.00     0.039 A 
ENDROOT
BRANCH   4   7
ATOM      7  O   UNL d   1       4.926  -0.970  -3.776  0.00  0.00    -0.526 OA
ATOM      8  H5  UNL d   1       5.159  -1.905  -3.905  0.00  0.00     0.418 HD
ENDBRANCH   4   7
TORSDOF 1
ENDMDL
