MODEL 1
REMARK minimizedAffinity -4.9647646
REMARK minimizedRMSD -1
REMARK  1 active torsions:
REMARK  status: ('A' for Active; 'I' for Inactive)
REMARK    1  A    between atoms: C3_4  and  O_7 
ROOT
ATOM      1  C   UNL d   1      -2.142  -0.442   1.568  0.00  0.00    -0.033 A 
ATOM      2  C1  UNL d   1      -0.829  -0.493   1.097  0.00  0.00     0.039 A 
ATOM      3  C2  UNL d   1       0.212   0.031   1.867  0.00  0.00    -0.080 A 
ATOM      4  C3  UNL d   1      -0.074   0.600   3.104  0.00  0.00     0.150 A 
ATOM      5  C4  UNL d   1      -1.379   0.651   3.582  0.00  0.00    -0.007 A 
ATOM      6  C5  UNL d   1      -2.417   0.128   2.812  0.00  0.00     0.039 A 
ENDROOT
BRANCH   4   7
ATOM      7  O   UNL d   1       0.908   1.128   3.889  0.00  0.00    -0.526 OA
ATOM      8  H5  UNL d   1       1.754   1.049   3.418  0.00  0.00     0.418 HD
ENDBRANCH   4   7
TORSDOF 1
ENDMDL
