MODEL 1
REMARK minimizedAffinity -5.40351152
REMARK minimizedRMSD -1
REMARK  1 active torsions:
REMARK  status: ('A' for Active; 'I' for Inactive)
REMARK    1  A    between atoms: C3_4  and  O_7 
ROOT
ATOM      1  C   UNL d   1      -1.884  -0.090   2.951  0.00  0.00    -0.033 A 
ATOM      2  C1  UNL d   1      -2.833   0.140   1.952  0.00  0.00     0.039 A 
ATOM      3  C2  UNL d   1      -2.460   0.092   0.608  0.00  0.00    -0.080 A 
ATOM      4  C3  UNL d   1      -1.137  -0.187   0.275  0.00  0.00     0.150 A 
ATOM      5  C4  UNL d   1      -0.187  -0.421   1.265  0.00  0.00    -0.007 A 
ATOM      6  C5  UNL d   1      -0.562  -0.372   2.607  0.00  0.00     0.039 A 
ENDROOT
BRANCH   4   7
ATOM      7  O   UNL d   1      -0.724  -0.240  -1.023  0.00  0.00    -0.526 OA
ATOM      8  H5  UNL d   1      -1.481  -0.030  -1.595  0.00  0.00     0.418 HD
ENDBRANCH   4   7
TORSDOF 1
ENDMDL
