MODEL 1
REMARK minimizedAffinity -4.20013285
REMARK minimizedRMSD -1
REMARK  1 active torsions:
REMARK  status: ('A' for Active; 'I' for Inactive)
REMARK    1  A    between atoms: C3_4  and  O_7 
ROOT
ATOM      1  C   UNL d   1       0.410   0.604  -0.410  0.00  0.00    -0.033 A 
ATOM      2  C1  UNL d   1      -0.896   0.134  -0.257  0.00  0.00     0.039 A 
ATOM      3  C2  UNL d   1      -1.325  -0.349   0.981  0.00  0.00    -0.080 A 
ATOM      4  C3  UNL d   1      -0.440  -0.356   2.056  0.00  0.00     0.150 A 
ATOM      5  C4  UNL d   1       0.861   0.114   1.911  0.00  0.00    -0.007 A 
ATOM      6  C5  UNL d   1       1.288   0.595   0.674  0.00  0.00     0.039 A 
ENDROOT
BRANCH   4   7
ATOM      7  O   UNL d   1      -0.812  -0.823   3.282  0.00  0.00    -0.526 OA
ATOM      8  H5  UNL d   1      -1.728  -1.142   3.225  0.00  0.00     0.418 HD
ENDBRANCH   4   7
TORSDOF 1
ENDMDL
