MODEL 1
REMARK minimizedAffinity -2.55821776
REMARK minimizedRMSD -1
REMARK  1 active torsions:
REMARK  status: ('A' for Active; 'I' for Inactive)
REMARK    1  A    between atoms: C3_4  and  O_7 
ROOT
ATOM      1  C   UNL d   1      -0.630  -0.007  -1.233  0.00  0.00    -0.033 A 
ATOM      2  C1  UNL d   1      -1.937   0.029  -0.744  0.00  0.00     0.039 A 
ATOM      3  C2  UNL d   1      -2.185  -0.220   0.608  0.00  0.00    -0.080 A 
ATOM      4  C3  UNL d   1      -1.119  -0.502   1.458  0.00  0.00     0.150 A 
ATOM      5  C4  UNL d   1       0.186  -0.535   0.977  0.00  0.00    -0.007 A 
ATOM      6  C5  UNL d   1       0.432  -0.287  -0.373  0.00  0.00     0.039 A 
ENDROOT
BRANCH   4   7
ATOM      7  O   UNL d   1      -1.312  -0.756   2.783  0.00  0.00    -0.526 OA
ATOM      8  H5  UNL d   1      -2.266  -0.727   2.966  0.00  0.00     0.418 HD
ENDBRANCH   4   7
TORSDOF 1
ENDMDL
