MODEL 1
REMARK minimizedAffinity -4.78606939
REMARK minimizedRMSD -1
REMARK  1 active torsions:
REMARK  status: ('A' for Active; 'I' for Inactive)
REMARK    1  A    between atoms: C3_4  and  O_7 
ROOT
ATOM      1  C   UNL d   1      -0.571  -0.516   3.161  0.00  0.00    -0.033 A 
ATOM      2  C1  UNL d   1       0.681  -0.008   2.809  0.00  0.00     0.039 A 
ATOM      3  C2  UNL d   1       0.953   0.325   1.481  0.00  0.00    -0.080 A 
ATOM      4  C3  UNL d   1      -0.034   0.146   0.516  0.00  0.00     0.150 A 
ATOM      5  C4  UNL d   1      -1.284  -0.357   0.859  0.00  0.00    -0.007 A 
ATOM      6  C5  UNL d   1      -1.554  -0.689   2.186  0.00  0.00     0.039 A 
ENDROOT
BRANCH   4   7
ATOM      7  O   UNL d   1       0.188   0.452  -0.794  0.00  0.00    -0.526 OA
ATOM      8  H5  UNL d   1       1.104   0.761  -0.888  0.00  0.00     0.418 HD
ENDBRANCH   4   7
TORSDOF 1
ENDMDL
