MODEL 1
REMARK minimizedAffinity 1.51196408
REMARK minimizedRMSD -1
REMARK  1 active torsions:
REMARK  status: ('A' for Active; 'I' for Inactive)
REMARK    1  A    between atoms: C3_4  and  O_7 
ROOT
ATOM      1  C   UNL d   1      -1.029  -0.007   1.918  0.00  0.00    -0.033 A 
ATOM      2  C1  UNL d   1      -0.787  -1.320   2.329  0.00  0.00     0.039 A 
ATOM      3  C2  UNL d   1       0.510  -1.724   2.652  0.00  0.00    -0.080 A 
ATOM      4  C3  UNL d   1       1.554  -0.807   2.562  0.00  0.00     0.150 A 
ATOM      5  C4  UNL d   1       1.319   0.503   2.158  0.00  0.00    -0.007 A 
ATOM      6  C5  UNL d   1       0.023   0.905   1.834  0.00  0.00     0.039 A 
ENDROOT
BRANCH   4   7
ATOM      7  O   UNL d   1       2.837  -1.156   2.862  0.00  0.00    -0.526 OA
ATOM      8  H5  UNL d   1       2.853  -2.098   3.098  0.00  0.00     0.418 HD
ENDBRANCH   4   7
TORSDOF 1
ENDMDL
