MODEL 1
REMARK minimizedAffinity 3.99131131
REMARK minimizedRMSD -1
REMARK  1 active torsions:
REMARK  status: ('A' for Active; 'I' for Inactive)
REMARK    1  A    between atoms: C3_4  and  O_7 
ROOT
ATOM      1  C   UNL d   1      -0.742  -0.510   2.193  0.00  0.00    -0.033 A 
ATOM      2  C1  UNL d   1      -1.221   0.020   0.994  0.00  0.00     0.039 A 
ATOM      3  C2  UNL d   1      -0.392   0.816   0.200  0.00  0.00    -0.080 A 
ATOM      4  C3  UNL d   1       0.911   1.072   0.616  0.00  0.00     0.150 A 
ATOM      5  C4  UNL d   1       1.396   0.544   1.808  0.00  0.00    -0.007 A 
ATOM      6  C5  UNL d   1       0.567  -0.249   2.600  0.00  0.00     0.039 A 
ENDROOT
BRANCH   4   7
ATOM      7  O   UNL d   1       1.755   1.847  -0.122  0.00  0.00    -0.526 OA
ATOM      8  H5  UNL d   1       1.275   2.167  -0.904  0.00  0.00     0.418 HD
ENDBRANCH   4   7
TORSDOF 1
ENDMDL
