MODEL 1
REMARK minimizedAffinity -5.3472147
REMARK minimizedRMSD -1
REMARK  1 active torsions:
REMARK  status: ('A' for Active; 'I' for Inactive)
REMARK    1  A    between atoms: C3_4  and  O_7 
ROOT
ATOM      1  C   UNL d   1      -1.875  -0.299   3.210  0.00  0.00    -0.033 A 
ATOM      2  C1  UNL d   1      -2.717  -0.043   2.127  0.00  0.00     0.039 A 
ATOM      3  C2  UNL d   1      -2.180   0.141   0.851  0.00  0.00    -0.080 A 
ATOM      4  C3  UNL d   1      -0.802   0.066   0.673  0.00  0.00     0.150 A 
ATOM      5  C4  UNL d   1       0.043  -0.192   1.747  0.00  0.00    -0.007 A 
ATOM      6  C5  UNL d   1      -0.495  -0.375   3.020  0.00  0.00     0.039 A 
ENDROOT
BRANCH   4   7
ATOM      7  O   UNL d   1      -0.231   0.244  -0.553  0.00  0.00    -0.526 OA
ATOM      8  H5  UNL d   1      -0.934   0.443  -1.193  0.00  0.00     0.418 HD
ENDBRANCH   4   7
TORSDOF 1
ENDMDL
