MODEL 1
REMARK minimizedAffinity -4.65336084
REMARK minimizedRMSD -1
REMARK  1 active torsions:
REMARK  status: ('A' for Active; 'I' for Inactive)
REMARK    1  A    between atoms: C3_4  and  O_7 
ROOT
ATOM      1  C   UNL d   1       0.497  -0.679  -3.214  0.00  0.00    -0.033 A 
ATOM      2  C1  UNL d   1       0.994  -1.902  -3.671  0.00  0.00     0.039 A 
ATOM      3  C2  UNL d   1       2.340  -2.024  -4.019  0.00  0.00    -0.080 A 
ATOM      4  C3  UNL d   1       3.179  -0.918  -3.905  0.00  0.00     0.150 A 
ATOM      5  C4  UNL d   1       2.692   0.301  -3.447  0.00  0.00    -0.007 A 
ATOM      6  C5  UNL d   1       1.347   0.422  -3.101  0.00  0.00     0.039 A 
ENDROOT
BRANCH   4   7
ATOM      7  O   UNL d   1       4.499  -0.988  -4.238  0.00  0.00    -0.526 OA
ATOM      8  H5  UNL d   1       4.687  -1.884  -4.565  0.00  0.00     0.418 HD
ENDBRANCH   4   7
TORSDOF 1
ENDMDL
