MODEL 1
REMARK minimizedAffinity 0.0328009538
REMARK minimizedRMSD -1
REMARK  1 active torsions:
REMARK  status: ('A' for Active; 'I' for Inactive)
REMARK    1  A    between atoms: C3_4  and  O_7 
ROOT
ATOM      1  C   UNL d   1       0.414   0.445   2.543  0.00  0.00    -0.033 A 
ATOM      2  C1  UNL d   1      -0.844   0.714   1.999  0.00  0.00     0.039 A 
ATOM      3  C2  UNL d   1      -1.152   0.287   0.706  0.00  0.00    -0.080 A 
ATOM      4  C3  UNL d   1      -0.196  -0.406  -0.031  0.00  0.00     0.150 A 
ATOM      5  C4  UNL d   1       1.057  -0.680   0.506  0.00  0.00    -0.007 A 
ATOM      6  C5  UNL d   1       1.364  -0.253   1.797  0.00  0.00     0.039 A 
ENDROOT
BRANCH   4   7
ATOM      7  O   UNL d   1      -0.450  -0.839  -1.299  0.00  0.00    -0.526 OA
ATOM      8  H5  UNL d   1      -1.344  -0.553  -1.549  0.00  0.00     0.418 HD
ENDBRANCH   4   7
TORSDOF 1
ENDMDL
