MODEL 1
REMARK minimizedAffinity -0.0362960845
REMARK minimizedRMSD -1
REMARK  1 active torsions:
REMARK  status: ('A' for Active; 'I' for Inactive)
REMARK    1  A    between atoms: C3_4  and  O_7 
ROOT
ATOM      1  C   UNL d   1       3.374   1.562  -5.999  0.00  0.00    -0.033 A 
ATOM      2  C1  UNL d   1       2.069   1.185  -5.675  0.00  0.00     0.039 A 
ATOM      3  C2  UNL d   1       1.337   1.926  -4.745  0.00  0.00    -0.080 A 
ATOM      4  C3  UNL d   1       1.921   3.040  -4.148  0.00  0.00     0.150 A 
ATOM      5  C4  UNL d   1       3.219   3.423  -4.468  0.00  0.00    -0.007 A 
ATOM      6  C5  UNL d   1       3.948   2.682  -5.396  0.00  0.00     0.039 A 
ENDROOT
BRANCH   4   7
ATOM      7  O   UNL d   1       1.247   3.792  -3.231  0.00  0.00    -0.526 OA
ATOM      8  H5  UNL d   1       0.373   3.392  -3.087  0.00  0.00     0.418 HD
ENDBRANCH   4   7
TORSDOF 1
ENDMDL
