MODEL 1
REMARK minimizedAffinity -1.59341645
REMARK minimizedRMSD -1
REMARK  1 active torsions:
REMARK  status: ('A' for Active; 'I' for Inactive)
REMARK    1  A    between atoms: C3_4  and  O_7 
ROOT
ATOM      1  C   UNL d   1       0.990  -0.633   2.644  0.00  0.00    -0.033 A 
ATOM      2  C1  UNL d   1       0.669   0.562   1.998  0.00  0.00     0.039 A 
ATOM      3  C2  UNL d   1      -0.667   0.897   1.768  0.00  0.00    -0.080 A 
ATOM      4  C3  UNL d   1      -1.671   0.030   2.190  0.00  0.00     0.150 A 
ATOM      5  C4  UNL d   1      -1.359  -1.160   2.838  0.00  0.00    -0.007 A 
ATOM      6  C5  UNL d   1      -0.024  -1.493   3.066  0.00  0.00     0.039 A 
ENDROOT
BRANCH   4   7
ATOM      7  O   UNL d   1      -2.988   0.312   1.983  0.00  0.00    -0.526 OA
ATOM      8  H5  UNL d   1      -3.051   1.152   1.499  0.00  0.00     0.418 HD
ENDBRANCH   4   7
TORSDOF 1
ENDMDL
