MODEL 1
REMARK minimizedAffinity 1.3132236
REMARK minimizedRMSD -1
REMARK  1 active torsions:
REMARK  status: ('A' for Active; 'I' for Inactive)
REMARK    1  A    between atoms: C3_4  and  O_7 
ROOT
ATOM      1  C   UNL d   1       0.033   0.668  -2.597  0.00  0.00    -0.033 A 
ATOM      2  C1  UNL d   1       0.531  -0.419  -3.318  0.00  0.00     0.039 A 
ATOM      3  C2  UNL d   1       0.410  -1.712  -2.807  0.00  0.00    -0.080 A 
ATOM      4  C3  UNL d   1      -0.212  -1.905  -1.576  0.00  0.00     0.150 A 
ATOM      5  C4  UNL d   1      -0.714  -0.827  -0.854  0.00  0.00    -0.007 A 
ATOM      6  C5  UNL d   1      -0.591   0.464  -1.366  0.00  0.00     0.039 A 
ENDROOT
BRANCH   4   7
ATOM      7  O   UNL d   1      -0.350  -3.149  -1.034  0.00  0.00    -0.526 OA
ATOM      8  H5  UNL d   1       0.069  -3.792  -1.630  0.00  0.00     0.418 HD
ENDBRANCH   4   7
TORSDOF 1
ENDMDL
