MODEL 1
REMARK minimizedAffinity -1.58926678
REMARK minimizedRMSD -1
REMARK  1 active torsions:
REMARK  status: ('A' for Active; 'I' for Inactive)
REMARK    1  A    between atoms: C3_4  and  O_7 
ROOT
ATOM      1  C   UNL d   1      -0.144  -1.111   2.489  0.00  0.00    -0.033 A 
ATOM      2  C1  UNL d   1      -1.021  -0.027   2.559  0.00  0.00     0.039 A 
ATOM      3  C2  UNL d   1      -0.522   1.271   2.682  0.00  0.00    -0.080 A 
ATOM      4  C3  UNL d   1       0.855   1.471   2.733  0.00  0.00     0.150 A 
ATOM      5  C4  UNL d   1       1.735   0.396   2.660  0.00  0.00    -0.007 A 
ATOM      6  C5  UNL d   1       1.234  -0.899   2.538  0.00  0.00     0.039 A 
ENDROOT
BRANCH   4   7
ATOM      7  O   UNL d   1       1.389   2.719   2.857  0.00  0.00    -0.526 OA
ATOM      8  H5  UNL d   1       0.661   3.360   2.925  0.00  0.00     0.418 HD
ENDBRANCH   4   7
TORSDOF 1
ENDMDL
