MODEL 1
REMARK minimizedAffinity -1.40710425
REMARK minimizedRMSD -1
REMARK  0 active torsions:
REMARK  status: ('A' for Active; 'I' for Inactive)
ROOT
ATOM      1  C1  BNZ d   1      -5.987   2.612  -4.499  0.00  0.00     0.000 A 
ATOM      2  C2  BNZ d   1      -4.893   2.627  -3.675  0.00  0.00     0.000 A 
ATOM      3  C3  BNZ d   1      -3.809   3.407  -3.966  0.00  0.00     0.000 A 
ATOM      4  C4  BNZ d   1      -3.803   4.139  -5.099  0.00  0.00     0.000 A 
ATOM      5  C5  BNZ d   1      -4.894   4.126  -5.945  0.00  0.00     0.000 A 
ATOM      6  C6  BNZ d   1      -6.000   3.370  -5.629  0.00  0.00     0.000 A 
ENDROOT
TORSDOF 0
ENDMDL
