MODEL 1
REMARK minimizedAffinity 0.981012464
REMARK minimizedRMSD -1
REMARK  0 active torsions:
REMARK  status: ('A' for Active; 'I' for Inactive)
ROOT
ATOM      1  C1  BNZ d   1       1.262   5.099  -1.143  0.00  0.00     0.000 A 
ATOM      2  C2  BNZ d   1       0.822   3.928  -0.588  0.00  0.00     0.000 A 
ATOM      3  C3  BNZ d   1      -0.513   3.641  -0.527  0.00  0.00     0.000 A 
ATOM      4  C4  BNZ d   1      -1.407   4.541  -0.985  0.00  0.00     0.000 A 
ATOM      5  C5  BNZ d   1      -0.979   5.731  -1.539  0.00  0.00     0.000 A 
ATOM      6  C6  BNZ d   1       0.367   6.000  -1.634  0.00  0.00     0.000 A 
ENDROOT
TORSDOF 0
ENDMDL
