MODEL 1
REMARK minimizedAffinity 2.76936173
REMARK minimizedRMSD -1
REMARK  0 active torsions:
REMARK  status: ('A' for Active; 'I' for Inactive)
ROOT
ATOM      1  C1  BNZ d   1       1.480   4.849  -1.478  0.00  0.00     0.000 A 
ATOM      2  C2  BNZ d   1       0.762   3.701  -1.273  0.00  0.00     0.000 A 
ATOM      3  C3  BNZ d   1      -0.597   3.689  -1.424  0.00  0.00     0.000 A 
ATOM      4  C4  BNZ d   1      -1.239   4.832  -1.741  0.00  0.00     0.000 A 
ATOM      5  C5  BNZ d   1      -0.530   5.999  -1.942  0.00  0.00     0.000 A 
ATOM      6  C6  BNZ d   1       0.841   5.999  -1.827  0.00  0.00     0.000 A 
ENDROOT
TORSDOF 0
ENDMDL
