MODEL 1
REMARK minimizedAffinity 2.94478035
REMARK minimizedRMSD -1
REMARK  0 active torsions:
REMARK  status: ('A' for Active; 'I' for Inactive)
ROOT
ATOM      1  C1  BNZ d   1       2.550  -6.000  -0.000  0.00  0.00     0.000 A 
ATOM      2  C2  BNZ d   1       1.313  -6.000   0.588  0.00  0.00     0.000 A 
ATOM      3  C3  BNZ d   1       0.235  -5.452  -0.050  0.00  0.00     0.000 A 
ATOM      4  C4  BNZ d   1       0.402  -4.870  -1.254  0.00  0.00     0.000 A 
ATOM      5  C5  BNZ d   1       1.645  -4.853  -1.856  0.00  0.00     0.000 A 
ATOM      6  C6  BNZ d   1       2.720  -5.440  -1.229  0.00  0.00     0.000 A 
ENDROOT
TORSDOF 0
ENDMDL
