MODEL 1
REMARK minimizedAffinity 8.10249615
REMARK minimizedRMSD -1
REMARK  0 active torsions:
REMARK  status: ('A' for Active; 'I' for Inactive)
ROOT
ATOM      1  C1  BNZ d   1      -1.094   5.124  -2.170  0.00  0.00     0.000 A 
ATOM      2  C2  BNZ d   1      -1.561   3.886  -1.818  0.00  0.00     0.000 A 
ATOM      3  C3  BNZ d   1      -0.703   2.905  -1.406  0.00  0.00     0.000 A 
ATOM      4  C4  BNZ d   1       0.623   3.150  -1.385  0.00  0.00     0.000 A 
ATOM      5  C5  BNZ d   1       1.110   4.391  -1.746  0.00  0.00     0.000 A 
ATOM      6  C6  BNZ d   1       0.240   5.388  -2.122  0.00  0.00     0.000 A 
ENDROOT
TORSDOF 0
ENDMDL
