MODEL 1
REMARK minimizedAffinity 8.72142315
REMARK minimizedRMSD -1
REMARK  0 active torsions:
REMARK  status: ('A' for Active; 'I' for Inactive)
ROOT
ATOM      1  C1  BNZ d   1      -5.035   1.864  -2.145  0.00  0.00     0.000 A 
ATOM      2  C2  BNZ d   1      -3.896   2.600  -2.330  0.00  0.00     0.000 A 
ATOM      3  C3  BNZ d   1      -2.858   2.110  -3.072  0.00  0.00     0.000 A 
ATOM      4  C4  BNZ d   1      -2.945   0.869  -3.594  0.00  0.00     0.000 A 
ATOM      5  C5  BNZ d   1      -4.084   0.111  -3.409  0.00  0.00     0.000 A 
ATOM      6  C6  BNZ d   1      -5.142   0.624  -2.694  0.00  0.00     0.000 A 
ENDROOT
TORSDOF 0
ENDMDL
