MODEL 1
REMARK minimizedAffinity 11.3194427
REMARK minimizedRMSD -1
REMARK  0 active torsions:
REMARK  status: ('A' for Active; 'I' for Inactive)
ROOT
ATOM      1  C1  BNZ d   1      -2.585   0.276  -5.401  0.00  0.00     0.000 A 
ATOM      2  C2  BNZ d   1      -1.222   0.184  -5.317  0.00  0.00     0.000 A 
ATOM      3  C3  BNZ d   1      -0.557   0.631  -4.209  0.00  0.00     0.000 A 
ATOM      4  C4  BNZ d   1      -1.252   1.206  -3.207  0.00  0.00     0.000 A 
ATOM      5  C5  BNZ d   1      -2.627   1.315  -3.281  0.00  0.00     0.000 A 
ATOM      6  C6  BNZ d   1      -3.296   0.828  -4.381  0.00  0.00     0.000 A 
ENDROOT
TORSDOF 0
ENDMDL
