MODEL 1
REMARK minimizedAffinity 2.02596545
REMARK minimizedRMSD -1
REMARK  0 active torsions:
REMARK  status: ('A' for Active; 'I' for Inactive)
ROOT
ATOM      1  C1  BNZ d   1       1.296   3.602  -0.992  0.00  0.00     0.000 A 
ATOM      2  C2  BNZ d   1       0.116   2.921  -0.860  0.00  0.00     0.000 A 
ATOM      3  C3  BNZ d   1      -1.063   3.477  -1.271  0.00  0.00     0.000 A 
ATOM      4  C4  BNZ d   1      -1.066   4.728  -1.774  0.00  0.00     0.000 A 
ATOM      5  C5  BNZ d   1       0.114   5.432  -1.905  0.00  0.00     0.000 A 
ATOM      6  C6  BNZ d   1       1.304   4.854  -1.527  0.00  0.00     0.000 A 
ENDROOT
TORSDOF 0
ENDMDL
