MODEL 1
REMARK minimizedAffinity 2.54546833
REMARK minimizedRMSD -1
REMARK  0 active torsions:
REMARK  status: ('A' for Active; 'I' for Inactive)
ROOT
ATOM      1  C1  BNZ d   1      -0.870   4.076  -1.563  0.00  0.00     0.000 A 
ATOM      2  C2  BNZ d   1      -0.728   5.370  -1.988  0.00  0.00     0.000 A 
ATOM      3  C3  BNZ d   1       0.508   5.948  -2.070  0.00  0.00     0.000 A 
ATOM      4  C4  BNZ d   1       1.595   5.247  -1.689  0.00  0.00     0.000 A 
ATOM      5  C5  BNZ d   1       1.467   3.944  -1.249  0.00  0.00     0.000 A 
ATOM      6  C6  BNZ d   1       0.226   3.352  -1.206  0.00  0.00     0.000 A 
ENDROOT
TORSDOF 0
ENDMDL
