MODEL 1
REMARK minimizedAffinity 3.24651361
REMARK minimizedRMSD -1
REMARK  0 active torsions:
REMARK  status: ('A' for Active; 'I' for Inactive)
ROOT
ATOM      1  C   UNL d   1       0.949   0.413   2.237  0.00  0.00     0.077 C 
ATOM      2  C1  UNL d   1      -0.483   0.788   1.995  0.00  0.00    -0.074 A 
ATOM      3  C2  UNL d   1      -1.081   0.573   0.749  0.00  0.00    -0.005 A 
ATOM      4  C3  UNL d   1      -2.417   0.917   0.541  0.00  0.00     0.006 A 
ATOM      5  C4  UNL d   1      -3.166   1.480   1.575  0.00  0.00    -0.005 A 
ATOM      6  C5  UNL d   1      -2.585   1.702   2.828  0.00  0.00    -0.074 A 
ATOM      7  C6  UNL d   1      -3.379   2.297   3.952  0.00  0.00     0.077 C 
ATOM      8  C7  UNL d   1      -1.245   1.346   3.031  0.00  0.00    -0.001 A 
ENDROOT
TORSDOF 0
ENDMDL
