MODEL 1
REMARK minimizedAffinity 11.5629387
REMARK minimizedRMSD -1
REMARK  0 active torsions:
REMARK  status: ('A' for Active; 'I' for Inactive)
ROOT
ATOM      1  C   UNL d   1       1.471   0.011   2.458  0.00  0.00     0.077 C 
ATOM      2  C1  UNL d   1       0.107   0.251   1.885  0.00  0.00    -0.074 A 
ATOM      3  C2  UNL d   1      -0.448   1.535   1.862  0.00  0.00    -0.005 A 
ATOM      4  C3  UNL d   1      -1.714   1.744   1.316  0.00  0.00     0.006 A 
ATOM      5  C4  UNL d   1      -2.438   0.674   0.789  0.00  0.00    -0.005 A 
ATOM      6  C5  UNL d   1      -1.899  -0.616   0.802  0.00  0.00    -0.074 A 
ATOM      7  C6  UNL d   1      -2.660  -1.776   0.230  0.00  0.00     0.077 C 
ATOM      8  C7  UNL d   1      -0.623  -0.818   1.345  0.00  0.00    -0.001 A 
ENDROOT
TORSDOF 0
ENDMDL
