MODEL 1
REMARK minimizedAffinity 3.52972984
REMARK minimizedRMSD -1
REMARK  0 active torsions:
REMARK  status: ('A' for Active; 'I' for Inactive)
ROOT
ATOM      1  C   UNL d   1       0.440   2.270   3.713  0.00  0.00     0.077 C 
ATOM      2  C1  UNL d   1      -0.444   1.649   2.673  0.00  0.00    -0.074 A 
ATOM      3  C2  UNL d   1       0.089   0.827   1.674  0.00  0.00    -0.005 A 
ATOM      4  C3  UNL d   1      -0.747   0.249   0.719  0.00  0.00     0.006 A 
ATOM      5  C4  UNL d   1      -2.122   0.485   0.753  0.00  0.00    -0.005 A 
ATOM      6  C5  UNL d   1      -2.673   1.303   1.745  0.00  0.00    -0.074 A 
ATOM      7  C6  UNL d   1      -4.150   1.560   1.801  0.00  0.00     0.077 C 
ATOM      8  C7  UNL d   1      -1.827   1.875   2.705  0.00  0.00    -0.001 A 
ENDROOT
TORSDOF 0
ENDMDL
