MODEL 1
REMARK minimizedAffinity 2.76079416
REMARK minimizedRMSD -1
REMARK  0 active torsions:
REMARK  status: ('A' for Active; 'I' for Inactive)
ROOT
ATOM      1  C   UNL d   1       1.760  -0.475   1.485  0.00  0.00     0.077 C 
ATOM      2  C1  UNL d   1       0.657   0.443   1.920  0.00  0.00    -0.074 A 
ATOM      3  C2  UNL d   1       0.864   1.390   2.928  0.00  0.00    -0.005 A 
ATOM      4  C3  UNL d   1      -0.169   2.243   3.315  0.00  0.00     0.006 A 
ATOM      5  C4  UNL d   1      -1.418   2.158   2.699  0.00  0.00    -0.005 A 
ATOM      6  C5  UNL d   1      -1.644   1.218   1.689  0.00  0.00    -0.074 A 
ATOM      7  C6  UNL d   1      -2.978   1.120   1.010  0.00  0.00     0.077 C 
ATOM      8  C7  UNL d   1      -0.599   0.369   1.301  0.00  0.00    -0.001 A 
ENDROOT
TORSDOF 0
ENDMDL
