MODEL 1
REMARK minimizedAffinity 14.9467535
REMARK minimizedRMSD -1
REMARK  0 active torsions:
REMARK  status: ('A' for Active; 'I' for Inactive)
ROOT
ATOM      1  C   UNL d   1       2.378  -1.400   3.203  0.00  0.00     0.077 C 
ATOM      2  C1  UNL d   1       3.012  -0.324   2.372  0.00  0.00    -0.074 A 
ATOM      3  C2  UNL d   1       4.386  -0.074   2.448  0.00  0.00    -0.005 A 
ATOM      4  C3  UNL d   1       4.964   0.923   1.662  0.00  0.00     0.006 A 
ATOM      5  C4  UNL d   1       4.175   1.678   0.793  0.00  0.00    -0.005 A 
ATOM      6  C5  UNL d   1       2.800   1.441   0.703  0.00  0.00    -0.074 A 
ATOM      7  C6  UNL d   1       1.939   2.237  -0.233  0.00  0.00     0.077 C 
ATOM      8  C7  UNL d   1       2.228   0.433   1.491  0.00  0.00    -0.001 A 
ENDROOT
TORSDOF 0
ENDMDL
