MODEL 1
REMARK minimizedAffinity 5.39348412
REMARK minimizedRMSD -1
REMARK  0 active torsions:
REMARK  status: ('A' for Active; 'I' for Inactive)
ROOT
ATOM      1  C   UNL d   1      -0.809   4.817   5.721  0.00  0.00     0.077 C 
ATOM      2  C1  UNL d   1      -2.303   4.748   5.824  0.00  0.00    -0.074 A 
ATOM      3  C2  UNL d   1      -3.075   5.913   5.879  0.00  0.00    -0.005 A 
ATOM      4  C3  UNL d   1      -4.465   5.833   5.965  0.00  0.00     0.006 A 
ATOM      5  C4  UNL d   1      -5.096   4.589   5.997  0.00  0.00    -0.005 A 
ATOM      6  C5  UNL d   1      -4.341   3.413   5.942  0.00  0.00    -0.074 A 
ATOM      7  C6  UNL d   1      -5.004   2.068   5.966  0.00  0.00     0.077 C 
ATOM      8  C7  UNL d   1      -2.945   3.502   5.849  0.00  0.00    -0.001 A 
ENDROOT
TORSDOF 0
ENDMDL
