MODEL 1
REMARK minimizedAffinity 7.03263187
REMARK minimizedRMSD -1
REMARK  0 active torsions:
REMARK  status: ('A' for Active; 'I' for Inactive)
ROOT
ATOM      1  C   UNL d   1       2.126   1.427   0.154  0.00  0.00     0.077 C 
ATOM      2  C1  UNL d   1       2.550   0.369   1.128  0.00  0.00    -0.074 A 
ATOM      3  C2  UNL d   1       1.716  -0.715   1.419  0.00  0.00    -0.005 A 
ATOM      4  C3  UNL d   1       2.128  -1.697   2.320  0.00  0.00     0.006 A 
ATOM      5  C4  UNL d   1       3.376  -1.606   2.937  0.00  0.00    -0.005 A 
ATOM      6  C5  UNL d   1       4.224  -0.529   2.657  0.00  0.00    -0.074 A 
ATOM      7  C6  UNL d   1       5.573  -0.421   3.304  0.00  0.00     0.077 C 
ATOM      8  C7  UNL d   1       3.806   0.450   1.746  0.00  0.00    -0.001 A 
ENDROOT
TORSDOF 0
ENDMDL
