MODEL 1
REMARK minimizedAffinity 1.20856655
REMARK minimizedRMSD -1
REMARK  0 active torsions:
REMARK  status: ('A' for Active; 'I' for Inactive)
ROOT
ATOM      1  C   UNL d   1       5.867  -0.178   2.904  0.00  0.00     0.077 C 
ATOM      2  C1  UNL d   1       4.504  -0.150   2.279  0.00  0.00    -0.074 A 
ATOM      3  C2  UNL d   1       3.439  -0.858   2.845  0.00  0.00    -0.005 A 
ATOM      4  C3  UNL d   1       2.175  -0.814   2.259  0.00  0.00     0.006 A 
ATOM      5  C4  UNL d   1       1.962  -0.063   1.102  0.00  0.00    -0.005 A 
ATOM      6  C5  UNL d   1       3.015   0.652   0.522  0.00  0.00    -0.074 A 
ATOM      7  C6  UNL d   1       2.802   1.472  -0.716  0.00  0.00     0.077 C 
ATOM      8  C7  UNL d   1       4.281   0.609   1.122  0.00  0.00    -0.001 A 
ENDROOT
TORSDOF 0
ENDMDL
