MODEL 1
REMARK minimizedAffinity 9.51782227
REMARK minimizedRMSD -1
REMARK  0 active torsions:
REMARK  status: ('A' for Active; 'I' for Inactive)
ROOT
ATOM      1  C   UNL d   1       2.414   1.962  -5.368  0.00  0.00     0.077 C 
ATOM      2  C1  UNL d   1       2.671   0.656  -4.676  0.00  0.00    -0.074 A 
ATOM      3  C2  UNL d   1       1.803  -0.428  -4.842  0.00  0.00    -0.005 A 
ATOM      4  C3  UNL d   1       2.060  -1.639  -4.200  0.00  0.00     0.006 A 
ATOM      5  C4  UNL d   1       3.185  -1.778  -3.386  0.00  0.00    -0.005 A 
ATOM      6  C5  UNL d   1       4.064  -0.705  -3.209  0.00  0.00    -0.074 A 
ATOM      7  C6  UNL d   1       5.283  -0.841  -2.345  0.00  0.00     0.077 C 
ATOM      8  C7  UNL d   1       3.803   0.506  -3.863  0.00  0.00    -0.001 A 
ENDROOT
TORSDOF 0
ENDMDL
