MODEL 1
REMARK minimizedAffinity 12.5350313
REMARK minimizedRMSD -1
REMARK  0 active torsions:
REMARK  status: ('A' for Active; 'I' for Inactive)
ROOT
ATOM      1  C   UNL d   1      -1.063   4.741   3.089  0.00  0.00     0.077 C 
ATOM      2  C1  UNL d   1      -2.160   4.765   4.111  0.00  0.00    -0.074 A 
ATOM      3  C2  UNL d   1      -2.353   5.880   4.933  0.00  0.00    -0.005 A 
ATOM      4  C3  UNL d   1      -3.384   5.892   5.873  0.00  0.00     0.006 A 
ATOM      5  C4  UNL d   1      -4.231   4.790   6.000  0.00  0.00    -0.005 A 
ATOM      6  C5  UNL d   1      -4.054   3.666   5.187  0.00  0.00    -0.074 A 
ATOM      7  C6  UNL d   1      -4.961   2.478   5.304  0.00  0.00     0.077 C 
ATOM      8  C7  UNL d   1      -3.020   3.665   4.240  0.00  0.00    -0.001 A 
ENDROOT
TORSDOF 0
ENDMDL
