MODEL 1
REMARK minimizedAffinity 8.0569458
REMARK minimizedRMSD -1
REMARK  0 active torsions:
REMARK  status: ('A' for Active; 'I' for Inactive)
ROOT
ATOM      1  C   UNL d   1       1.007  -1.884  -5.167  0.00  0.00     0.077 C 
ATOM      2  C1  UNL d   1       2.059  -1.039  -4.512  0.00  0.00    -0.074 A 
ATOM      3  C2  UNL d   1       2.606  -1.402  -3.277  0.00  0.00    -0.005 A 
ATOM      4  C3  UNL d   1       3.591  -0.611  -2.685  0.00  0.00     0.006 A 
ATOM      5  C4  UNL d   1       4.038   0.548  -3.321  0.00  0.00    -0.005 A 
ATOM      6  C5  UNL d   1       3.503   0.926  -4.556  0.00  0.00    -0.074 A 
ATOM      7  C6  UNL d   1       3.979   2.164  -5.257  0.00  0.00     0.077 C 
ATOM      8  C7  UNL d   1       2.519   0.123  -5.148  0.00  0.00    -0.001 A 
ENDROOT
TORSDOF 0
ENDMDL
