MODEL 1
REMARK minimizedAffinity -0.950851858
REMARK minimizedRMSD -1
REMARK  0 active torsions:
REMARK  status: ('A' for Active; 'I' for Inactive)
ROOT
ATOM      1  C   UNL d   1      -3.366  -2.239   1.069  0.00  0.00     0.077 C 
ATOM      2  C1  UNL d   1      -3.494  -2.730   2.480  0.00  0.00    -0.074 A 
ATOM      3  C2  UNL d   1      -3.920  -4.034   2.751  0.00  0.00    -0.005 A 
ATOM      4  C3  UNL d   1      -4.025  -4.481   4.068  0.00  0.00     0.006 A 
ATOM      5  C4  UNL d   1      -3.705  -3.629   5.126  0.00  0.00    -0.005 A 
ATOM      6  C5  UNL d   1      -3.276  -2.322   4.875  0.00  0.00    -0.074 A 
ATOM      7  C6  UNL d   1      -2.919  -1.396   6.000  0.00  0.00     0.077 C 
ATOM      8  C7  UNL d   1      -3.167  -1.883   3.548  0.00  0.00    -0.001 A 
ENDROOT
TORSDOF 0
ENDMDL
