MODEL 1
REMARK minimizedAffinity 4.5979023
REMARK minimizedRMSD -1
REMARK  0 active torsions:
REMARK  status: ('A' for Active; 'I' for Inactive)
ROOT
ATOM      1  C   UNL d   1       3.496   2.191  -5.998  0.00  0.00     0.077 C 
ATOM      2  C1  UNL d   1       3.105   0.948  -5.257  0.00  0.00    -0.074 A 
ATOM      3  C2  UNL d   1       3.736   0.596  -4.059  0.00  0.00    -0.005 A 
ATOM      4  C3  UNL d   1       3.354  -0.559  -3.376  0.00  0.00     0.006 A 
ATOM      5  C4  UNL d   1       2.340  -1.372  -3.882  0.00  0.00    -0.005 A 
ATOM      6  C5  UNL d   1       1.696  -1.036  -5.078  0.00  0.00    -0.074 A 
ATOM      7  C6  UNL d   1       0.597  -1.893  -5.631  0.00  0.00     0.077 C 
ATOM      8  C7  UNL d   1       2.081   0.130  -5.755  0.00  0.00    -0.001 A 
ENDROOT
TORSDOF 0
ENDMDL
