MODEL 1
REMARK minimizedAffinity -1.29284704
REMARK minimizedRMSD -1
REMARK  0 active torsions:
REMARK  status: ('A' for Active; 'I' for Inactive)
ROOT
ATOM      1  C   UNL d   1       5.999   0.019   2.647  0.00  0.00     0.077 C 
ATOM      2  C1  UNL d   1       4.573  -0.173   2.224  0.00  0.00    -0.074 A 
ATOM      3  C2  UNL d   1       3.940   0.754   1.389  0.00  0.00    -0.005 A 
ATOM      4  C3  UNL d   1       2.616   0.557   0.997  0.00  0.00     0.006 A 
ATOM      5  C4  UNL d   1       1.912  -0.566   1.434  0.00  0.00    -0.005 A 
ATOM      6  C5  UNL d   1       2.529  -1.503   2.269  0.00  0.00    -0.074 A 
ATOM      7  C6  UNL d   1       1.791  -2.721   2.740  0.00  0.00     0.077 C 
ATOM      8  C7  UNL d   1       3.862  -1.302   2.653  0.00  0.00    -0.001 A 
ENDROOT
TORSDOF 0
ENDMDL
