MODEL 1
REMARK minimizedAffinity 7.03392315
REMARK minimizedRMSD -1
REMARK  0 active torsions:
REMARK  status: ('A' for Active; 'I' for Inactive)
ROOT
ATOM      1  C   UNL d   1       4.107  -0.282   2.615  0.00  0.00     0.077 C 
ATOM      2  C1  UNL d   1       3.795   0.775   1.597  0.00  0.00    -0.074 A 
ATOM      3  C2  UNL d   1       2.685   0.656   0.754  0.00  0.00    -0.005 A 
ATOM      4  C3  UNL d   1       2.402   1.651  -0.181  0.00  0.00     0.006 A 
ATOM      5  C4  UNL d   1       3.225   2.773  -0.283  0.00  0.00    -0.005 A 
ATOM      6  C5  UNL d   1       4.339   2.910   0.551  0.00  0.00    -0.074 A 
ATOM      7  C6  UNL d   1       5.228   4.115   0.461  0.00  0.00     0.077 C 
ATOM      8  C7  UNL d   1       4.612   1.909   1.493  0.00  0.00    -0.001 A 
ENDROOT
TORSDOF 0
ENDMDL
