MODEL 1
REMARK minimizedAffinity 11.4950199
REMARK minimizedRMSD -1
REMARK  0 active torsions:
REMARK  status: ('A' for Active; 'I' for Inactive)
ROOT
ATOM      1  C   UNL d   1      -3.425  -1.409   1.019  0.00  0.00     0.077 C 
ATOM      2  C1  UNL d   1      -3.666  -2.025   2.365  0.00  0.00    -0.074 A 
ATOM      3  C2  UNL d   1      -4.397  -3.211   2.492  0.00  0.00    -0.005 A 
ATOM      4  C3  UNL d   1      -4.605  -3.777   3.750  0.00  0.00     0.006 A 
ATOM      5  C4  UNL d   1      -4.086  -3.164   4.891  0.00  0.00    -0.005 A 
ATOM      6  C5  UNL d   1      -3.352  -1.979   4.783  0.00  0.00    -0.074 A 
ATOM      7  C6  UNL d   1      -2.779  -1.312   5.999  0.00  0.00     0.077 C 
ATOM      8  C7  UNL d   1      -3.141  -1.420   3.515  0.00  0.00    -0.001 A 
ENDROOT
TORSDOF 0
ENDMDL
