MODEL 1
REMARK minimizedAffinity -3.16803598
REMARK minimizedRMSD -1
REMARK  0 active torsions:
REMARK  status: ('A' for Active; 'I' for Inactive)
ROOT
ATOM      1  C   UNL d   1      -4.365   0.331   5.971  0.00  0.00     0.077 C 
ATOM      2  C1  UNL d   1      -4.556   1.818   5.970  0.00  0.00    -0.074 A 
ATOM      3  C2  UNL d   1      -5.837   2.379   5.976  0.00  0.00    -0.005 A 
ATOM      4  C3  UNL d   1      -5.999   3.764   5.986  0.00  0.00     0.006 A 
ATOM      5  C4  UNL d   1      -4.883   4.602   5.989  0.00  0.00    -0.005 A 
ATOM      6  C5  UNL d   1      -3.594   4.060   5.984  0.00  0.00    -0.074 A 
ATOM      7  C6  UNL d   1      -2.384   4.946   5.998  0.00  0.00     0.077 C 
ATOM      8  C7  UNL d   1      -3.439   2.667   5.982  0.00  0.00    -0.001 A 
ENDROOT
TORSDOF 0
ENDMDL
