MODEL 1
REMARK minimizedAffinity 5.19048452
REMARK minimizedRMSD -1
REMARK  0 active torsions:
REMARK  status: ('A' for Active; 'I' for Inactive)
ROOT
ATOM      1  C   UNL d   1      -5.985   5.823   5.854  0.00  0.00     0.077 C 
ATOM      2  C1  UNL d   1      -5.237   4.525   5.909  0.00  0.00    -0.074 A 
ATOM      3  C2  UNL d   1      -5.917   3.303   5.931  0.00  0.00    -0.005 A 
ATOM      4  C3  UNL d   1      -5.207   2.103   5.973  0.00  0.00     0.006 A 
ATOM      5  C4  UNL d   1      -3.812   2.113   5.993  0.00  0.00    -0.005 A 
ATOM      6  C5  UNL d   1      -3.115   3.325   5.971  0.00  0.00    -0.074 A 
ATOM      7  C6  UNL d   1      -1.615   3.352   5.983  0.00  0.00     0.077 C 
ATOM      8  C7  UNL d   1      -3.835   4.526   5.922  0.00  0.00    -0.001 A 
ENDROOT
TORSDOF 0
ENDMDL
