MODEL 1
REMARK minimizedAffinity -0.24224025
REMARK minimizedRMSD -1
REMARK  0 active torsions:
REMARK  status: ('A' for Active; 'I' for Inactive)
ROOT
ATOM      1  C2' OXE d   1       1.744   4.759  -0.870  0.00  0.00     0.078 C 
ATOM      2  C1' OXE d   1       0.931   3.409   1.452  0.00  0.00     0.078 C 
ATOM      3  C1  OXE d   1       1.027   2.614   0.174  0.00  0.00    -0.078 A 
ATOM      4  C2  OXE d   1       1.381   3.293  -0.967  0.00  0.00    -0.078 A 
ATOM      5  C3  OXE d   1       1.538   2.598  -2.163  0.00  0.00     0.003 A 
ATOM      6  C4  OXE d   1       1.191   1.244  -2.246  0.00  0.00    -0.002 A 
ATOM      7  C5  OXE d   1       0.790   0.542  -1.104  0.00  0.00    -0.002 A 
ATOM      8  C6  OXE d   1       0.744   1.201   0.120  0.00  0.00     0.003 A 
ENDROOT
TORSDOF 0
ENDMDL
