MODEL 1
REMARK minimizedAffinity -4.74859953
REMARK minimizedRMSD -1
REMARK  0 active torsions:
REMARK  status: ('A' for Active; 'I' for Inactive)
ROOT
ATOM      1  C2' OXE d   1       0.468  -0.324  -1.180  0.00  0.00     0.078 C 
ATOM      2  C1' OXE d   1       1.143   0.611   1.380  0.00  0.00     0.078 C 
ATOM      3  C1  OXE d   1       1.306   1.560   0.218  0.00  0.00    -0.078 A 
ATOM      4  C2  OXE d   1       1.018   1.079  -1.036  0.00  0.00    -0.078 A 
ATOM      5  C3  OXE d   1       1.098   1.929  -2.136  0.00  0.00     0.003 A 
ATOM      6  C4  OXE d   1       1.617   3.222  -1.995  0.00  0.00    -0.002 A 
ATOM      7  C5  OXE d   1       1.955   3.718  -0.732  0.00  0.00    -0.002 A 
ATOM      8  C6  OXE d   1       1.765   2.916   0.388  0.00  0.00     0.003 A 
ENDROOT
TORSDOF 0
ENDMDL
