MODEL 1
REMARK minimizedAffinity -4.29135561
REMARK minimizedRMSD -1
REMARK  0 active torsions:
REMARK  status: ('A' for Active; 'I' for Inactive)
ROOT
ATOM      1  C2' OXE d   1       1.164   2.977  -1.544  0.00  0.00     0.078 C 
ATOM      2  C1' OXE d   1       0.665   1.897   0.999  0.00  0.00     0.078 C 
ATOM      3  C1  OXE d   1       1.037   0.944  -0.109  0.00  0.00    -0.078 A 
ATOM      4  C2  OXE d   1       1.234   1.476  -1.361  0.00  0.00    -0.078 A 
ATOM      5  C3  OXE d   1       1.634   0.649  -2.406  0.00  0.00     0.003 A 
ATOM      6  C4  OXE d   1       1.687  -0.739  -2.231  0.00  0.00    -0.002 A 
ATOM      7  C5  OXE d   1       1.451  -1.306  -0.974  0.00  0.00    -0.002 A 
ATOM      8  C6  OXE d   1       1.168  -0.476   0.105  0.00  0.00     0.003 A 
ENDROOT
TORSDOF 0
ENDMDL
