MODEL 1
REMARK minimizedAffinity -5.036376
REMARK minimizedRMSD -1
REMARK  0 active torsions:
REMARK  status: ('A' for Active; 'I' for Inactive)
ROOT
ATOM      1  C2' OXE d   1       1.467   4.166  -1.444  0.00  0.00     0.078 C 
ATOM      2  C1' OXE d   1       0.715   3.397   1.149  0.00  0.00     0.078 C 
ATOM      3  C1  OXE d   1       1.012   2.307   0.150  0.00  0.00    -0.078 A 
ATOM      4  C2  OXE d   1       1.334   2.692  -1.129  0.00  0.00    -0.078 A 
ATOM      5  C3  OXE d   1       1.671   1.728  -2.075  0.00  0.00     0.003 A 
ATOM      6  C4  OXE d   1       1.536   0.366  -1.778  0.00  0.00    -0.002 A 
ATOM      7  C5  OXE d   1       1.171  -0.048  -0.493  0.00  0.00    -0.002 A 
ATOM      8  C6  OXE d   1       0.947   0.908   0.493  0.00  0.00     0.003 A 
ENDROOT
TORSDOF 0
ENDMDL
