MODEL 1
REMARK minimizedAffinity 1.90300727
REMARK minimizedRMSD -1
REMARK  0 active torsions:
REMARK  status: ('A' for Active; 'I' for Inactive)
ROOT
ATOM      1  C2' OXE d   1       0.695   1.411   1.535  0.00  0.00     0.078 C 
ATOM      2  C1' OXE d   1       1.085  -0.920   0.022  0.00  0.00     0.078 C 
ATOM      3  C1  OXE d   1       1.383   0.404  -0.637  0.00  0.00    -0.078 A 
ATOM      4  C2  OXE d   1       1.144   1.542   0.096  0.00  0.00    -0.078 A 
ATOM      5  C3  OXE d   1       1.454   2.787  -0.444  0.00  0.00     0.003 A 
ATOM      6  C4  OXE d   1       1.860   2.899  -1.780  0.00  0.00    -0.002 A 
ATOM      7  C5  OXE d   1       2.070   1.755  -2.556  0.00  0.00    -0.002 A 
ATOM      8  C6  OXE d   1       1.878   0.500  -1.988  0.00  0.00     0.003 A 
ENDROOT
TORSDOF 0
ENDMDL
