MODEL 1
REMARK minimizedAffinity 2.83463788
REMARK minimizedRMSD -1
REMARK  0 active torsions:
REMARK  status: ('A' for Active; 'I' for Inactive)
ROOT
ATOM      1  C2' OXE d   1       0.883   3.055   0.368  0.00  0.00     0.078 C 
ATOM      2  C1' OXE d   1       2.272   2.627  -2.033  0.00  0.00     0.078 C 
ATOM      3  C1  OXE d   1       1.800   1.416  -1.268  0.00  0.00    -0.078 A 
ATOM      4  C2  OXE d   1       1.162   1.634  -0.071  0.00  0.00    -0.078 A 
ATOM      5  C3  OXE d   1       0.657   0.553   0.647  0.00  0.00     0.003 A 
ATOM      6  C4  OXE d   1       0.928  -0.758   0.239  0.00  0.00    -0.002 A 
ATOM      7  C5  OXE d   1       1.611  -1.003  -0.957  0.00  0.00    -0.002 A 
ATOM      8  C6  OXE d   1       2.016   0.071  -1.742  0.00  0.00     0.003 A 
ENDROOT
TORSDOF 0
ENDMDL
