MODEL 1
REMARK minimizedAffinity -0.956577063
REMARK minimizedRMSD -1
REMARK  0 active torsions:
REMARK  status: ('A' for Active; 'I' for Inactive)
ROOT
ATOM      1  C2' OXE d   1       2.034   4.370  -1.115  0.00  0.00     0.078 C 
ATOM      2  C1' OXE d   1       1.150   3.715   1.467  0.00  0.00     0.078 C 
ATOM      3  C1  OXE d   1       1.264   2.599   0.459  0.00  0.00    -0.078 A 
ATOM      4  C2  OXE d   1       1.652   2.937  -0.816  0.00  0.00    -0.078 A 
ATOM      5  C3  OXE d   1       1.826   1.939  -1.770  0.00  0.00     0.003 A 
ATOM      6  C4  OXE d   1       1.461   0.617  -1.488  0.00  0.00    -0.002 A 
ATOM      7  C5  OXE d   1       1.025   0.258  -0.208  0.00  0.00    -0.002 A 
ATOM      8  C6  OXE d   1       0.962   1.228   0.786  0.00  0.00     0.003 A 
ENDROOT
TORSDOF 0
ENDMDL
