MODEL 1
REMARK minimizedAffinity 1.92837071
REMARK minimizedRMSD -1
REMARK  0 active torsions:
REMARK  status: ('A' for Active; 'I' for Inactive)
ROOT
ATOM      1  C2' OXE d   1       1.190   3.424   1.474  0.00  0.00     0.078 C 
ATOM      2  C1' OXE d   1       1.541   4.120  -1.223  0.00  0.00     0.078 C 
ATOM      3  C1  OXE d   1       1.348   2.662  -0.892  0.00  0.00    -0.078 A 
ATOM      4  C2  OXE d   1       1.224   2.325   0.434  0.00  0.00    -0.078 A 
ATOM      5  C3  OXE d   1       0.989   1.000   0.790  0.00  0.00     0.003 A 
ATOM      6  C4  OXE d   1       1.032  -0.012  -0.177  0.00  0.00    -0.002 A 
ATOM      7  C5  OXE d   1       1.197   0.305  -1.529  0.00  0.00    -0.002 A 
ATOM      8  C6  OXE d   1       1.313   1.638  -1.907  0.00  0.00     0.003 A 
ENDROOT
TORSDOF 0
ENDMDL
