MODEL 1
REMARK minimizedAffinity 9.25389862
REMARK minimizedRMSD -1
REMARK  0 active torsions:
REMARK  status: ('A' for Active; 'I' for Inactive)
ROOT
ATOM      1  C2' OXE d   1       0.800  -1.233  -1.161  0.00  0.00     0.078 C 
ATOM      2  C1' OXE d   1       2.343  -0.148   0.918  0.00  0.00     0.078 C 
ATOM      3  C1  OXE d   1       1.821   0.796  -0.136  0.00  0.00    -0.078 A 
ATOM      4  C2  OXE d   1       1.106   0.250  -1.175  0.00  0.00    -0.078 A 
ATOM      5  C3  OXE d   1       0.555   1.082  -2.145  0.00  0.00     0.003 A 
ATOM      6  C4  OXE d   1       0.850   2.450  -2.156  0.00  0.00    -0.002 A 
ATOM      7  C5  OXE d   1       1.609   3.021  -1.129  0.00  0.00    -0.002 A 
ATOM      8  C6  OXE d   1       2.065   2.216  -0.091  0.00  0.00     0.003 A 
ENDROOT
TORSDOF 0
ENDMDL
