MODEL 1
REMARK minimizedAffinity -4.57924461
REMARK minimizedRMSD -1
REMARK  0 active torsions:
REMARK  status: ('A' for Active; 'I' for Inactive)
ROOT
ATOM      1  C2' OXE d   1       1.695   4.664  -0.833  0.00  0.00     0.078 C 
ATOM      2  C1' OXE d   1       1.123   3.947   1.820  0.00  0.00     0.078 C 
ATOM      3  C1  OXE d   1       1.181   2.846   0.791  0.00  0.00    -0.078 A 
ATOM      4  C2  OXE d   1       1.415   3.212  -0.513  0.00  0.00    -0.078 A 
ATOM      5  C3  OXE d   1       1.533   2.230  -1.493  0.00  0.00     0.003 A 
ATOM      6  C4  OXE d   1       1.263   0.890  -1.191  0.00  0.00    -0.002 A 
ATOM      7  C5  OXE d   1       0.983   0.502   0.124  0.00  0.00    -0.002 A 
ATOM      8  C6  OXE d   1       0.980   1.460   1.132  0.00  0.00     0.003 A 
ENDROOT
TORSDOF 0
ENDMDL
