MODEL 1
REMARK minimizedAffinity -2.49956751
REMARK minimizedRMSD -1
REMARK  0 active torsions:
REMARK  status: ('A' for Active; 'I' for Inactive)
ROOT
ATOM      1  C2' OXE d   1       0.356   1.489   1.817  0.00  0.00     0.078 C 
ATOM      2  C1' OXE d   1       1.192   3.781   0.428  0.00  0.00     0.078 C 
ATOM      3  C1  OXE d   1       1.305   2.451  -0.276  0.00  0.00    -0.078 A 
ATOM      4  C2  OXE d   1       0.937   1.330   0.428  0.00  0.00    -0.078 A 
ATOM      5  C3  OXE d   1       0.970   0.085  -0.193  0.00  0.00     0.003 A 
ATOM      6  C4  OXE d   1       1.518  -0.054  -1.474  0.00  0.00    -0.002 A 
ATOM      7  C5  OXE d   1       1.935   1.070  -2.193  0.00  0.00    -0.002 A 
ATOM      8  C6  OXE d   1       1.796   2.332  -1.626  0.00  0.00     0.003 A 
ENDROOT
TORSDOF 0
ENDMDL
