MODEL 1
REMARK minimizedAffinity -4.59919453
REMARK minimizedRMSD -1
REMARK  0 active torsions:
REMARK  status: ('A' for Active; 'I' for Inactive)
ROOT
ATOM      1  C2' OXE d   1       0.876   1.300   1.335  0.00  0.00     0.078 C 
ATOM      2  C1' OXE d   1       1.157  -0.087  -1.089  0.00  0.00     0.078 C 
ATOM      3  C1  OXE d   1       1.280   1.415  -1.121  0.00  0.00    -0.078 A 
ATOM      4  C2  OXE d   1       1.095   2.090   0.062  0.00  0.00    -0.078 A 
ATOM      5  C3  OXE d   1       1.251   3.472   0.100  0.00  0.00     0.003 A 
ATOM      6  C4  OXE d   1       1.443   4.196  -1.083  0.00  0.00    -0.002 A 
ATOM      7  C5  OXE d   1       1.596   3.532  -2.305  0.00  0.00    -0.002 A 
ATOM      8  C6  OXE d   1       1.559   2.142  -2.334  0.00  0.00     0.003 A 
ENDROOT
TORSDOF 0
ENDMDL
