MODEL 1
REMARK minimizedAffinity 6.1872983
REMARK minimizedRMSD -1
REMARK  0 active torsions:
REMARK  status: ('A' for Active; 'I' for Inactive)
ROOT
ATOM      1  C2' OXE d   1       1.192   4.390  -1.055  0.00  0.00     0.078 C 
ATOM      2  C1' OXE d   1       1.445   3.357   1.543  0.00  0.00     0.078 C 
ATOM      3  C1  OXE d   1       1.624   2.405   0.387  0.00  0.00    -0.078 A 
ATOM      4  C2  OXE d   1       1.453   2.910  -0.880  0.00  0.00    -0.078 A 
ATOM      5  C3  OXE d   1       1.660   2.087  -1.984  0.00  0.00     0.003 A 
ATOM      6  C4  OXE d   1       1.891   0.717  -1.813  0.00  0.00    -0.002 A 
ATOM      7  C5  OXE d   1       2.030   0.175  -0.531  0.00  0.00    -0.002 A 
ATOM      8  C6  OXE d   1       1.942   1.011   0.576  0.00  0.00     0.003 A 
ENDROOT
TORSDOF 0
ENDMDL
