MODEL 1
REMARK minimizedAffinity 5.02240944
REMARK minimizedRMSD -1
REMARK  0 active torsions:
REMARK  status: ('A' for Active; 'I' for Inactive)
ROOT
ATOM      1  C2' OXE d   1       1.968   0.206  -0.809  0.00  0.00     0.078 C 
ATOM      2  C1' OXE d   1       2.084   1.981  -2.981  0.00  0.00     0.078 C 
ATOM      3  C1  OXE d   1       1.685   2.538  -1.637  0.00  0.00    -0.078 A 
ATOM      4  C2  OXE d   1       1.586   1.654  -0.590  0.00  0.00    -0.078 A 
ATOM      5  C3  OXE d   1       1.276   2.124   0.683  0.00  0.00     0.003 A 
ATOM      6  C4  OXE d   1       0.914   3.463   0.875  0.00  0.00    -0.002 A 
ATOM      7  C5  OXE d   1       0.970   4.373  -0.186  0.00  0.00    -0.002 A 
ATOM      8  C6  OXE d   1       1.394   3.936  -1.436  0.00  0.00     0.003 A 
ENDROOT
TORSDOF 0
ENDMDL
