MODEL 1
REMARK minimizedAffinity -1.31177199
REMARK minimizedRMSD -1
REMARK  0 active torsions:
REMARK  status: ('A' for Active; 'I' for Inactive)
ROOT
ATOM      1  C2' OXE d   1       1.162   3.821  -1.545  0.00  0.00     0.078 C 
ATOM      2  C1' OXE d   1       0.593   3.030   1.088  0.00  0.00     0.078 C 
ATOM      3  C1  OXE d   1       0.990   1.960   0.102  0.00  0.00    -0.078 A 
ATOM      4  C2  OXE d   1       1.221   2.350  -1.195  0.00  0.00    -0.078 A 
ATOM      5  C3  OXE d   1       1.644   1.411  -2.132  0.00  0.00     0.003 A 
ATOM      6  C4  OXE d   1       1.687   0.051  -1.803  0.00  0.00    -0.002 A 
ATOM      7  C5  OXE d   1       1.416  -0.373  -0.498  0.00  0.00    -0.002 A 
ATOM      8  C6  OXE d   1       1.109   0.572   0.475  0.00  0.00     0.003 A 
ENDROOT
TORSDOF 0
ENDMDL
