MODEL 1
REMARK minimizedAffinity -4.21045971
REMARK minimizedRMSD -1
REMARK  0 active torsions:
REMARK  status: ('A' for Active; 'I' for Inactive)
ROOT
ATOM      1  C2' OXE d   1       1.215   4.109  -0.227  0.00  0.00     0.078 C 
ATOM      2  C1' OXE d   1       1.045   2.269   1.887  0.00  0.00     0.078 C 
ATOM      3  C1  OXE d   1       1.112   1.723   0.482  0.00  0.00    -0.078 A 
ATOM      4  C2  OXE d   1       1.148   2.631  -0.548  0.00  0.00    -0.078 A 
ATOM      5  C3  OXE d   1       1.265   2.181  -1.860  0.00  0.00     0.003 A 
ATOM      6  C4  OXE d   1       1.192   0.813  -2.149  0.00  0.00    -0.002 A 
ATOM      7  C5  OXE d   1       1.115  -0.128  -1.116  0.00  0.00    -0.002 A 
ATOM      8  C6  OXE d   1       1.117   0.308   0.204  0.00  0.00     0.003 A 
ENDROOT
TORSDOF 0
ENDMDL
