MODEL 1
REMARK minimizedAffinity 1.87947428
REMARK minimizedRMSD -1
REMARK  0 active torsions:
REMARK  status: ('A' for Active; 'I' for Inactive)
ROOT
ATOM      1  C2' OXE d   1       1.343   3.136  -1.798  0.00  0.00     0.078 C 
ATOM      2  C1' OXE d   1       1.031   2.967   0.986  0.00  0.00     0.078 C 
ATOM      3  C1  OXE d   1       1.108   1.678   0.208  0.00  0.00    -0.078 A 
ATOM      4  C2  OXE d   1       1.213   1.770  -1.159  0.00  0.00    -0.078 A 
ATOM      5  C3  OXE d   1       1.343   0.612  -1.921  0.00  0.00     0.003 A 
ATOM      6  C4  OXE d   1       1.212  -0.648  -1.323  0.00  0.00    -0.002 A 
ATOM      7  C5  OXE d   1       1.064  -0.764   0.063  0.00  0.00    -0.002 A 
ATOM      8  C6  OXE d   1       1.053   0.386   0.846  0.00  0.00     0.003 A 
ENDROOT
TORSDOF 0
ENDMDL
