MODEL 1
REMARK minimizedAffinity 0.0415773205
REMARK minimizedRMSD -1
REMARK  0 active torsions:
REMARK  status: ('A' for Active; 'I' for Inactive)
ROOT
ATOM      1  C2' OXE d   1       1.198   2.042  -1.749  0.00  0.00     0.078 C 
ATOM      2  C1' OXE d   1       1.494   1.367   0.960  0.00  0.00     0.078 C 
ATOM      3  C1  OXE d   1       1.394   0.241  -0.039  0.00  0.00    -0.078 A 
ATOM      4  C2  OXE d   1       1.202   0.580  -1.357  0.00  0.00    -0.078 A 
ATOM      5  C3  OXE d   1       1.158  -0.418  -2.326  0.00  0.00     0.003 A 
ATOM      6  C4  OXE d   1       1.153  -1.768  -1.954  0.00  0.00    -0.002 A 
ATOM      7  C5  OXE d   1       1.307  -2.135  -0.613  0.00  0.00    -0.002 A 
ATOM      8  C6  OXE d   1       1.471  -1.145   0.350  0.00  0.00     0.003 A 
ENDROOT
TORSDOF 0
ENDMDL
