MODEL 1
REMARK minimizedAffinity -3.52584004
REMARK minimizedRMSD -1
REMARK  0 active torsions:
REMARK  status: ('A' for Active; 'I' for Inactive)
ROOT
ATOM      1  C   UNL d   1      -2.395   1.460  -1.305  0.00  0.00     0.023 A 
ATOM      2  C1  UNL d   1      -3.068   2.013  -2.394  0.00  0.00     0.003 A 
ATOM      3  C2  UNL d   1      -2.365   2.750  -3.350  0.00  0.00     0.048 A 
ATOM      4  C3  UNL d   1      -0.989   2.928  -3.211  0.00  0.00     0.023 A 
ATOM      5  C4  UNL d   1      -0.311   2.376  -2.124  0.00  0.00     0.048 A 
ATOM      6  C5  UNL d   1      -1.018   1.641  -1.170  0.00  0.00     0.003 A 
ATOM      7  I   UNL d   1       0.059   4.024  -4.633  0.00  0.00    -0.146 I 
ENDROOT
TORSDOF 0
ENDMDL
