MODEL 1
REMARK minimizedAffinity -2.86619663
REMARK minimizedRMSD -1
REMARK  0 active torsions:
REMARK  status: ('A' for Active; 'I' for Inactive)
ROOT
ATOM      1  C   UNL d   1      -0.777  -1.671   3.181  0.00  0.00     0.023 A 
ATOM      2  C1  UNL d   1       0.477  -2.252   2.994  0.00  0.00     0.003 A 
ATOM      3  C2  UNL d   1       1.287  -1.841   1.933  0.00  0.00     0.048 A 
ATOM      4  C3  UNL d   1       0.837  -0.848   1.064  0.00  0.00     0.023 A 
ATOM      5  C4  UNL d   1      -0.417  -0.263   1.248  0.00  0.00     0.048 A 
ATOM      6  C5  UNL d   1      -1.224  -0.678   2.309  0.00  0.00     0.003 A 
ATOM      7  I   UNL d   1       2.041  -0.234  -0.516  0.00  0.00    -0.146 I 
ENDROOT
TORSDOF 0
ENDMDL
