MODEL 1
REMARK minimizedAffinity -2.49698186
REMARK minimizedRMSD -1
REMARK  0 active torsions:
REMARK  status: ('A' for Active; 'I' for Inactive)
ROOT
ATOM      1  C   UNL d   1       1.806  -1.971   1.509  0.00  0.00     0.023 A 
ATOM      2  C1  UNL d   1       0.633  -1.446   2.054  0.00  0.00     0.003 A 
ATOM      3  C2  UNL d   1      -0.084  -0.469   1.359  0.00  0.00     0.048 A 
ATOM      4  C3  UNL d   1       0.376  -0.023   0.121  0.00  0.00     0.023 A 
ATOM      5  C4  UNL d   1       1.548  -0.546  -0.428  0.00  0.00     0.048 A 
ATOM      6  C5  UNL d   1       2.262  -1.522   0.270  0.00  0.00     0.003 A 
ATOM      7  I   UNL d   1      -0.690   1.430  -0.915  0.00  0.00    -0.146 I 
ENDROOT
TORSDOF 0
ENDMDL
