MODEL 1
REMARK minimizedAffinity -3.39185953
REMARK minimizedRMSD -1
REMARK  0 active torsions:
REMARK  status: ('A' for Active; 'I' for Inactive)
ROOT
ATOM      1  C   UNL d   1       2.081  -0.784   0.078  0.00  0.00     0.023 A 
ATOM      2  C1  UNL d   1       2.091  -1.752   1.082  0.00  0.00     0.003 A 
ATOM      3  C2  UNL d   1       1.053  -1.804   2.015  0.00  0.00     0.048 A 
ATOM      4  C3  UNL d   1       0.007  -0.885   1.936  0.00  0.00     0.023 A 
ATOM      5  C4  UNL d   1      -0.008   0.085   0.932  0.00  0.00     0.048 A 
ATOM      6  C5  UNL d   1       1.033   0.133   0.003  0.00  0.00     0.003 A 
ATOM      7  I   UNL d   1      -1.540  -0.960   3.322  0.00  0.00    -0.146 I 
ENDROOT
TORSDOF 0
ENDMDL
