MODEL 1
REMARK minimizedAffinity -3.89789844
REMARK minimizedRMSD -1
REMARK  0 active torsions:
REMARK  status: ('A' for Active; 'I' for Inactive)
ROOT
ATOM      1  C   UNL d   1       1.778  -1.925   1.825  0.00  0.00     0.023 A 
ATOM      2  C1  UNL d   1       2.429  -1.152   0.864  0.00  0.00     0.003 A 
ATOM      3  C2  UNL d   1       1.697  -0.279   0.056  0.00  0.00     0.048 A 
ATOM      4  C3  UNL d   1       0.316  -0.183   0.215  0.00  0.00     0.023 A 
ATOM      5  C4  UNL d   1      -0.340  -0.954   1.177  0.00  0.00     0.048 A 
ATOM      6  C5  UNL d   1       0.396  -1.826   1.982  0.00  0.00     0.003 A 
ATOM      7  I   UNL d   1      -0.775   1.115  -0.986  0.00  0.00    -0.146 I 
ENDROOT
TORSDOF 0
ENDMDL
