MODEL 1
REMARK minimizedAffinity -3.30567741
REMARK minimizedRMSD -1
REMARK  0 active torsions:
REMARK  status: ('A' for Active; 'I' for Inactive)
ROOT
ATOM      1  C   UNL d   1       1.360  -2.538   1.829  0.00  0.00     0.023 A 
ATOM      2  C1  UNL d   1       0.114  -2.068   2.244  0.00  0.00     0.003 A 
ATOM      3  C2  UNL d   1      -0.535  -1.070   1.514  0.00  0.00     0.048 A 
ATOM      4  C3  UNL d   1       0.068  -0.548   0.370  0.00  0.00     0.023 A 
ATOM      5  C4  UNL d   1       1.314  -1.016  -0.049  0.00  0.00     0.048 A 
ATOM      6  C5  UNL d   1       1.959  -2.013   0.685  0.00  0.00     0.003 A 
ATOM      7  I   UNL d   1      -0.897   0.938  -0.719  0.00  0.00    -0.146 I 
ENDROOT
TORSDOF 0
ENDMDL
