MODEL 1
REMARK minimizedAffinity -4.35176516
REMARK minimizedRMSD -1
REMARK  0 active torsions:
REMARK  status: ('A' for Active; 'I' for Inactive)
ROOT
ATOM      1  C   UNL d   1       1.170  -2.473   1.479  0.00  0.00     0.023 A 
ATOM      2  C1  UNL d   1       1.832  -1.834   0.429  0.00  0.00     0.003 A 
ATOM      3  C2  UNL d   1       1.262  -0.713  -0.177  0.00  0.00     0.048 A 
ATOM      4  C3  UNL d   1       0.031  -0.235   0.271  0.00  0.00     0.023 A 
ATOM      5  C4  UNL d   1      -0.634  -0.869   1.321  0.00  0.00     0.048 A 
ATOM      6  C5  UNL d   1      -0.061  -1.991   1.924  0.00  0.00     0.003 A 
ATOM      7  I   UNL d   1      -0.818   1.435  -0.630  0.00  0.00    -0.146 I 
ENDROOT
TORSDOF 0
ENDMDL
