MODEL 1
REMARK minimizedAffinity -4.29409838
REMARK minimizedRMSD -1
REMARK  0 active torsions:
REMARK  status: ('A' for Active; 'I' for Inactive)
ROOT
ATOM      1  C   UNL d   1       1.095  -2.965   1.791  0.00  0.00     0.023 A 
ATOM      2  C1  UNL d   1       0.027  -2.252   2.336  0.00  0.00     0.003 A 
ATOM      3  C2  UNL d   1      -0.455  -1.111   1.690  0.00  0.00     0.048 A 
ATOM      4  C3  UNL d   1       0.135  -0.691   0.498  0.00  0.00     0.023 A 
ATOM      5  C4  UNL d   1       1.202  -1.402  -0.052  0.00  0.00     0.048 A 
ATOM      6  C5  UNL d   1       1.681  -2.541   0.598  0.00  0.00     0.003 A 
ATOM      7  I   UNL d   1      -0.581   1.006  -0.466  0.00  0.00    -0.146 I 
ENDROOT
TORSDOF 0
ENDMDL
