MODEL 1
REMARK minimizedAffinity -3.51284528
REMARK minimizedRMSD -1
REMARK  0 active torsions:
REMARK  status: ('A' for Active; 'I' for Inactive)
ROOT
ATOM      1  C   UNL d   1       1.511  -1.993   0.789  0.00  0.00     0.023 A 
ATOM      2  C1  UNL d   1       2.118  -1.144  -0.136  0.00  0.00     0.003 A 
ATOM      3  C2  UNL d   1       1.381  -0.120  -0.734  0.00  0.00     0.048 A 
ATOM      4  C3  UNL d   1       0.038   0.051  -0.400  0.00  0.00     0.023 A 
ATOM      5  C4  UNL d   1      -0.573  -0.795   0.527  0.00  0.00     0.048 A 
ATOM      6  C5  UNL d   1       0.167  -1.819   1.121  0.00  0.00     0.003 A 
ATOM      7  I   UNL d   1      -1.061   1.576  -1.287  0.00  0.00    -0.146 I 
ENDROOT
TORSDOF 0
ENDMDL
