MODEL 1
REMARK minimizedAffinity -4.10854626
REMARK minimizedRMSD -1
REMARK  0 active torsions:
REMARK  status: ('A' for Active; 'I' for Inactive)
ROOT
ATOM      1  C   UNL d   1       1.148  -2.281   2.406  0.00  0.00     0.023 A 
ATOM      2  C1  UNL d   1      -0.190  -1.889   2.452  0.00  0.00     0.003 A 
ATOM      3  C2  UNL d   1      -0.668  -0.928   1.559  0.00  0.00     0.048 A 
ATOM      4  C3  UNL d   1       0.197  -0.364   0.622  0.00  0.00     0.023 A 
ATOM      5  C4  UNL d   1       1.536  -0.754   0.571  0.00  0.00     0.048 A 
ATOM      6  C5  UNL d   1       2.010  -1.714   1.467  0.00  0.00     0.003 A 
ATOM      7  I   UNL d   1      -0.513   1.066  -0.709  0.00  0.00    -0.146 I 
ENDROOT
TORSDOF 0
ENDMDL
