MODEL 1
REMARK minimizedAffinity -3.52790546
REMARK minimizedRMSD -1
REMARK  0 active torsions:
REMARK  status: ('A' for Active; 'I' for Inactive)
ROOT
ATOM      1  C   UNL d   1       0.607  -2.458   2.028  0.00  0.00     0.023 A 
ATOM      2  C1  UNL d   1      -0.566  -1.786   2.374  0.00  0.00     0.003 A 
ATOM      3  C2  UNL d   1      -1.028  -0.734   1.582  0.00  0.00     0.048 A 
ATOM      4  C3  UNL d   1      -0.314  -0.358   0.445  0.00  0.00     0.023 A 
ATOM      5  C4  UNL d   1       0.860  -1.027   0.095  0.00  0.00     0.048 A 
ATOM      6  C5  UNL d   1       1.319  -2.079   0.890  0.00  0.00     0.003 A 
ATOM      7  I   UNL d   1      -1.000   1.209  -0.736  0.00  0.00    -0.146 I 
ENDROOT
TORSDOF 0
ENDMDL
