MODEL 1
REMARK minimizedAffinity -5.73666668
REMARK minimizedRMSD -1
REMARK  0 active torsions:
REMARK  status: ('A' for Active; 'I' for Inactive)
ROOT
ATOM      1  C   UNL d   1       0.977  -2.951   2.131  0.00  0.00     0.023 A 
ATOM      2  C1  UNL d   1      -0.119  -2.248   2.631  0.00  0.00     0.003 A 
ATOM      3  C2  UNL d   1      -0.607  -1.133   1.947  0.00  0.00     0.048 A 
ATOM      4  C3  UNL d   1       0.006  -0.727   0.762  0.00  0.00     0.023 A 
ATOM      5  C4  UNL d   1       1.103  -1.427   0.257  0.00  0.00     0.048 A 
ATOM      6  C5  UNL d   1       1.587  -2.541   0.946  0.00  0.00     0.003 A 
ATOM      7  I   UNL d   1      -0.718   0.933  -0.259  0.00  0.00    -0.146 I 
ENDROOT
TORSDOF 0
ENDMDL
