MODEL 1
REMARK minimizedAffinity -3.45234156
REMARK minimizedRMSD -1
REMARK  0 active torsions:
REMARK  status: ('A' for Active; 'I' for Inactive)
ROOT
ATOM      1  C   UNL d   1       1.403  -1.455   0.572  0.00  0.00     0.023 A 
ATOM      2  C1  UNL d   1       0.040  -1.455   0.868  0.00  0.00     0.003 A 
ATOM      3  C2  UNL d   1      -0.789  -0.459   0.347  0.00  0.00     0.048 A 
ATOM      4  C3  UNL d   1      -0.248   0.533  -0.470  0.00  0.00     0.023 A 
ATOM      5  C4  UNL d   1       1.115   0.536  -0.770  0.00  0.00     0.048 A 
ATOM      6  C5  UNL d   1       1.940  -0.461  -0.246  0.00  0.00     0.003 A 
ATOM      7  I   UNL d   1      -1.480   2.015  -1.247  0.00  0.00    -0.146 I 
ENDROOT
TORSDOF 0
ENDMDL
