MODEL 1
REMARK minimizedAffinity -4.55644989
REMARK minimizedRMSD -1
REMARK  0 active torsions:
REMARK  status: ('A' for Active; 'I' for Inactive)
ROOT
ATOM      1  C   UNL d   1       1.512  -2.428   1.022  0.00  0.00     0.023 A 
ATOM      2  C1  UNL d   1       2.176  -1.612   0.106  0.00  0.00     0.003 A 
ATOM      3  C2  UNL d   1       1.504  -0.545  -0.494  0.00  0.00     0.048 A 
ATOM      4  C3  UNL d   1       0.169  -0.300  -0.174  0.00  0.00     0.023 A 
ATOM      5  C4  UNL d   1      -0.498  -1.114   0.743  0.00  0.00     0.048 A 
ATOM      6  C5  UNL d   1       0.177  -2.180   1.340  0.00  0.00     0.003 A 
ATOM      7  I   UNL d   1      -0.833   1.287  -1.066  0.00  0.00    -0.146 I 
ENDROOT
TORSDOF 0
ENDMDL
