MODEL 1
REMARK minimizedAffinity -4.64098263
REMARK minimizedRMSD -1
REMARK  0 active torsions:
REMARK  status: ('A' for Active; 'I' for Inactive)
ROOT
ATOM      1  C   UNL d   1       1.289  -2.949   1.937  0.00  0.00     0.023 A 
ATOM      2  C1  UNL d   1       0.034  -2.568   2.413  0.00  0.00     0.003 A 
ATOM      3  C2  UNL d   1      -0.663  -1.528   1.795  0.00  0.00     0.048 A 
ATOM      4  C3  UNL d   1      -0.099  -0.873   0.700  0.00  0.00     0.023 A 
ATOM      5  C4  UNL d   1       1.156  -1.251   0.220  0.00  0.00     0.048 A 
ATOM      6  C5  UNL d   1       1.849  -2.291   0.843  0.00  0.00     0.003 A 
ATOM      7  I   UNL d   1      -1.134   0.676  -0.222  0.00  0.00    -0.146 I 
ENDROOT
TORSDOF 0
ENDMDL
