MODEL 1
REMARK minimizedAffinity 0.497722
REMARK minimizedRMSD -1
REMARK  1 active torsions:
REMARK  status: ('A' for Active; 'I' for Inactive)
REMARK    1  A    between atoms: N_2  and  C1_3 
ROOT
ATOM      1  C1  UNL d   1       2.869  -3.175  -5.892  0.00  0.00     0.143 A 
ATOM      2  C2  UNL d   1       3.960  -2.299  -5.859  0.00  0.00    -0.057 A 
ATOM      3  C3  UNL d   1       5.275  -2.775  -5.917  0.00  0.00     0.033 A 
ATOM      4  C4  UNL d   1       5.524  -4.142  -5.979  0.00  0.00    -0.042 A 
ATOM      5  C5  UNL d   1       4.457  -5.032  -5.987  0.00  0.00     0.033 A 
ATOM      6  C6  UNL d   1       3.145  -4.550  -5.936  0.00  0.00    -0.057 A 
ENDROOT
BRANCH   1   7
ATOM      7  N   UNL d   1       1.541  -2.769  -5.738  0.00  0.00    -0.732 N 
ATOM      8  C   UNL d   1       1.224  -1.502  -5.115  0.00  0.00     0.284 C 
ATOM      9  H3  UNL d   1       0.972  -2.985  -6.554  0.00  0.00     0.395 HD
ENDBRANCH   1   7
TORSDOF 1
ENDMDL
