MODEL 1
REMARK minimizedAffinity -0.905724585
REMARK minimizedRMSD -1
REMARK  1 active torsions:
REMARK  status: ('A' for Active; 'I' for Inactive)
REMARK    1  A    between atoms: N_2  and  C1_3 
ROOT
ATOM      1  C1  UNL d   1      -3.881   1.963  -3.329  0.00  0.00     0.143 A 
ATOM      2  C2  UNL d   1      -3.797   3.226  -3.925  0.00  0.00    -0.057 A 
ATOM      3  C3  UNL d   1      -4.738   4.224  -3.648  0.00  0.00     0.033 A 
ATOM      4  C4  UNL d   1      -5.801   3.966  -2.788  0.00  0.00    -0.042 A 
ATOM      5  C5  UNL d   1      -5.919   2.710  -2.204  0.00  0.00     0.033 A 
ATOM      6  C6  UNL d   1      -4.971   1.720  -2.480  0.00  0.00    -0.057 A 
ENDROOT
BRANCH   1   7
ATOM      7  N   UNL d   1      -3.032   0.898  -3.640  0.00  0.00    -0.732 N 
ATOM      8  C   UNL d   1      -1.600   1.024  -3.473  0.00  0.00     0.284 C 
ATOM      9  H3  UNL d   1      -3.408   0.001  -3.341  0.00  0.00     0.395 HD
ENDBRANCH   1   7
TORSDOF 1
ENDMDL
