MODEL 1
REMARK minimizedAffinity -1.28337908
REMARK minimizedRMSD -1
REMARK  1 active torsions:
REMARK  status: ('A' for Active; 'I' for Inactive)
REMARK    1  A    between atoms: N_2  and  C1_3 
ROOT
ATOM      1  C1  UNL d   1       5.286  -2.684  -5.305  0.00  0.00     0.143 A 
ATOM      2  C2  UNL d   1       3.889  -2.623  -5.259  0.00  0.00    -0.057 A 
ATOM      3  C3  UNL d   1       3.229  -1.649  -4.500  0.00  0.00     0.033 A 
ATOM      4  C4  UNL d   1       3.958  -0.733  -3.747  0.00  0.00    -0.042 A 
ATOM      5  C5  UNL d   1       5.347  -0.791  -3.758  0.00  0.00     0.033 A 
ATOM      6  C6  UNL d   1       6.000  -1.762  -4.523  0.00  0.00    -0.057 A 
ENDROOT
BRANCH   1   7
ATOM      7  N   UNL d   1       5.999  -3.689  -5.962  0.00  0.00    -0.732 N 
ATOM      8  C   UNL d   1       5.976  -5.050  -5.472  0.00  0.00     0.284 C 
ATOM      9  H3  UNL d   1       5.938  -3.611  -6.974  0.00  0.00     0.395 HD
ENDBRANCH   1   7
TORSDOF 1
ENDMDL
