MODEL 1
REMARK minimizedAffinity 2.84469724
REMARK minimizedRMSD -1
REMARK  1 active torsions:
REMARK  status: ('A' for Active; 'I' for Inactive)
REMARK    1  A    between atoms: N_2  and  C1_3 
ROOT
ATOM      1  C1  UNL d   1      -4.800   3.062  -3.024  0.00  0.00     0.143 A 
ATOM      2  C2  UNL d   1      -4.155   2.438  -1.951  0.00  0.00    -0.057 A 
ATOM      3  C3  UNL d   1      -3.341   1.316  -2.146  0.00  0.00     0.033 A 
ATOM      4  C4  UNL d   1      -3.179   0.779  -3.419  0.00  0.00    -0.042 A 
ATOM      5  C5  UNL d   1      -3.830   1.368  -4.498  0.00  0.00     0.033 A 
ATOM      6  C6  UNL d   1      -4.637   2.492  -4.297  0.00  0.00    -0.057 A 
ENDROOT
BRANCH   1   7
ATOM      7  N   UNL d   1      -5.701   4.120  -2.882  0.00  0.00    -0.732 N 
ATOM      8  C   UNL d   1      -5.230   5.451  -2.565  0.00  0.00     0.284 C 
ATOM      9  H3  UNL d   1      -6.442   4.096  -3.578  0.00  0.00     0.395 HD
ENDBRANCH   1   7
TORSDOF 1
ENDMDL
