MODEL 1
REMARK minimizedAffinity 2.00491309
REMARK minimizedRMSD -1
REMARK  1 active torsions:
REMARK  status: ('A' for Active; 'I' for Inactive)
REMARK    1  A    between atoms: N_2  and  C1_3 
ROOT
ATOM      1  C1  UNL d   1       3.915  -3.633  -5.227  0.00  0.00     0.143 A 
ATOM      2  C2  UNL d   1       5.120  -3.572  -5.934  0.00  0.00    -0.057 A 
ATOM      3  C3  UNL d   1       5.982  -4.674  -5.997  0.00  0.00     0.033 A 
ATOM      4  C4  UNL d   1       5.666  -5.851  -5.326  0.00  0.00    -0.042 A 
ATOM      5  C5  UNL d   1       4.485  -5.926  -4.596  0.00  0.00     0.033 A 
ATOM      6  C6  UNL d   1       3.625  -4.824  -4.543  0.00  0.00    -0.057 A 
ENDROOT
BRANCH   1   7
ATOM      7  N   UNL d   1       3.064  -2.540  -5.046  0.00  0.00    -0.732 N 
ATOM      8  C   UNL d   1       2.346  -2.364  -3.802  0.00  0.00     0.284 C 
ATOM      9  H3  UNL d   1       3.449  -1.680  -5.429  0.00  0.00     0.395 HD
ENDBRANCH   1   7
TORSDOF 1
ENDMDL
