MODEL 1
REMARK minimizedAffinity 16.3086815
REMARK minimizedRMSD -1
REMARK  0 active torsions:
REMARK  status: ('A' for Active; 'I' for Inactive)
ROOT
ATOM      1  C1  DEN d   1       0.453   3.793  -1.881  0.00  0.00     0.130 A 
ATOM      2  C2  DEN d   1       0.703   2.958  -0.709  0.00  0.00    -0.031 A 
ATOM      3  C3  DEN d   1      -0.451   2.053  -0.539  0.00  0.00     0.027 A 
ATOM      4  C4  DEN d   1      -2.587   1.860  -1.971  0.00  0.00     0.027 A 
ATOM      5  C5  DEN d   1      -3.256   2.367  -3.063  0.00  0.00    -0.003 A 
ATOM      6  C6  DEN d   1      -2.755   3.399  -3.812  0.00  0.00     0.001 A 
ATOM      7  C7  DEN d   1      -1.530   3.928  -3.504  0.00  0.00     0.017 A 
ATOM      8  C8  DEN d   1      -0.853   3.427  -2.400  0.00  0.00    -0.094 A 
ATOM      9  C9  DEN d   1      -1.370   2.375  -1.664  0.00  0.00    -0.072 A 
ENDROOT
TORSDOF 0
ENDMDL
