MODEL 1
REMARK minimizedAffinity 11.0149012
REMARK minimizedRMSD -1
REMARK  0 active torsions:
REMARK  status: ('A' for Active; 'I' for Inactive)
ROOT
ATOM      1  C1  DEN d   1       0.361  -0.588   3.099  0.00  0.00     0.130 A 
ATOM      2  C2  DEN d   1      -0.696  -1.530   3.457  0.00  0.00    -0.031 A 
ATOM      3  C3  DEN d   1      -0.428  -2.804   2.759  0.00  0.00     0.027 A 
ATOM      4  C4  DEN d   1       1.515  -3.406   1.172  0.00  0.00     0.027 A 
ATOM      5  C5  DEN d   1       2.652  -2.930   0.558  0.00  0.00    -0.003 A 
ATOM      6  C6  DEN d   1       3.083  -1.640   0.720  0.00  0.00     0.001 A 
ATOM      7  C7  DEN d   1       2.397  -0.794   1.551  0.00  0.00     0.017 A 
ATOM      8  C8  DEN d   1       1.245  -1.265   2.168  0.00  0.00    -0.094 A 
ATOM      9  C9  DEN d   1       0.832  -2.576   2.001  0.00  0.00    -0.072 A 
ENDROOT
TORSDOF 0
ENDMDL
