MODEL 1
REMARK minimizedAffinity 16.2003422
REMARK minimizedRMSD -1
REMARK  0 active torsions:
REMARK  status: ('A' for Active; 'I' for Inactive)
ROOT
ATOM      1  C1  DEN d   1       0.826  -0.118   5.070  0.00  0.00     0.130 A 
ATOM      2  C2  DEN d   1      -0.383  -0.932   4.975  0.00  0.00    -0.031 A 
ATOM      3  C3  DEN d   1      -0.298  -1.735   3.739  0.00  0.00     0.027 A 
ATOM      4  C4  DEN d   1       1.582  -1.801   1.974  0.00  0.00     0.027 A 
ATOM      5  C5  DEN d   1       2.805  -1.277   1.616  0.00  0.00    -0.003 A 
ATOM      6  C6  DEN d   1       3.433  -0.314   2.361  0.00  0.00     0.001 A 
ATOM      7  C7  DEN d   1       2.861   0.124   3.526  0.00  0.00     0.017 A 
ATOM      8  C8  DEN d   1       1.624  -0.394   3.889  0.00  0.00    -0.094 A 
ATOM      9  C9  DEN d   1       1.012  -1.376   3.130  0.00  0.00    -0.072 A 
ENDROOT
TORSDOF 0
ENDMDL
