MODEL 1
REMARK minimizedAffinity 6.58381701
REMARK minimizedRMSD -1
REMARK  0 active torsions:
REMARK  status: ('A' for Active; 'I' for Inactive)
ROOT
ATOM      1  C1  DEN d   1       1.119   4.619   0.366  0.00  0.00     0.130 A 
ATOM      2  C2  DEN d   1       1.012   6.000  -0.096  0.00  0.00    -0.031 A 
ATOM      3  C3  DEN d   1       0.296   5.995  -1.388  0.00  0.00     0.027 A 
ATOM      4  C4  DEN d   1      -0.657   3.994  -2.707  0.00  0.00     0.027 A 
ATOM      5  C5  DEN d   1      -0.799   2.624  -2.721  0.00  0.00    -0.003 A 
ATOM      6  C6  DEN d   1      -0.287   1.826  -1.732  0.00  0.00     0.001 A 
ATOM      7  C7  DEN d   1       0.353   2.397  -0.664  0.00  0.00     0.017 A 
ATOM      8  C8  DEN d   1       0.508   3.777  -0.647  0.00  0.00    -0.094 A 
ATOM      9  C9  DEN d   1      -0.028   4.567  -1.650  0.00  0.00    -0.072 A 
ENDROOT
TORSDOF 0
ENDMDL
