MODEL 1
REMARK minimizedAffinity 13.1890249
REMARK minimizedRMSD -1
REMARK  0 active torsions:
REMARK  status: ('A' for Active; 'I' for Inactive)
ROOT
ATOM      1  C1  DEN d   1      -2.238  -2.737   3.667  0.00  0.00     0.130 A 
ATOM      2  C2  DEN d   1      -2.477  -3.276   2.331  0.00  0.00    -0.031 A 
ATOM      3  C3  DEN d   1      -1.384  -2.816   1.451  0.00  0.00     0.027 A 
ATOM      4  C4  DEN d   1       0.647  -1.334   2.025  0.00  0.00     0.027 A 
ATOM      5  C5  DEN d   1       1.272  -0.626   3.028  0.00  0.00    -0.003 A 
ATOM      6  C6  DEN d   1       0.758  -0.545   4.294  0.00  0.00     0.001 A 
ATOM      7  C7  DEN d   1      -0.393  -1.220   4.604  0.00  0.00     0.017 A 
ATOM      8  C8  DEN d   1      -1.034  -1.930   3.597  0.00  0.00    -0.094 A 
ATOM      9  C9  DEN d   1      -0.491  -2.010   2.325  0.00  0.00    -0.072 A 
ENDROOT
TORSDOF 0
ENDMDL
