MODEL 1
REMARK minimizedAffinity 9.29867649
REMARK minimizedRMSD -1
REMARK  0 active torsions:
REMARK  status: ('A' for Active; 'I' for Inactive)
ROOT
ATOM      1  C1  DEN d   1       4.941  -1.894  -0.486  0.00  0.00     0.130 A 
ATOM      2  C2  DEN d   1       5.677  -1.160  -1.512  0.00  0.00    -0.031 A 
ATOM      3  C3  DEN d   1       4.993   0.131  -1.729  0.00  0.00     0.027 A 
ATOM      4  C4  DEN d   1       2.879   1.061  -0.580  0.00  0.00     0.027 A 
ATOM      5  C5  DEN d   1       1.898   0.795   0.349  0.00  0.00    -0.003 A 
ATOM      6  C6  DEN d   1       1.842  -0.390   1.034  0.00  0.00     0.001 A 
ATOM      7  C7  DEN d   1       2.812  -1.336   0.834  0.00  0.00     0.017 A 
ATOM      8  C8  DEN d   1       3.801  -1.078  -0.107  0.00  0.00    -0.094 A 
ATOM      9  C9  DEN d   1       3.847   0.130  -0.780  0.00  0.00    -0.072 A 
ENDROOT
TORSDOF 0
ENDMDL
