MODEL 1
REMARK minimizedAffinity 12.377142
REMARK minimizedRMSD -1
REMARK  0 active torsions:
REMARK  status: ('A' for Active; 'I' for Inactive)
ROOT
ATOM      1  C1  DEN d   1      -3.428  -5.684  -0.136  0.00  0.00     0.130 A 
ATOM      2  C2  DEN d   1      -4.722  -5.911  -0.776  0.00  0.00    -0.031 A 
ATOM      3  C3  DEN d   1      -5.710  -5.019  -0.136  0.00  0.00     0.027 A 
ATOM      4  C4  DEN d   1      -5.363  -3.315   1.769  0.00  0.00     0.027 A 
ATOM      5  C5  DEN d   1      -4.442  -2.777   2.640  0.00  0.00    -0.003 A 
ATOM      6  C6  DEN d   1      -3.137  -3.191   2.670  0.00  0.00     0.001 A 
ATOM      7  C7  DEN d   1      -2.705  -4.139   1.781  0.00  0.00     0.017 A 
ATOM      8  C8  DEN d   1      -3.630  -4.692   0.904  0.00  0.00    -0.094 A 
ATOM      9  C9  DEN d   1      -4.942  -4.251   0.882  0.00  0.00    -0.072 A 
ENDROOT
TORSDOF 0
ENDMDL
