MODEL 1
REMARK minimizedAffinity 16.1445198
REMARK minimizedRMSD -1
REMARK  0 active torsions:
REMARK  status: ('A' for Active; 'I' for Inactive)
ROOT
ATOM      1  C1  DEN d   1      -2.682  -2.353   3.455  0.00  0.00     0.130 A 
ATOM      2  C2  DEN d   1      -2.852  -3.137   2.235  0.00  0.00    -0.031 A 
ATOM      3  C3  DEN d   1      -1.633  -2.977   1.416  0.00  0.00     0.027 A 
ATOM      4  C4  DEN d   1       0.491  -1.603   1.919  0.00  0.00     0.027 A 
ATOM      5  C5  DEN d   1       1.094  -0.761   2.827  0.00  0.00    -0.003 A 
ATOM      6  C6  DEN d   1       0.472  -0.366   3.982  0.00  0.00     0.001 A 
ATOM      7  C7  DEN d   1      -0.774  -0.850   4.281  0.00  0.00     0.017 A 
ATOM      8  C8  DEN d   1      -1.391  -1.694   3.368  0.00  0.00    -0.094 A 
ATOM      9  C9  DEN d   1      -0.741  -2.091   2.212  0.00  0.00    -0.072 A 
ENDROOT
TORSDOF 0
ENDMDL
