MODEL 1
REMARK minimizedAffinity 28.0719604
REMARK minimizedRMSD -1
REMARK  0 active torsions:
REMARK  status: ('A' for Active; 'I' for Inactive)
ROOT
ATOM      1  C1  DEN d   1       2.585   1.506   0.856  0.00  0.00     0.130 A 
ATOM      2  C2  DEN d   1       1.511   2.345   0.333  0.00  0.00    -0.031 A 
ATOM      3  C3  DEN d   1       0.261   1.560   0.366  0.00  0.00     0.027 A 
ATOM      4  C4  DEN d   1      -0.115  -0.859   1.178  0.00  0.00     0.027 A 
ATOM      5  C5  DEN d   1       0.500  -1.977   1.697  0.00  0.00    -0.003 A 
ATOM      6  C6  DEN d   1       1.847  -2.023   1.939  0.00  0.00     0.001 A 
ATOM      7  C7  DEN d   1       2.618  -0.916   1.704  0.00  0.00     0.017 A 
ATOM      8  C8  DEN d   1       2.007   0.213   1.173  0.00  0.00    -0.094 A 
ATOM      9  C9  DEN d   1       0.641   0.244   0.946  0.00  0.00    -0.072 A 
ENDROOT
TORSDOF 0
ENDMDL
