MODEL 1
REMARK minimizedAffinity 24.6320419
REMARK minimizedRMSD -1
REMARK  0 active torsions:
REMARK  status: ('A' for Active; 'I' for Inactive)
ROOT
ATOM      1  C1  DEN d   1       0.710   4.469  -0.311  0.00  0.00     0.130 A 
ATOM      2  C2  DEN d   1       0.719   3.029  -0.069  0.00  0.00    -0.031 A 
ATOM      3  C3  DEN d   1       0.026   2.372  -1.195  0.00  0.00     0.027 A 
ATOM      4  C4  DEN d   1      -1.049   3.439  -3.283  0.00  0.00     0.027 A 
ATOM      5  C5  DEN d   1      -1.318   4.628  -3.923  0.00  0.00    -0.003 A 
ATOM      6  C6  DEN d   1      -0.963   5.840  -3.393  0.00  0.00     0.001 A 
ATOM      7  C7  DEN d   1      -0.278   5.887  -2.207  0.00  0.00     0.017 A 
ATOM      8  C8  DEN d   1      -0.010   4.693  -1.552  0.00  0.00    -0.094 A 
ATOM      9  C9  DEN d   1      -0.367   3.477  -2.111  0.00  0.00    -0.072 A 
ENDROOT
TORSDOF 0
ENDMDL
