MODEL 1
REMARK minimizedAffinity 5.6887784
REMARK minimizedRMSD -1
REMARK  2 active torsions:
REMARK  status: ('A' for Active; 'I' for Inactive)
REMARK    1  A    between atoms: C1_2  and  C2_3 
REMARK    2  A    between atoms: C2_3  and  C3_4 
ROOT
ATOM      1  C3  UNL d   1       4.473  -4.080   3.491  0.00  0.00    -0.075 A 
ATOM      2  C4  UNL d   1       4.825  -5.292   4.102  0.00  0.00     0.002 A 
ATOM      3  C5  UNL d   1       5.452  -5.302   5.348  0.00  0.00     0.002 A 
ATOM      4  C6  UNL d   1       5.744  -4.102   5.994  0.00  0.00    -0.004 A 
ATOM      5  C7  UNL d   1       5.414  -2.891   5.389  0.00  0.00     0.002 A 
ATOM      6  C8  UNL d   1       4.782  -2.879   4.144  0.00  0.00     0.002 A 
ENDROOT
BRANCH   1   7
ATOM      7  C2  UNL d   1       3.768  -4.064   2.156  0.00  0.00     0.056 C 
BRANCH   7   8
ATOM      8  C1  UNL d   1       2.444  -3.292   2.159  0.00  0.00     0.007 C 
ATOM      9  C   UNL d   1       2.255  -2.419   0.925  0.00  0.00     0.009 C 
ENDBRANCH   7   8
ENDBRANCH   1   7
TORSDOF 2
ENDMDL
