MODEL 1
REMARK minimizedAffinity 3.83546662
REMARK minimizedRMSD -1
REMARK  2 active torsions:
REMARK  status: ('A' for Active; 'I' for Inactive)
REMARK    1  A    between atoms: C1_2  and  C2_3 
REMARK    2  A    between atoms: C2_3  and  C3_4 
ROOT
ATOM      1  C3  UNL d   1       0.832  -1.449   2.607  0.00  0.00    -0.075 A 
ATOM      2  C4  UNL d   1      -0.404  -1.917   3.076  0.00  0.00     0.002 A 
ATOM      3  C5  UNL d   1      -0.963  -3.085   2.558  0.00  0.00     0.002 A 
ATOM      4  C6  UNL d   1      -0.300  -3.794   1.559  0.00  0.00    -0.004 A 
ATOM      5  C7  UNL d   1       0.921  -3.330   1.073  0.00  0.00     0.002 A 
ATOM      6  C8  UNL d   1       1.484  -2.164   1.593  0.00  0.00     0.002 A 
ENDROOT
BRANCH   1   7
ATOM      7  C2  UNL d   1       1.456  -0.202   3.184  0.00  0.00     0.056 C 
BRANCH   7   8
ATOM      8  C1  UNL d   1       2.162   0.679   2.148  0.00  0.00     0.007 C 
ATOM      9  C   UNL d   1       1.430   1.986   1.873  0.00  0.00     0.009 C 
ENDBRANCH   7   8
ENDBRANCH   1   7
TORSDOF 2
ENDMDL
