MODEL 1
REMARK minimizedAffinity 8.24121094
REMARK minimizedRMSD -1
REMARK  2 active torsions:
REMARK  status: ('A' for Active; 'I' for Inactive)
REMARK    1  A    between atoms: C1_2  and  C2_3 
REMARK    2  A    between atoms: C2_3  and  C3_4 
ROOT
ATOM      1  C3  UNL d   1       0.659  -1.716   1.201  0.00  0.00    -0.075 A 
ATOM      2  C4  UNL d   1      -0.721  -1.506   1.070  0.00  0.00     0.002 A 
ATOM      3  C5  UNL d   1      -1.440  -0.867   2.081  0.00  0.00     0.002 A 
ATOM      4  C6  UNL d   1      -0.791  -0.440   3.238  0.00  0.00    -0.004 A 
ATOM      5  C7  UNL d   1       0.577  -0.658   3.386  0.00  0.00     0.002 A 
ATOM      6  C8  UNL d   1       1.299  -1.293   2.374  0.00  0.00     0.002 A 
ENDROOT
BRANCH   1   7
ATOM      7  C2  UNL d   1       1.448  -2.380   0.098  0.00  0.00     0.056 C 
BRANCH   7   8
ATOM      8  C1  UNL d   1       2.507  -3.368   0.597  0.00  0.00     0.007 C 
ATOM      9  C   UNL d   1       2.202  -4.813   0.224  0.00  0.00     0.009 C 
ENDBRANCH   7   8
ENDBRANCH   1   7
TORSDOF 2
ENDMDL
