MODEL 1
REMARK minimizedAffinity 7.7215023
REMARK minimizedRMSD -1
REMARK  2 active torsions:
REMARK  status: ('A' for Active; 'I' for Inactive)
REMARK    1  A    between atoms: C1_2  and  C2_3 
REMARK    2  A    between atoms: C2_3  and  C3_4 
ROOT
ATOM      1  C3  UNL d   1       0.101  -1.710   0.292  0.00  0.00    -0.075 A 
ATOM      2  C4  UNL d   1       1.490  -1.541   0.202  0.00  0.00     0.002 A 
ATOM      3  C5  UNL d   1       2.070  -1.055  -0.970  0.00  0.00     0.002 A 
ATOM      4  C6  UNL d   1       1.272  -0.742  -2.068  0.00  0.00    -0.004 A 
ATOM      5  C7  UNL d   1      -0.108  -0.922  -1.996  0.00  0.00     0.002 A 
ATOM      6  C8  UNL d   1      -0.691  -1.404  -0.823  0.00  0.00     0.002 A 
ENDROOT
BRANCH   1   7
ATOM      7  C2  UNL d   1      -0.536  -2.208   1.567  0.00  0.00     0.056 C 
BRANCH   7   8
ATOM      8  C1  UNL d   1      -0.625  -1.151   2.673  0.00  0.00     0.007 C 
ATOM      9  C   UNL d   1      -2.021  -0.561   2.828  0.00  0.00     0.009 C 
ENDBRANCH   7   8
ENDBRANCH   1   7
TORSDOF 2
ENDMDL
