MODEL 1
REMARK minimizedAffinity 5.16198254
REMARK minimizedRMSD -1
REMARK  2 active torsions:
REMARK  status: ('A' for Active; 'I' for Inactive)
REMARK    1  A    between atoms: C1_2  and  C2_3 
REMARK    2  A    between atoms: C2_3  and  C3_4 
ROOT
ATOM      1  C3  UNL d   1      -3.202   3.234  -4.177  0.00  0.00    -0.075 A 
ATOM      2  C4  UNL d   1      -2.361   3.143  -3.058  0.00  0.00     0.002 A 
ATOM      3  C5  UNL d   1      -1.132   2.489  -3.148  0.00  0.00     0.002 A 
ATOM      4  C6  UNL d   1      -0.733   1.911  -4.352  0.00  0.00    -0.004 A 
ATOM      5  C7  UNL d   1      -1.568   1.981  -5.464  0.00  0.00     0.002 A 
ATOM      6  C8  UNL d   1      -2.797   2.638  -5.378  0.00  0.00     0.002 A 
ENDROOT
BRANCH   1   7
ATOM      7  C2  UNL d   1      -4.521   3.966  -4.094  0.00  0.00     0.056 C 
BRANCH   7   8
ATOM      8  C1  UNL d   1      -4.387   5.492  -4.079  0.00  0.00     0.007 C 
ATOM      9  C   UNL d   1      -3.200   5.999  -4.887  0.00  0.00     0.009 C 
ENDBRANCH   7   8
ENDBRANCH   1   7
TORSDOF 2
ENDMDL
