MODEL 1
REMARK minimizedAffinity 7.61689615
REMARK minimizedRMSD -1
REMARK  2 active torsions:
REMARK  status: ('A' for Active; 'I' for Inactive)
REMARK    1  A    between atoms: C1_2  and  C2_3 
REMARK    2  A    between atoms: C2_3  and  C3_4 
ROOT
ATOM      1  C3  UNL d   1       1.149  -1.913   1.019  0.00  0.00    -0.075 A 
ATOM      2  C4  UNL d   1      -0.225  -1.921   1.299  0.00  0.00     0.002 A 
ATOM      3  C5  UNL d   1      -0.741  -1.144   2.336  0.00  0.00     0.002 A 
ATOM      4  C6  UNL d   1       0.110  -0.358   3.111  0.00  0.00    -0.004 A 
ATOM      5  C7  UNL d   1       1.479  -0.355   2.852  0.00  0.00     0.002 A 
ATOM      6  C8  UNL d   1       1.997  -1.129   1.812  0.00  0.00     0.002 A 
ENDROOT
BRANCH   1   7
ATOM      7  C2  UNL d   1       1.710  -2.730  -0.121  0.00  0.00     0.056 C 
BRANCH   7   8
ATOM      8  C1  UNL d   1       1.442  -4.234  -0.002  0.00  0.00     0.007 C 
ATOM      9  C   UNL d   1       2.441  -5.085  -0.774  0.00  0.00     0.009 C 
ENDBRANCH   7   8
ENDBRANCH   1   7
TORSDOF 2
ENDMDL
