MODEL 1
REMARK minimizedAffinity 7.5752039
REMARK minimizedRMSD -1
REMARK  2 active torsions:
REMARK  status: ('A' for Active; 'I' for Inactive)
REMARK    1  A    between atoms: C1_2  and  C2_3 
REMARK    2  A    between atoms: C2_3  and  C3_4 
ROOT
ATOM      1  C3  UNL d   1      -3.879   2.823  -3.319  0.00  0.00    -0.075 A 
ATOM      2  C4  UNL d   1      -4.642   1.948  -4.105  0.00  0.00     0.002 A 
ATOM      3  C5  UNL d   1      -5.530   2.446  -5.059  0.00  0.00     0.002 A 
ATOM      4  C6  UNL d   1      -5.674   3.821  -5.232  0.00  0.00    -0.004 A 
ATOM      5  C7  UNL d   1      -4.933   4.699  -4.444  0.00  0.00     0.002 A 
ATOM      6  C8  UNL d   1      -4.040   4.204  -3.492  0.00  0.00     0.002 A 
ENDROOT
BRANCH   1   7
ATOM      7  C2  UNL d   1      -2.894   2.291  -2.305  0.00  0.00     0.056 C 
BRANCH   7   8
ATOM      8  C1  UNL d   1      -1.546   1.874  -2.904  0.00  0.00     0.007 C 
ATOM      9  C   UNL d   1      -0.535   3.011  -2.957  0.00  0.00     0.009 C 
ENDBRANCH   7   8
ENDBRANCH   1   7
TORSDOF 2
ENDMDL
