MODEL 1
REMARK minimizedAffinity 9.97687912
REMARK minimizedRMSD -1
REMARK  2 active torsions:
REMARK  status: ('A' for Active; 'I' for Inactive)
REMARK    1  A    between atoms: C1_2  and  C2_3 
REMARK    2  A    between atoms: C2_3  and  C3_4 
ROOT
ATOM      1  C3  UNL d   1       2.428   4.771  -5.878  0.00  0.00    -0.075 A 
ATOM      2  C4  UNL d   1       3.127   5.986  -5.844  0.00  0.00     0.002 A 
ATOM      3  C5  UNL d   1       4.521   6.000  -5.776  0.00  0.00     0.002 A 
ATOM      4  C6  UNL d   1       5.231   4.802  -5.733  0.00  0.00    -0.004 A 
ATOM      5  C7  UNL d   1       4.545   3.589  -5.750  0.00  0.00     0.002 A 
ATOM      6  C8  UNL d   1       3.151   3.573  -5.822  0.00  0.00     0.002 A 
ENDROOT
BRANCH   1   7
ATOM      7  C2  UNL d   1       0.921   4.750  -5.981  0.00  0.00     0.056 C 
BRANCH   7   8
ATOM      8  C1  UNL d   1       0.313   3.344  -5.931  0.00  0.00     0.007 C 
ATOM      9  C   UNL d   1      -0.124   2.929  -4.533  0.00  0.00     0.009 C 
ENDBRANCH   7   8
ENDBRANCH   1   7
TORSDOF 2
ENDMDL
