MODEL 1
REMARK minimizedAffinity 1.76627612
REMARK minimizedRMSD -1
REMARK  0 active torsions:
REMARK  status: ('A' for Active; 'I' for Inactive)
ROOT
ATOM      1  C4' PXY d   1      -3.355   2.179   3.822  0.00  0.00     0.077 C 
ATOM      2  C1' PXY d   1       0.951   0.464   0.368  0.00  0.00     0.077 C 
ATOM      3  C1  PXY d   1      -0.186   0.904   1.270  0.00  0.00    -0.082 A 
ATOM      4  C2  PXY d   1      -0.245   2.160   1.681  0.00  0.00     0.003 A 
ATOM      5  C3  PXY d   1      -1.249   2.567   2.523  0.00  0.00     0.003 A 
ATOM      6  C4  PXY d   1      -2.231   1.692   2.904  0.00  0.00    -0.082 A 
ATOM      7  C5  PXY d   1      -2.183   0.412   2.480  0.00  0.00     0.003 A 
ATOM      8  C6  PXY d   1      -1.133   0.008   1.659  0.00  0.00     0.003 A 
ENDROOT
TORSDOF 0
ENDMDL
