MODEL 1
REMARK minimizedAffinity -4.02109432
REMARK minimizedRMSD -1
REMARK  0 active torsions:
REMARK  status: ('A' for Active; 'I' for Inactive)
ROOT
ATOM      1  C4' PXY d   1      -4.044   1.813   3.824  0.00  0.00     0.077 C 
ATOM      2  C1' PXY d   1       0.613   0.442   0.687  0.00  0.00     0.077 C 
ATOM      3  C1  PXY d   1      -0.615   0.792   1.504  0.00  0.00    -0.082 A 
ATOM      4  C2  PXY d   1      -0.746   2.013   1.997  0.00  0.00     0.003 A 
ATOM      5  C3  PXY d   1      -1.835   2.337   2.765  0.00  0.00     0.003 A 
ATOM      6  C4  PXY d   1      -2.826   1.418   2.985  0.00  0.00    -0.082 A 
ATOM      7  C5  PXY d   1      -2.704   0.174   2.476  0.00  0.00     0.003 A 
ATOM      8  C6  PXY d   1      -1.571  -0.148   1.734  0.00  0.00     0.003 A 
ENDROOT
TORSDOF 0
ENDMDL
