MODEL 1
REMARK minimizedAffinity -1.88623047
REMARK minimizedRMSD -1
REMARK  0 active torsions:
REMARK  status: ('A' for Active; 'I' for Inactive)
ROOT
ATOM      1  C4' PXY d   1      -3.531  -0.842   3.536  0.00  0.00     0.077 C 
ATOM      2  C1' PXY d   1       1.031   1.746   1.107  0.00  0.00     0.077 C 
ATOM      3  C1  PXY d   1      -0.165   1.058   1.735  0.00  0.00    -0.082 A 
ATOM      4  C2  PXY d   1      -1.044   1.770   2.420  0.00  0.00     0.003 A 
ATOM      5  C3  PXY d   1      -2.114   1.159   3.022  0.00  0.00     0.003 A 
ATOM      6  C4  PXY d   1      -2.314  -0.188   2.876  0.00  0.00    -0.082 A 
ATOM      7  C5  PXY d   1      -1.427  -0.920   2.170  0.00  0.00     0.003 A 
ATOM      8  C6  PXY d   1      -0.325  -0.287   1.602  0.00  0.00     0.003 A 
ENDROOT
TORSDOF 0
ENDMDL
