MODEL 1
REMARK minimizedAffinity -0.248914704
REMARK minimizedRMSD -1
REMARK  0 active torsions:
REMARK  status: ('A' for Active; 'I' for Inactive)
ROOT
ATOM      1  C4' PXY d   1       0.512   1.332   1.238  0.00  0.00     0.077 C 
ATOM      2  C1' PXY d   1      -4.310   1.827   4.386  0.00  0.00     0.077 C 
ATOM      3  C1  PXY d   1      -3.045   1.685   3.564  0.00  0.00    -0.082 A 
ATOM      4  C2  PXY d   1      -2.293   2.748   3.331  0.00  0.00     0.003 A 
ATOM      5  C3  PXY d   1      -1.163   2.643   2.562  0.00  0.00     0.003 A 
ATOM      6  C4  PXY d   1      -0.769   1.427   2.071  0.00  0.00    -0.082 A 
ATOM      7  C5  PXY d   1      -1.525   0.336   2.314  0.00  0.00     0.003 A 
ATOM      8  C6  PXY d   1      -2.691   0.471   3.062  0.00  0.00     0.003 A 
ENDROOT
TORSDOF 0
ENDMDL
