MODEL 1
REMARK minimizedAffinity -5.06453562
REMARK minimizedRMSD -1
REMARK  0 active torsions:
REMARK  status: ('A' for Active; 'I' for Inactive)
ROOT
ATOM      1  C4' PXY d   1       1.088   0.192   0.428  0.00  0.00     0.077 C 
ATOM      2  C1' PXY d   1      -3.461   1.878   3.570  0.00  0.00     0.077 C 
ATOM      3  C1  PXY d   1      -2.270   1.423   2.750  0.00  0.00    -0.082 A 
ATOM      4  C2  PXY d   1      -1.323   2.292   2.435  0.00  0.00     0.003 A 
ATOM      5  C3  PXY d   1      -0.255   1.906   1.667  0.00  0.00     0.003 A 
ATOM      6  C4  PXY d   1      -0.128   0.604   1.262  0.00  0.00    -0.082 A 
ATOM      7  C5  PXY d   1      -1.084  -0.291   1.589  0.00  0.00     0.003 A 
ATOM      8  C6  PXY d   1      -2.181   0.131   2.334  0.00  0.00     0.003 A 
ENDROOT
TORSDOF 0
ENDMDL
