MODEL 1
REMARK minimizedAffinity -6.17232418
REMARK minimizedRMSD -1
REMARK  0 active torsions:
REMARK  status: ('A' for Active; 'I' for Inactive)
ROOT
ATOM      1  C4' PXY d   1      -3.984   2.006   3.491  0.00  0.00     0.077 C 
ATOM      2  C1' PXY d   1       0.612   0.452   0.349  0.00  0.00     0.077 C 
ATOM      3  C1  PXY d   1      -0.586   0.868   1.180  0.00  0.00    -0.082 A 
ATOM      4  C2  PXY d   1      -1.609   0.039   1.313  0.00  0.00     0.003 A 
ATOM      5  C3  PXY d   1      -2.713   0.412   2.035  0.00  0.00     0.003 A 
ATOM      6  C4  PXY d   1      -2.749   1.624   2.670  0.00  0.00    -0.082 A 
ATOM      7  C5  PXY d   1      -1.705   2.471   2.547  0.00  0.00     0.003 A 
ATOM      8  C6  PXY d   1      -0.611   2.090   1.777  0.00  0.00     0.003 A 
ENDROOT
TORSDOF 0
ENDMDL
