MODEL 1
REMARK minimizedAffinity -2.71310949
REMARK minimizedRMSD -1
REMARK  0 active torsions:
REMARK  status: ('A' for Active; 'I' for Inactive)
ROOT
ATOM      1  C4' PXY d   1      -3.963   1.908   2.655  0.00  0.00     0.077 C 
ATOM      2  C1' PXY d   1       1.228   0.272   0.707  0.00  0.00     0.077 C 
ATOM      3  C1  PXY d   1      -0.139   0.691   1.211  0.00  0.00    -0.082 A 
ATOM      4  C2  PXY d   1      -0.323   1.926   1.651  0.00  0.00     0.003 A 
ATOM      5  C3  PXY d   1      -1.544   2.313   2.139  0.00  0.00     0.003 A 
ATOM      6  C4  PXY d   1      -2.602   1.443   2.129  0.00  0.00    -0.082 A 
ATOM      7  C5  PXY d   1      -2.425   0.185   1.672  0.00  0.00     0.003 A 
ATOM      8  C6  PXY d   1      -1.167  -0.200   1.218  0.00  0.00     0.003 A 
ENDROOT
TORSDOF 0
ENDMDL
