MODEL 1
REMARK minimizedAffinity -5.65812349
REMARK minimizedRMSD -1
REMARK  0 active torsions:
REMARK  status: ('A' for Active; 'I' for Inactive)
ROOT
ATOM      1  C4' PXY d   1       1.893   0.705  -0.055  0.00  0.00     0.077 C 
ATOM      2  C1' PXY d   1      -3.033   0.466   2.960  0.00  0.00     0.077 C 
ATOM      3  C1  PXY d   1      -1.742   0.542   2.170  0.00  0.00    -0.082 A 
ATOM      4  C2  PXY d   1      -1.387  -0.472   1.397  0.00  0.00     0.003 A 
ATOM      5  C3  PXY d   1      -0.207  -0.433   0.700  0.00  0.00     0.003 A 
ATOM      6  C4  PXY d   1       0.593   0.676   0.754  0.00  0.00    -0.082 A 
ATOM      7  C5  PXY d   1       0.233   1.719   1.532  0.00  0.00     0.003 A 
ATOM      8  C6  PXY d   1      -0.948   1.643   2.263  0.00  0.00     0.003 A 
ENDROOT
TORSDOF 0
ENDMDL
