MODEL 1
REMARK minimizedAffinity 0.411441058
REMARK minimizedRMSD -1
REMARK  0 active torsions:
REMARK  status: ('A' for Active; 'I' for Inactive)
ROOT
ATOM      1  C4' PXY d   1       0.484   0.241   1.006  0.00  0.00     0.077 C 
ATOM      2  C1' PXY d   1      -4.032   2.361   3.926  0.00  0.00     0.077 C 
ATOM      3  C1  PXY d   1      -2.849   1.794   3.166  0.00  0.00    -0.082 A 
ATOM      4  C2  PXY d   1      -1.899   2.606   2.733  0.00  0.00     0.003 A 
ATOM      5  C3  PXY d   1      -0.839   2.114   2.016  0.00  0.00     0.003 A 
ATOM      6  C4  PXY d   1      -0.723   0.769   1.786  0.00  0.00    -0.082 A 
ATOM      7  C5  PXY d   1      -1.683  -0.068   2.234  0.00  0.00     0.003 A 
ATOM      8  C6  PXY d   1      -2.772   0.457   2.924  0.00  0.00     0.003 A 
ENDROOT
TORSDOF 0
ENDMDL
