MODEL 1
REMARK minimizedAffinity 4.46990108
REMARK minimizedRMSD -1
REMARK  0 active torsions:
REMARK  status: ('A' for Active; 'I' for Inactive)
ROOT
ATOM      1  C4' PXY d   1       1.967   0.805  -0.534  0.00  0.00     0.077 C 
ATOM      2  C1' PXY d   1      -2.226  -0.623   3.180  0.00  0.00     0.077 C 
ATOM      3  C1  PXY d   1      -1.135  -0.241   2.199  0.00  0.00    -0.082 A 
ATOM      4  C2  PXY d   1      -0.095  -1.042   2.033  0.00  0.00     0.003 A 
ATOM      5  C3  PXY d   1       0.917  -0.697   1.174  0.00  0.00     0.003 A 
ATOM      6  C4  PXY d   1       0.837   0.455   0.438  0.00  0.00    -0.082 A 
ATOM      7  C5  PXY d   1      -0.226   1.272   0.593  0.00  0.00     0.003 A 
ATOM      8  C6  PXY d   1      -1.222   0.923   1.501  0.00  0.00     0.003 A 
ENDROOT
TORSDOF 0
ENDMDL
