MODEL 1
REMARK minimizedAffinity -2.67269993
REMARK minimizedRMSD -1
REMARK  0 active torsions:
REMARK  status: ('A' for Active; 'I' for Inactive)
ROOT
ATOM      1  C4' PXY d   1       2.603   2.934   0.687  0.00  0.00     0.077 C 
ATOM      2  C1' PXY d   1      -2.182   0.175   2.392  0.00  0.00     0.077 C 
ATOM      3  C1  PXY d   1      -0.920   0.889   1.950  0.00  0.00    -0.082 A 
ATOM      4  C2  PXY d   1      -0.939   2.199   1.769  0.00  0.00     0.003 A 
ATOM      5  C3  PXY d   1       0.185   2.856   1.338  0.00  0.00     0.003 A 
ATOM      6  C4  PXY d   1       1.355   2.173   1.142  0.00  0.00    -0.082 A 
ATOM      7  C5  PXY d   1       1.385   0.837   1.335  0.00  0.00     0.003 A 
ATOM      8  C6  PXY d   1       0.223   0.183   1.733  0.00  0.00     0.003 A 
ENDROOT
TORSDOF 0
ENDMDL
