MODEL 1
REMARK minimizedAffinity -5.76335001
REMARK minimizedRMSD -1
REMARK  0 active torsions:
REMARK  status: ('A' for Active; 'I' for Inactive)
ROOT
ATOM      1  C4' PXY d   1      -3.801   1.579   3.556  0.00  0.00     0.077 C 
ATOM      2  C1' PXY d   1       0.974   0.536   0.470  0.00  0.00     0.077 C 
ATOM      3  C1  PXY d   1      -0.284   0.799   1.274  0.00  0.00    -0.082 A 
ATOM      4  C2  PXY d   1      -0.539   2.023   1.708  0.00  0.00     0.003 A 
ATOM      5  C3  PXY d   1      -1.656   2.272   2.464  0.00  0.00     0.003 A 
ATOM      6  C4  PXY d   1      -2.548   1.269   2.733  0.00  0.00    -0.082 A 
ATOM      7  C5  PXY d   1      -2.300   0.020   2.284  0.00  0.00     0.003 A 
ATOM      8  C6  PXY d   1      -1.140  -0.220   1.554  0.00  0.00     0.003 A 
ENDROOT
TORSDOF 0
ENDMDL
