MODEL 1
REMARK minimizedAffinity -0.346961915
REMARK minimizedRMSD -1
REMARK  0 active torsions:
REMARK  status: ('A' for Active; 'I' for Inactive)
ROOT
ATOM      1  C4' PXY d   1       0.808   0.407   0.412  0.00  0.00     0.077 C 
ATOM      2  C1' PXY d   1      -3.595   1.934   3.832  0.00  0.00     0.077 C 
ATOM      3  C1  PXY d   1      -2.441   1.521   2.939  0.00  0.00    -0.082 A 
ATOM      4  C2  PXY d   1      -1.584   2.435   2.514  0.00  0.00     0.003 A 
ATOM      5  C3  PXY d   1      -0.553   2.085   1.681  0.00  0.00     0.003 A 
ATOM      6  C4  PXY d   1      -0.367   0.777   1.322  0.00  0.00    -0.082 A 
ATOM      7  C5  PXY d   1      -1.231  -0.163   1.760  0.00  0.00     0.003 A 
ATOM      8  C6  PXY d   1      -2.295   0.220   2.572  0.00  0.00     0.003 A 
ENDROOT
TORSDOF 0
ENDMDL
