MODEL 1
REMARK minimizedAffinity 1.02787161
REMARK minimizedRMSD -1
REMARK  0 active torsions:
REMARK  status: ('A' for Active; 'I' for Inactive)
ROOT
ATOM      1  C4' PXY d   1      -4.091   2.048   3.410  0.00  0.00     0.077 C 
ATOM      2  C1' PXY d   1       0.986   1.266   0.760  0.00  0.00     0.077 C 
ATOM      3  C1  PXY d   1      -0.349   1.459   1.452  0.00  0.00    -0.082 A 
ATOM      4  C2  PXY d   1      -0.849   2.677   1.580  0.00  0.00     0.003 A 
ATOM      5  C3  PXY d   1      -2.040   2.873   2.231  0.00  0.00     0.003 A 
ATOM      6  C4  PXY d   1      -2.751   1.805   2.710  0.00  0.00    -0.082 A 
ATOM      7  C5  PXY d   1      -2.252   0.558   2.574  0.00  0.00     0.003 A 
ATOM      8  C6  PXY d   1      -1.022   0.385   1.946  0.00  0.00     0.003 A 
ENDROOT
TORSDOF 0
ENDMDL
