MODEL 1
REMARK minimizedAffinity 0.408721298
REMARK minimizedRMSD -1
REMARK  0 active torsions:
REMARK  status: ('A' for Active; 'I' for Inactive)
ROOT
ATOM      1  C4' PXY d   1       2.540   0.724   0.083  0.00  0.00     0.077 C 
ATOM      2  C1' PXY d   1      -2.555  -0.689   2.421  0.00  0.00     0.077 C 
ATOM      3  C1  PXY d   1      -1.224  -0.309   1.801  0.00  0.00    -0.082 A 
ATOM      4  C2  PXY d   1      -0.260  -1.211   1.718  0.00  0.00     0.003 A 
ATOM      5  C3  PXY d   1       0.960  -0.875   1.190  0.00  0.00     0.003 A 
ATOM      6  C4  PXY d   1       1.178   0.382   0.692  0.00  0.00    -0.082 A 
ATOM      7  C5  PXY d   1       0.195   1.305   0.763  0.00  0.00     0.003 A 
ATOM      8  C6  PXY d   1      -1.022   0.956   1.341  0.00  0.00     0.003 A 
ENDROOT
TORSDOF 0
ENDMDL
