MODEL 1
REMARK minimizedAffinity 3.39625573
REMARK minimizedRMSD -1
REMARK  0 active torsions:
REMARK  status: ('A' for Active; 'I' for Inactive)
ROOT
ATOM      1  C4' PXY d   1       3.295   1.153  -1.988  0.00  0.00     0.077 C 
ATOM      2  C1' PXY d   1      -0.490   0.573   2.343  0.00  0.00     0.077 C 
ATOM      3  C1  PXY d   1       0.512   0.718   1.214  0.00  0.00    -0.082 A 
ATOM      4  C2  PXY d   1       0.374   1.702   0.341  0.00  0.00     0.003 A 
ATOM      5  C3  PXY d   1       1.252   1.830  -0.705  0.00  0.00     0.003 A 
ATOM      6  C4  PXY d   1       2.313   0.973  -0.827  0.00  0.00    -0.082 A 
ATOM      7  C5  PXY d   1       2.467  -0.027   0.067  0.00  0.00     0.003 A 
ATOM      8  C6  PXY d   1       1.541  -0.164   1.097  0.00  0.00     0.003 A 
ENDROOT
TORSDOF 0
ENDMDL
