MODEL 1
REMARK minimizedAffinity -2.3060565
REMARK minimizedRMSD -1
REMARK  0 active torsions:
REMARK  status: ('A' for Active; 'I' for Inactive)
ROOT
ATOM      1  C4' PXY d   1       3.231  -0.718  -0.426  0.00  0.00     0.077 C 
ATOM      2  C1' PXY d   1      -1.251   1.832   2.185  0.00  0.00     0.077 C 
ATOM      3  C1  PXY d   1      -0.078   1.171   1.490  0.00  0.00    -0.082 A 
ATOM      4  C2  PXY d   1       0.286  -0.052   1.840  0.00  0.00     0.003 A 
ATOM      5  C3  PXY d   1       1.365  -0.653   1.244  0.00  0.00     0.003 A 
ATOM      6  C4  PXY d   1       2.046  -0.015   0.242  0.00  0.00    -0.082 A 
ATOM      7  C5  PXY d   1       1.675   1.229  -0.128  0.00  0.00     0.003 A 
ATOM      8  C6  PXY d   1       0.603   1.837   0.518  0.00  0.00     0.003 A 
ENDROOT
TORSDOF 0
ENDMDL
