MODEL 1
REMARK minimizedAffinity -4.12271833
REMARK minimizedRMSD -1
REMARK  0 active torsions:
REMARK  status: ('A' for Active; 'I' for Inactive)
ROOT
ATOM      1  C4' PXY d   1      -3.014   1.190   2.923  0.00  0.00     0.077 C 
ATOM      2  C1' PXY d   1       1.944   0.304   0.087  0.00  0.00     0.077 C 
ATOM      3  C1  PXY d   1       0.650   0.544   0.839  0.00  0.00    -0.082 A 
ATOM      4  C2  PXY d   1      -0.306  -0.371   0.807  0.00  0.00     0.003 A 
ATOM      5  C3  PXY d   1      -1.495  -0.155   1.454  0.00  0.00     0.003 A 
ATOM      6  C4  PXY d   1      -1.688   0.985   2.187  0.00  0.00    -0.082 A 
ATOM      7  C5  PXY d   1      -0.714   1.919   2.234  0.00  0.00     0.003 A 
ATOM      8  C6  PXY d   1       0.470   1.699   1.535  0.00  0.00     0.003 A 
ENDROOT
TORSDOF 0
ENDMDL
