MODEL 1
REMARK minimizedAffinity 0.46957165
REMARK minimizedRMSD -1
REMARK  0 active torsions:
REMARK  status: ('A' for Active; 'I' for Inactive)
ROOT
ATOM      1  C4' PXY d   1       1.632   3.316   0.622  0.00  0.00     0.077 C 
ATOM      2  C1' PXY d   1      -2.663   0.001   2.616  0.00  0.00     0.077 C 
ATOM      3  C1  PXY d   1      -1.542   0.871   2.082  0.00  0.00    -0.082 A 
ATOM      4  C2  PXY d   1      -0.338   0.794   2.625  0.00  0.00     0.003 A 
ATOM      5  C3  PXY d   1       0.678   1.597   2.175  0.00  0.00     0.003 A 
ATOM      6  C4  PXY d   1       0.474   2.450   1.123  0.00  0.00    -0.082 A 
ATOM      7  C5  PXY d   1      -0.749   2.526   0.556  0.00  0.00     0.003 A 
ATOM      8  C6  PXY d   1      -1.778   1.733   1.055  0.00  0.00     0.003 A 
ENDROOT
TORSDOF 0
ENDMDL
