MODEL 1
REMARK minimizedAffinity -4.99858618
REMARK minimizedRMSD -1
REMARK  3 active torsions:
REMARK  status: ('A' for Active; 'I' for Inactive)
REMARK    1  A    between atoms: C3'_2  and  C2'_3 
REMARK    2  A    between atoms: C2'_3  and  C1'_4 
REMARK    3  A    between atoms: C1'_4  and  C1_5 
ROOT
ATOM      1  C1  N4B d   1       0.023  -0.848   0.214  0.00  0.00    -0.075 A 
ATOM      2  C2  N4B d   1       0.080  -2.046  -0.532  0.00  0.00     0.002 A 
ATOM      3  C3  N4B d   1       1.079  -2.232  -1.456  0.00  0.00     0.002 A 
ATOM      4  C4  N4B d   1       2.016  -1.231  -1.664  0.00  0.00    -0.004 A 
ATOM      5  C5  N4B d   1       1.969  -0.088  -0.921  0.00  0.00     0.002 A 
ATOM      6  C6  N4B d   1       0.973   0.111   0.014  0.00  0.00     0.002 A 
ENDROOT
BRANCH   1   7
ATOM      7  C1' N4B d   1      -1.100  -0.564   1.174  0.00  0.00     0.057 C 
BRANCH   7   8
ATOM      8  C2' N4B d   1      -1.462   0.916   1.097  0.00  0.00     0.009 C 
BRANCH   8   9
ATOM      9  C3' N4B d   1      -1.813   1.487   2.460  0.00  0.00     0.004 C 
ATOM     10  C4' N4B d   1      -2.126   0.425   3.472  0.00  0.00     0.003 C 
ENDBRANCH   8   9
ENDBRANCH   7   8
ENDBRANCH   1   7
TORSDOF 3
ENDMDL
