MODEL 1
REMARK minimizedAffinity -3.78035069
REMARK minimizedRMSD -1
REMARK  3 active torsions:
REMARK  status: ('A' for Active; 'I' for Inactive)
REMARK    1  A    between atoms: C3'_2  and  C2'_3 
REMARK    2  A    between atoms: C2'_3  and  C1'_4 
REMARK    3  A    between atoms: C1'_4  and  C1_5 
ROOT
ATOM      1  C1  N4B d   1       0.309  -0.083  -0.300  0.00  0.00    -0.075 A 
ATOM      2  C2  N4B d   1       1.088  -1.243  -0.502  0.00  0.00     0.002 A 
ATOM      3  C3  N4B d   1       2.288  -1.157  -1.165  0.00  0.00     0.002 A 
ATOM      4  C4  N4B d   1       2.718   0.069  -1.650  0.00  0.00    -0.004 A 
ATOM      5  C5  N4B d   1       1.971   1.189  -1.429  0.00  0.00     0.002 A 
ATOM      6  C6  N4B d   1       0.766   1.119  -0.760  0.00  0.00     0.002 A 
ENDROOT
BRANCH   1   7
ATOM      7  C1' N4B d   1      -1.049  -0.140   0.344  0.00  0.00     0.057 C 
BRANCH   7   8
ATOM      8  C2' N4B d   1      -1.526   1.280   0.634  0.00  0.00     0.009 C 
BRANCH   8   9
ATOM      9  C3' N4B d   1      -1.483   1.602   2.118  0.00  0.00     0.004 C 
ATOM     10  C4' N4B d   1      -2.138   0.548   2.961  0.00  0.00     0.003 C 
ENDBRANCH   8   9
ENDBRANCH   7   8
ENDBRANCH   1   7
TORSDOF 3
ENDMDL
