MODEL 1
REMARK minimizedAffinity -5.30126858
REMARK minimizedRMSD -1
REMARK  3 active torsions:
REMARK  status: ('A' for Active; 'I' for Inactive)
REMARK    1  A    between atoms: C3'_2  and  C2'_3 
REMARK    2  A    between atoms: C2'_3  and  C1'_4 
REMARK    3  A    between atoms: C1'_4  and  C1_5 
ROOT
ATOM      1  C1  N4B d   1       0.102   0.218  -0.195  0.00  0.00    -0.075 A 
ATOM      2  C2  N4B d   1       0.017  -1.191  -0.148  0.00  0.00     0.002 A 
ATOM      3  C3  N4B d   1       1.112  -1.955  -0.469  0.00  0.00     0.002 A 
ATOM      4  C4  N4B d   1       2.291  -1.336  -0.856  0.00  0.00    -0.004 A 
ATOM      5  C5  N4B d   1       2.372   0.025  -0.874  0.00  0.00     0.002 A 
ATOM      6  C6  N4B d   1       1.281   0.806  -0.551  0.00  0.00     0.002 A 
ENDROOT
BRANCH   1   7
ATOM      7  C1' N4B d   1      -1.094   1.094   0.064  0.00  0.00     0.057 C 
BRANCH   7   8
ATOM      8  C2' N4B d   1      -1.744   0.678   1.380  0.00  0.00     0.009 C 
BRANCH   8   9
ATOM      9  C3' N4B d   1      -1.402   1.633   2.510  0.00  0.00     0.004 C 
ATOM     10  C4' N4B d   1      -1.563   1.011   3.865  0.00  0.00     0.003 C 
ENDBRANCH   8   9
ENDBRANCH   7   8
ENDBRANCH   1   7
TORSDOF 3
ENDMDL
