MODEL 1
REMARK minimizedAffinity -4.98071861
REMARK minimizedRMSD -1
REMARK  3 active torsions:
REMARK  status: ('A' for Active; 'I' for Inactive)
REMARK    1  A    between atoms: C3'_2  and  C2'_3 
REMARK    2  A    between atoms: C2'_3  and  C1'_4 
REMARK    3  A    between atoms: C1'_4  and  C1_5 
ROOT
ATOM      1  C1  N4B d   1       0.131   0.065   0.022  0.00  0.00    -0.075 A 
ATOM      2  C2  N4B d   1       0.354  -1.329   0.056  0.00  0.00     0.002 A 
ATOM      3  C3  N4B d   1       1.554  -1.843  -0.369  0.00  0.00     0.002 A 
ATOM      4  C4  N4B d   1       2.535  -0.987  -0.848  0.00  0.00    -0.004 A 
ATOM      5  C5  N4B d   1       2.321   0.360  -0.854  0.00  0.00     0.002 A 
ATOM      6  C6  N4B d   1       1.121   0.891  -0.425  0.00  0.00     0.002 A 
ENDROOT
BRANCH   1   7
ATOM      7  C1' N4B d   1      -1.197   0.666   0.397  0.00  0.00     0.057 C 
BRANCH   7   8
ATOM      8  C2' N4B d   1      -1.689   0.027   1.691  0.00  0.00     0.009 C 
BRANCH   8   9
ATOM      9  C3' N4B d   1      -1.138   0.732   2.919  0.00  0.00     0.004 C 
ATOM     10  C4' N4B d   1      -1.319   2.220   2.863  0.00  0.00     0.003 C 
ENDBRANCH   8   9
ENDBRANCH   7   8
ENDBRANCH   1   7
TORSDOF 3
ENDMDL
