MODEL 1
REMARK minimizedAffinity -3.77552032
REMARK minimizedRMSD -1
REMARK  3 active torsions:
REMARK  status: ('A' for Active; 'I' for Inactive)
REMARK    1  A    between atoms: C3'_2  and  C2'_3 
REMARK    2  A    between atoms: C2'_3  and  C1'_4 
REMARK    3  A    between atoms: C1'_4  and  C1_5 
ROOT
ATOM      1  C1  N4B d   1      -0.567   0.043   0.261  0.00  0.00    -0.075 A 
ATOM      2  C2  N4B d   1       0.593   0.744  -0.137  0.00  0.00     0.002 A 
ATOM      3  C3  N4B d   1       1.690   0.054  -0.592  0.00  0.00     0.002 A 
ATOM      4  C4  N4B d   1       1.657  -1.331  -0.639  0.00  0.00    -0.004 A 
ATOM      5  C5  N4B d   1       0.525  -2.000  -0.277  0.00  0.00     0.002 A 
ATOM      6  C6  N4B d   1      -0.587  -1.319   0.179  0.00  0.00     0.002 A 
ENDROOT
BRANCH   1   7
ATOM      7  C1' N4B d   1      -1.760   0.749   0.846  0.00  0.00     0.057 C 
BRANCH   7   8
ATOM      8  C2' N4B d   1      -2.235  -0.010   2.081  0.00  0.00     0.009 C 
BRANCH   8   9
ATOM      9  C3' N4B d   1      -1.864   0.709   3.367  0.00  0.00     0.004 C 
ATOM     10  C4' N4B d   1      -1.200   2.031   3.123  0.00  0.00     0.003 C 
ENDBRANCH   8   9
ENDBRANCH   7   8
ENDBRANCH   1   7
TORSDOF 3
ENDMDL
