MODEL 1
REMARK minimizedAffinity -4.70952177
REMARK minimizedRMSD -1
REMARK  3 active torsions:
REMARK  status: ('A' for Active; 'I' for Inactive)
REMARK    1  A    between atoms: C3'_2  and  C2'_3 
REMARK    2  A    between atoms: C2'_3  and  C1'_4 
REMARK    3  A    between atoms: C1'_4  and  C1_5 
ROOT
ATOM      1  C1  N4B d   1      -1.324   0.615   1.521  0.00  0.00    -0.075 A 
ATOM      2  C2  N4B d   1      -2.507  -0.018   1.961  0.00  0.00     0.002 A 
ATOM      3  C3  N4B d   1      -2.904   0.101   3.270  0.00  0.00     0.002 A 
ATOM      4  C4  N4B d   1      -2.126   0.829   4.159  0.00  0.00    -0.004 A 
ATOM      5  C5  N4B d   1      -0.998   1.458   3.720  0.00  0.00     0.002 A 
ATOM      6  C6  N4B d   1      -0.590   1.350   2.406  0.00  0.00     0.002 A 
ENDROOT
BRANCH   1   7
ATOM      7  C1' N4B d   1      -0.805   0.442   0.119  0.00  0.00     0.057 C 
BRANCH   7   8
ATOM      8  C2' N4B d   1       0.622  -0.095   0.176  0.00  0.00     0.009 C 
BRANCH   8   9
ATOM      9  C3' N4B d   1       1.556   0.674  -0.742  0.00  0.00     0.004 C 
ATOM     10  C4' N4B d   1       2.726  -0.145  -1.199  0.00  0.00     0.003 C 
ENDBRANCH   8   9
ENDBRANCH   7   8
ENDBRANCH   1   7
TORSDOF 3
ENDMDL
