MODEL 1
REMARK minimizedAffinity -3.89835715
REMARK minimizedRMSD -1
REMARK  3 active torsions:
REMARK  status: ('A' for Active; 'I' for Inactive)
REMARK    1  A    between atoms: C3'_2  and  C2'_3 
REMARK    2  A    between atoms: C2'_3  and  C1'_4 
REMARK    3  A    between atoms: C1'_4  and  C1_5 
ROOT
ATOM      1  C1  N4B d   1      -1.289   0.726   1.266  0.00  0.00    -0.075 A 
ATOM      2  C2  N4B d   1      -0.619   1.669   2.076  0.00  0.00     0.002 A 
ATOM      3  C3  N4B d   1      -1.094   1.956   3.332  0.00  0.00     0.002 A 
ATOM      4  C4  N4B d   1      -2.242   1.328   3.791  0.00  0.00    -0.004 A 
ATOM      5  C5  N4B d   1      -2.869   0.399   3.013  0.00  0.00     0.002 A 
ATOM      6  C6  N4B d   1      -2.401   0.098   1.750  0.00  0.00     0.002 A 
ENDROOT
BRANCH   1   7
ATOM      7  C1' N4B d   1      -0.858   0.443  -0.147  0.00  0.00     0.057 C 
BRANCH   7   8
ATOM      8  C2' N4B d   1       0.527  -0.197  -0.129  0.00  0.00     0.009 C 
BRANCH   8   9
ATOM      9  C3' N4B d   1       1.577   0.703  -0.758  0.00  0.00     0.004 C 
ATOM     10  C4' N4B d   1       0.983   1.892  -1.451  0.00  0.00     0.003 C 
ENDBRANCH   8   9
ENDBRANCH   7   8
ENDBRANCH   1   7
TORSDOF 3
ENDMDL
