MODEL 1
REMARK minimizedAffinity -4.74602318
REMARK minimizedRMSD -1
REMARK  3 active torsions:
REMARK  status: ('A' for Active; 'I' for Inactive)
REMARK    1  A    between atoms: C3'_2  and  C2'_3 
REMARK    2  A    between atoms: C2'_3  and  C1'_4 
REMARK    3  A    between atoms: C1'_4  and  C1_5 
ROOT
ATOM      1  C1  N4B d   1       0.235  -0.277   0.029  0.00  0.00    -0.075 A 
ATOM      2  C2  N4B d   1       1.153   0.795  -0.012  0.00  0.00     0.002 A 
ATOM      3  C3  N4B d   1       2.378   0.628  -0.610  0.00  0.00     0.002 A 
ATOM      4  C4  N4B d   1       2.712  -0.603  -1.156  0.00  0.00    -0.004 A 
ATOM      5  C5  N4B d   1       1.809  -1.625  -1.135  0.00  0.00     0.002 A 
ATOM      6  C6  N4B d   1       0.573  -1.470  -0.540  0.00  0.00     0.002 A 
ENDROOT
BRANCH   1   7
ATOM      7  C1' N4B d   1      -1.082  -0.167   0.747  0.00  0.00     0.057 C 
BRANCH   7   8
ATOM      8  C2' N4B d   1      -0.958   0.863   1.866  0.00  0.00     0.009 C 
BRANCH   8   9
ATOM      9  C3' N4B d   1      -1.829   0.512   3.060  0.00  0.00     0.004 C 
ATOM     10  C4' N4B d   1      -1.723   1.514   4.171  0.00  0.00     0.003 C 
ENDBRANCH   8   9
ENDBRANCH   7   8
ENDBRANCH   1   7
TORSDOF 3
ENDMDL
