MODEL 1
REMARK minimizedAffinity -5.23006916
REMARK minimizedRMSD -1
REMARK  3 active torsions:
REMARK  status: ('A' for Active; 'I' for Inactive)
REMARK    1  A    between atoms: C3'_2  and  C2'_3 
REMARK    2  A    between atoms: C2'_3  and  C1'_4 
REMARK    3  A    between atoms: C1'_4  and  C1_5 
ROOT
ATOM      1  C1  N4B d   1      -0.006   0.027  -0.352  0.00  0.00    -0.075 A 
ATOM      2  C2  N4B d   1       0.776  -1.149  -0.371  0.00  0.00     0.002 A 
ATOM      3  C3  N4B d   1       1.940  -1.188  -1.098  0.00  0.00     0.002 A 
ATOM      4  C4  N4B d   1       2.331  -0.075  -1.827  0.00  0.00    -0.004 A 
ATOM      5  C5  N4B d   1       1.584   1.065  -1.784  0.00  0.00     0.002 A 
ATOM      6  C6  N4B d   1       0.414   1.120  -1.054  0.00  0.00     0.002 A 
ENDROOT
BRANCH   1   7
ATOM      7  C1' N4B d   1      -1.330   0.090   0.359  0.00  0.00     0.057 C 
BRANCH   7   8
ATOM      8  C2' N4B d   1      -1.273   1.178   1.427  0.00  0.00     0.009 C 
BRANCH   8   9
ATOM      9  C3' N4B d   1      -2.240   0.906   2.567  0.00  0.00     0.004 C 
ATOM     10  C4' N4B d   1      -2.006   1.795   3.752  0.00  0.00     0.003 C 
ENDBRANCH   8   9
ENDBRANCH   7   8
ENDBRANCH   1   7
TORSDOF 3
ENDMDL
