MODEL 1
REMARK minimizedAffinity -4.51863384
REMARK minimizedRMSD -1
REMARK  3 active torsions:
REMARK  status: ('A' for Active; 'I' for Inactive)
REMARK    1  A    between atoms: C3'_2  and  C2'_3 
REMARK    2  A    between atoms: C2'_3  and  C1'_4 
REMARK    3  A    between atoms: C1'_4  and  C1_5 
ROOT
ATOM      1  C1  N4B d   1       0.379   0.131   0.370  0.00  0.00    -0.075 A 
ATOM      2  C2  N4B d   1      -0.217   1.027  -0.543  0.00  0.00     0.002 A 
ATOM      3  C3  N4B d   1       0.469   1.421  -1.666  0.00  0.00     0.002 A 
ATOM      4  C4  N4B d   1       1.755   0.949  -1.885  0.00  0.00    -0.004 A 
ATOM      5  C5  N4B d   1       2.314   0.063  -1.011  0.00  0.00     0.002 A 
ATOM      6  C6  N4B d   1       1.634  -0.344   0.120  0.00  0.00     0.002 A 
ENDROOT
BRANCH   1   7
ATOM      7  C1' N4B d   1      -0.298  -0.262   1.655  0.00  0.00     0.057 C 
BRANCH   7   8
ATOM      8  C2' N4B d   1      -1.488   0.663   1.896  0.00  0.00     0.009 C 
BRANCH   8   9
ATOM      9  C3' N4B d   1      -1.854   0.745   3.368  0.00  0.00     0.004 C 
ATOM     10  C4' N4B d   1      -1.486   2.061   3.985  0.00  0.00     0.003 C 
ENDBRANCH   8   9
ENDBRANCH   7   8
ENDBRANCH   1   7
TORSDOF 3
ENDMDL
