MODEL 1
REMARK minimizedAffinity -1.15448415
REMARK minimizedRMSD -1
REMARK  0 active torsions:
REMARK  status: ('A' for Active; 'I' for Inactive)
ROOT
ATOM      1  C   UNL d   1      -0.523  -0.851  -1.677  0.00  0.00     0.077 C 
ATOM      2  C1  UNL d   1      -0.083   0.373  -0.931  0.00  0.00    -0.074 A 
ATOM      3  C2  UNL d   1      -0.615   1.630  -1.235  0.00  0.00    -0.005 A 
ATOM      4  C3  UNL d   1      -0.204   2.758  -0.526  0.00  0.00     0.006 A 
ATOM      5  C4  UNL d   1       0.743   2.641   0.493  0.00  0.00    -0.005 A 
ATOM      6  C5  UNL d   1       1.285   1.392   0.812  0.00  0.00    -0.074 A 
ATOM      7  C6  UNL d   1       2.296   1.248   1.910  0.00  0.00     0.077 C 
ATOM      8  C7  UNL d   1       0.861   0.262   0.099  0.00  0.00    -0.001 A 
ENDROOT
TORSDOF 0
ENDMDL
