MODEL 1
REMARK minimizedAffinity -0.355865151
REMARK minimizedRMSD -1
REMARK  0 active torsions:
REMARK  status: ('A' for Active; 'I' for Inactive)
ROOT
ATOM      1  C   UNL d   1       0.307   2.923   0.051  0.00  0.00     0.077 C 
ATOM      2  C1  UNL d   1       0.802   1.545  -0.274  0.00  0.00    -0.074 A 
ATOM      3  C2  UNL d   1       2.170   1.286  -0.410  0.00  0.00    -0.005 A 
ATOM      4  C3  UNL d   1       2.615  -0.003  -0.703  0.00  0.00     0.006 A 
ATOM      5  C4  UNL d   1       1.699  -1.044  -0.862  0.00  0.00    -0.005 A 
ATOM      6  C5  UNL d   1       0.328  -0.804  -0.728  0.00  0.00    -0.074 A 
ATOM      7  C6  UNL d   1      -0.669  -1.913  -0.886  0.00  0.00     0.077 C 
ATOM      8  C7  UNL d   1      -0.111   0.492  -0.427  0.00  0.00    -0.001 A 
ENDROOT
TORSDOF 0
ENDMDL
