MODEL 1
REMARK minimizedAffinity 3.83197594
REMARK minimizedRMSD -1
REMARK  0 active torsions:
REMARK  status: ('A' for Active; 'I' for Inactive)
ROOT
ATOM      1  C   UNL d   1       5.994   6.000   6.000  0.00  0.00     0.077 C 
ATOM      2  C1  UNL d   1       5.078   5.067   5.265  0.00  0.00    -0.074 A 
ATOM      3  C2  UNL d   1       4.783   5.266   3.912  0.00  0.00    -0.005 A 
ATOM      4  C3  UNL d   1       3.937   4.384   3.240  0.00  0.00     0.006 A 
ATOM      5  C4  UNL d   1       3.377   3.297   3.912  0.00  0.00    -0.005 A 
ATOM      6  C5  UNL d   1       3.661   3.082   5.265  0.00  0.00    -0.074 A 
ATOM      7  C6  UNL d   1       3.076   1.913   6.000  0.00  0.00     0.077 C 
ATOM      8  C7  UNL d   1       4.518   3.968   5.932  0.00  0.00    -0.001 A 
ENDROOT
TORSDOF 0
ENDMDL
