MODEL 1
REMARK minimizedAffinity 8.78196335
REMARK minimizedRMSD -1
REMARK  0 active torsions:
REMARK  status: ('A' for Active; 'I' for Inactive)
ROOT
ATOM      1  C   UNL d   1       1.791   2.756   5.680  0.00  0.00     0.077 C 
ATOM      2  C1  UNL d   1       2.995   3.360   5.021  0.00  0.00    -0.074 A 
ATOM      3  C2  UNL d   1       3.241   3.167   3.658  0.00  0.00    -0.005 A 
ATOM      4  C3  UNL d   1       4.360   3.743   3.057  0.00  0.00     0.006 A 
ATOM      5  C4  UNL d   1       5.243   4.517   3.812  0.00  0.00    -0.005 A 
ATOM      6  C5  UNL d   1       5.013   4.721   5.176  0.00  0.00    -0.074 A 
ATOM      7  C6  UNL d   1       5.947   5.558   6.000  0.00  0.00     0.077 C 
ATOM      8  C7  UNL d   1       3.882   4.145   5.771  0.00  0.00    -0.001 A 
ENDROOT
TORSDOF 0
ENDMDL
