MODEL 1
REMARK minimizedAffinity 9.81659698
REMARK minimizedRMSD -1
REMARK  0 active torsions:
REMARK  status: ('A' for Active; 'I' for Inactive)
ROOT
ATOM      1  C   UNL d   1       3.120  -0.439   2.298  0.00  0.00     0.077 C 
ATOM      2  C1  UNL d   1       3.284   0.241   0.971  0.00  0.00    -0.074 A 
ATOM      3  C2  UNL d   1       2.388   0.001  -0.076  0.00  0.00    -0.005 A 
ATOM      4  C3  UNL d   1       2.548   0.647  -1.301  0.00  0.00     0.006 A 
ATOM      5  C4  UNL d   1       3.604   1.540  -1.492  0.00  0.00    -0.005 A 
ATOM      6  C5  UNL d   1       4.509   1.793  -0.457  0.00  0.00    -0.074 A 
ATOM      7  C6  UNL d   1       5.643   2.757  -0.642  0.00  0.00     0.077 C 
ATOM      8  C7  UNL d   1       4.337   1.145   0.774  0.00  0.00    -0.001 A 
ENDROOT
TORSDOF 0
ENDMDL
