MODEL 1
REMARK minimizedAffinity 7.64688635
REMARK minimizedRMSD -1
REMARK  0 active torsions:
REMARK  status: ('A' for Active; 'I' for Inactive)
ROOT
ATOM      1  C   UNL d   1       0.488   2.633   4.502  0.00  0.00     0.077 C 
ATOM      2  C1  UNL d   1       1.890   3.056   4.176  0.00  0.00    -0.074 A 
ATOM      3  C2  UNL d   1       2.383   2.965   2.871  0.00  0.00    -0.005 A 
ATOM      4  C3  UNL d   1       3.686   3.371   2.581  0.00  0.00     0.006 A 
ATOM      5  C4  UNL d   1       4.507   3.872   3.592  0.00  0.00    -0.005 A 
ATOM      6  C5  UNL d   1       4.030   3.972   4.903  0.00  0.00    -0.074 A 
ATOM      7  C6  UNL d   1       4.896   4.517   6.000  0.00  0.00     0.077 C 
ATOM      8  C7  UNL d   1       2.718   3.568   5.185  0.00  0.00    -0.001 A 
ENDROOT
TORSDOF 0
ENDMDL
