MODEL 1
REMARK minimizedAffinity 10.9831085
REMARK minimizedRMSD -1
REMARK  0 active torsions:
REMARK  status: ('A' for Active; 'I' for Inactive)
ROOT
ATOM      1  C   UNL d   1       4.336   4.302   6.000  0.00  0.00     0.077 C 
ATOM      2  C1  UNL d   1       3.362   3.750   5.001  0.00  0.00    -0.074 A 
ATOM      3  C2  UNL d   1       3.597   3.867   3.628  0.00  0.00    -0.005 A 
ATOM      4  C3  UNL d   1       2.687   3.341   2.711  0.00  0.00     0.006 A 
ATOM      5  C4  UNL d   1       1.535   2.693   3.158  0.00  0.00    -0.005 A 
ATOM      6  C5  UNL d   1       1.283   2.566   4.528  0.00  0.00    -0.074 A 
ATOM      7  C6  UNL d   1       0.054   1.864   5.025  0.00  0.00     0.077 C 
ATOM      8  C7  UNL d   1       2.206   3.092   5.443  0.00  0.00    -0.001 A 
ENDROOT
TORSDOF 0
ENDMDL
