MODEL 1
REMARK minimizedAffinity 7.47608042
REMARK minimizedRMSD -1
REMARK  0 active torsions:
REMARK  status: ('A' for Active; 'I' for Inactive)
ROOT
ATOM      1  C   UNL d   1       0.003   1.747   4.785  0.00  0.00     0.077 C 
ATOM      2  C1  UNL d   1       1.186   2.670   4.804  0.00  0.00    -0.074 A 
ATOM      3  C2  UNL d   1       1.849   2.964   5.999  0.00  0.00    -0.005 A 
ATOM      4  C3  UNL d   1       2.953   3.816   6.000  0.00  0.00     0.006 A 
ATOM      5  C4  UNL d   1       3.404   4.383   4.807  0.00  0.00    -0.005 A 
ATOM      6  C5  UNL d   1       2.754   4.100   3.602  0.00  0.00    -0.074 A 
ATOM      7  C6  UNL d   1       3.231   4.693   2.309  0.00  0.00     0.077 C 
ATOM      8  C7  UNL d   1       1.649   3.237   3.608  0.00  0.00    -0.001 A 
ENDROOT
TORSDOF 0
ENDMDL
