MODEL 1
REMARK minimizedAffinity 2.99396658
REMARK minimizedRMSD -1
REMARK  0 active torsions:
REMARK  status: ('A' for Active; 'I' for Inactive)
ROOT
ATOM      1  C   UNL d   1       2.382   0.650  -1.120  0.00  0.00     0.077 C 
ATOM      2  C1  UNL d   1       0.903   0.891  -1.055  0.00  0.00    -0.074 A 
ATOM      3  C2  UNL d   1       0.387   2.029  -0.427  0.00  0.00    -0.005 A 
ATOM      4  C3  UNL d   1      -0.991   2.244  -0.383  0.00  0.00     0.006 A 
ATOM      5  C4  UNL d   1      -1.865   1.325  -0.965  0.00  0.00    -0.005 A 
ATOM      6  C5  UNL d   1      -1.367   0.182  -1.597  0.00  0.00    -0.074 A 
ATOM      7  C6  UNL d   1      -2.292  -0.811  -2.236  0.00  0.00     0.077 C 
ATOM      8  C7  UNL d   1       0.019  -0.024  -1.644  0.00  0.00    -0.001 A 
ENDROOT
TORSDOF 0
ENDMDL
