MODEL 1
REMARK minimizedAffinity 4.63248539
REMARK minimizedRMSD -1
REMARK  0 active torsions:
REMARK  status: ('A' for Active; 'I' for Inactive)
ROOT
ATOM      1  C   UNL d   1      -1.512  -0.762  -2.645  0.00  0.00     0.077 C 
ATOM      2  C1  UNL d   1      -1.015   0.288  -1.697  0.00  0.00    -0.074 A 
ATOM      3  C2  UNL d   1      -1.828   1.364  -1.325  0.00  0.00    -0.005 A 
ATOM      4  C3  UNL d   1      -1.356   2.327  -0.435  0.00  0.00     0.006 A 
ATOM      5  C4  UNL d   1      -0.068   2.226   0.092  0.00  0.00    -0.005 A 
ATOM      6  C5  UNL d   1       0.759   1.157  -0.267  0.00  0.00    -0.074 A 
ATOM      7  C6  UNL d   1       2.143   1.028   0.297  0.00  0.00     0.077 C 
ATOM      8  C7  UNL d   1       0.275   0.189  -1.157  0.00  0.00    -0.001 A 
ENDROOT
TORSDOF 0
ENDMDL
