MODEL 1
REMARK minimizedAffinity 12.8579102
REMARK minimizedRMSD -1
REMARK  0 active torsions:
REMARK  status: ('A' for Active; 'I' for Inactive)
ROOT
ATOM      1  C1  DEN d   1       0.479   1.533  -0.309  0.00  0.00     0.130 A 
ATOM      2  C2  DEN d   1       0.147   2.079  -1.622  0.00  0.00    -0.031 A 
ATOM      3  C3  DEN d   1      -1.196   2.687  -1.538  0.00  0.00     0.027 A 
ATOM      4  C4  DEN d   1      -2.783   2.840   0.490  0.00  0.00     0.027 A 
ATOM      5  C5  DEN d   1      -2.943   2.510   1.818  0.00  0.00    -0.003 A 
ATOM      6  C6  DEN d   1      -1.996   1.807   2.515  0.00  0.00     0.001 A 
ATOM      7  C7  DEN d   1      -0.825   1.451   1.899  0.00  0.00     0.017 A 
ATOM      8  C8  DEN d   1      -0.660   1.774   0.558  0.00  0.00    -0.094 A 
ATOM      9  C9  DEN d   1      -1.624   2.495  -0.125  0.00  0.00    -0.072 A 
ENDROOT
TORSDOF 0
ENDMDL
