MODEL 1
REMARK minimizedAffinity 9.01670742
REMARK minimizedRMSD -1
REMARK  0 active torsions:
REMARK  status: ('A' for Active; 'I' for Inactive)
ROOT
ATOM      1  C1  DEN d   1      -3.074  -1.699   5.132  0.00  0.00     0.130 A 
ATOM      2  C2  DEN d   1      -1.897  -2.274   4.487  0.00  0.00    -0.031 A 
ATOM      3  C3  DEN d   1      -2.145  -3.715   4.284  0.00  0.00     0.027 A 
ATOM      4  C4  DEN d   1      -4.230  -5.104   4.897  0.00  0.00     0.027 A 
ATOM      5  C5  DEN d   1      -5.482  -5.057   5.471  0.00  0.00    -0.003 A 
ATOM      6  C6  DEN d   1      -6.000  -3.904   5.999  0.00  0.00     0.001 A 
ATOM      7  C7  DEN d   1      -5.282  -2.740   5.923  0.00  0.00     0.017 A 
ATOM      8  C8  DEN d   1      -4.017  -2.781   5.352  0.00  0.00    -0.094 A 
ATOM      9  C9  DEN d   1      -3.515  -3.954   4.813  0.00  0.00    -0.072 A 
ENDROOT
TORSDOF 0
ENDMDL
