MODEL 1
REMARK minimizedAffinity 6.30905247
REMARK minimizedRMSD -1
REMARK  0 active torsions:
REMARK  status: ('A' for Active; 'I' for Inactive)
ROOT
ATOM      1  C1  DEN d   1      -0.784   2.866  -1.210  0.00  0.00     0.130 A 
ATOM      2  C2  DEN d   1       0.534   2.237  -1.233  0.00  0.00    -0.031 A 
ATOM      3  C3  DEN d   1       0.726   1.533   0.051  0.00  0.00     0.027 A 
ATOM      4  C4  DEN d   1      -0.881   1.354   2.060  0.00  0.00     0.027 A 
ATOM      5  C5  DEN d   1      -2.111   1.732   2.550  0.00  0.00    -0.003 A 
ATOM      6  C6  DEN d   1      -2.964   2.536   1.841  0.00  0.00     0.001 A 
ATOM      7  C7  DEN d   1      -2.617   2.952   0.583  0.00  0.00     0.017 A 
ATOM      8  C8  DEN d   1      -1.375   2.581   0.085  0.00  0.00    -0.094 A 
ATOM      9  C9  DEN d   1      -0.532   1.757   0.812  0.00  0.00    -0.072 A 
ENDROOT
TORSDOF 0
ENDMDL
