MODEL 1
REMARK minimizedAffinity 12.3885403
REMARK minimizedRMSD -1
REMARK  0 active torsions:
REMARK  status: ('A' for Active; 'I' for Inactive)
ROOT
ATOM      1  C1  DEN d   1       0.985   0.753  -0.759  0.00  0.00     0.130 A 
ATOM      2  C2  DEN d   1       0.726   1.533  -1.966  0.00  0.00    -0.031 A 
ATOM      3  C3  DEN d   1      -0.422   2.422  -1.697  0.00  0.00     0.027 A 
ATOM      4  C4  DEN d   1      -1.813   2.670   0.461  0.00  0.00     0.027 A 
ATOM      5  C5  DEN d   1      -1.977   2.211   1.750  0.00  0.00    -0.003 A 
ATOM      6  C6  DEN d   1      -1.194   1.218   2.276  0.00  0.00     0.001 A 
ATOM      7  C7  DEN d   1      -0.180   0.683   1.526  0.00  0.00     0.017 A 
ATOM      8  C8  DEN d   1      -0.013   1.135   0.224  0.00  0.00    -0.094 A 
ATOM      9  C9  DEN d   1      -0.807   2.148  -0.286  0.00  0.00    -0.072 A 
ENDROOT
TORSDOF 0
ENDMDL
