MODEL 1
REMARK minimizedAffinity 11.1569786
REMARK minimizedRMSD -1
REMARK  0 active torsions:
REMARK  status: ('A' for Active; 'I' for Inactive)
ROOT
ATOM      1  C1  DEN d   1       0.324   1.234  -0.317  0.00  0.00     0.130 A 
ATOM      2  C2  DEN d   1       0.076   1.830  -1.627  0.00  0.00    -0.031 A 
ATOM      3  C3  DEN d   1      -1.202   2.566  -1.559  0.00  0.00     0.027 A 
ATOM      4  C4  DEN d   1      -2.810   2.846   0.438  0.00  0.00     0.027 A 
ATOM      5  C5  DEN d   1      -3.031   2.513   1.756  0.00  0.00    -0.003 A 
ATOM      6  C6  DEN d   1      -2.173   1.710   2.460  0.00  0.00     0.001 A 
ATOM      7  C7  DEN d   1      -1.030   1.248   1.862  0.00  0.00     0.017 A 
ATOM      8  C8  DEN d   1      -0.805   1.573   0.531  0.00  0.00    -0.094 A 
ATOM      9  C9  DEN d   1      -1.677   2.397  -0.160  0.00  0.00    -0.072 A 
ENDROOT
TORSDOF 0
ENDMDL
