MODEL 1
REMARK minimizedAffinity 11.4641047
REMARK minimizedRMSD -1
REMARK  0 active torsions:
REMARK  status: ('A' for Active; 'I' for Inactive)
ROOT
ATOM      1  C1  DEN d   1      -2.382  -1.105   3.804  0.00  0.00     0.130 A 
ATOM      2  C2  DEN d   1      -1.463  -2.206   4.082  0.00  0.00    -0.031 A 
ATOM      3  C3  DEN d   1      -0.135  -1.836   3.554  0.00  0.00     0.027 A 
ATOM      4  C4  DEN d   1       0.586   0.324   2.342  0.00  0.00     0.027 A 
ATOM      5  C5  DEN d   1       0.153   1.542   1.867  0.00  0.00    -0.003 A 
ATOM      6  C6  DEN d   1      -1.151   1.945   1.972  0.00  0.00     0.001 A 
ATOM      7  C7  DEN d   1      -2.061   1.142   2.608  0.00  0.00     0.017 A 
ATOM      8  C8  DEN d   1      -1.634  -0.091   3.083  0.00  0.00    -0.094 A 
ATOM      9  C9  DEN d   1      -0.308  -0.475   2.978  0.00  0.00    -0.072 A 
ENDROOT
TORSDOF 0
ENDMDL
