MODEL 1
REMARK minimizedAffinity 5.41873074
REMARK minimizedRMSD -1
REMARK  0 active torsions:
REMARK  status: ('A' for Active; 'I' for Inactive)
ROOT
ATOM      1  C1  DEN d   1       4.590  -1.098   0.170  0.00  0.00     0.130 A 
ATOM      2  C2  DEN d   1       5.968  -1.227  -0.297  0.00  0.00    -0.031 A 
ATOM      3  C3  DEN d   1       6.000  -2.268  -1.343  0.00  0.00     0.027 A 
ATOM      4  C4  DEN d   1       4.060  -3.682  -2.285  0.00  0.00     0.027 A 
ATOM      5  C5  DEN d   1       2.709  -3.938  -2.194  0.00  0.00    -0.003 A 
ATOM      6  C6  DEN d   1       1.904  -3.295  -1.292  0.00  0.00     0.001 A 
ATOM      7  C7  DEN d   1       2.434  -2.330  -0.476  0.00  0.00     0.017 A 
ATOM      8  C8  DEN d   1       3.796  -2.072  -0.557  0.00  0.00    -0.094 A 
ATOM      9  C9  DEN d   1       4.591  -2.725  -1.484  0.00  0.00    -0.072 A 
ENDROOT
TORSDOF 0
ENDMDL
