MODEL 1
REMARK minimizedAffinity 3.8223002
REMARK minimizedRMSD -1
REMARK  0 active torsions:
REMARK  status: ('A' for Active; 'I' for Inactive)
ROOT
ATOM      1  C1  DEN d   1       2.878  -3.174  -2.162  0.00  0.00     0.130 A 
ATOM      2  C2  DEN d   1       3.767  -3.779  -3.150  0.00  0.00    -0.031 A 
ATOM      3  C3  DEN d   1       5.152  -3.664  -2.649  0.00  0.00     0.027 A 
ATOM      4  C4  DEN d   1       5.999  -2.619  -0.448  0.00  0.00     0.027 A 
ATOM      5  C5  DEN d   1       5.619  -1.970   0.706  0.00  0.00    -0.003 A 
ATOM      6  C6  DEN d   1       4.313  -1.649   0.967  0.00  0.00     0.001 A 
ATOM      7  C7  DEN d   1       3.334  -2.017   0.082  0.00  0.00     0.017 A 
ATOM      8  C8  DEN d   1       3.710  -2.665  -1.087  0.00  0.00    -0.094 A 
ATOM      9  C9  DEN d   1       5.034  -2.992  -1.326  0.00  0.00    -0.072 A 
ENDROOT
TORSDOF 0
ENDMDL
