MODEL 1
REMARK minimizedAffinity 12.9842405
REMARK minimizedRMSD -1
REMARK  0 active torsions:
REMARK  status: ('A' for Active; 'I' for Inactive)
ROOT
ATOM      1  C1  DEN d   1      -1.736  -0.056  -4.193  0.00  0.00     0.130 A 
ATOM      2  C2  DEN d   1      -2.662   0.014  -3.066  0.00  0.00    -0.031 A 
ATOM      3  C3  DEN d   1      -1.983   0.720  -1.961  0.00  0.00     0.027 A 
ATOM      4  C4  DEN d   1       0.398   1.710  -1.888  0.00  0.00     0.027 A 
ATOM      5  C5  DEN d   1       1.563   1.886  -2.602  0.00  0.00    -0.003 A 
ATOM      6  C6  DEN d   1       1.721   1.401  -3.873  0.00  0.00     0.001 A 
ATOM      7  C7  DEN d   1       0.681   0.755  -4.487  0.00  0.00     0.017 A 
ATOM      8  C8  DEN d   1      -0.495   0.568  -3.771  0.00  0.00    -0.094 A 
ATOM      9  C9  DEN d   1      -0.639   1.076  -2.492  0.00  0.00    -0.072 A 
ENDROOT
TORSDOF 0
ENDMDL
