MODEL 1
REMARK minimizedAffinity 10.0959358
REMARK minimizedRMSD -1
REMARK  0 active torsions:
REMARK  status: ('A' for Active; 'I' for Inactive)
ROOT
ATOM      1  C1  DEN d   1      -2.446  -1.617   3.684  0.00  0.00     0.130 A 
ATOM      2  C2  DEN d   1      -1.609  -2.783   3.953  0.00  0.00    -0.031 A 
ATOM      3  C3  DEN d   1      -0.221  -2.446   3.576  0.00  0.00     0.027 A 
ATOM      4  C4  DEN d   1       0.708  -0.242   2.610  0.00  0.00     0.027 A 
ATOM      5  C5  DEN d   1       0.378   1.030   2.197  0.00  0.00    -0.003 A 
ATOM      6  C6  DEN d   1      -0.911   1.493   2.218  0.00  0.00     0.001 A 
ATOM      7  C7  DEN d   1      -1.911   0.694   2.705  0.00  0.00     0.017 A 
ATOM      8  C8  DEN d   1      -1.588  -0.592   3.116  0.00  0.00    -0.094 A 
ATOM      9  C9  DEN d   1      -0.277  -1.038   3.098  0.00  0.00    -0.072 A 
ENDROOT
TORSDOF 0
ENDMDL
