MODEL 1
REMARK minimizedAffinity 9.256567
REMARK minimizedRMSD -1
REMARK  0 active torsions:
REMARK  status: ('A' for Active; 'I' for Inactive)
ROOT
ATOM      1  C1  DEN d   1      -1.753   3.089   1.825  0.00  0.00     0.130 A 
ATOM      2  C2  DEN d   1      -2.696   2.154   1.215  0.00  0.00    -0.031 A 
ATOM      3  C3  DEN d   1      -2.333   0.791   1.651  0.00  0.00     0.027 A 
ATOM      4  C4  DEN d   1      -0.417   0.040   3.206  0.00  0.00     0.027 A 
ATOM      5  C5  DEN d   1       0.654   0.472   3.958  0.00  0.00    -0.003 A 
ATOM      6  C6  DEN d   1       1.014   1.792   4.024  0.00  0.00     0.001 A 
ATOM      7  C7  DEN d   1       0.270   2.733   3.361  0.00  0.00     0.017 A 
ATOM      8  C8  DEN d   1      -0.805   2.304   2.595  0.00  0.00    -0.094 A 
ATOM      9  C9  DEN d   1      -1.161   0.967   2.551  0.00  0.00    -0.072 A 
ENDROOT
TORSDOF 0
ENDMDL
