MODEL 1
REMARK minimizedAffinity 14.0678797
REMARK minimizedRMSD -1
REMARK  0 active torsions:
REMARK  status: ('A' for Active; 'I' for Inactive)
ROOT
ATOM      1  C1  DEN d   1      -2.244   2.004  -3.810  0.00  0.00     0.130 A 
ATOM      2  C2  DEN d   1      -3.574   1.405  -3.893  0.00  0.00    -0.031 A 
ATOM      3  C3  DEN d   1      -4.546   2.486  -4.150  0.00  0.00     0.027 A 
ATOM      4  C4  DEN d   1      -4.126   5.015  -4.432  0.00  0.00     0.027 A 
ATOM      5  C5  DEN d   1      -3.162   5.999  -4.432  0.00  0.00    -0.003 A 
ATOM      6  C6  DEN d   1      -1.841   5.728  -4.193  0.00  0.00     0.001 A 
ATOM      7  C7  DEN d   1      -1.440   4.434  -3.989  0.00  0.00     0.017 A 
ATOM      8  C8  DEN d   1      -2.406   3.437  -3.980  0.00  0.00    -0.094 A 
ATOM      9  C9  DEN d   1      -3.735   3.730  -4.235  0.00  0.00    -0.072 A 
ENDROOT
TORSDOF 0
ENDMDL
