MODEL 1
REMARK minimizedAffinity -2.86304665
REMARK minimizedRMSD -1
REMARK  0 active torsions:
REMARK  status: ('A' for Active; 'I' for Inactive)
ROOT
ATOM      1  C   UNL d   1       3.535  -5.999  -2.782  0.00  0.00     0.023 A 
ATOM      2  C1  UNL d   1       2.295  -5.994  -2.143  0.00  0.00     0.003 A 
ATOM      3  C2  UNL d   1       1.150  -5.600  -2.838  0.00  0.00     0.048 A 
ATOM      4  C3  UNL d   1       1.252  -5.212  -4.174  0.00  0.00     0.023 A 
ATOM      5  C4  UNL d   1       2.490  -5.216  -4.818  0.00  0.00     0.048 A 
ATOM      6  C5  UNL d   1       3.632  -5.610  -4.119  0.00  0.00     0.003 A 
ATOM      7  I   UNL d   1      -0.450  -4.625  -5.212  0.00  0.00    -0.146 I 
ENDROOT
TORSDOF 0
ENDMDL
