MODEL 1
REMARK minimizedAffinity 5.50573063
REMARK minimizedRMSD -1
REMARK  0 active torsions:
REMARK  status: ('A' for Active; 'I' for Inactive)
ROOT
ATOM      1  C   UNL d   1      -0.914  -1.882  -5.882  0.00  0.00     0.023 A 
ATOM      2  C1  UNL d   1      -0.270  -3.118  -5.832  0.00  0.00     0.003 A 
ATOM      3  C2  UNL d   1      -1.016  -4.298  -5.865  0.00  0.00     0.048 A 
ATOM      4  C3  UNL d   1      -2.406  -4.234  -5.949  0.00  0.00     0.023 A 
ATOM      5  C4  UNL d   1      -3.055  -3.000  -6.000  0.00  0.00     0.048 A 
ATOM      6  C5  UNL d   1      -2.305  -1.823  -5.966  0.00  0.00     0.003 A 
ATOM      7  I   UNL d   1      -3.519  -5.989  -5.998  0.00  0.00    -0.146 I 
ENDROOT
TORSDOF 0
ENDMDL
