MODEL 1
REMARK minimizedAffinity 7.72975683
REMARK minimizedRMSD -1
REMARK  0 active torsions:
REMARK  status: ('A' for Active; 'I' for Inactive)
ROOT
ATOM      1  C   UNL d   1      -5.317  -4.911  -5.987  0.00  0.00     0.023 A 
ATOM      2  C1  UNL d   1      -4.995  -3.553  -5.993  0.00  0.00     0.003 A 
ATOM      3  C2  UNL d   1      -3.658  -3.152  -5.996  0.00  0.00     0.048 A 
ATOM      4  C3  UNL d   1      -2.648  -4.113  -5.994  0.00  0.00     0.023 A 
ATOM      5  C4  UNL d   1      -2.965  -5.472  -5.990  0.00  0.00     0.048 A 
ATOM      6  C5  UNL d   1      -4.303  -5.869  -5.986  0.00  0.00     0.003 A 
ATOM      7  I   UNL d   1      -0.656  -3.517  -5.999  0.00  0.00    -0.146 I 
ENDROOT
TORSDOF 0
ENDMDL
