MODEL 1
REMARK minimizedAffinity 3.12539458
REMARK minimizedRMSD -1
REMARK  0 active torsions:
REMARK  status: ('A' for Active; 'I' for Inactive)
ROOT
ATOM      1  C   UNL d   1      -2.564  -4.938  -6.000  0.00  0.00     0.023 A 
ATOM      2  C1  UNL d   1      -1.478  -4.062  -5.988  0.00  0.00     0.003 A 
ATOM      3  C2  UNL d   1      -0.519  -4.152  -4.978  0.00  0.00     0.048 A 
ATOM      4  C3  UNL d   1      -0.650  -5.120  -3.983  0.00  0.00     0.023 A 
ATOM      5  C4  UNL d   1      -1.735  -5.999  -3.991  0.00  0.00     0.048 A 
ATOM      6  C5  UNL d   1      -2.692  -5.905  -5.003  0.00  0.00     0.003 A 
ATOM      7  I   UNL d   1       0.777  -5.256  -2.478  0.00  0.00    -0.146 I 
ENDROOT
TORSDOF 0
ENDMDL
