MODEL 1
REMARK minimizedAffinity 5.45562267
REMARK minimizedRMSD -1
REMARK  0 active torsions:
REMARK  status: ('A' for Active; 'I' for Inactive)
ROOT
ATOM      1  C   UNL d   1       0.179  -3.690  -5.748  0.00  0.00     0.023 A 
ATOM      2  C1  UNL d   1       0.143  -5.080  -5.861  0.00  0.00     0.003 A 
ATOM      3  C2  UNL d   1      -1.083  -5.745  -5.933  0.00  0.00     0.048 A 
ATOM      4  C3  UNL d   1      -2.269  -5.013  -5.893  0.00  0.00     0.023 A 
ATOM      5  C4  UNL d   1      -2.238  -3.622  -5.780  0.00  0.00     0.048 A 
ATOM      6  C5  UNL d   1      -1.010  -2.962  -5.708  0.00  0.00     0.003 A 
ATOM      7  I   UNL d   1      -4.095  -6.000  -6.000  0.00  0.00    -0.146 I 
ENDROOT
TORSDOF 0
ENDMDL
