MODEL 1
REMARK minimizedAffinity 6.27239704
REMARK minimizedRMSD -1
REMARK  0 active torsions:
REMARK  status: ('A' for Active; 'I' for Inactive)
ROOT
ATOM      1  C   UNL d   1      -1.544  -4.535  -5.263  0.00  0.00     0.023 A 
ATOM      2  C1  UNL d   1      -2.167  -5.582  -5.943  0.00  0.00     0.003 A 
ATOM      3  C2  UNL d   1      -3.444  -6.000  -5.565  0.00  0.00     0.048 A 
ATOM      4  C3  UNL d   1      -4.094  -5.365  -4.506  0.00  0.00     0.023 A 
ATOM      5  C4  UNL d   1      -3.475  -4.317  -3.824  0.00  0.00     0.048 A 
ATOM      6  C5  UNL d   1      -2.198  -3.903  -4.205  0.00  0.00     0.003 A 
ATOM      7  I   UNL d   1      -5.996  -5.985  -3.941  0.00  0.00    -0.146 I 
ENDROOT
TORSDOF 0
ENDMDL
