MODEL 1
REMARK minimizedAffinity 0.0470978618
REMARK minimizedRMSD -1
REMARK  2 active torsions:
REMARK  status: ('A' for Active; 'I' for Inactive)
REMARK    1  A    between atoms: C2'_3  and  C1'_4 
REMARK    2  A    between atoms: C1'_4  and  C1_5 
ROOT
ATOM      1  C1  I4B d   1       4.882   2.743   3.764  0.00  0.00    -0.075 A 
ATOM      2  C2  I4B d   1       5.777   3.663   4.249  0.00  0.00     0.003 A 
ATOM      3  C3  I4B d   1       5.997   4.878   3.555  0.00  0.00     0.002 A 
ATOM      4  C4  I4B d   1       5.341   5.108   2.363  0.00  0.00    -0.004 A 
ATOM      5  C5  I4B d   1       4.417   4.184   1.885  0.00  0.00     0.002 A 
ATOM      6  C6  I4B d   1       4.176   2.999   2.596  0.00  0.00     0.003 A 
ENDROOT
BRANCH   1   7
ATOM      7  C1' I4B d   1       4.699   1.456   4.504  0.00  0.00     0.060 C 
BRANCH   7   8
ATOM      8  C2' I4B d   1       5.931   0.605   4.272  0.00  0.00    -0.013 C 
ATOM      9  C4' I4B d   1       5.894  -0.647   5.108  0.00  0.00     0.013 C 
ATOM     10  C3' I4B d   1       6.000   0.279   2.810  0.00  0.00     0.013 C 
ENDBRANCH   7   8
ENDBRANCH   1   7
TORSDOF 2
ENDMDL
