MODEL 1
REMARK minimizedAffinity -2.21978426
REMARK minimizedRMSD -1
REMARK  2 active torsions:
REMARK  status: ('A' for Active; 'I' for Inactive)
REMARK    1  A    between atoms: C2'_3  and  C1'_4 
REMARK    2  A    between atoms: C1'_4  and  C1_5 
ROOT
ATOM      1  C1  I4B d   1       5.955   2.999   3.087  0.00  0.00    -0.075 A 
ATOM      2  C2  I4B d   1       5.999   3.604   4.318  0.00  0.00     0.003 A 
ATOM      3  C3  I4B d   1       5.995   5.017   4.419  0.00  0.00     0.002 A 
ATOM      4  C4  I4B d   1       5.998   5.780   3.269  0.00  0.00    -0.004 A 
ATOM      5  C5  I4B d   1       5.930   5.165   2.022  0.00  0.00     0.002 A 
ATOM      6  C6  I4B d   1       5.896   3.766   1.931  0.00  0.00     0.003 A 
ENDROOT
BRANCH   1   7
ATOM      7  C1' I4B d   1       5.993   1.505   3.017  0.00  0.00     0.060 C 
BRANCH   7   8
ATOM      8  C2' I4B d   1       5.212   0.962   4.196  0.00  0.00    -0.013 C 
ATOM      9  C4' I4B d   1       4.950  -0.513   4.043  0.00  0.00     0.013 C 
ATOM     10  C3' I4B d   1       5.997   1.246   5.442  0.00  0.00     0.013 C 
ENDBRANCH   7   8
ENDBRANCH   1   7
TORSDOF 2
ENDMDL
