MODEL 1
REMARK minimizedAffinity -0.731224477
REMARK minimizedRMSD -1
REMARK  2 active torsions:
REMARK  status: ('A' for Active; 'I' for Inactive)
REMARK    1  A    between atoms: C2'_3  and  C1'_4 
REMARK    2  A    between atoms: C1'_4  and  C1_5 
ROOT
ATOM      1  C1  I4B d   1       5.888  -0.047   5.194  0.00  0.00    -0.075 A 
ATOM      2  C2  I4B d   1       5.920   0.010   3.823  0.00  0.00     0.003 A 
ATOM      3  C3  I4B d   1       6.000   1.260   3.163  0.00  0.00     0.002 A 
ATOM      4  C4  I4B d   1       5.994   2.423   3.907  0.00  0.00    -0.004 A 
ATOM      5  C5  I4B d   1       5.985   2.362   5.297  0.00  0.00     0.002 A 
ATOM      6  C6  I4B d   1       5.944   1.119   5.946  0.00  0.00     0.003 A 
ENDROOT
BRANCH   1   7
ATOM      7  C1' I4B d   1       5.770  -1.383   5.857  0.00  0.00     0.060 C 
BRANCH   7   8
ATOM      8  C2' I4B d   1       5.790  -2.444   4.775  0.00  0.00    -0.013 C 
ATOM      9  C4' I4B d   1       5.983  -3.817   5.363  0.00  0.00     0.013 C 
ATOM     10  C3' I4B d   1       4.499  -2.356   4.017  0.00  0.00     0.013 C 
ENDBRANCH   7   8
ENDBRANCH   1   7
TORSDOF 2
ENDMDL
