MODEL 1
REMARK minimizedAffinity 1.29882514
REMARK minimizedRMSD -1
REMARK  2 active torsions:
REMARK  status: ('A' for Active; 'I' for Inactive)
REMARK    1  A    between atoms: C2'_3  and  C1'_4 
REMARK    2  A    between atoms: C1'_4  and  C1_5 
ROOT
ATOM      1  C1  I4B d   1       5.810   2.646   3.538  0.00  0.00    -0.075 A 
ATOM      2  C2  I4B d   1       5.866   3.976   3.204  0.00  0.00     0.003 A 
ATOM      3  C3  I4B d   1       5.988   4.960   4.215  0.00  0.00     0.002 A 
ATOM      4  C4  I4B d   1       6.000   4.575   5.541  0.00  0.00    -0.004 A 
ATOM      5  C5  I4B d   1       5.965   3.224   5.876  0.00  0.00     0.002 A 
ATOM      6  C6  I4B d   1       5.882   2.253   4.868  0.00  0.00     0.003 A 
ENDROOT
BRANCH   1   7
ATOM      7  C1' I4B d   1       5.647   1.635   2.447  0.00  0.00     0.060 C 
BRANCH   7   8
ATOM      8  C2' I4B d   1       6.000   0.275   3.014  0.00  0.00    -0.013 C 
ATOM      9  C4' I4B d   1       5.043  -0.124   4.106  0.00  0.00     0.013 C 
ATOM     10  C3' I4B d   1       5.980  -0.715   1.888  0.00  0.00     0.013 C 
ENDBRANCH   7   8
ENDBRANCH   1   7
TORSDOF 2
ENDMDL
