MODEL 1
REMARK minimizedAffinity 3.92743707
REMARK minimizedRMSD -1
REMARK  2 active torsions:
REMARK  status: ('A' for Active; 'I' for Inactive)
REMARK    1  A    between atoms: C2'_3  and  C1'_4 
REMARK    2  A    between atoms: C1'_4  and  C1_5 
ROOT
ATOM      1  C1  I4B d   1       5.834   2.106   4.375  0.00  0.00    -0.075 A 
ATOM      2  C2  I4B d   1       5.705   1.523   5.611  0.00  0.00     0.003 A 
ATOM      3  C3  I4B d   1       5.522   0.123   5.722  0.00  0.00     0.002 A 
ATOM      4  C4  I4B d   1       5.426  -0.643   4.579  0.00  0.00    -0.004 A 
ATOM      5  C5  I4B d   1       5.580  -0.053   3.328  0.00  0.00     0.002 A 
ATOM      6  C6  I4B d   1       5.798   1.329   3.225  0.00  0.00     0.003 A 
ENDROOT
BRANCH   1   7
ATOM      7  C1' I4B d   1       5.993   3.591   4.292  0.00  0.00     0.060 C 
BRANCH   7   8
ATOM      8  C2' I4B d   1       5.856   3.995   2.838  0.00  0.00    -0.013 C 
ATOM      9  C4' I4B d   1       4.539   3.541   2.267  0.00  0.00     0.013 C 
ATOM     10  C3' I4B d   1       5.997   5.486   2.757  0.00  0.00     0.013 C 
ENDBRANCH   7   8
ENDBRANCH   1   7
TORSDOF 2
ENDMDL
