MODEL 1
REMARK minimizedAffinity 3.48683405
REMARK minimizedRMSD -1
REMARK  2 active torsions:
REMARK  status: ('A' for Active; 'I' for Inactive)
REMARK    1  A    between atoms: C2'_3  and  C1'_4 
REMARK    2  A    between atoms: C1'_4  and  C1_5 
ROOT
ATOM      1  C1  I4B d   1       5.942   3.541   4.245  0.00  0.00    -0.075 A 
ATOM      2  C2  I4B d   1       5.997   3.053   2.964  0.00  0.00     0.003 A 
ATOM      3  C3  I4B d   1       6.000   1.656   2.732  0.00  0.00     0.002 A 
ATOM      4  C4  I4B d   1       5.997   0.789   3.806  0.00  0.00    -0.004 A 
ATOM      5  C5  I4B d   1       5.918   1.286   5.104  0.00  0.00     0.002 A 
ATOM      6  C6  I4B d   1       5.877   2.670   5.325  0.00  0.00     0.003 A 
ENDROOT
BRANCH   1   7
ATOM      7  C1' I4B d   1       5.974   5.022   4.455  0.00  0.00     0.060 C 
BRANCH   7   8
ATOM      8  C2' I4B d   1       5.152   5.666   3.358  0.00  0.00    -0.013 C 
ATOM      9  C4' I4B d   1       5.997   5.966   2.148  0.00  0.00     0.013 C 
ATOM     10  C3' I4B d   1       4.026   4.736   3.015  0.00  0.00     0.013 C 
ENDBRANCH   7   8
ENDBRANCH   1   7
TORSDOF 2
ENDMDL
