MODEL 1
REMARK minimizedAffinity 4.2466979
REMARK minimizedRMSD -1
REMARK  2 active torsions:
REMARK  status: ('A' for Active; 'I' for Inactive)
REMARK    1  A    between atoms: C2'_3  and  C1'_4 
REMARK    2  A    between atoms: C1'_4  and  C1_5 
ROOT
ATOM      1  C1  I4B d   1       5.941   1.810   3.973  0.00  0.00    -0.075 A 
ATOM      2  C2  I4B d   1       5.951   2.731   2.956  0.00  0.00     0.003 A 
ATOM      3  C3  I4B d   1       6.000   4.116   3.248  0.00  0.00     0.002 A 
ATOM      4  C4  I4B d   1       5.986   4.533   4.564  0.00  0.00    -0.004 A 
ATOM      5  C5  I4B d   1       6.000   3.597   5.594  0.00  0.00     0.002 A 
ATOM      6  C6  I4B d   1       5.989   2.226   5.297  0.00  0.00     0.003 A 
ENDROOT
BRANCH   1   7
ATOM      7  C1' I4B d   1       5.855   0.356   3.628  0.00  0.00     0.060 C 
BRANCH   7   8
ATOM      8  C2' I4B d   1       5.715  -0.422   4.920  0.00  0.00    -0.013 C 
ATOM      9  C4' I4B d   1       4.824   0.298   5.897  0.00  0.00     0.013 C 
ATOM     10  C3' I4B d   1       5.168  -1.778   4.586  0.00  0.00     0.013 C 
ENDBRANCH   7   8
ENDBRANCH   1   7
TORSDOF 2
ENDMDL
