MODEL 1
REMARK minimizedAffinity -2.54604959
REMARK minimizedRMSD -1
REMARK  2 active torsions:
REMARK  status: ('A' for Active; 'I' for Inactive)
REMARK    1  A    between atoms: C2'_3  and  C1'_4 
REMARK    2  A    between atoms: C1'_4  and  C1_5 
ROOT
ATOM      1  C1  I4B d   1       5.094   2.820   2.897  0.00  0.00    -0.075 A 
ATOM      2  C2  I4B d   1       5.562   1.786   2.125  0.00  0.00     0.003 A 
ATOM      3  C3  I4B d   1       5.981   0.577   2.731  0.00  0.00     0.002 A 
ATOM      4  C4  I4B d   1       5.964   0.464   4.106  0.00  0.00    -0.004 A 
ATOM      5  C5  I4B d   1       5.467   1.505   4.886  0.00  0.00     0.002 A 
ATOM      6  C6  I4B d   1       5.018   2.686   4.277  0.00  0.00     0.003 A 
ENDROOT
BRANCH   1   7
ATOM      7  C1' I4B d   1       4.690   4.095   2.226  0.00  0.00     0.060 C 
BRANCH   7   8
ATOM      8  C2' I4B d   1       5.934   4.939   2.041  0.00  0.00    -0.013 C 
ATOM      9  C4' I4B d   1       5.937   5.618   0.696  0.00  0.00     0.013 C 
ATOM     10  C3' I4B d   1       5.982   5.943   3.154  0.00  0.00     0.013 C 
ENDBRANCH   7   8
ENDBRANCH   1   7
TORSDOF 2
ENDMDL
