MODEL 1
REMARK minimizedAffinity 3.02934837
REMARK minimizedRMSD -1
REMARK  2 active torsions:
REMARK  status: ('A' for Active; 'I' for Inactive)
REMARK    1  A    between atoms: C2'_3  and  C1'_4 
REMARK    2  A    between atoms: C1'_4  and  C1_5 
ROOT
ATOM      1  C1  I4B d   1       5.797   1.859   4.738  0.00  0.00    -0.075 A 
ATOM      2  C2  I4B d   1       5.401   0.686   5.330  0.00  0.00     0.003 A 
ATOM      3  C3  I4B d   1       5.183  -0.471   4.544  0.00  0.00     0.002 A 
ATOM      4  C4  I4B d   1       5.323  -0.398   3.173  0.00  0.00    -0.004 A 
ATOM      5  C5  I4B d   1       5.747   0.786   2.577  0.00  0.00     0.002 A 
ATOM      6  C6  I4B d   1       5.998   1.919   3.365  0.00  0.00     0.003 A 
ENDROOT
BRANCH   1   7
ATOM      7  C1' I4B d   1       5.986   3.071   5.594  0.00  0.00     0.060 C 
BRANCH   7   8
ATOM      8  C2' I4B d   1       5.509   4.276   4.809  0.00  0.00    -0.013 C 
ATOM      9  C4' I4B d   1       5.997   5.559   5.429  0.00  0.00     0.013 C 
ATOM     10  C3' I4B d   1       6.000   4.135   3.399  0.00  0.00     0.013 C 
ENDBRANCH   7   8
ENDBRANCH   1   7
TORSDOF 2
ENDMDL
