MODEL 1
REMARK minimizedAffinity -2.66661048
REMARK minimizedRMSD -1
REMARK  2 active torsions:
REMARK  status: ('A' for Active; 'I' for Inactive)
REMARK    1  A    between atoms: C2'_3  and  C1'_4 
REMARK    2  A    between atoms: C1'_4  and  C1_5 
ROOT
ATOM      1  C1  I4B d   1       5.052   2.038   3.549  0.00  0.00    -0.075 A 
ATOM      2  C2  I4B d   1       5.567   1.086   2.704  0.00  0.00     0.003 A 
ATOM      3  C3  I4B d   1       6.000  -0.161   3.215  0.00  0.00     0.002 A 
ATOM      4  C4  I4B d   1       5.947  -0.395   4.574  0.00  0.00    -0.004 A 
ATOM      5  C5  I4B d   1       5.404   0.562   5.426  0.00  0.00     0.002 A 
ATOM      6  C6  I4B d   1       4.942   1.782   4.909  0.00  0.00     0.003 A 
ENDROOT
BRANCH   1   7
ATOM      7  C1' I4B d   1       4.635   3.357   2.980  0.00  0.00     0.060 C 
BRANCH   7   8
ATOM      8  C2' I4B d   1       5.871   4.225   2.858  0.00  0.00    -0.013 C 
ATOM      9  C4' I4B d   1       5.930   4.903   1.515  0.00  0.00     0.013 C 
ATOM     10  C3' I4B d   1       5.843   5.229   3.971  0.00  0.00     0.013 C 
ENDBRANCH   7   8
ENDBRANCH   1   7
TORSDOF 2
ENDMDL
