MODEL 1
REMARK minimizedAffinity 2.5276742
REMARK minimizedRMSD -1
REMARK  2 active torsions:
REMARK  status: ('A' for Active; 'I' for Inactive)
REMARK    1  A    between atoms: C2'_3  and  C1'_4 
REMARK    2  A    between atoms: C1'_4  and  C1_5 
ROOT
ATOM      1  C1  I4B d   1       5.955   1.855   3.697  0.00  0.00    -0.075 A 
ATOM      2  C2  I4B d   1       5.943   2.531   4.892  0.00  0.00     0.003 A 
ATOM      3  C3  I4B d   1       5.939   3.946   4.910  0.00  0.00     0.002 A 
ATOM      4  C4  I4B d   1       5.998   4.642   3.720  0.00  0.00    -0.004 A 
ATOM      5  C5  I4B d   1       5.988   3.955   2.509  0.00  0.00     0.002 A 
ATOM      6  C6  I4B d   1       5.954   2.553   2.497  0.00  0.00     0.003 A 
ENDROOT
BRANCH   1   7
ATOM      7  C1' I4B d   1       5.993   0.360   3.715  0.00  0.00     0.060 C 
BRANCH   7   8
ATOM      8  C2' I4B d   1       5.779  -0.130   2.297  0.00  0.00    -0.013 C 
ATOM      9  C4' I4B d   1       5.989  -1.617   2.196  0.00  0.00     0.013 C 
ATOM     10  C3' I4B d   1       4.389   0.250   1.881  0.00  0.00     0.013 C 
ENDBRANCH   7   8
ENDBRANCH   1   7
TORSDOF 2
ENDMDL
