MODEL 1
REMARK minimizedAffinity 8.31965065
REMARK minimizedRMSD -1
REMARK  2 active torsions:
REMARK  status: ('A' for Active; 'I' for Inactive)
REMARK    1  A    between atoms: C2'_3  and  C1'_4 
REMARK    2  A    between atoms: C1'_4  and  C1_5 
ROOT
ATOM      1  C1  I4B d   1      -1.502   2.223   4.044  0.00  0.00    -0.075 A 
ATOM      2  C2  I4B d   1      -0.238   2.723   3.856  0.00  0.00     0.003 A 
ATOM      3  C3  I4B d   1      -0.057   4.035   3.355  0.00  0.00     0.002 A 
ATOM      4  C4  I4B d   1      -1.160   4.789   3.010  0.00  0.00    -0.004 A 
ATOM      5  C5  I4B d   1      -2.442   4.289   3.223  0.00  0.00     0.002 A 
ATOM      6  C6  I4B d   1      -2.615   3.003   3.755  0.00  0.00     0.003 A 
ENDROOT
BRANCH   1   7
ATOM      7  C1' I4B d   1      -1.656   0.822   4.544  0.00  0.00     0.060 C 
BRANCH   7   8
ATOM      8  C2' I4B d   1      -1.887  -0.078   3.347  0.00  0.00    -0.013 C 
ATOM      9  C4' I4B d   1      -0.588  -0.637   2.828  0.00  0.00     0.013 C 
ATOM     10  C3' I4B d   1      -2.820  -1.174   3.765  0.00  0.00     0.013 C 
ENDBRANCH   7   8
ENDBRANCH   1   7
TORSDOF 2
ENDMDL
