MODEL 1
REMARK minimizedAffinity 8.22749519
REMARK minimizedRMSD -1
REMARK  2 active torsions:
REMARK  status: ('A' for Active; 'I' for Inactive)
REMARK    1  A    between atoms: C2'_3  and  C1'_4 
REMARK    2  A    between atoms: C1'_4  and  C1_5 
ROOT
ATOM      1  C1  I4B d   1       2.661   0.481  -4.021  0.00  0.00    -0.075 A 
ATOM      2  C2  I4B d   1       3.564   0.872  -3.064  0.00  0.00     0.003 A 
ATOM      3  C3  I4B d   1       3.481   0.350  -1.750  0.00  0.00     0.002 A 
ATOM      4  C4  I4B d   1       2.456  -0.516  -1.426  0.00  0.00    -0.004 A 
ATOM      5  C5  I4B d   1       1.555  -0.928  -2.404  0.00  0.00     0.002 A 
ATOM      6  C6  I4B d   1       1.665  -0.437  -3.713  0.00  0.00     0.003 A 
ENDROOT
BRANCH   1   7
ATOM      7  C1' I4B d   1       2.758   1.077  -5.390  0.00  0.00     0.060 C 
BRANCH   7   8
ATOM      8  C2' I4B d   1       3.735   2.233  -5.327  0.00  0.00    -0.013 C 
ATOM      9  C4' I4B d   1       5.037   1.884  -5.999  0.00  0.00     0.013 C 
ATOM     10  C3' I4B d   1       3.091   3.420  -5.979  0.00  0.00     0.013 C 
ENDBRANCH   7   8
ENDBRANCH   1   7
TORSDOF 2
ENDMDL
