MODEL 1
REMARK minimizedAffinity 8.17845821
REMARK minimizedRMSD -1
REMARK  2 active torsions:
REMARK  status: ('A' for Active; 'I' for Inactive)
REMARK    1  A    between atoms: C2'_3  and  C1'_4 
REMARK    2  A    between atoms: C1'_4  and  C1_5 
ROOT
ATOM      1  C1  I4B d   1       5.979   1.654   3.700  0.00  0.00    -0.075 A 
ATOM      2  C2  I4B d   1       5.984   2.237   2.457  0.00  0.00     0.003 A 
ATOM      3  C3  I4B d   1       6.000   3.647   2.331  0.00  0.00     0.002 A 
ATOM      4  C4  I4B d   1       5.958   4.431   3.466  0.00  0.00    -0.004 A 
ATOM      5  C5  I4B d   1       5.976   3.839   4.725  0.00  0.00     0.002 A 
ATOM      6  C6  I4B d   1       5.999   2.442   4.844  0.00  0.00     0.003 A 
ENDROOT
BRANCH   1   7
ATOM      7  C1' I4B d   1       5.929   0.162   3.796  0.00  0.00     0.060 C 
BRANCH   7   8
ATOM      8  C2' I4B d   1       4.506  -0.237   4.133  0.00  0.00    -0.013 C 
ATOM      9  C4' I4B d   1       4.323  -1.729   4.043  0.00  0.00     0.013 C 
ATOM     10  C3' I4B d   1       4.199   0.265   5.512  0.00  0.00     0.013 C 
ENDBRANCH   7   8
ENDBRANCH   1   7
TORSDOF 2
ENDMDL
