MODEL 1
REMARK minimizedAffinity -1.55859625
REMARK minimizedRMSD -1
REMARK  2 active torsions:
REMARK  status: ('A' for Active; 'I' for Inactive)
REMARK    1  A    between atoms: C2'_3  and  C1'_4 
REMARK    2  A    between atoms: C1'_4  and  C1_5 
ROOT
ATOM      1  C1  I4B d   1       4.939   2.060   3.587  0.00  0.00    -0.075 A 
ATOM      2  C2  I4B d   1       4.528   0.851   3.085  0.00  0.00     0.003 A 
ATOM      3  C3  I4B d   1       4.839  -0.349   3.770  0.00  0.00     0.002 A 
ATOM      4  C4  I4B d   1       5.602  -0.297   4.919  0.00  0.00    -0.004 A 
ATOM      5  C5  I4B d   1       5.999   0.931   5.439  0.00  0.00     0.002 A 
ATOM      6  C6  I4B d   1       5.656   2.119   4.776  0.00  0.00     0.003 A 
ENDROOT
BRANCH   1   7
ATOM      7  C1' I4B d   1       4.622   3.305   2.821  0.00  0.00     0.060 C 
BRANCH   7   8
ATOM      8  C2' I4B d   1       5.918   4.052   2.585  0.00  0.00    -0.013 C 
ATOM      9  C4' I4B d   1       5.995   4.580   1.177  0.00  0.00     0.013 C 
ATOM     10  C3' I4B d   1       5.999   5.165   3.586  0.00  0.00     0.013 C 
ENDBRANCH   7   8
ENDBRANCH   1   7
TORSDOF 2
ENDMDL
