MODEL 1
REMARK minimizedAffinity -0.308629572
REMARK minimizedRMSD -1
REMARK  2 active torsions:
REMARK  status: ('A' for Active; 'I' for Inactive)
REMARK    1  A    between atoms: C2'_3  and  C1'_4 
REMARK    2  A    between atoms: C1'_4  and  C1_5 
ROOT
ATOM      1  C1  I4B d   1       5.876   1.372   4.689  0.00  0.00    -0.075 A 
ATOM      2  C2  I4B d   1       5.666   0.750   5.895  0.00  0.00     0.003 A 
ATOM      3  C3  I4B d   1       5.549  -0.659   5.960  0.00  0.00     0.002 A 
ATOM      4  C4  I4B d   1       5.595  -1.399   4.797  0.00  0.00    -0.004 A 
ATOM      5  C5  I4B d   1       5.830  -0.770   3.578  0.00  0.00     0.002 A 
ATOM      6  C6  I4B d   1       5.984   0.623   3.525  0.00  0.00     0.003 A 
ENDROOT
BRANCH   1   7
ATOM      7  C1' I4B d   1       5.962   2.864   4.653  0.00  0.00     0.060 C 
BRANCH   7   8
ATOM      8  C2' I4B d   1       5.914   3.300   3.203  0.00  0.00    -0.013 C 
ATOM      9  C4' I4B d   1       4.660   2.810   2.528  0.00  0.00     0.013 C 
ATOM     10  C3' I4B d   1       6.000   4.796   3.165  0.00  0.00     0.013 C 
ENDBRANCH   7   8
ENDBRANCH   1   7
TORSDOF 2
ENDMDL
