MODEL 1
REMARK minimizedAffinity 0.827854812
REMARK minimizedRMSD -1
REMARK  2 active torsions:
REMARK  status: ('A' for Active; 'I' for Inactive)
REMARK    1  A    between atoms: C2'_3  and  C1'_4 
REMARK    2  A    between atoms: C1'_4  and  C1_5 
ROOT
ATOM      1  C1  I4B d   1       5.728   1.316   4.716  0.00  0.00    -0.075 A 
ATOM      2  C2  I4B d   1       5.633   0.675   5.926  0.00  0.00     0.003 A 
ATOM      3  C3  I4B d   1       5.732  -0.735   5.995  0.00  0.00     0.002 A 
ATOM      4  C4  I4B d   1       5.876  -1.464   4.832  0.00  0.00    -0.004 A 
ATOM      5  C5  I4B d   1       5.996  -0.812   3.609  0.00  0.00     0.002 A 
ATOM      6  C6  I4B d   1       5.934   0.588   3.551  0.00  0.00     0.003 A 
ENDROOT
BRANCH   1   7
ATOM      7  C1' I4B d   1       5.586   2.805   4.675  0.00  0.00     0.060 C 
BRANCH   7   8
ATOM      8  C2' I4B d   1       5.690   3.244   3.229  0.00  0.00    -0.013 C 
ATOM      9  C4' I4B d   1       4.424   2.936   2.473  0.00  0.00     0.013 C 
ATOM     10  C3' I4B d   1       5.986   4.714   3.212  0.00  0.00     0.013 C 
ENDBRANCH   7   8
ENDBRANCH   1   7
TORSDOF 2
ENDMDL
