MODEL 1
REMARK minimizedAffinity 4.97768831
REMARK minimizedRMSD -1
REMARK  2 active torsions:
REMARK  status: ('A' for Active; 'I' for Inactive)
REMARK    1  A    between atoms: C1_2  and  C2_3 
REMARK    2  A    between atoms: C2_3  and  C3_4 
ROOT
ATOM      1  C3  UNL d   1       1.132   4.540  -4.083  0.00  0.00    -0.075 A 
ATOM      2  C4  UNL d   1       1.500   5.492  -5.046  0.00  0.00     0.002 A 
ATOM      3  C5  UNL d   1       0.577   5.933  -5.994  0.00  0.00     0.002 A 
ATOM      4  C6  UNL d   1      -0.719   5.422  -6.000  0.00  0.00    -0.004 A 
ATOM      5  C7  UNL d   1      -1.091   4.464  -5.058  0.00  0.00     0.002 A 
ATOM      6  C8  UNL d   1      -0.171   4.025  -4.105  0.00  0.00     0.002 A 
ENDROOT
BRANCH   1   7
ATOM      7  C2  UNL d   1       2.117   4.081  -3.035  0.00  0.00     0.056 C 
BRANCH   7   8
ATOM      8  C1  UNL d   1       1.528   3.108  -2.009  0.00  0.00     0.007 C 
ATOM      9  C   UNL d   1       1.935   1.660  -2.252  0.00  0.00     0.009 C 
ENDBRANCH   7   8
ENDBRANCH   1   7
TORSDOF 2
ENDMDL
