MODEL 1
REMARK minimizedAffinity 2.70698857
REMARK minimizedRMSD -1
REMARK  2 active torsions:
REMARK  status: ('A' for Active; 'I' for Inactive)
REMARK    1  A    between atoms: C1_2  and  C2_3 
REMARK    2  A    between atoms: C2_3  and  C3_4 
ROOT
ATOM      1  C3  UNL d   1       0.435   4.541  -3.867  0.00  0.00    -0.075 A 
ATOM      2  C4  UNL d   1      -0.544   5.303  -3.215  0.00  0.00     0.002 A 
ATOM      3  C5  UNL d   1      -1.505   5.999  -3.948  0.00  0.00     0.002 A 
ATOM      4  C6  UNL d   1      -1.493   5.952  -5.340  0.00  0.00    -0.004 A 
ATOM      5  C7  UNL d   1      -0.514   5.212  -6.000  0.00  0.00     0.002 A 
ATOM      6  C8  UNL d   1       0.446   4.510  -5.268  0.00  0.00     0.002 A 
ENDROOT
BRANCH   1   7
ATOM      7  C2  UNL d   1       1.460   3.760  -3.079  0.00  0.00     0.056 C 
BRANCH   7   8
ATOM      8  C1  UNL d   1       1.124   2.274  -2.919  0.00  0.00     0.007 C 
ATOM      9  C   UNL d   1       0.753   1.892  -1.492  0.00  0.00     0.009 C 
ENDBRANCH   7   8
ENDBRANCH   1   7
TORSDOF 2
ENDMDL
