MODEL 1
REMARK minimizedAffinity 6.39639044
REMARK minimizedRMSD -1
REMARK  2 active torsions:
REMARK  status: ('A' for Active; 'I' for Inactive)
REMARK    1  A    between atoms: C1_2  and  C2_3 
REMARK    2  A    between atoms: C2_3  and  C3_4 
ROOT
ATOM      1  C3  UNL d   1      -0.981  -4.770  -0.755  0.00  0.00    -0.075 A 
ATOM      2  C4  UNL d   1      -1.427  -4.025   0.346  0.00  0.00     0.002 A 
ATOM      3  C5  UNL d   1      -0.529  -3.610   1.330  0.00  0.00     0.002 A 
ATOM      4  C6  UNL d   1       0.821  -3.942   1.231  0.00  0.00    -0.004 A 
ATOM      5  C7  UNL d   1       1.271  -4.695   0.149  0.00  0.00     0.002 A 
ATOM      6  C8  UNL d   1       0.376  -5.108  -0.839  0.00  0.00     0.002 A 
ENDROOT
BRANCH   1   7
ATOM      7  C2  UNL d   1      -1.943  -5.197  -1.839  0.00  0.00     0.056 C 
BRANCH   7   8
ATOM      8  C1  UNL d   1      -1.483  -4.840  -3.256  0.00  0.00     0.007 C 
ATOM      9  C   UNL d   1      -1.700  -5.966  -4.259  0.00  0.00     0.009 C 
ENDBRANCH   7   8
ENDBRANCH   1   7
TORSDOF 2
ENDMDL
