MODEL 1
REMARK minimizedAffinity 12.9129534
REMARK minimizedRMSD -1
REMARK  2 active torsions:
REMARK  status: ('A' for Active; 'I' for Inactive)
REMARK    1  A    between atoms: C1_2  and  C2_3 
REMARK    2  A    between atoms: C2_3  and  C3_4 
ROOT
ATOM      1  C3  UNL d   1       3.590   1.489  -1.824  0.00  0.00    -0.075 A 
ATOM      2  C4  UNL d   1       2.445   2.263  -2.064  0.00  0.00     0.002 A 
ATOM      3  C5  UNL d   1       1.400   2.287  -1.140  0.00  0.00     0.002 A 
ATOM      4  C6  UNL d   1       1.481   1.532   0.027  0.00  0.00    -0.004 A 
ATOM      5  C7  UNL d   1       2.606   0.746   0.268  0.00  0.00     0.002 A 
ATOM      6  C8  UNL d   1       3.655   0.724  -0.652  0.00  0.00     0.002 A 
ENDROOT
BRANCH   1   7
ATOM      7  C2  UNL d   1       4.737   1.481  -2.806  0.00  0.00     0.056 C 
BRANCH   7   8
ATOM      8  C1  UNL d   1       5.986   2.219  -2.312  0.00  0.00     0.007 C 
ATOM      9  C   UNL d   1       5.999   3.695  -2.688  0.00  0.00     0.009 C 
ENDBRANCH   7   8
ENDBRANCH   1   7
TORSDOF 2
ENDMDL
