MODEL 1
REMARK minimizedAffinity 4.06469345
REMARK minimizedRMSD -1
REMARK  2 active torsions:
REMARK  status: ('A' for Active; 'I' for Inactive)
REMARK    1  A    between atoms: C1_2  and  C2_3 
REMARK    2  A    between atoms: C2_3  and  C3_4 
ROOT
ATOM      1  C3  UNL d   1       1.069   3.759  -3.443  0.00  0.00    -0.075 A 
ATOM      2  C4  UNL d   1      -0.179   3.715  -4.081  0.00  0.00     0.002 A 
ATOM      3  C5  UNL d   1      -0.379   4.378  -5.292  0.00  0.00     0.002 A 
ATOM      4  C6  UNL d   1       0.660   5.101  -5.874  0.00  0.00    -0.004 A 
ATOM      5  C7  UNL d   1       1.899   5.165  -5.241  0.00  0.00     0.002 A 
ATOM      6  C8  UNL d   1       2.104   4.499  -4.032  0.00  0.00     0.002 A 
ENDROOT
BRANCH   1   7
ATOM      7  C2  UNL d   1       1.301   3.019  -2.148  0.00  0.00     0.056 C 
BRANCH   7   8
ATOM      8  C1  UNL d   1       1.365   1.496  -2.302  0.00  0.00     0.007 C 
ATOM      9  C   UNL d   1       2.232   0.822  -1.247  0.00  0.00     0.009 C 
ENDBRANCH   7   8
ENDBRANCH   1   7
TORSDOF 2
ENDMDL
