MODEL 1
REMARK minimizedAffinity 7.13583422
REMARK minimizedRMSD -1
REMARK  2 active torsions:
REMARK  status: ('A' for Active; 'I' for Inactive)
REMARK    1  A    between atoms: C1_2  and  C2_3 
REMARK    2  A    between atoms: C2_3  and  C3_4 
ROOT
ATOM      1  C3  UNL d   1       0.707   3.142  -3.158  0.00  0.00    -0.075 A 
ATOM      2  C4  UNL d   1      -0.233   3.502  -4.134  0.00  0.00     0.002 A 
ATOM      3  C5  UNL d   1       0.031   4.546  -5.021  0.00  0.00     0.002 A 
ATOM      4  C6  UNL d   1       1.232   5.248  -4.938  0.00  0.00    -0.004 A 
ATOM      5  C7  UNL d   1       2.166   4.909  -3.962  0.00  0.00     0.002 A 
ATOM      6  C8  UNL d   1       1.906   3.863  -3.075  0.00  0.00     0.002 A 
ENDROOT
BRANCH   1   7
ATOM      7  C2  UNL d   1       0.440   1.995  -2.213  0.00  0.00     0.056 C 
BRANCH   7   8
ATOM      8  C1  UNL d   1       1.550   1.763  -1.183  0.00  0.00     0.007 C 
ATOM      9  C   UNL d   1       1.036   1.691   0.248  0.00  0.00     0.009 C 
ENDBRANCH   7   8
ENDBRANCH   1   7
TORSDOF 2
ENDMDL
