MODEL 1
REMARK minimizedAffinity 10.1629877
REMARK minimizedRMSD -1
REMARK  2 active torsions:
REMARK  status: ('A' for Active; 'I' for Inactive)
REMARK    1  A    between atoms: C1_2  and  C2_3 
REMARK    2  A    between atoms: C2_3  and  C3_4 
ROOT
ATOM      1  C3  UNL d   1       2.830   0.211  -0.085  0.00  0.00    -0.075 A 
ATOM      2  C4  UNL d   1       3.346   0.486  -1.359  0.00  0.00     0.002 A 
ATOM      3  C5  UNL d   1       2.835   1.539  -2.119  0.00  0.00     0.002 A 
ATOM      4  C6  UNL d   1       1.797   2.322  -1.619  0.00  0.00    -0.004 A 
ATOM      5  C7  UNL d   1       1.265   2.048  -0.361  0.00  0.00     0.002 A 
ATOM      6  C8  UNL d   1       1.777   0.998   0.403  0.00  0.00     0.002 A 
ENDROOT
BRANCH   1   7
ATOM      7  C2  UNL d   1       3.398  -0.908   0.754  0.00  0.00     0.056 C 
BRANCH   7   8
ATOM      8  C1  UNL d   1       3.027  -0.825   2.239  0.00  0.00     0.007 C 
ATOM      9  C   UNL d   1       2.152  -1.981   2.705  0.00  0.00     0.009 C 
ENDBRANCH   7   8
ENDBRANCH   1   7
TORSDOF 2
ENDMDL
