MODEL 1
REMARK minimizedAffinity 11.3110762
REMARK minimizedRMSD -1
REMARK  2 active torsions:
REMARK  status: ('A' for Active; 'I' for Inactive)
REMARK    1  A    between atoms: C1_2  and  C2_3 
REMARK    2  A    between atoms: C2_3  and  C3_4 
ROOT
ATOM      1  C3  UNL d   1       1.800   1.672  -1.183  0.00  0.00    -0.075 A 
ATOM      2  C4  UNL d   1       2.758   0.664  -1.003  0.00  0.00     0.002 A 
ATOM      3  C5  UNL d   1       3.251   0.375   0.270  0.00  0.00     0.002 A 
ATOM      4  C6  UNL d   1       2.801   1.095   1.375  0.00  0.00    -0.004 A 
ATOM      5  C7  UNL d   1       1.862   2.111   1.205  0.00  0.00     0.002 A 
ATOM      6  C8  UNL d   1       1.364   2.399  -0.067  0.00  0.00     0.002 A 
ENDROOT
BRANCH   1   7
ATOM      7  C2  UNL d   1       1.241   1.970  -2.554  0.00  0.00     0.056 C 
BRANCH   7   8
ATOM      8  C1  UNL d   1       0.780   3.420  -2.738  0.00  0.00     0.007 C 
ATOM      9  C   UNL d   1       1.581   4.175  -3.791  0.00  0.00     0.009 C 
ENDBRANCH   7   8
ENDBRANCH   1   7
TORSDOF 2
ENDMDL
