MODEL 1
REMARK minimizedAffinity 1.17602015
REMARK minimizedRMSD -1
REMARK  2 active torsions:
REMARK  status: ('A' for Active; 'I' for Inactive)
REMARK    1  A    between atoms: C1_2  and  C2_3 
REMARK    2  A    between atoms: C2_3  and  C3_4 
ROOT
ATOM      1  C3  UNL d   1       2.060   3.765  -3.500  0.00  0.00    -0.075 A 
ATOM      2  C4  UNL d   1       2.290   2.940  -2.389  0.00  0.00     0.002 A 
ATOM      3  C5  UNL d   1       3.471   2.204  -2.286  0.00  0.00     0.002 A 
ATOM      4  C6  UNL d   1       4.429   2.274  -3.294  0.00  0.00    -0.004 A 
ATOM      5  C7  UNL d   1       4.204   3.078  -4.410  0.00  0.00     0.002 A 
ATOM      6  C8  UNL d   1       3.026   3.819  -4.513  0.00  0.00     0.002 A 
ENDROOT
BRANCH   1   7
ATOM      7  C2  UNL d   1       0.798   4.588  -3.603  0.00  0.00     0.056 C 
BRANCH   7   8
ATOM      8  C1  UNL d   1      -0.036   4.614  -2.318  0.00  0.00     0.007 C 
ATOM      9  C   UNL d   1      -0.079   5.986  -1.658  0.00  0.00     0.009 C 
ENDBRANCH   7   8
ENDBRANCH   1   7
TORSDOF 2
ENDMDL
