MODEL 1
REMARK minimizedAffinity 9.75631142
REMARK minimizedRMSD -1
REMARK  2 active torsions:
REMARK  status: ('A' for Active; 'I' for Inactive)
REMARK    1  A    between atoms: C1_2  and  C2_3 
REMARK    2  A    between atoms: C2_3  and  C3_4 
ROOT
ATOM      1  C3  UNL d   1       1.568   2.034  -2.204  0.00  0.00    -0.075 A 
ATOM      2  C4  UNL d   1       0.205   1.784  -2.421  0.00  0.00     0.002 A 
ATOM      3  C5  UNL d   1      -0.569   2.673  -3.167  0.00  0.00     0.002 A 
ATOM      4  C6  UNL d   1       0.006   3.827  -3.696  0.00  0.00    -0.004 A 
ATOM      5  C7  UNL d   1       1.355   4.094  -3.474  0.00  0.00     0.002 A 
ATOM      6  C8  UNL d   1       2.133   3.203  -2.732  0.00  0.00     0.002 A 
ENDROOT
BRANCH   1   7
ATOM      7  C2  UNL d   1       2.418   1.061  -1.423  0.00  0.00     0.056 C 
BRANCH   7   8
ATOM      8  C1  UNL d   1       2.159   1.081   0.087  0.00  0.00     0.007 C 
ATOM      9  C   UNL d   1       2.962   0.033   0.847  0.00  0.00     0.009 C 
ENDBRANCH   7   8
ENDBRANCH   1   7
TORSDOF 2
ENDMDL
