MODEL 1
REMARK minimizedAffinity 19.2495022
REMARK minimizedRMSD -1
REMARK  2 active torsions:
REMARK  status: ('A' for Active; 'I' for Inactive)
REMARK    1  A    between atoms: C1_2  and  C2_3 
REMARK    2  A    between atoms: C2_3  and  C3_4 
ROOT
ATOM      1  C3  UNL d   1      -5.980  -2.141  -4.381  0.00  0.00    -0.075 A 
ATOM      2  C4  UNL d   1      -5.964  -1.578  -3.096  0.00  0.00     0.002 A 
ATOM      3  C5  UNL d   1      -5.979  -0.193  -2.929  0.00  0.00     0.002 A 
ATOM      4  C6  UNL d   1      -6.000   0.645  -4.041  0.00  0.00    -0.004 A 
ATOM      5  C7  UNL d   1      -5.999   0.098  -5.323  0.00  0.00     0.002 A 
ATOM      6  C8  UNL d   1      -5.988  -1.288  -5.493  0.00  0.00     0.002 A 
ENDROOT
BRANCH   1   7
ATOM      7  C2  UNL d   1      -5.993  -3.639  -4.568  0.00  0.00     0.056 C 
BRANCH   7   8
ATOM      8  C1  UNL d   1      -5.057  -4.395  -3.619  0.00  0.00     0.007 C 
ATOM      9  C   UNL d   1      -4.459  -5.650  -4.239  0.00  0.00     0.009 C 
ENDBRANCH   7   8
ENDBRANCH   1   7
TORSDOF 2
ENDMDL
