MODEL 1
REMARK minimizedAffinity 2.77223253
REMARK minimizedRMSD -1
REMARK  2 active torsions:
REMARK  status: ('A' for Active; 'I' for Inactive)
REMARK    1  A    between atoms: C1_2  and  C2_3 
REMARK    2  A    between atoms: C2_3  and  C3_4 
ROOT
ATOM      1  C3  UNL d   1       3.372   3.019  -3.548  0.00  0.00    -0.075 A 
ATOM      2  C4  UNL d   1       2.447   2.468  -2.649  0.00  0.00     0.002 A 
ATOM      3  C5  UNL d   1       1.124   2.911  -2.633  0.00  0.00     0.002 A 
ATOM      4  C6  UNL d   1       0.713   3.915  -3.506  0.00  0.00    -0.004 A 
ATOM      5  C7  UNL d   1       1.627   4.481  -4.392  0.00  0.00     0.002 A 
ATOM      6  C8  UNL d   1       2.950   4.037  -4.413  0.00  0.00     0.002 A 
ENDROOT
BRANCH   1   7
ATOM      7  C2  UNL d   1       4.798   2.523  -3.590  0.00  0.00     0.056 C 
BRANCH   7   8
ATOM      8  C1  UNL d   1       5.007   1.301  -4.491  0.00  0.00     0.007 C 
ATOM      9  C   UNL d   1       4.522   1.518  -5.918  0.00  0.00     0.009 C 
ENDBRANCH   7   8
ENDBRANCH   1   7
TORSDOF 2
ENDMDL
