MODEL 1
REMARK minimizedAffinity -2.08621907
REMARK minimizedRMSD -1
REMARK  2 active torsions:
REMARK  status: ('A' for Active; 'I' for Inactive)
REMARK    1  A    between atoms: C1_2  and  C2_3 
REMARK    2  A    between atoms: C2_3  and  C3_4 
ROOT
ATOM      1  C3  UNL d   1       1.309   2.363  -2.767  0.00  0.00    -0.075 A 
ATOM      2  C4  UNL d   1       2.569   2.941  -2.983  0.00  0.00     0.002 A 
ATOM      3  C5  UNL d   1       2.705   4.054  -3.813  0.00  0.00     0.002 A 
ATOM      4  C6  UNL d   1       1.588   4.597  -4.444  0.00  0.00    -0.004 A 
ATOM      5  C7  UNL d   1       0.335   4.021  -4.250  0.00  0.00     0.002 A 
ATOM      6  C8  UNL d   1       0.195   2.910  -3.417  0.00  0.00     0.002 A 
ENDROOT
BRANCH   1   7
ATOM      7  C2  UNL d   1       1.151   1.177  -1.847  0.00  0.00     0.056 C 
BRANCH   7   8
ATOM      8  C1  UNL d   1       1.085   1.544  -0.361  0.00  0.00     0.007 C 
ATOM      9  C   UNL d   1       2.417   1.378   0.358  0.00  0.00     0.009 C 
ENDBRANCH   7   8
ENDBRANCH   1   7
TORSDOF 2
ENDMDL
