MODEL 1
REMARK minimizedAffinity 6.04033232
REMARK minimizedRMSD -1
REMARK  0 active torsions:
REMARK  status: ('A' for Active; 'I' for Inactive)
ROOT
ATOM      1  N1  IND d   1      -3.484  -0.748  -1.890  0.00  0.00    -0.196 N 
ATOM      2  C2  IND d   1      -3.832  -0.264  -0.659  0.00  0.00     0.054 A 
ATOM      3  C3  IND d   1      -2.940   0.666  -0.250  0.00  0.00    -0.031 A 
ATOM      4  C4  IND d   1      -0.891   1.621  -1.483  0.00  0.00     0.051 A 
ATOM      5  C5  IND d   1      -0.148   1.464  -2.619  0.00  0.00    -0.031 A 
ATOM      6  C6  IND d   1      -0.487   0.545  -3.591  0.00  0.00     0.015 A 
ATOM      7  C7  IND d   1      -1.594  -0.247  -3.468  0.00  0.00    -0.016 A 
ATOM      8  C8  IND d   1      -2.347  -0.095  -2.312  0.00  0.00    -0.047 A 
ATOM      9  C9  IND d   1      -1.984   0.805  -1.302  0.00  0.00    -0.096 A 
ATOM     10  HN1 IND d   1      -3.905  -1.358  -2.326  0.00  0.00     0.298 HD
ENDROOT
TORSDOF 0
ENDMDL
