MODEL 1
REMARK minimizedAffinity -1.34358454
REMARK minimizedRMSD -1
REMARK  0 active torsions:
REMARK  status: ('A' for Active; 'I' for Inactive)
ROOT
ATOM      1  N1  IND d   1      -0.234   1.315  -0.995  0.00  0.00    -0.196 N 
ATOM      2  C2  IND d   1      -0.201   2.070  -2.134  0.00  0.00     0.054 A 
ATOM      3  C3  IND d   1      -0.856   3.237  -1.944  0.00  0.00    -0.031 A 
ATOM      4  C4  IND d   1      -1.967   4.160   0.187  0.00  0.00     0.051 A 
ATOM      5  C5  IND d   1      -2.285   3.817   1.471  0.00  0.00    -0.031 A 
ATOM      6  C6  IND d   1      -1.926   2.599   2.010  0.00  0.00     0.015 A 
ATOM      7  C7  IND d   1      -1.223   1.679   1.286  0.00  0.00    -0.016 A 
ATOM      8  C8  IND d   1      -0.904   2.021  -0.021  0.00  0.00    -0.047 A 
ATOM      9  C9  IND d   1      -1.303   3.238  -0.587  0.00  0.00    -0.096 A 
ATOM     10  HN1 IND d   1       0.106   0.530  -0.903  0.00  0.00     0.298 HD
ENDROOT
TORSDOF 0
ENDMDL
