MODEL 1
REMARK minimizedAffinity 15.5139236
REMARK minimizedRMSD -1
REMARK  0 active torsions:
REMARK  status: ('A' for Active; 'I' for Inactive)
ROOT
ATOM      1  N1  IND d   1       0.717   5.226  -1.514  0.00  0.00    -0.196 N 
ATOM      2  C2  IND d   1       1.988   5.532  -1.113  0.00  0.00     0.054 A 
ATOM      3  C3  IND d   1       2.366   4.730  -0.092  0.00  0.00    -0.031 A 
ATOM      4  C4  IND d   1       1.097   2.781   1.012  0.00  0.00     0.051 A 
ATOM      5  C5  IND d   1      -0.113   2.145   1.011  0.00  0.00    -0.031 A 
ATOM      6  C6  IND d   1      -1.127   2.510   0.150  0.00  0.00     0.015 A 
ATOM      7  C7  IND d   1      -0.965   3.520  -0.755  0.00  0.00    -0.016 A 
ATOM      8  C8  IND d   1       0.260   4.172  -0.753  0.00  0.00    -0.047 A 
ATOM      9  C9  IND d   1       1.278   3.835   0.148  0.00  0.00    -0.096 A 
ATOM     10  HN1 IND d   1       0.278   5.624  -2.136  0.00  0.00     0.298 HD
ENDROOT
TORSDOF 0
ENDMDL
