MODEL 1
REMARK minimizedAffinity 14.5120935
REMARK minimizedRMSD -1
REMARK  0 active torsions:
REMARK  status: ('A' for Active; 'I' for Inactive)
ROOT
ATOM      1  N1  IND d   1      -3.778   0.423  -1.766  0.00  0.00    -0.196 N 
ATOM      2  C2  IND d   1      -3.803  -0.745  -1.056  0.00  0.00     0.054 A 
ATOM      3  C3  IND d   1      -2.544  -1.171  -0.807  0.00  0.00    -0.031 A 
ATOM      4  C4  IND d   1      -0.296  -0.056  -1.383  0.00  0.00     0.051 A 
ATOM      5  C5  IND d   1       0.238   1.005  -2.058  0.00  0.00    -0.031 A 
ATOM      6  C6  IND d   1      -0.555   1.947  -2.681  0.00  0.00     0.015 A 
ATOM      7  C7  IND d   1      -1.918   1.869  -2.642  0.00  0.00    -0.016 A 
ATOM      8  C8  IND d   1      -2.464   0.789  -1.963  0.00  0.00    -0.047 A 
ATOM      9  C9  IND d   1      -1.664  -0.194  -1.365  0.00  0.00    -0.096 A 
ATOM     10  HN1 IND d   1      -4.467   0.857  -2.044  0.00  0.00     0.298 HD
ENDROOT
TORSDOF 0
ENDMDL
