MODEL 1
REMARK minimizedAffinity 12.7193079
REMARK minimizedRMSD -1
REMARK  0 active torsions:
REMARK  status: ('A' for Active; 'I' for Inactive)
ROOT
ATOM      1  N1  IND d   1      -3.155  -0.274  -2.961  0.00  0.00    -0.196 N 
ATOM      2  C2  IND d   1      -3.532  -0.848  -1.779  0.00  0.00     0.054 A 
ATOM      3  C3  IND d   1      -2.613  -0.596  -0.820  0.00  0.00    -0.031 A 
ATOM      4  C4  IND d   1      -0.467   0.821  -0.942  0.00  0.00     0.051 A 
ATOM      5  C5  IND d   1       0.316   1.516  -1.820  0.00  0.00    -0.031 A 
ATOM      6  C6  IND d   1      -0.026   1.656  -3.150  0.00  0.00     0.015 A 
ATOM      7  C7  IND d   1      -1.175   1.112  -3.650  0.00  0.00    -0.016 A 
ATOM      8  C8  IND d   1      -1.969   0.399  -2.763  0.00  0.00    -0.047 A 
ATOM      9  C9  IND d   1      -1.606   0.218  -1.422  0.00  0.00    -0.096 A 
ATOM     10  HN1 IND d   1      -3.586  -0.324  -3.703  0.00  0.00     0.298 HD
ENDROOT
TORSDOF 0
ENDMDL
