MODEL 1
REMARK minimizedAffinity 3.5528574
REMARK minimizedRMSD -1
REMARK  0 active torsions:
REMARK  status: ('A' for Active; 'I' for Inactive)
ROOT
ATOM      1  N1  IND d   1      -0.164   1.090   1.330  0.00  0.00    -0.196 N 
ATOM      2  C2  IND d   1      -0.517   2.227   2.001  0.00  0.00     0.054 A 
ATOM      3  C3  IND d   1      -0.865   3.199   1.129  0.00  0.00    -0.031 A 
ATOM      4  C4  IND d   1      -1.028   3.111  -1.439  0.00  0.00     0.051 A 
ATOM      5  C5  IND d   1      -0.771   2.298  -2.507  0.00  0.00    -0.031 A 
ATOM      6  C6  IND d   1      -0.292   1.014  -2.348  0.00  0.00     0.015 A 
ATOM      7  C7  IND d   1      -0.062   0.488  -1.108  0.00  0.00    -0.016 A 
ATOM      8  C8  IND d   1      -0.314   1.313  -0.021  0.00  0.00    -0.047 A 
ATOM      9  C9  IND d   1      -0.760   2.632  -0.178  0.00  0.00    -0.096 A 
ATOM     10  HN1 IND d   1       0.107   0.358   1.691  0.00  0.00     0.298 HD
ENDROOT
TORSDOF 0
ENDMDL
