MODEL 1
REMARK minimizedAffinity 7.47463179
REMARK minimizedRMSD -1
REMARK  0 active torsions:
REMARK  status: ('A' for Active; 'I' for Inactive)
ROOT
ATOM      1  N1  IND d   1       0.832  -1.135   3.649  0.00  0.00    -0.196 N 
ATOM      2  C2  IND d   1      -0.043  -1.249   4.693  0.00  0.00     0.054 A 
ATOM      3  C3  IND d   1      -0.950  -0.248   4.657  0.00  0.00    -0.031 A 
ATOM      4  C4  IND d   1      -1.249   1.629   2.920  0.00  0.00     0.051 A 
ATOM      5  C5  IND d   1      -0.669   2.167   1.806  0.00  0.00    -0.031 A 
ATOM      6  C6  IND d   1       0.462   1.620   1.236  0.00  0.00     0.015 A 
ATOM      7  C7  IND d   1       1.052   0.502   1.755  0.00  0.00    -0.016 A 
ATOM      8  C8  IND d   1       0.470  -0.043   2.890  0.00  0.00    -0.047 A 
ATOM      9  C9  IND d   1      -0.653   0.532   3.498  0.00  0.00    -0.096 A 
ATOM     10  HN1 IND d   1       1.498  -1.657   3.492  0.00  0.00     0.298 HD
ENDROOT
TORSDOF 0
ENDMDL
