MODEL 1
REMARK minimizedAffinity 2.06494117
REMARK minimizedRMSD -1
REMARK  0 active torsions:
REMARK  status: ('A' for Active; 'I' for Inactive)
ROOT
ATOM      1  N1  IND d   1       1.500   1.033   0.437  0.00  0.00    -0.196 N 
ATOM      2  C2  IND d   1       0.502   0.316  -0.163  0.00  0.00     0.054 A 
ATOM      3  C3  IND d   1      -0.663   0.999  -0.113  0.00  0.00    -0.031 A 
ATOM      4  C4  IND d   1      -1.141   3.352   0.814  0.00  0.00     0.051 A 
ATOM      5  C5  IND d   1      -0.553   4.383   1.493  0.00  0.00    -0.031 A 
ATOM      6  C6  IND d   1       0.777   4.349   1.860  0.00  0.00     0.015 A 
ATOM      7  C7  IND d   1       1.574   3.285   1.550  0.00  0.00    -0.016 A 
ATOM      8  C8  IND d   1       0.979   2.234   0.867  0.00  0.00    -0.047 A 
ATOM      9  C9  IND d   1      -0.380   2.243   0.529  0.00  0.00    -0.096 A 
ATOM     10  HN1 IND d   1       2.315   0.776   0.531  0.00  0.00     0.298 HD
ENDROOT
TORSDOF 0
ENDMDL
