MODEL 1
REMARK minimizedAffinity -1.14674056
REMARK minimizedRMSD -1
REMARK  0 active torsions:
REMARK  status: ('A' for Active; 'I' for Inactive)
ROOT
ATOM      1  N1  IND d   1      -0.713   0.577   3.808  0.00  0.00    -0.196 N 
ATOM      2  C2  IND d   1       0.118  -0.495   3.979  0.00  0.00     0.054 A 
ATOM      3  C3  IND d   1       0.854  -0.702   2.864  0.00  0.00    -0.031 A 
ATOM      4  C4  IND d   1       0.930   0.656   0.679  0.00  0.00     0.051 A 
ATOM      5  C5  IND d   1       0.326   1.701   0.039  0.00  0.00    -0.031 A 
ATOM      6  C6  IND d   1      -0.675   2.442   0.635  0.00  0.00     0.015 A 
ATOM      7  C7  IND d   1      -1.101   2.170   1.904  0.00  0.00    -0.016 A 
ATOM      8  C8  IND d   1      -0.495   1.105   2.555  0.00  0.00    -0.047 A 
ATOM      9  C9  IND d   1       0.491   0.324   1.939  0.00  0.00    -0.096 A 
ATOM     10  HN1 IND d   1      -1.278   0.871   4.386  0.00  0.00     0.298 HD
ENDROOT
TORSDOF 0
ENDMDL
