MODEL 1
REMARK minimizedAffinity 7.87905455
REMARK minimizedRMSD -1
REMARK  0 active torsions:
REMARK  status: ('A' for Active; 'I' for Inactive)
ROOT
ATOM      1  N1  IND d   1      -0.000   1.113  -3.423  0.00  0.00    -0.196 N 
ATOM      2  C2  IND d   1      -0.639   0.135  -4.133  0.00  0.00     0.054 A 
ATOM      3  C3  IND d   1      -1.530  -0.511  -3.347  0.00  0.00    -0.031 A 
ATOM      4  C4  IND d   1      -2.175  -0.063  -0.895  0.00  0.00     0.051 A 
ATOM      5  C5  IND d   1      -1.837   0.705   0.184  0.00  0.00    -0.031 A 
ATOM      6  C6  IND d   1      -0.852   1.668   0.114  0.00  0.00     0.015 A 
ATOM      7  C7  IND d   1      -0.173   1.910  -1.046  0.00  0.00    -0.016 A 
ATOM      8  C8  IND d   1      -0.508   1.128  -2.142  0.00  0.00    -0.047 A 
ATOM      9  C9  IND d   1      -1.477   0.119  -2.066  0.00  0.00    -0.096 A 
ATOM     10  HN1 IND d   1       0.615   1.631  -3.725  0.00  0.00     0.298 HD
ENDROOT
TORSDOF 0
ENDMDL
