MODEL 1
REMARK minimizedAffinity 12.238286
REMARK minimizedRMSD -1
REMARK  0 active torsions:
REMARK  status: ('A' for Active; 'I' for Inactive)
ROOT
ATOM      1  N1  IND d   1       1.888   0.724   0.625  0.00  0.00    -0.196 N 
ATOM      2  C2  IND d   1       2.136  -0.403   1.358  0.00  0.00     0.054 A 
ATOM      3  C3  IND d   1       1.298  -0.469   2.417  0.00  0.00    -0.031 A 
ATOM      4  C4  IND d   1      -0.622   1.109   3.085  0.00  0.00     0.051 A 
ATOM      5  C5  IND d   1      -1.210   2.295   2.745  0.00  0.00    -0.031 A 
ATOM      6  C6  IND d   1      -0.788   3.032   1.657  0.00  0.00     0.015 A 
ATOM      7  C7  IND d   1       0.234   2.602   0.858  0.00  0.00    -0.016 A 
ATOM      8  C8  IND d   1       0.838   1.402   1.205  0.00  0.00    -0.047 A 
ATOM      9  C9  IND d   1       0.442   0.671   2.333  0.00  0.00    -0.096 A 
ATOM     10  HN1 IND d   1       2.316   0.969  -0.079  0.00  0.00     0.298 HD
ENDROOT
TORSDOF 0
ENDMDL
