MODEL 1
REMARK minimizedAffinity 0.532515407
REMARK minimizedRMSD -1
REMARK  2 active torsions:
REMARK  status: ('A' for Active; 'I' for Inactive)
REMARK    1  A    between atoms: C1_2  and  C2_3 
REMARK    2  A    between atoms: C2_3  and  C3_4 
ROOT
ATOM      1  C3  UNL d   1       2.957   5.375   4.388  0.00  0.00    -0.075 A 
ATOM      2  C4  UNL d   1       3.650   5.999   5.436  0.00  0.00     0.002 A 
ATOM      3  C5  UNL d   1       4.815   5.431   5.952  0.00  0.00     0.002 A 
ATOM      4  C6  UNL d   1       5.295   4.229   5.435  0.00  0.00    -0.004 A 
ATOM      5  C7  UNL d   1       4.606   3.592   4.406  0.00  0.00     0.002 A 
ATOM      6  C8  UNL d   1       3.442   4.161   3.885  0.00  0.00     0.002 A 
ENDROOT
BRANCH   1   7
ATOM      7  C2  UNL d   1       1.712   6.000   3.806  0.00  0.00     0.056 C 
BRANCH   7   8
ATOM      8  C1  UNL d   1       0.424   5.637   4.552  0.00  0.00     0.007 C 
ATOM      9  C   UNL d   1       0.664   5.226   5.999  0.00  0.00     0.009 C 
ENDBRANCH   7   8
ENDBRANCH   1   7
TORSDOF 2
ENDMDL
