MODEL 1
REMARK minimizedAffinity 10.207984
REMARK minimizedRMSD -1
REMARK  2 active torsions:
REMARK  status: ('A' for Active; 'I' for Inactive)
REMARK    1  A    between atoms: C1_2  and  C2_3 
REMARK    2  A    between atoms: C2_3  and  C3_4 
ROOT
ATOM      1  C3  UNL d   1       1.917   0.943   0.120  0.00  0.00    -0.075 A 
ATOM      2  C4  UNL d   1       1.351   0.453   1.305  0.00  0.00     0.002 A 
ATOM      3  C5  UNL d   1       0.020   0.728   1.621  0.00  0.00     0.002 A 
ATOM      4  C6  UNL d   1      -0.757   1.503   0.763  0.00  0.00    -0.004 A 
ATOM      5  C7  UNL d   1      -0.200   2.009  -0.409  0.00  0.00     0.002 A 
ATOM      6  C8  UNL d   1       1.130   1.732  -0.730  0.00  0.00     0.002 A 
ENDROOT
BRANCH   1   7
ATOM      7  C2  UNL d   1       3.348   0.624  -0.243  0.00  0.00     0.056 C 
BRANCH   7   8
ATOM      8  C1  UNL d   1       3.496  -0.529  -1.240  0.00  0.00     0.007 C 
ATOM      9  C   UNL d   1       2.782  -1.800  -0.800  0.00  0.00     0.009 C 
ENDBRANCH   7   8
ENDBRANCH   1   7
TORSDOF 2
ENDMDL
