MODEL 1
REMARK minimizedAffinity 1.0515343
REMARK minimizedRMSD -1
REMARK  2 active torsions:
REMARK  status: ('A' for Active; 'I' for Inactive)
REMARK    1  A    between atoms: C1_2  and  C2_3 
REMARK    2  A    between atoms: C2_3  and  C3_4 
ROOT
ATOM      1  C3  UNL d   1       3.875   1.468   1.651  0.00  0.00    -0.075 A 
ATOM      2  C4  UNL d   1       2.955   2.012   0.743  0.00  0.00     0.002 A 
ATOM      3  C5  UNL d   1       2.339   1.203  -0.213  0.00  0.00     0.002 A 
ATOM      4  C6  UNL d   1       2.642  -0.155  -0.280  0.00  0.00    -0.004 A 
ATOM      5  C7  UNL d   1       3.568  -0.703   0.606  0.00  0.00     0.002 A 
ATOM      6  C8  UNL d   1       4.182   0.103   1.566  0.00  0.00     0.002 A 
ENDROOT
BRANCH   1   7
ATOM      7  C2  UNL d   1       4.523   2.332   2.706  0.00  0.00     0.056 C 
BRANCH   7   8
ATOM      8  C1  UNL d   1       3.544   3.245   3.451  0.00  0.00     0.007 C 
ATOM      9  C   UNL d   1       3.573   3.052   4.961  0.00  0.00     0.009 C 
ENDBRANCH   7   8
ENDBRANCH   1   7
TORSDOF 2
ENDMDL
