MODEL 1
REMARK minimizedAffinity 3.34182239
REMARK minimizedRMSD -1
REMARK  0 active torsions:
REMARK  status: ('A' for Active; 'I' for Inactive)
ROOT
ATOM      1  C   UNL d   1       5.995  -2.706  -5.772  0.00  0.00     0.077 C 
ATOM      2  C1  UNL d   1       5.466  -1.399  -5.260  0.00  0.00    -0.074 A 
ATOM      3  C2  UNL d   1       4.537  -0.660  -5.999  0.00  0.00    -0.005 A 
ATOM      4  C3  UNL d   1       4.046   0.548  -5.506  0.00  0.00     0.006 A 
ATOM      5  C4  UNL d   1       4.479   1.030  -4.270  0.00  0.00    -0.005 A 
ATOM      6  C5  UNL d   1       5.407   0.305  -3.516  0.00  0.00    -0.074 A 
ATOM      7  C6  UNL d   1       5.875   0.803  -2.181  0.00  0.00     0.077 C 
ATOM      8  C7  UNL d   1       5.890  -0.912  -4.015  0.00  0.00    -0.001 A 
ENDROOT
TORSDOF 0
ENDMDL
