MODEL 1
REMARK minimizedAffinity 5.82470417
REMARK minimizedRMSD -1
REMARK  0 active torsions:
REMARK  status: ('A' for Active; 'I' for Inactive)
ROOT
ATOM      1  C   UNL d   1       5.602   0.883  -2.077  0.00  0.00     0.077 C 
ATOM      2  C1  UNL d   1       5.660   0.278  -3.448  0.00  0.00    -0.074 A 
ATOM      3  C2  UNL d   1       5.640   1.085  -4.591  0.00  0.00    -0.005 A 
ATOM      4  C3  UNL d   1       5.705   0.508  -5.859  0.00  0.00     0.006 A 
ATOM      5  C4  UNL d   1       5.789  -0.878  -5.998  0.00  0.00    -0.005 A 
ATOM      6  C5  UNL d   1       5.811  -1.700  -4.867  0.00  0.00    -0.074 A 
ATOM      7  C6  UNL d   1       5.912  -3.190  -4.998  0.00  0.00     0.077 C 
ATOM      8  C7  UNL d   1       5.753  -1.113  -3.596  0.00  0.00    -0.001 A 
ENDROOT
TORSDOF 0
ENDMDL
