MODEL 1
REMARK minimizedAffinity 7.09390879
REMARK minimizedRMSD -1
REMARK  0 active torsions:
REMARK  status: ('A' for Active; 'I' for Inactive)
ROOT
ATOM      1  C   UNL d   1       0.527   0.698  -0.789  0.00  0.00     0.077 C 
ATOM      2  C1  UNL d   1       0.938  -0.059  -2.017  0.00  0.00    -0.074 A 
ATOM      3  C2  UNL d   1       1.209   0.608  -3.216  0.00  0.00    -0.005 A 
ATOM      4  C3  UNL d   1       1.600  -0.108  -4.347  0.00  0.00     0.006 A 
ATOM      5  C4  UNL d   1       1.723  -1.497  -4.291  0.00  0.00    -0.005 A 
ATOM      6  C5  UNL d   1       1.457  -2.182  -3.101  0.00  0.00    -0.074 A 
ATOM      7  C6  UNL d   1       1.594  -3.673  -3.021  0.00  0.00     0.077 C 
ATOM      8  C7  UNL d   1       1.072  -1.454  -1.967  0.00  0.00    -0.001 A 
ENDROOT
TORSDOF 0
ENDMDL
