MODEL 1
REMARK minimizedAffinity 6.25047064
REMARK minimizedRMSD -1
REMARK  0 active torsions:
REMARK  status: ('A' for Active; 'I' for Inactive)
ROOT
ATOM      1  C   UNL d   1       1.130  -3.258  -2.724  0.00  0.00     0.077 C 
ATOM      2  C1  UNL d   1       1.213  -1.776  -2.939  0.00  0.00    -0.074 A 
ATOM      3  C2  UNL d   1       1.592  -1.249  -4.178  0.00  0.00    -0.005 A 
ATOM      4  C3  UNL d   1       1.655   0.132  -4.365  0.00  0.00     0.006 A 
ATOM      5  C4  UNL d   1       1.341   0.998  -3.316  0.00  0.00    -0.005 A 
ATOM      6  C5  UNL d   1       0.960   0.489  -2.071  0.00  0.00    -0.074 A 
ATOM      7  C6  UNL d   1       0.610   1.406  -0.937  0.00  0.00     0.077 C 
ATOM      8  C7  UNL d   1       0.892  -0.899  -1.893  0.00  0.00    -0.001 A 
ENDROOT
TORSDOF 0
ENDMDL
