MODEL 1
REMARK minimizedAffinity 6.16378927
REMARK minimizedRMSD -1
REMARK  0 active torsions:
REMARK  status: ('A' for Active; 'I' for Inactive)
ROOT
ATOM      1  C   UNL d   1      -5.562  -0.366   1.957  0.00  0.00     0.077 C 
ATOM      2  C1  UNL d   1      -4.561  -0.092   3.040  0.00  0.00    -0.074 A 
ATOM      3  C2  UNL d   1      -3.367  -0.817   3.115  0.00  0.00    -0.005 A 
ATOM      4  C3  UNL d   1      -2.441  -0.545   4.122  0.00  0.00     0.006 A 
ATOM      5  C4  UNL d   1      -2.699   0.453   5.062  0.00  0.00    -0.005 A 
ATOM      6  C5  UNL d   1      -3.887   1.189   5.003  0.00  0.00    -0.074 A 
ATOM      7  C6  UNL d   1      -4.175   2.272   5.999  0.00  0.00     0.077 C 
ATOM      8  C7  UNL d   1      -4.809   0.915   3.984  0.00  0.00    -0.001 A 
ENDROOT
TORSDOF 0
ENDMDL
