MODEL 1
REMARK minimizedAffinity 0.0678999797
REMARK minimizedRMSD -1
REMARK  0 active torsions:
REMARK  status: ('A' for Active; 'I' for Inactive)
ROOT
ATOM      1  C   UNL d   1       1.129  -1.132   0.262  0.00  0.00     0.077 C 
ATOM      2  C1  UNL d   1       0.961  -0.554  -1.112  0.00  0.00    -0.074 A 
ATOM      3  C2  UNL d   1       0.863   0.828  -1.304  0.00  0.00    -0.005 A 
ATOM      4  C3  UNL d   1       0.717   1.351  -2.589  0.00  0.00     0.006 A 
ATOM      5  C4  UNL d   1       0.667   0.499  -3.693  0.00  0.00    -0.005 A 
ATOM      6  C5  UNL d   1       0.764  -0.886  -3.520  0.00  0.00    -0.074 A 
ATOM      7  C6  UNL d   1       0.723  -1.815  -4.697  0.00  0.00     0.077 C 
ATOM      8  C7  UNL d   1       0.918  -1.403  -2.227  0.00  0.00    -0.001 A 
ENDROOT
TORSDOF 0
ENDMDL
