MODEL 1
REMARK minimizedAffinity 1.16429734
REMARK minimizedRMSD -1
REMARK  0 active torsions:
REMARK  status: ('A' for Active; 'I' for Inactive)
ROOT
ATOM      1  C   UNL d   1       1.133  -1.566  -0.736  0.00  0.00     0.077 C 
ATOM      2  C1  UNL d   1       1.072  -0.367  -1.635  0.00  0.00    -0.074 A 
ATOM      3  C2  UNL d   1       0.406   0.797  -1.236  0.00  0.00    -0.005 A 
ATOM      4  C3  UNL d   1       0.366   1.908  -2.079  0.00  0.00     0.006 A 
ATOM      5  C4  UNL d   1       0.991   1.867  -3.326  0.00  0.00    -0.005 A 
ATOM      6  C5  UNL d   1       1.663   0.712  -3.741  0.00  0.00    -0.074 A 
ATOM      7  C6  UNL d   1       2.348   0.655  -5.074  0.00  0.00     0.077 C 
ATOM      8  C7  UNL d   1       1.704  -0.398  -2.886  0.00  0.00    -0.001 A 
ENDROOT
TORSDOF 0
ENDMDL
