MODEL 1
REMARK minimizedAffinity 1.1722753
REMARK minimizedRMSD -1
REMARK  0 active torsions:
REMARK  status: ('A' for Active; 'I' for Inactive)
ROOT
ATOM      1  C   UNL d   1       1.328  -2.180  -3.069  0.00  0.00     0.077 C 
ATOM      2  C1  UNL d   1       1.059  -0.723  -2.840  0.00  0.00    -0.074 A 
ATOM      3  C2  UNL d   1       0.518  -0.272  -1.632  0.00  0.00    -0.005 A 
ATOM      4  C3  UNL d   1       0.282   1.087  -1.430  0.00  0.00     0.006 A 
ATOM      5  C4  UNL d   1       0.585   2.009  -2.433  0.00  0.00    -0.005 A 
ATOM      6  C5  UNL d   1       1.128   1.578  -3.647  0.00  0.00    -0.074 A 
ATOM      7  C6  UNL d   1       1.469   2.556  -4.732  0.00  0.00     0.077 C 
ATOM      8  C7  UNL d   1       1.369   0.210  -3.840  0.00  0.00    -0.001 A 
ENDROOT
TORSDOF 0
ENDMDL
