MODEL 1
REMARK minimizedAffinity 4.9765358
REMARK minimizedRMSD -1
REMARK  0 active torsions:
REMARK  status: ('A' for Active; 'I' for Inactive)
ROOT
ATOM      1  C   UNL d   1      -3.527   2.683   5.998  0.00  0.00     0.077 C 
ATOM      2  C1  UNL d   1      -3.515   1.230   5.628  0.00  0.00    -0.074 A 
ATOM      3  C2  UNL d   1      -4.566   0.385   6.000  0.00  0.00    -0.005 A 
ATOM      4  C3  UNL d   1      -4.545  -0.963   5.641  0.00  0.00     0.006 A 
ATOM      5  C4  UNL d   1      -3.475  -1.479   4.908  0.00  0.00    -0.005 A 
ATOM      6  C5  UNL d   1      -2.416  -0.649   4.527  0.00  0.00    -0.074 A 
ATOM      7  C6  UNL d   1      -1.263  -1.184   3.730  0.00  0.00     0.077 C 
ATOM      8  C7  UNL d   1      -2.447   0.706   4.885  0.00  0.00    -0.001 A 
ENDROOT
TORSDOF 0
ENDMDL
