MODEL 1
REMARK minimizedAffinity 7.10123825
REMARK minimizedRMSD -1
REMARK  0 active torsions:
REMARK  status: ('A' for Active; 'I' for Inactive)
ROOT
ATOM      1  C   UNL d   1       6.000  -0.138  -5.992  0.00  0.00     0.077 C 
ATOM      2  C1  UNL d   1       5.329   1.182  -5.748  0.00  0.00    -0.074 A 
ATOM      3  C2  UNL d   1       5.998   2.385  -5.997  0.00  0.00    -0.005 A 
ATOM      4  C3  UNL d   1       5.359   3.604  -5.775  0.00  0.00     0.006 A 
ATOM      5  C4  UNL d   1       4.046   3.633  -5.303  0.00  0.00    -0.005 A 
ATOM      6  C5  UNL d   1       3.361   2.441  -5.049  0.00  0.00    -0.074 A 
ATOM      7  C6  UNL d   1       1.947   2.454  -4.550  0.00  0.00     0.077 C 
ATOM      8  C7  UNL d   1       4.008   1.219  -5.281  0.00  0.00    -0.001 A 
ENDROOT
TORSDOF 0
ENDMDL
