MODEL 1
REMARK minimizedAffinity -0.471147358
REMARK minimizedRMSD -1
REMARK  0 active torsions:
REMARK  status: ('A' for Active; 'I' for Inactive)
ROOT
ATOM      1  C   UNL d   1       0.334  -2.655  -1.082  0.00  0.00     0.077 C 
ATOM      2  C1  UNL d   1       0.649  -1.260  -1.533  0.00  0.00    -0.074 A 
ATOM      3  C2  UNL d   1       0.119  -0.152  -0.865  0.00  0.00    -0.005 A 
ATOM      4  C3  UNL d   1       0.428   1.140  -1.290  0.00  0.00     0.006 A 
ATOM      5  C4  UNL d   1       1.270   1.337  -2.386  0.00  0.00    -0.005 A 
ATOM      6  C5  UNL d   1       1.810   0.240  -3.066  0.00  0.00    -0.074 A 
ATOM      7  C6  UNL d   1       2.724   0.434  -4.239  0.00  0.00     0.077 C 
ATOM      8  C7  UNL d   1       1.500  -1.054  -2.628  0.00  0.00    -0.001 A 
ENDROOT
TORSDOF 0
ENDMDL
