MODEL 1
REMARK minimizedAffinity 1.02740467
REMARK minimizedRMSD -1
REMARK  0 active torsions:
REMARK  status: ('A' for Active; 'I' for Inactive)
ROOT
ATOM      1  C   UNL d   1       0.517   1.474  -1.524  0.00  0.00     0.077 C 
ATOM      2  C1  UNL d   1       0.829   0.115  -2.076  0.00  0.00    -0.074 A 
ATOM      3  C2  UNL d   1       0.845  -1.011  -1.247  0.00  0.00    -0.005 A 
ATOM      4  C3  UNL d   1       1.128  -2.271  -1.777  0.00  0.00     0.006 A 
ATOM      5  C4  UNL d   1       1.396  -2.416  -3.138  0.00  0.00    -0.005 A 
ATOM      6  C5  UNL d   1       1.384  -1.301  -3.983  0.00  0.00    -0.074 A 
ATOM      7  C6  UNL d   1       1.660  -1.442  -5.450  0.00  0.00     0.077 C 
ATOM      8  C7  UNL d   1       1.092  -0.041  -3.444  0.00  0.00    -0.001 A 
ENDROOT
TORSDOF 0
ENDMDL
