MODEL 1
REMARK minimizedAffinity -1.79855072
REMARK minimizedRMSD -1
REMARK  0 active torsions:
REMARK  status: ('A' for Active; 'I' for Inactive)
ROOT
ATOM      1  C   UNL d   1       2.165   3.712  -5.999  0.00  0.00     0.077 C 
ATOM      2  C1  UNL d   1       3.506   3.189  -5.578  0.00  0.00    -0.074 A 
ATOM      3  C2  UNL d   1       4.364   3.962  -4.789  0.00  0.00    -0.005 A 
ATOM      4  C3  UNL d   1       5.604   3.459  -4.398  0.00  0.00     0.006 A 
ATOM      5  C4  UNL d   1       5.999   2.179  -4.790  0.00  0.00    -0.005 A 
ATOM      6  C5  UNL d   1       5.154   1.391  -5.578  0.00  0.00    -0.074 A 
ATOM      7  C6  UNL d   1       5.558   0.010  -6.000  0.00  0.00     0.077 C 
ATOM      8  C7  UNL d   1       3.906   1.901  -5.962  0.00  0.00    -0.001 A 
ENDROOT
TORSDOF 0
ENDMDL
