MODEL 1
REMARK minimizedAffinity 5.73246908
REMARK minimizedRMSD -1
REMARK  0 active torsions:
REMARK  status: ('A' for Active; 'I' for Inactive)
ROOT
ATOM      1  C   UNL d   1       1.395  -2.777  -3.720  0.00  0.00     0.077 C 
ATOM      2  C1  UNL d   1       1.041  -1.681  -2.758  0.00  0.00    -0.074 A 
ATOM      3  C2  UNL d   1       1.113  -0.338  -3.142  0.00  0.00    -0.005 A 
ATOM      4  C3  UNL d   1       0.772   0.670  -2.240  0.00  0.00     0.006 A 
ATOM      5  C4  UNL d   1       0.357   0.345  -0.947  0.00  0.00    -0.005 A 
ATOM      6  C5  UNL d   1       0.279  -0.992  -0.547  0.00  0.00    -0.074 A 
ATOM      7  C6  UNL d   1      -0.175  -1.359   0.835  0.00  0.00     0.077 C 
ATOM      8  C7  UNL d   1       0.616  -1.999  -1.461  0.00  0.00    -0.001 A 
ENDROOT
TORSDOF 0
ENDMDL
