MODEL 1
REMARK minimizedAffinity 4.48023415
REMARK minimizedRMSD -1
REMARK  0 active torsions:
REMARK  status: ('A' for Active; 'I' for Inactive)
ROOT
ATOM      1  C   UNL d   1       1.106   2.204  -3.094  0.00  0.00     0.077 C 
ATOM      2  C1  UNL d   1       0.956   0.861  -2.443  0.00  0.00    -0.074 A 
ATOM      3  C2  UNL d   1       0.523   0.750  -1.118  0.00  0.00    -0.005 A 
ATOM      4  C3  UNL d   1       0.379  -0.506  -0.528  0.00  0.00     0.006 A 
ATOM      5  C4  UNL d   1       0.665  -1.661  -1.257  0.00  0.00    -0.005 A 
ATOM      6  C5  UNL d   1       1.098  -1.569  -2.584  0.00  0.00    -0.074 A 
ATOM      7  C6  UNL d   1       1.401  -2.801  -3.384  0.00  0.00     0.077 C 
ATOM      8  C7  UNL d   1       1.234  -0.304  -3.171  0.00  0.00    -0.001 A 
ENDROOT
TORSDOF 0
ENDMDL
