MODEL 1
REMARK minimizedAffinity -1.13399446
REMARK minimizedRMSD -1
REMARK  0 active torsions:
REMARK  status: ('A' for Active; 'I' for Inactive)
ROOT
ATOM      1  C   UNL d   1       1.088  -1.568  -0.911  0.00  0.00     0.077 C 
ATOM      2  C1  UNL d   1       1.255  -0.372  -1.800  0.00  0.00    -0.074 A 
ATOM      3  C2  UNL d   1       0.394   0.725  -1.699  0.00  0.00    -0.005 A 
ATOM      4  C3  UNL d   1       0.569   1.834  -2.526  0.00  0.00     0.006 A 
ATOM      5  C4  UNL d   1       1.604   1.857  -3.462  0.00  0.00    -0.005 A 
ATOM      6  C5  UNL d   1       2.475   0.770  -3.577  0.00  0.00    -0.074 A 
ATOM      7  C6  UNL d   1       3.599   0.782  -4.570  0.00  0.00     0.077 C 
ATOM      8  C7  UNL d   1       2.298  -0.338  -2.737  0.00  0.00    -0.001 A 
ENDROOT
TORSDOF 0
ENDMDL
