MODEL 1
REMARK minimizedAffinity 2.44770193
REMARK minimizedRMSD -1
REMARK  0 active torsions:
REMARK  status: ('A' for Active; 'I' for Inactive)
ROOT
ATOM      1  C   UNL d   1      -1.838  -1.291   3.219  0.00  0.00     0.077 C 
ATOM      2  C1  UNL d   1      -2.788  -0.648   4.185  0.00  0.00    -0.074 A 
ATOM      3  C2  UNL d   1      -3.753  -1.406   4.857  0.00  0.00    -0.005 A 
ATOM      4  C3  UNL d   1      -4.624  -0.795   5.759  0.00  0.00     0.006 A 
ATOM      5  C4  UNL d   1      -4.539   0.577   5.999  0.00  0.00    -0.005 A 
ATOM      6  C5  UNL d   1      -3.580   1.351   5.337  0.00  0.00    -0.074 A 
ATOM      7  C6  UNL d   1      -3.469   2.825   5.590  0.00  0.00     0.077 C 
ATOM      8  C7  UNL d   1      -2.704   0.729   4.437  0.00  0.00    -0.001 A 
ENDROOT
TORSDOF 0
ENDMDL
