MODEL 1
REMARK minimizedAffinity -2.56505799
REMARK minimizedRMSD -1
REMARK  0 active torsions:
REMARK  status: ('A' for Active; 'I' for Inactive)
ROOT
ATOM      1  C2' OXE d   1       1.660  -3.233  -2.859  0.00  0.00     0.078 C 
ATOM      2  C1' OXE d   1      -0.162  -3.176  -0.724  0.00  0.00     0.078 C 
ATOM      3  C1  OXE d   1       0.924  -2.129  -0.751  0.00  0.00    -0.078 A 
ATOM      4  C2  OXE d   1       1.839  -2.193  -1.774  0.00  0.00    -0.078 A 
ATOM      5  C3  OXE d   1       2.828  -1.220  -1.876  0.00  0.00     0.003 A 
ATOM      6  C4  OXE d   1       2.993  -0.268  -0.862  0.00  0.00    -0.002 A 
ATOM      7  C5  OXE d   1       2.096  -0.209   0.209  0.00  0.00    -0.002 A 
ATOM      8  C6  OXE d   1       1.033  -1.104   0.258  0.00  0.00     0.003 A 
ENDROOT
TORSDOF 0
ENDMDL
