MODEL 1
REMARK minimizedAffinity -2.33217525
REMARK minimizedRMSD -1
REMARK  0 active torsions:
REMARK  status: ('A' for Active; 'I' for Inactive)
ROOT
ATOM      1  C2' OXE d   1       0.392   1.532  -1.546  0.00  0.00     0.078 C 
ATOM      2  C1' OXE d   1      -0.408   0.564   0.964  0.00  0.00     0.078 C 
ATOM      3  C1  OXE d   1       0.490  -0.311   0.126  0.00  0.00    -0.078 A 
ATOM      4  C2  OXE d   1       0.839   0.151  -1.120  0.00  0.00    -0.078 A 
ATOM      5  C3  OXE d   1       1.710  -0.593  -1.912  0.00  0.00     0.003 A 
ATOM      6  C4  OXE d   1       2.110  -1.874  -1.515  0.00  0.00    -0.002 A 
ATOM      7  C5  OXE d   1       1.734  -2.380  -0.266  0.00  0.00    -0.002 A 
ATOM      8  C6  OXE d   1       0.961  -1.595   0.583  0.00  0.00     0.003 A 
ENDROOT
TORSDOF 0
ENDMDL
