MODEL 1
REMARK minimizedAffinity -3.19616437
REMARK minimizedRMSD -1
REMARK  0 active torsions:
REMARK  status: ('A' for Active; 'I' for Inactive)
ROOT
ATOM      1  C2' OXE d   1       1.205  -2.226  -0.015  0.00  0.00     0.078 C 
ATOM      2  C1' OXE d   1       3.154  -0.536  -1.123  0.00  0.00     0.078 C 
ATOM      3  C1  OXE d   1       1.803   0.057  -0.811  0.00  0.00    -0.078 A 
ATOM      4  C2  OXE d   1       0.841  -0.788  -0.312  0.00  0.00    -0.078 A 
ATOM      5  C3  OXE d   1      -0.405  -0.280   0.044  0.00  0.00     0.003 A 
ATOM      6  C4  OXE d   1      -0.737   1.050  -0.243  0.00  0.00    -0.002 A 
ATOM      7  C5  OXE d   1       0.215   1.918  -0.787  0.00  0.00    -0.002 A 
ATOM      8  C6  OXE d   1       1.500   1.449  -1.037  0.00  0.00     0.003 A 
ENDROOT
TORSDOF 0
ENDMDL
