MODEL 1
REMARK minimizedAffinity -4.41012383
REMARK minimizedRMSD -1
REMARK  0 active torsions:
REMARK  status: ('A' for Active; 'I' for Inactive)
ROOT
ATOM      1  C2' OXE d   1       1.063  -2.201  -0.051  0.00  0.00     0.078 C 
ATOM      2  C1' OXE d   1       3.056  -0.673  -1.306  0.00  0.00     0.078 C 
ATOM      3  C1  OXE d   1       1.754   0.010  -0.969  0.00  0.00    -0.078 A 
ATOM      4  C2  OXE d   1       0.767  -0.757  -0.398  0.00  0.00    -0.078 A 
ATOM      5  C3  OXE d   1      -0.433  -0.164  -0.018  0.00  0.00     0.003 A 
ATOM      6  C4  OXE d   1      -0.702   1.169  -0.351  0.00  0.00    -0.002 A 
ATOM      7  C5  OXE d   1       0.275   1.957  -0.969  0.00  0.00    -0.002 A 
ATOM      8  C6  OXE d   1       1.521   1.406  -1.245  0.00  0.00     0.003 A 
ENDROOT
TORSDOF 0
ENDMDL
