MODEL 1
REMARK minimizedAffinity -0.515997708
REMARK minimizedRMSD -1
REMARK  0 active torsions:
REMARK  status: ('A' for Active; 'I' for Inactive)
ROOT
ATOM      1  C2' OXE d   1      -1.210   1.552   3.701  0.00  0.00     0.078 C 
ATOM      2  C1' OXE d   1      -3.313  -0.255   3.260  0.00  0.00     0.078 C 
ATOM      3  C1  OXE d   1      -2.309  -0.059   2.151  0.00  0.00    -0.078 A 
ATOM      4  C2  OXE d   1      -1.310   0.862   2.358  0.00  0.00    -0.078 A 
ATOM      5  C3  OXE d   1      -0.327   1.041   1.390  0.00  0.00     0.003 A 
ATOM      6  C4  OXE d   1      -0.433   0.407   0.146  0.00  0.00    -0.002 A 
ATOM      7  C5  OXE d   1      -1.465  -0.505  -0.100  0.00  0.00    -0.002 A 
ATOM      8  C6  OXE d   1      -2.385  -0.780   0.905  0.00  0.00     0.003 A 
ENDROOT
TORSDOF 0
ENDMDL
