MODEL 1
REMARK minimizedAffinity -4.6262579
REMARK minimizedRMSD -1
REMARK  0 active torsions:
REMARK  status: ('A' for Active; 'I' for Inactive)
ROOT
ATOM      1  C2' OXE d   1      -0.367  -2.270  -0.227  0.00  0.00     0.078 C 
ATOM      2  C1' OXE d   1      -0.811   0.355   0.665  0.00  0.00     0.078 C 
ATOM      3  C1  OXE d   1       0.410   0.097  -0.183  0.00  0.00    -0.078 A 
ATOM      4  C2  OXE d   1       0.644  -1.199  -0.576  0.00  0.00    -0.078 A 
ATOM      5  C3  OXE d   1       1.726  -1.483  -1.404  0.00  0.00     0.003 A 
ATOM      6  C4  OXE d   1       2.662  -0.489  -1.714  0.00  0.00    -0.002 A 
ATOM      7  C5  OXE d   1       2.463   0.830  -1.291  0.00  0.00    -0.002 A 
ATOM      8  C6  OXE d   1       1.322   1.147  -0.562  0.00  0.00     0.003 A 
ENDROOT
TORSDOF 0
ENDMDL
