MODEL 1
REMARK minimizedAffinity -2.11026692
REMARK minimizedRMSD -1
REMARK  0 active torsions:
REMARK  status: ('A' for Active; 'I' for Inactive)
ROOT
ATOM      1  C2' OXE d   1      -2.279  -3.692  -0.400  0.00  0.00     0.078 C 
ATOM      2  C1' OXE d   1      -3.604  -1.223  -0.564  0.00  0.00     0.078 C 
ATOM      3  C1  OXE d   1      -2.129  -1.210  -0.246  0.00  0.00    -0.078 A 
ATOM      4  C2  OXE d   1      -1.499  -2.425  -0.121  0.00  0.00    -0.078 A 
ATOM      5  C3  OXE d   1      -0.128  -2.469   0.117  0.00  0.00     0.003 A 
ATOM      6  C4  OXE d   1       0.583  -1.293   0.383  0.00  0.00    -0.002 A 
ATOM      7  C5  OXE d   1      -0.048  -0.047   0.300  0.00  0.00    -0.002 A 
ATOM      8  C6  OXE d   1      -1.391   0.014  -0.054  0.00  0.00     0.003 A 
ENDROOT
TORSDOF 0
ENDMDL
