MODEL 1
REMARK minimizedAffinity -4.64174509
REMARK minimizedRMSD -1
REMARK  0 active torsions:
REMARK  status: ('A' for Active; 'I' for Inactive)
ROOT
ATOM      1  C2' OXE d   1      -3.016  -1.649   0.188  0.00  0.00     0.078 C 
ATOM      2  C1' OXE d   1      -0.645  -0.149   0.111  0.00  0.00     0.078 C 
ATOM      3  C1  OXE d   1      -1.547   0.023   1.307  0.00  0.00    -0.078 A 
ATOM      4  C2  OXE d   1      -2.728  -0.680   1.315  0.00  0.00    -0.078 A 
ATOM      5  C3  OXE d   1      -3.571  -0.600   2.419  0.00  0.00     0.003 A 
ATOM      6  C4  OXE d   1      -3.302   0.306   3.452  0.00  0.00    -0.002 A 
ATOM      7  C5  OXE d   1      -2.124   1.061   3.445  0.00  0.00    -0.002 A 
ATOM      8  C6  OXE d   1      -1.218   0.900   2.403  0.00  0.00     0.003 A 
ENDROOT
TORSDOF 0
ENDMDL
