MODEL 1
REMARK minimizedAffinity -4.59636021
REMARK minimizedRMSD -1
REMARK  0 active torsions:
REMARK  status: ('A' for Active; 'I' for Inactive)
ROOT
ATOM      1  C2' OXE d   1      -0.995  -2.911  -0.067  0.00  0.00     0.078 C 
ATOM      2  C1' OXE d   1      -1.376  -0.196   0.536  0.00  0.00     0.078 C 
ATOM      3  C1  OXE d   1      -0.075  -0.596  -0.114  0.00  0.00    -0.078 A 
ATOM      4  C2  OXE d   1       0.122  -1.933  -0.363  0.00  0.00    -0.078 A 
ATOM      5  C3  OXE d   1       1.281  -2.350  -1.012  0.00  0.00     0.003 A 
ATOM      6  C4  OXE d   1       2.313  -1.441  -1.273  0.00  0.00    -0.002 A 
ATOM      7  C5  OXE d   1       2.149  -0.081  -0.991  0.00  0.00    -0.002 A 
ATOM      8  C6  OXE d   1       0.947   0.364  -0.452  0.00  0.00     0.003 A 
ENDROOT
TORSDOF 0
ENDMDL
