MODEL 1
REMARK minimizedAffinity -4.74281502
REMARK minimizedRMSD -1
REMARK  0 active torsions:
REMARK  status: ('A' for Active; 'I' for Inactive)
ROOT
ATOM      1  C2' OXE d   1       1.454   2.037  -1.776  0.00  0.00     0.078 C 
ATOM      2  C1' OXE d   1       3.157  -0.117  -2.360  0.00  0.00     0.078 C 
ATOM      3  C1  OXE d   1       1.951  -0.388  -1.496  0.00  0.00    -0.078 A 
ATOM      4  C2  OXE d   1       1.149   0.681  -1.177  0.00  0.00    -0.078 A 
ATOM      5  C3  OXE d   1      -0.007   0.476  -0.428  0.00  0.00     0.003 A 
ATOM      6  C4  OXE d   1      -0.276  -0.779   0.130  0.00  0.00    -0.002 A 
ATOM      7  C5  OXE d   1       0.549  -1.873  -0.150  0.00  0.00    -0.002 A 
ATOM      8  C6  OXE d   1       1.641  -1.704  -0.994  0.00  0.00     0.003 A 
ENDROOT
TORSDOF 0
ENDMDL
