MODEL 1
REMARK minimizedAffinity -2.3280375
REMARK minimizedRMSD -1
REMARK  0 active torsions:
REMARK  status: ('A' for Active; 'I' for Inactive)
ROOT
ATOM      1  C2' OXE d   1       1.251  -1.878  -0.387  0.00  0.00     0.078 C 
ATOM      2  C1' OXE d   1      -0.076   0.590  -0.223  0.00  0.00     0.078 C 
ATOM      3  C1  OXE d   1      -0.915  -0.649  -0.411  0.00  0.00    -0.078 A 
ATOM      4  C2  OXE d   1      -0.255  -1.847  -0.537  0.00  0.00    -0.078 A 
ATOM      5  C3  OXE d   1      -0.984  -3.027  -0.657  0.00  0.00     0.003 A 
ATOM      6  C4  OXE d   1      -2.375  -2.988  -0.805  0.00  0.00    -0.002 A 
ATOM      7  C5  OXE d   1      -3.065  -1.774  -0.720  0.00  0.00    -0.002 A 
ATOM      8  C6  OXE d   1      -2.355  -0.602  -0.481  0.00  0.00     0.003 A 
ENDROOT
TORSDOF 0
ENDMDL
