MODEL 1
REMARK minimizedAffinity 4.12512302
REMARK minimizedRMSD -1
REMARK  0 active torsions:
REMARK  status: ('A' for Active; 'I' for Inactive)
ROOT
ATOM      1  C2' OXE d   1       5.246   5.951  -1.882  0.00  0.00     0.078 C 
ATOM      2  C1' OXE d   1       2.526   5.998  -1.190  0.00  0.00     0.078 C 
ATOM      3  C1  OXE d   1       2.879   5.975  -2.657  0.00  0.00    -0.078 A 
ATOM      4  C2  OXE d   1       4.212   5.999  -2.986  0.00  0.00    -0.078 A 
ATOM      5  C3  OXE d   1       4.594   5.923  -4.323  0.00  0.00     0.003 A 
ATOM      6  C4  OXE d   1       3.632   5.977  -5.339  0.00  0.00    -0.002 A 
ATOM      7  C5  OXE d   1       2.268   5.993  -5.025  0.00  0.00    -0.002 A 
ATOM      8  C6  OXE d   1       1.875   5.949  -3.692  0.00  0.00     0.003 A 
ENDROOT
TORSDOF 0
ENDMDL
