MODEL 1
REMARK minimizedAffinity -4.70136499
REMARK minimizedRMSD -1
REMARK  0 active torsions:
REMARK  status: ('A' for Active; 'I' for Inactive)
ROOT
ATOM      1  C2' OXE d   1       4.918   0.749   3.047  0.00  0.00     0.078 C 
ATOM      2  C1' OXE d   1       5.101   1.700   5.682  0.00  0.00     0.078 C 
ATOM      3  C1  OXE d   1       5.228   2.702   4.562  0.00  0.00    -0.078 A 
ATOM      4  C2  OXE d   1       5.184   2.221   3.275  0.00  0.00    -0.078 A 
ATOM      5  C3  OXE d   1       5.242   3.109   2.205  0.00  0.00     0.003 A 
ATOM      6  C4  OXE d   1       5.499   4.468   2.425  0.00  0.00    -0.002 A 
ATOM      7  C5  OXE d   1       5.587   4.973   3.726  0.00  0.00    -0.002 A 
ATOM      8  C6  OXE d   1       5.412   4.112   4.804  0.00  0.00     0.003 A 
ENDROOT
TORSDOF 0
ENDMDL
