MODEL 1
REMARK minimizedAffinity 1.6964376
REMARK minimizedRMSD -1
REMARK  0 active torsions:
REMARK  status: ('A' for Active; 'I' for Inactive)
ROOT
ATOM      1  C2' OXE d   1       4.143   2.025   4.498  0.00  0.00     0.078 C 
ATOM      2  C1' OXE d   1       2.953   3.267   2.279  0.00  0.00     0.078 C 
ATOM      3  C1  OXE d   1       4.031   4.023   3.014  0.00  0.00    -0.078 A 
ATOM      4  C2  OXE d   1       4.575   3.427   4.126  0.00  0.00    -0.078 A 
ATOM      5  C3  OXE d   1       5.612   4.058   4.809  0.00  0.00     0.003 A 
ATOM      6  C4  OXE d   1       5.999   5.359   4.464  0.00  0.00    -0.002 A 
ATOM      7  C5  OXE d   1       5.429   6.000   3.359  0.00  0.00    -0.002 A 
ATOM      8  C6  OXE d   1       4.477   5.330   2.599  0.00  0.00     0.003 A 
ENDROOT
TORSDOF 0
ENDMDL
