MODEL 1
REMARK minimizedAffinity 2.07636905
REMARK minimizedRMSD -1
REMARK  0 active torsions:
REMARK  status: ('A' for Active; 'I' for Inactive)
ROOT
ATOM      1  C2' OXE d   1      -3.565  -2.834   3.720  0.00  0.00     0.078 C 
ATOM      2  C1' OXE d   1      -3.154  -1.647   1.210  0.00  0.00     0.078 C 
ATOM      3  C1  OXE d   1      -2.588  -0.947   2.420  0.00  0.00    -0.078 A 
ATOM      4  C2  OXE d   1      -2.834  -1.511   3.649  0.00  0.00    -0.078 A 
ATOM      5  C3  OXE d   1      -2.287  -0.936   4.793  0.00  0.00     0.003 A 
ATOM      6  C4  OXE d   1      -1.621   0.293   4.719  0.00  0.00    -0.002 A 
ATOM      7  C5  OXE d   1      -1.394   0.905   3.482  0.00  0.00    -0.002 A 
ATOM      8  C6  OXE d   1      -1.833   0.277   2.321  0.00  0.00     0.003 A 
ENDROOT
TORSDOF 0
ENDMDL
