MODEL 1
REMARK minimizedAffinity -1.23073077
REMARK minimizedRMSD -1
REMARK  0 active torsions:
REMARK  status: ('A' for Active; 'I' for Inactive)
ROOT
ATOM      1  C2' OXE d   1       5.637   5.922   3.795  0.00  0.00     0.078 C 
ATOM      2  C1' OXE d   1       5.677   3.120   3.642  0.00  0.00     0.078 C 
ATOM      3  C1  OXE d   1       5.082   3.879   2.483  0.00  0.00    -0.078 A 
ATOM      4  C2  OXE d   1       5.024   5.248   2.586  0.00  0.00    -0.078 A 
ATOM      5  C3  OXE d   1       4.535   6.000   1.522  0.00  0.00     0.003 A 
ATOM      6  C4  OXE d   1       3.960   5.368   0.413  0.00  0.00    -0.002 A 
ATOM      7  C5  OXE d   1       3.973   3.973   0.305  0.00  0.00    -0.002 A 
ATOM      8  C6  OXE d   1       4.567   3.217   1.309  0.00  0.00     0.003 A 
ENDROOT
TORSDOF 0
ENDMDL
