MODEL 1
REMARK minimizedAffinity -1.66803265
REMARK minimizedRMSD -1
REMARK  0 active torsions:
REMARK  status: ('A' for Active; 'I' for Inactive)
ROOT
ATOM      1  C2' OXE d   1       5.626  -2.608   2.928  0.00  0.00     0.078 C 
ATOM      2  C1' OXE d   1       6.000  -2.886   5.697  0.00  0.00     0.078 C 
ATOM      3  C1  OXE d   1       5.797  -1.495   5.151  0.00  0.00    -0.078 A 
ATOM      4  C2  OXE d   1       5.661  -1.364   3.790  0.00  0.00    -0.078 A 
ATOM      5  C3  OXE d   1       5.417  -0.109   3.239  0.00  0.00     0.003 A 
ATOM      6  C4  OXE d   1       5.461   1.038   4.041  0.00  0.00    -0.002 A 
ATOM      7  C5  OXE d   1       5.637   0.930   5.425  0.00  0.00    -0.002 A 
ATOM      8  C6  OXE d   1       5.763  -0.330   5.999  0.00  0.00     0.003 A 
ENDROOT
TORSDOF 0
ENDMDL
