MODEL 1
REMARK minimizedAffinity -1.20799291
REMARK minimizedRMSD -1
REMARK  0 active torsions:
REMARK  status: ('A' for Active; 'I' for Inactive)
ROOT
ATOM      1  C2' OXE d   1       5.590   5.031   4.875  0.00  0.00     0.078 C 
ATOM      2  C1' OXE d   1       4.353   3.758   2.700  0.00  0.00     0.078 C 
ATOM      3  C1  OXE d   1       4.889   2.890   3.812  0.00  0.00    -0.078 A 
ATOM      4  C2  OXE d   1       5.534   3.519   4.849  0.00  0.00    -0.078 A 
ATOM      5  C3  OXE d   1       5.999   2.770   5.927  0.00  0.00     0.003 A 
ATOM      6  C4  OXE d   1       5.953   1.371   5.890  0.00  0.00    -0.002 A 
ATOM      7  C5  OXE d   1       5.335   0.709   4.824  0.00  0.00    -0.002 A 
ATOM      8  C6  OXE d   1       4.762   1.454   3.799  0.00  0.00     0.003 A 
ENDROOT
TORSDOF 0
ENDMDL
