MODEL 1
REMARK minimizedAffinity -4.15424633
REMARK minimizedRMSD -1
REMARK  0 active torsions:
REMARK  status: ('A' for Active; 'I' for Inactive)
ROOT
ATOM      1  C2' OXE d   1       6.000   1.128   5.640  0.00  0.00     0.078 C 
ATOM      2  C1' OXE d   1       5.757   2.433   3.167  0.00  0.00     0.078 C 
ATOM      3  C1  OXE d   1       5.541   0.941   3.199  0.00  0.00    -0.078 A 
ATOM      4  C2  OXE d   1       5.708   0.304   4.405  0.00  0.00    -0.078 A 
ATOM      5  C3  OXE d   1       5.468  -1.064   4.501  0.00  0.00     0.003 A 
ATOM      6  C4  OXE d   1       5.208  -1.821   3.352  0.00  0.00    -0.002 A 
ATOM      7  C5  OXE d   1       5.074  -1.197   2.107  0.00  0.00    -0.002 A 
ATOM      8  C6  OXE d   1       5.195   0.185   2.020  0.00  0.00     0.003 A 
ENDROOT
TORSDOF 0
ENDMDL
