MODEL 1
REMARK minimizedAffinity 6.99990606
REMARK minimizedRMSD -1
REMARK  0 active torsions:
REMARK  status: ('A' for Active; 'I' for Inactive)
ROOT
ATOM      1  N1  IND d   1       1.235   1.043  -2.467  0.00  0.00    -0.196 N 
ATOM      2  C2  IND d   1       1.508   2.174  -1.750  0.00  0.00     0.054 A 
ATOM      3  C3  IND d   1       2.350   1.893  -0.730  0.00  0.00    -0.031 A 
ATOM      4  C4  IND d   1       3.484  -0.334  -0.112  0.00  0.00     0.051 A 
ATOM      5  C5  IND d   1       3.515  -1.658  -0.452  0.00  0.00    -0.031 A 
ATOM      6  C6  IND d   1       2.775  -2.158  -1.503  0.00  0.00     0.015 A 
ATOM      7  C7  IND d   1       1.981  -1.348  -2.265  0.00  0.00    -0.016 A 
ATOM      8  C8  IND d   1       1.942  -0.005  -1.918  0.00  0.00    -0.047 A 
ATOM      9  C9  IND d   1       2.658   0.501  -0.826  0.00  0.00    -0.096 A 
ATOM     10  HN1 IND d   1       0.710   0.994  -3.146  0.00  0.00     0.298 HD
ENDROOT
TORSDOF 0
ENDMDL
