MODEL 1
REMARK minimizedAffinity 6.0030036
REMARK minimizedRMSD -1
REMARK  0 active torsions:
REMARK  status: ('A' for Active; 'I' for Inactive)
ROOT
ATOM      1  N1  IND d   1      -0.471   1.532  -1.499  0.00  0.00    -0.196 N 
ATOM      2  C2  IND d   1       0.800   1.238  -1.905  0.00  0.00     0.054 A 
ATOM      3  C3  IND d   1       1.682   1.491  -0.912  0.00  0.00    -0.031 A 
ATOM      4  C4  IND d   1       1.247   2.294   1.495  0.00  0.00     0.051 A 
ATOM      5  C5  IND d   1       0.250   2.730   2.322  0.00  0.00    -0.031 A 
ATOM      6  C6  IND d   1      -1.066   2.787   1.910  0.00  0.00     0.015 A 
ATOM      7  C7  IND d   1      -1.436   2.398   0.654  0.00  0.00    -0.016 A 
ATOM      8  C8  IND d   1      -0.425   1.962  -0.191  0.00  0.00    -0.047 A 
ATOM      9  C9  IND d   1       0.917   1.941   0.208  0.00  0.00    -0.096 A 
ATOM     10  HN1 IND d   1      -1.181   1.460  -1.979  0.00  0.00     0.298 HD
ENDROOT
TORSDOF 0
ENDMDL
