MODEL 1
REMARK minimizedAffinity 13.5066271
REMARK minimizedRMSD -1
REMARK  0 active torsions:
REMARK  status: ('A' for Active; 'I' for Inactive)
ROOT
ATOM      1  N1  IND d   1       0.665   0.720  -3.644  0.00  0.00    -0.196 N 
ATOM      2  C2  IND d   1       0.628  -0.068  -2.527  0.00  0.00     0.054 A 
ATOM      3  C3  IND d   1       1.028   0.634  -1.443  0.00  0.00    -0.031 A 
ATOM      4  C4  IND d   1       1.691   3.115  -1.255  0.00  0.00     0.051 A 
ATOM      5  C5  IND d   1       1.913   4.231  -2.012  0.00  0.00    -0.031 A 
ATOM      6  C6  IND d   1       1.724   4.235  -3.378  0.00  0.00     0.015 A 
ATOM      7  C7  IND d   1       1.293   3.120  -4.041  0.00  0.00    -0.016 A 
ATOM      8  C8  IND d   1       1.073   1.983  -3.277  0.00  0.00    -0.047 A 
ATOM      9  C9  IND d   1       1.304   1.961  -1.895  0.00  0.00    -0.096 A 
ATOM     10  HN1 IND d   1       0.467   0.468  -4.442  0.00  0.00     0.298 HD
ENDROOT
TORSDOF 0
ENDMDL
