MODEL 1
REMARK minimizedAffinity 22.2491131
REMARK minimizedRMSD -1
REMARK  0 active torsions:
REMARK  status: ('A' for Active; 'I' for Inactive)
ROOT
ATOM      1  N1  IND d   1      -5.956  -0.892   1.549  0.00  0.00    -0.196 N 
ATOM      2  C2  IND d   1      -5.995  -2.258   1.531  0.00  0.00     0.054 A 
ATOM      3  C3  IND d   1      -5.978  -2.746   2.792  0.00  0.00    -0.031 A 
ATOM      4  C4  IND d   1      -5.990  -1.483   5.035  0.00  0.00     0.051 A 
ATOM      5  C5  IND d   1      -5.919  -0.224   5.563  0.00  0.00    -0.031 A 
ATOM      6  C6  IND d   1      -5.859   0.899   4.763  0.00  0.00     0.015 A 
ATOM      7  C7  IND d   1      -5.878   0.806   3.400  0.00  0.00    -0.016 A 
ATOM      8  C8  IND d   1      -5.943  -0.471   2.861  0.00  0.00    -0.047 A 
ATOM      9  C9  IND d   1      -5.961  -1.617   3.667  0.00  0.00    -0.096 A 
ATOM     10  HN1 IND d   1      -5.942  -0.381   0.858  0.00  0.00     0.298 HD
ENDROOT
TORSDOF 0
ENDMDL
