MODEL 1
REMARK minimizedAffinity 10.9573336
REMARK minimizedRMSD -1
REMARK  0 active torsions:
REMARK  status: ('A' for Active; 'I' for Inactive)
ROOT
ATOM      1  N1  IND d   1       1.086   2.539  -2.279  0.00  0.00    -0.196 N 
ATOM      2  C2  IND d   1       1.079   1.172  -2.298  0.00  0.00     0.054 A 
ATOM      3  C3  IND d   1       1.526   0.684  -1.119  0.00  0.00    -0.031 A 
ATOM      4  C4  IND d   1       2.223   1.944   1.015  0.00  0.00     0.051 A 
ATOM      5  C5  IND d   1       2.431   3.204   1.502  0.00  0.00    -0.031 A 
ATOM      6  C6  IND d   1       2.193   4.329   0.740  0.00  0.00     0.015 A 
ATOM      7  C7  IND d   1       1.726   4.236  -0.541  0.00  0.00    -0.016 A 
ATOM      8  C8  IND d   1       1.521   2.959  -1.042  0.00  0.00    -0.047 A 
ATOM      9  C9  IND d   1       1.801   1.812  -0.287  0.00  0.00    -0.096 A 
ATOM     10  HN1 IND d   1       0.856   3.051  -2.931  0.00  0.00     0.298 HD
ENDROOT
TORSDOF 0
ENDMDL
