MODEL 1
REMARK minimizedAffinity 12.2720966
REMARK minimizedRMSD -1
REMARK  0 active torsions:
REMARK  status: ('A' for Active; 'I' for Inactive)
ROOT
ATOM      1  N1  IND d   1       1.129   1.004  -2.972  0.00  0.00    -0.196 N 
ATOM      2  C2  IND d   1       1.695   2.151  -2.491  0.00  0.00     0.054 A 
ATOM      3  C3  IND d   1       2.576   1.863  -1.506  0.00  0.00    -0.031 A 
ATOM      4  C4  IND d   1       3.319  -0.426  -0.594  0.00  0.00     0.051 A 
ATOM      5  C5  IND d   1       3.055  -1.763  -0.695  0.00  0.00    -0.031 A 
ATOM      6  C6  IND d   1       2.118  -2.257  -1.580  0.00  0.00     0.015 A 
ATOM      7  C7  IND d   1       1.416  -1.428  -2.409  0.00  0.00    -0.016 A 
ATOM      8  C8  IND d   1       1.676  -0.069  -2.304  0.00  0.00    -0.047 A 
ATOM      9  C9  IND d   1       2.595   0.441  -1.378  0.00  0.00    -0.096 A 
ATOM     10  HN1 IND d   1       0.531   0.960  -3.589  0.00  0.00     0.298 HD
ENDROOT
TORSDOF 0
ENDMDL
