MODEL 1
REMARK minimizedAffinity 2.82197785
REMARK minimizedRMSD -1
REMARK  0 active torsions:
REMARK  status: ('A' for Active; 'I' for Inactive)
ROOT
ATOM      1  N1  IND d   1       3.399   0.400  -2.013  0.00  0.00    -0.196 N 
ATOM      2  C2  IND d   1       2.550   1.138  -2.789  0.00  0.00     0.054 A 
ATOM      3  C3  IND d   1       1.319   0.579  -2.804  0.00  0.00    -0.031 A 
ATOM      4  C4  IND d   1       0.448  -1.491  -1.545  0.00  0.00     0.051 A 
ATOM      5  C5  IND d   1       0.862  -2.516  -0.741  0.00  0.00    -0.031 A 
ATOM      6  C6  IND d   1       2.168  -2.622  -0.309  0.00  0.00     0.015 A 
ATOM      7  C7  IND d   1       3.111  -1.697  -0.657  0.00  0.00    -0.016 A 
ATOM      8  C8  IND d   1       2.696  -0.659  -1.479  0.00  0.00    -0.047 A 
ATOM      9  C9  IND d   1       1.382  -0.569  -1.956  0.00  0.00    -0.096 A 
ATOM     10  HN1 IND d   1       4.232   0.567  -1.880  0.00  0.00     0.298 HD
ENDROOT
TORSDOF 0
ENDMDL
