MODEL 1
REMARK minimizedAffinity 10.4669428
REMARK minimizedRMSD -1
REMARK  0 active torsions:
REMARK  status: ('A' for Active; 'I' for Inactive)
ROOT
ATOM      1  N1  IND d   1      -4.232  -0.876  -1.533  0.00  0.00    -0.196 N 
ATOM      2  C2  IND d   1      -2.884  -0.650  -1.487  0.00  0.00     0.054 A 
ATOM      3  C3  IND d   1      -2.389  -1.001  -0.279  0.00  0.00    -0.031 A 
ATOM      4  C4  IND d   1      -3.590  -2.060   1.736  0.00  0.00     0.051 A 
ATOM      5  C5  IND d   1      -4.830  -2.422   2.183  0.00  0.00    -0.031 A 
ATOM      6  C6  IND d   1      -5.956  -2.286   1.397  0.00  0.00     0.015 A 
ATOM      7  C7  IND d   1      -5.883  -1.792   0.126  0.00  0.00    -0.016 A 
ATOM      8  C8  IND d   1      -4.626  -1.418  -0.329  0.00  0.00    -0.047 A 
ATOM      9  C9  IND d   1      -3.486  -1.513   0.479  0.00  0.00    -0.096 A 
ATOM     10  HN1 IND d   1      -4.747  -0.708  -2.200  0.00  0.00     0.298 HD
ENDROOT
TORSDOF 0
ENDMDL
