MODEL 1
REMARK minimizedAffinity 6.75444078
REMARK minimizedRMSD -1
REMARK  0 active torsions:
REMARK  status: ('A' for Active; 'I' for Inactive)
ROOT
ATOM      1  N1  IND d   1       2.727  -0.362  -3.115  0.00  0.00    -0.196 N 
ATOM      2  C2  IND d   1       3.915   0.302  -2.988  0.00  0.00     0.054 A 
ATOM      3  C3  IND d   1       4.664  -0.257  -2.012  0.00  0.00    -0.031 A 
ATOM      4  C4  IND d   1       4.181  -2.330  -0.563  0.00  0.00     0.051 A 
ATOM      5  C5  IND d   1       3.207  -3.249  -0.289  0.00  0.00    -0.031 A 
ATOM      6  C6  IND d   1       2.000  -3.255  -0.959  0.00  0.00     0.015 A 
ATOM      7  C7  IND d   1       1.726  -2.344  -1.939  0.00  0.00    -0.016 A 
ATOM      8  C8  IND d   1       2.709  -1.405  -2.215  0.00  0.00    -0.047 A 
ATOM      9  C9  IND d   1       3.919  -1.367  -1.510  0.00  0.00    -0.096 A 
ATOM     10  HN1 IND d   1       2.096  -0.161  -3.664  0.00  0.00     0.298 HD
ENDROOT
TORSDOF 0
ENDMDL
