MODEL 1
REMARK minimizedAffinity 2.49368715
REMARK minimizedRMSD -1
REMARK  0 active torsions:
REMARK  status: ('A' for Active; 'I' for Inactive)
ROOT
ATOM      1  N1  IND d   1       0.901   0.680  -2.158  0.00  0.00    -0.196 N 
ATOM      2  C2  IND d   1       2.073   1.379  -2.246  0.00  0.00     0.054 A 
ATOM      3  C3  IND d   1       3.071   0.704  -1.633  0.00  0.00    -0.031 A 
ATOM      4  C4  IND d   1       3.029  -1.612  -0.509  0.00  0.00     0.051 A 
ATOM      5  C5  IND d   1       2.178  -2.619  -0.149  0.00  0.00    -0.031 A 
ATOM      6  C6  IND d   1       0.832  -2.579  -0.449  0.00  0.00     0.015 A 
ATOM      7  C7  IND d   1       0.286  -1.530  -1.133  0.00  0.00    -0.016 A 
ATOM      8  C8  IND d   1       1.145  -0.502  -1.494  0.00  0.00    -0.047 A 
ATOM      9  C9  IND d   1       2.504  -0.517  -1.155  0.00  0.00    -0.096 A 
ATOM     10  HN1 IND d   1       0.140   0.936  -2.466  0.00  0.00     0.298 HD
ENDROOT
TORSDOF 0
ENDMDL
