MODEL 1
REMARK minimizedAffinity 0.670682788
REMARK minimizedRMSD -1
REMARK  0 active torsions:
REMARK  status: ('A' for Active; 'I' for Inactive)
ROOT
ATOM      1  N1  IND d   1       5.288  -4.599   6.000  0.00  0.00    -0.196 N 
ATOM      2  C2  IND d   1       5.696  -5.641   5.214  0.00  0.00     0.054 A 
ATOM      3  C3  IND d   1       5.998  -5.203   3.971  0.00  0.00    -0.031 A 
ATOM      4  C4  IND d   1       5.992  -2.804   3.036  0.00  0.00     0.051 A 
ATOM      5  C5  IND d   1       5.658  -1.520   3.366  0.00  0.00    -0.031 A 
ATOM      6  C6  IND d   1       5.177  -1.190   4.616  0.00  0.00     0.015 A 
ATOM      7  C7  IND d   1       5.022  -2.134   5.592  0.00  0.00    -0.016 A 
ATOM      8  C8  IND d   1       5.353  -3.440   5.259  0.00  0.00    -0.047 A 
ATOM      9  C9  IND d   1       5.801  -3.788   3.978  0.00  0.00    -0.096 A 
ATOM     10  HN1 IND d   1       5.034  -4.658   6.819  0.00  0.00     0.298 HD
ENDROOT
TORSDOF 0
ENDMDL
