MODEL 1
REMARK minimizedAffinity 2.75425315
REMARK minimizedRMSD -1
REMARK  0 active torsions:
REMARK  status: ('A' for Active; 'I' for Inactive)
ROOT
ATOM      1  N1  IND d   1      -0.692   0.978  -0.939  0.00  0.00    -0.196 N 
ATOM      2  C2  IND d   1      -0.097   2.129  -0.504  0.00  0.00     0.054 A 
ATOM      3  C3  IND d   1       1.248   1.986  -0.489  0.00  0.00    -0.031 A 
ATOM      4  C4  IND d   1       2.689  -0.012  -1.236  0.00  0.00     0.051 A 
ATOM      5  C5  IND d   1       2.597  -1.303  -1.674  0.00  0.00    -0.031 A 
ATOM      6  C6  IND d   1       1.378  -1.911  -1.896  0.00  0.00     0.015 A 
ATOM      7  C7  IND d   1       0.202  -1.244  -1.699  0.00  0.00    -0.016 A 
ATOM      8  C8  IND d   1       0.293   0.065  -1.248  0.00  0.00    -0.047 A 
ATOM      9  C9  IND d   1       1.525   0.674  -0.980  0.00  0.00    -0.096 A 
ATOM     10  HN1 IND d   1      -1.539   0.846  -1.009  0.00  0.00     0.298 HD
ENDROOT
TORSDOF 0
ENDMDL
