MODEL 1
REMARK minimizedAffinity 13.3090191
REMARK minimizedRMSD -1
REMARK  0 active torsions:
REMARK  status: ('A' for Active; 'I' for Inactive)
ROOT
ATOM      1  N1  IND d   1       0.100   1.624  -2.030  0.00  0.00    -0.196 N 
ATOM      2  C2  IND d   1       1.292   1.181  -2.532  0.00  0.00     0.054 A 
ATOM      3  C3  IND d   1       2.253   1.240  -1.582  0.00  0.00    -0.031 A 
ATOM      4  C4  IND d   1       2.070   1.935   0.890  0.00  0.00     0.051 A 
ATOM      5  C5  IND d   1       1.192   2.452   1.801  0.00  0.00    -0.031 A 
ATOM      6  C6  IND d   1      -0.122   2.722   1.476  0.00  0.00     0.015 A 
ATOM      7  C7  IND d   1      -0.612   2.474   0.225  0.00  0.00    -0.016 A 
ATOM      8  C8  IND d   1       0.278   1.956  -0.705  0.00  0.00    -0.047 A 
ATOM      9  C9  IND d   1       1.623   1.719  -0.393  0.00  0.00    -0.096 A 
ATOM     10  HN1 IND d   1      -0.637   1.686  -2.469  0.00  0.00     0.298 HD
ENDROOT
TORSDOF 0
ENDMDL
