MODEL 1
REMARK minimizedAffinity 13.5361328
REMARK minimizedRMSD -1
REMARK  0 active torsions:
REMARK  status: ('A' for Active; 'I' for Inactive)
ROOT
ATOM      1  N1  IND d   1      -5.913   0.965   2.328  0.00  0.00    -0.196 N 
ATOM      2  C2  IND d   1      -5.316   0.027   1.532  0.00  0.00     0.054 A 
ATOM      3  C3  IND d   1      -4.640  -0.868   2.287  0.00  0.00    -0.031 A 
ATOM      4  C4  IND d   1      -4.462  -1.043   4.849  0.00  0.00     0.051 A 
ATOM      5  C5  IND d   1      -4.807  -0.392   6.000  0.00  0.00    -0.031 A 
ATOM      6  C6  IND d   1      -5.556   0.767   5.985  0.00  0.00     0.015 A 
ATOM      7  C7  IND d   1      -5.999   1.314   4.815  0.00  0.00    -0.016 A 
ATOM      8  C8  IND d   1      -5.645   0.659   3.644  0.00  0.00    -0.047 A 
ATOM      9  C9  IND d   1      -4.849  -0.494   3.650  0.00  0.00    -0.096 A 
ATOM     10  HN1 IND d   1      -6.378   1.634   2.052  0.00  0.00     0.298 HD
ENDROOT
TORSDOF 0
ENDMDL
