MODEL 1
REMARK minimizedAffinity 11.3452787
REMARK minimizedRMSD -1
REMARK  0 active torsions:
REMARK  status: ('A' for Active; 'I' for Inactive)
ROOT
ATOM      1  N1  IND d   1      -0.377   1.611  -1.235  0.00  0.00    -0.196 N 
ATOM      2  C2  IND d   1       0.747   1.171  -1.876  0.00  0.00     0.054 A 
ATOM      3  C3  IND d   1       1.836   1.355  -1.097  0.00  0.00    -0.031 A 
ATOM      4  C4  IND d   1       1.992   2.267   1.305  0.00  0.00     0.051 A 
ATOM      5  C5  IND d   1       1.237   2.831   2.295  0.00  0.00    -0.031 A 
ATOM      6  C6  IND d   1      -0.123   3.019   2.156  0.00  0.00     0.015 A 
ATOM      7  C7  IND d   1      -0.783   2.637   1.023  0.00  0.00    -0.016 A 
ATOM      8  C8  IND d   1      -0.018   2.071   0.013  0.00  0.00    -0.047 A 
ATOM      9  C9  IND d   1       1.369   1.917   0.131  0.00  0.00    -0.096 A 
ATOM     10  HN1 IND d   1      -1.174   1.603  -1.557  0.00  0.00     0.298 HD
ENDROOT
TORSDOF 0
ENDMDL
