MODEL 1
REMARK minimizedAffinity 2.93758655
REMARK minimizedRMSD -1
REMARK  0 active torsions:
REMARK  status: ('A' for Active; 'I' for Inactive)
ROOT
ATOM      1  N1  IND d   1      -0.350   2.397  -1.682  0.00  0.00    -0.196 N 
ATOM      2  C2  IND d   1       0.414   1.272  -1.820  0.00  0.00     0.054 A 
ATOM      3  C3  IND d   1       1.115   1.037  -0.689  0.00  0.00    -0.031 A 
ATOM      4  C4  IND d   1       1.085   2.311   1.548  0.00  0.00     0.051 A 
ATOM      5  C5  IND d   1       0.570   3.427   2.145  0.00  0.00    -0.031 A 
ATOM      6  C6  IND d   1      -0.298   4.273   1.485  0.00  0.00     0.015 A 
ATOM      7  C7  IND d   1      -0.693   4.026   0.200  0.00  0.00    -0.016 A 
ATOM      8  C8  IND d   1      -0.167   2.897  -0.411  0.00  0.00    -0.047 A 
ATOM      9  C9  IND d   1       0.747   2.058   0.240  0.00  0.00    -0.096 A 
ATOM     10  HN1 IND d   1      -0.860   2.735  -2.286  0.00  0.00     0.298 HD
ENDROOT
TORSDOF 0
ENDMDL
