MODEL 1
REMARK minimizedAffinity 2.28234482
REMARK minimizedRMSD -1
REMARK  0 active torsions:
REMARK  status: ('A' for Active; 'I' for Inactive)
ROOT
ATOM      1  N1  IND d   1       2.250   1.930   1.438  0.00  0.00    -0.196 N 
ATOM      2  C2  IND d   1       1.008   2.028   2.001  0.00  0.00     0.054 A 
ATOM      3  C3  IND d   1       0.053   1.772   1.081  0.00  0.00    -0.031 A 
ATOM      4  C4  IND d   1       0.302   1.070  -1.384  0.00  0.00     0.051 A 
ATOM      5  C5  IND d   1       1.239   0.883  -2.361  0.00  0.00    -0.031 A 
ATOM      6  C6  IND d   1       2.588   1.036  -2.116  0.00  0.00     0.015 A 
ATOM      7  C7  IND d   1       3.054   1.372  -0.876  0.00  0.00    -0.016 A 
ATOM      8  C8  IND d   1       2.105   1.569   0.117  0.00  0.00    -0.047 A 
ATOM      9  C9  IND d   1       0.731   1.457  -0.136  0.00  0.00    -0.096 A 
ATOM     10  HN1 IND d   1       2.997   2.069   1.841  0.00  0.00     0.298 HD
ENDROOT
TORSDOF 0
ENDMDL
