MODEL 1
REMARK minimizedAffinity 3.13340545
REMARK minimizedRMSD -1
REMARK  0 active torsions:
REMARK  status: ('A' for Active; 'I' for Inactive)
ROOT
ATOM      1  N1  IND d   1       1.123   1.309  -2.567  0.00  0.00    -0.196 N 
ATOM      2  C2  IND d   1       1.771   2.491  -2.338  0.00  0.00     0.054 A 
ATOM      3  C3  IND d   1       2.964   2.265  -1.742  0.00  0.00    -0.031 A 
ATOM      4  C4  IND d   1       4.096   0.032  -1.143  0.00  0.00     0.051 A 
ATOM      5  C5  IND d   1       3.877  -1.316  -1.126  0.00  0.00    -0.031 A 
ATOM      6  C6  IND d   1       2.706  -1.870  -1.601  0.00  0.00     0.015 A 
ATOM      7  C7  IND d   1       1.710  -1.093  -2.123  0.00  0.00    -0.016 A 
ATOM      8  C8  IND d   1       1.927   0.277  -2.135  0.00  0.00    -0.047 A 
ATOM      9  C9  IND d   1       3.096   0.849  -1.615  0.00  0.00    -0.096 A 
ATOM     10  HN1 IND d   1       0.344   1.225  -2.921  0.00  0.00     0.298 HD
ENDROOT
TORSDOF 0
ENDMDL
