MODEL 1
REMARK minimizedAffinity -0.574068308
REMARK minimizedRMSD -1
REMARK  0 active torsions:
REMARK  status: ('A' for Active; 'I' for Inactive)
ROOT
ATOM      1  C   UNL d   1       3.252   0.318   1.100  0.00  0.00     0.077 C 
ATOM      2  C1  UNL d   1       1.778   0.197   0.851  0.00  0.00    -0.074 A 
ATOM      3  C2  UNL d   1       1.040   1.280   0.363  0.00  0.00    -0.005 A 
ATOM      4  C3  UNL d   1      -0.328   1.150   0.128  0.00  0.00     0.006 A 
ATOM      5  C4  UNL d   1      -0.972  -0.063   0.378  0.00  0.00    -0.005 A 
ATOM      6  C5  UNL d   1      -0.251  -1.157   0.866  0.00  0.00    -0.074 A 
ATOM      7  C6  UNL d   1      -0.925  -2.470   1.131  0.00  0.00     0.077 C 
ATOM      8  C7  UNL d   1       1.126  -1.020   1.093  0.00  0.00    -0.001 A 
ENDROOT
TORSDOF 0
ENDMDL
