MODEL 1
REMARK minimizedAffinity -4.29351854
REMARK minimizedRMSD -1
REMARK  0 active torsions:
REMARK  status: ('A' for Active; 'I' for Inactive)
ROOT
ATOM      1  C   UNL d   1      -0.951  -2.039   1.028  0.00  0.00     0.077 C 
ATOM      2  C1  UNL d   1       0.006  -0.923   0.731  0.00  0.00    -0.074 A 
ATOM      3  C2  UNL d   1      -0.442   0.397   0.618  0.00  0.00    -0.005 A 
ATOM      4  C3  UNL d   1       0.461   1.426   0.351  0.00  0.00     0.006 A 
ATOM      5  C4  UNL d   1       1.819   1.146   0.195  0.00  0.00    -0.005 A 
ATOM      6  C5  UNL d   1       2.286  -0.167   0.307  0.00  0.00    -0.074 A 
ATOM      7  C6  UNL d   1       3.744  -0.484   0.152  0.00  0.00     0.077 C 
ATOM      8  C7  UNL d   1       1.373  -1.195   0.582  0.00  0.00    -0.001 A 
ENDROOT
TORSDOF 0
ENDMDL
