MODEL 1
REMARK minimizedAffinity -5.0988121
REMARK minimizedRMSD -1
REMARK  0 active torsions:
REMARK  status: ('A' for Active; 'I' for Inactive)
ROOT
ATOM      1  C   UNL d   1       3.511  -1.186   1.022  0.00  0.00     0.077 C 
ATOM      2  C1  UNL d   1       2.180  -0.610   0.637  0.00  0.00    -0.074 A 
ATOM      3  C2  UNL d   1       1.058  -1.430   0.488  0.00  0.00    -0.005 A 
ATOM      4  C3  UNL d   1      -0.175  -0.879   0.139  0.00  0.00     0.006 A 
ATOM      5  C4  UNL d   1      -0.297   0.496  -0.065  0.00  0.00    -0.005 A 
ATOM      6  C5  UNL d   1       0.814   1.332   0.080  0.00  0.00    -0.074 A 
ATOM      7  C6  UNL d   1       0.698   2.813  -0.126  0.00  0.00     0.077 C 
ATOM      8  C7  UNL d   1       2.048   0.772   0.438  0.00  0.00    -0.001 A 
ENDROOT
TORSDOF 0
ENDMDL
