MODEL 1
REMARK minimizedAffinity -4.41594505
REMARK minimizedRMSD -1
REMARK  0 active torsions:
REMARK  status: ('A' for Active; 'I' for Inactive)
ROOT
ATOM      1  C   UNL d   1      -1.631  -0.902   0.171  0.00  0.00     0.077 C 
ATOM      2  C1  UNL d   1      -2.353  -0.732  -1.133  0.00  0.00    -0.074 A 
ATOM      3  C2  UNL d   1      -2.585  -1.826  -1.974  0.00  0.00    -0.005 A 
ATOM      4  C3  UNL d   1      -3.267  -1.655  -3.179  0.00  0.00     0.006 A 
ATOM      5  C4  UNL d   1      -3.722  -0.390  -3.555  0.00  0.00    -0.005 A 
ATOM      6  C5  UNL d   1      -3.500   0.715  -2.727  0.00  0.00    -0.074 A 
ATOM      7  C6  UNL d   1      -3.991   2.079  -3.112  0.00  0.00     0.077 C 
ATOM      8  C7  UNL d   1      -2.820   0.533  -1.514  0.00  0.00    -0.001 A 
ENDROOT
TORSDOF 0
ENDMDL
