MODEL 1
REMARK minimizedAffinity -3.57585073
REMARK minimizedRMSD -1
REMARK  0 active torsions:
REMARK  status: ('A' for Active; 'I' for Inactive)
ROOT
ATOM      1  C   UNL d   1      -1.430  -0.788   0.643  0.00  0.00     0.077 C 
ATOM      2  C1  UNL d   1      -0.177   0.035   0.670  0.00  0.00    -0.074 A 
ATOM      3  C2  UNL d   1      -0.235   1.430   0.746  0.00  0.00    -0.005 A 
ATOM      4  C3  UNL d   1       0.940   2.182   0.780  0.00  0.00     0.006 A 
ATOM      5  C4  UNL d   1       2.182   1.547   0.739  0.00  0.00    -0.005 A 
ATOM      6  C5  UNL d   1       2.259   0.153   0.664  0.00  0.00    -0.074 A 
ATOM      7  C6  UNL d   1       3.586  -0.546   0.629  0.00  0.00     0.077 C 
ATOM      8  C7  UNL d   1       1.075  -0.596   0.637  0.00  0.00    -0.001 A 
ENDROOT
TORSDOF 0
ENDMDL
