MODEL 1
REMARK minimizedAffinity -5.07255173
REMARK minimizedRMSD -1
REMARK  0 active torsions:
REMARK  status: ('A' for Active; 'I' for Inactive)
ROOT
ATOM      1  C   UNL d   1       1.733  -2.324   2.608  0.00  0.00     0.077 C 
ATOM      2  C1  UNL d   1       1.436  -1.163   1.706  0.00  0.00    -0.074 A 
ATOM      3  C2  UNL d   1       2.356  -0.122   1.548  0.00  0.00    -0.005 A 
ATOM      4  C3  UNL d   1       2.071   0.947   0.698  0.00  0.00     0.006 A 
ATOM      5  C4  UNL d   1       0.864   0.984  -0.002  0.00  0.00    -0.005 A 
ATOM      6  C5  UNL d   1      -0.068  -0.048   0.143  0.00  0.00    -0.074 A 
ATOM      7  C6  UNL d   1      -1.365  -0.028  -0.610  0.00  0.00     0.077 C 
ATOM      8  C7  UNL d   1       0.230  -1.122   0.993  0.00  0.00    -0.001 A 
ENDROOT
TORSDOF 0
ENDMDL
