MODEL 1
REMARK minimizedAffinity -1.66843867
REMARK minimizedRMSD -1
REMARK  0 active torsions:
REMARK  status: ('A' for Active; 'I' for Inactive)
ROOT
ATOM      1  C   UNL d   1      -1.053  -2.892   0.959  0.00  0.00     0.077 C 
ATOM      2  C1  UNL d   1      -0.219  -1.658   0.789  0.00  0.00    -0.074 A 
ATOM      3  C2  UNL d   1      -0.813  -0.417   0.536  0.00  0.00    -0.005 A 
ATOM      4  C3  UNL d   1      -0.025   0.724   0.390  0.00  0.00     0.006 A 
ATOM      5  C4  UNL d   1       1.364   0.636   0.495  0.00  0.00    -0.005 A 
ATOM      6  C5  UNL d   1       1.976  -0.595   0.748  0.00  0.00    -0.074 A 
ATOM      7  C6  UNL d   1       3.467  -0.705   0.873  0.00  0.00     0.077 C 
ATOM      8  C7  UNL d   1       1.177  -1.736   0.901  0.00  0.00    -0.001 A 
ENDROOT
TORSDOF 0
ENDMDL
