MODEL 1
REMARK minimizedAffinity 12.2752666
REMARK minimizedRMSD -1
REMARK  0 active torsions:
REMARK  status: ('A' for Active; 'I' for Inactive)
ROOT
ATOM      1  N1  IND d   1      -0.130  -3.981   0.386  0.00  0.00    -0.196 N 
ATOM      2  C2  IND d   1      -0.542  -4.462   1.597  0.00  0.00     0.054 A 
ATOM      3  C3  IND d   1      -1.536  -3.692   2.095  0.00  0.00    -0.031 A 
ATOM      4  C4  IND d   1      -2.709  -1.655   1.045  0.00  0.00     0.051 A 
ATOM      5  C5  IND d   1      -2.654  -0.819  -0.034  0.00  0.00    -0.031 A 
ATOM      6  C6  IND d   1      -1.739  -0.999  -1.051  0.00  0.00     0.015 A 
ATOM      7  C7  IND d   1      -0.847  -2.034  -1.031  0.00  0.00    -0.016 A 
ATOM      8  C8  IND d   1      -0.895  -2.881   0.067  0.00  0.00    -0.047 A 
ATOM      9  C9  IND d   1      -1.793  -2.678   1.122  0.00  0.00    -0.096 A 
ATOM     10  HN1 IND d   1       0.502  -4.310  -0.096  0.00  0.00     0.298 HD
ENDROOT
TORSDOF 0
ENDMDL
