MODEL 1
REMARK minimizedAffinity 11.4488859
REMARK minimizedRMSD -1
REMARK  0 active torsions:
REMARK  status: ('A' for Active; 'I' for Inactive)
ROOT
ATOM      1  N1  IND d   1      -0.390  -2.172   3.617  0.00  0.00    -0.196 N 
ATOM      2  C2  IND d   1      -1.085  -1.081   4.059  0.00  0.00     0.054 A 
ATOM      3  C3  IND d   1      -2.003  -0.704   3.141  0.00  0.00    -0.031 A 
ATOM      4  C4  IND d   1      -2.608  -1.796   0.890  0.00  0.00     0.051 A 
ATOM      5  C5  IND d   1      -2.223  -2.794   0.039  0.00  0.00    -0.031 A 
ATOM      6  C6  IND d   1      -1.188  -3.655   0.345  0.00  0.00     0.015 A 
ATOM      7  C7  IND d   1      -0.504  -3.556   1.523  0.00  0.00    -0.016 A 
ATOM      8  C8  IND d   1      -0.888  -2.539   2.387  0.00  0.00    -0.047 A 
ATOM      9  C9  IND d   1      -1.909  -1.637   2.063  0.00  0.00    -0.096 A 
ATOM     10  HN1 IND d   1       0.250  -2.563   4.038  0.00  0.00     0.298 HD
ENDROOT
TORSDOF 0
ENDMDL
