MODEL 1
REMARK minimizedAffinity 10.5905247
REMARK minimizedRMSD -1
REMARK  0 active torsions:
REMARK  status: ('A' for Active; 'I' for Inactive)
ROOT
ATOM      1  N1  IND d   1      -1.101   0.499   2.924  0.00  0.00    -0.196 N 
ATOM      2  C2  IND d   1      -1.144   0.281   4.273  0.00  0.00     0.054 A 
ATOM      3  C3  IND d   1      -1.286  -1.038   4.531  0.00  0.00    -0.031 A 
ATOM      4  C4  IND d   1      -1.366  -3.026   2.897  0.00  0.00     0.051 A 
ATOM      5  C5  IND d   1      -1.399  -3.323   1.563  0.00  0.00    -0.031 A 
ATOM      6  C6  IND d   1      -1.330  -2.342   0.596  0.00  0.00     0.015 A 
ATOM      7  C7  IND d   1      -1.214  -1.021   0.927  0.00  0.00    -0.016 A 
ATOM      8  C8  IND d   1      -1.187  -0.715   2.280  0.00  0.00    -0.047 A 
ATOM      9  C9  IND d   1      -1.299  -1.703   3.267  0.00  0.00    -0.096 A 
ATOM     10  HN1 IND d   1      -1.032   1.267   2.542  0.00  0.00     0.298 HD
ENDROOT
TORSDOF 0
ENDMDL
