MODEL 1
REMARK minimizedAffinity 11.5356379
REMARK minimizedRMSD -1
REMARK  0 active torsions:
REMARK  status: ('A' for Active; 'I' for Inactive)
ROOT
ATOM      1  N1  IND d   1      -0.916  -3.270  -0.270  0.00  0.00    -0.196 N 
ATOM      2  C2  IND d   1      -0.659  -4.467   0.339  0.00  0.00     0.054 A 
ATOM      3  C3  IND d   1      -0.564  -4.303   1.677  0.00  0.00    -0.031 A 
ATOM      4  C4  IND d   1      -0.896  -2.178   3.093  0.00  0.00     0.051 A 
ATOM      5  C5  IND d   1      -1.110  -0.833   2.983  0.00  0.00    -0.031 A 
ATOM      6  C6  IND d   1      -1.276  -0.219   1.758  0.00  0.00     0.015 A 
ATOM      7  C7  IND d   1      -1.246  -0.933   0.594  0.00  0.00    -0.016 A 
ATOM      8  C8  IND d   1      -1.022  -2.298   0.701  0.00  0.00    -0.047 A 
ATOM      9  C9  IND d   1      -0.810  -2.920   1.938  0.00  0.00    -0.096 A 
ATOM     10  HN1 IND d   1      -0.998  -3.145  -1.116  0.00  0.00     0.298 HD
ENDROOT
TORSDOF 0
ENDMDL
