MODEL 1
REMARK minimizedAffinity 4.02519417
REMARK minimizedRMSD -1
REMARK  0 active torsions:
REMARK  status: ('A' for Active; 'I' for Inactive)
ROOT
ATOM      1  N1  IND d   1      -0.400  -3.297   1.082  0.00  0.00    -0.196 N 
ATOM      2  C2  IND d   1      -0.733  -2.353   2.013  0.00  0.00     0.054 A 
ATOM      3  C3  IND d   1      -1.527  -1.408   1.462  0.00  0.00    -0.031 A 
ATOM      4  C4  IND d   1      -2.488  -1.267  -0.922  0.00  0.00     0.051 A 
ATOM      5  C5  IND d   1      -2.436  -1.880  -2.143  0.00  0.00    -0.031 A 
ATOM      6  C6  IND d   1      -1.689  -3.021  -2.354  0.00  0.00     0.015 A 
ATOM      7  C7  IND d   1      -0.973  -3.601  -1.345  0.00  0.00    -0.016 A 
ATOM      8  C8  IND d   1      -1.018  -2.977  -0.106  0.00  0.00    -0.047 A 
ATOM      9  C9  IND d   1      -1.740  -1.795   0.103  0.00  0.00    -0.096 A 
ATOM     10  HN1 IND d   1       0.110  -3.976   1.217  0.00  0.00     0.298 HD
ENDROOT
TORSDOF 0
ENDMDL
