MODEL 1
REMARK minimizedAffinity 10.8889523
REMARK minimizedRMSD -1
REMARK  0 active torsions:
REMARK  status: ('A' for Active; 'I' for Inactive)
ROOT
ATOM      1  N1  IND d   1      -1.271  -0.674   4.403  0.00  0.00    -0.196 N 
ATOM      2  C2  IND d   1      -1.471   0.614   3.990  0.00  0.00     0.054 A 
ATOM      3  C3  IND d   1      -1.423   0.688   2.641  0.00  0.00    -0.031 A 
ATOM      4  C4  IND d   1      -1.131  -1.193   0.909  0.00  0.00     0.051 A 
ATOM      5  C5  IND d   1      -0.877  -2.532   0.805  0.00  0.00    -0.031 A 
ATOM      6  C6  IND d   1      -0.741  -3.337   1.918  0.00  0.00     0.015 A 
ATOM      7  C7  IND d   1      -0.866  -2.832   3.182  0.00  0.00    -0.016 A 
ATOM      8  C8  IND d   1      -1.117  -1.472   3.291  0.00  0.00    -0.047 A 
ATOM      9  C9  IND d   1      -1.214  -0.642   2.166  0.00  0.00    -0.096 A 
ATOM     10  HN1 IND d   1      -1.245  -0.940   5.220  0.00  0.00     0.298 HD
ENDROOT
TORSDOF 0
ENDMDL
