MODEL 1
REMARK minimizedAffinity 11.3131666
REMARK minimizedRMSD -1
REMARK  0 active torsions:
REMARK  status: ('A' for Active; 'I' for Inactive)
ROOT
ATOM      1  N1  IND d   1       4.701   0.481   2.388  0.00  0.00    -0.196 N 
ATOM      2  C2  IND d   1       4.791   1.584   1.585  0.00  0.00     0.054 A 
ATOM      3  C3  IND d   1       4.627   2.710   2.314  0.00  0.00    -0.031 A 
ATOM      4  C4  IND d   1       4.299   2.983   4.853  0.00  0.00     0.051 A 
ATOM      5  C5  IND d   1       4.115   2.261   5.999  0.00  0.00    -0.031 A 
ATOM      6  C6  IND d   1       4.119   0.881   6.000  0.00  0.00     0.015 A 
ATOM      7  C7  IND d   1       4.320   0.169   4.852  0.00  0.00    -0.016 A 
ATOM      8  C8  IND d   1       4.501   0.898   3.685  0.00  0.00    -0.047 A 
ATOM      9  C9  IND d   1       4.455   2.298   3.671  0.00  0.00    -0.096 A 
ATOM     10  HN1 IND d   1       4.759  -0.336   2.126  0.00  0.00     0.298 HD
ENDROOT
TORSDOF 0
ENDMDL
