MODEL 1
REMARK minimizedAffinity 5.71432781
REMARK minimizedRMSD -1
REMARK  0 active torsions:
REMARK  status: ('A' for Active; 'I' for Inactive)
ROOT
ATOM      1  N1  IND d   1      -0.302  -3.985   1.545  0.00  0.00    -0.196 N 
ATOM      2  C2  IND d   1      -0.249  -3.366   2.763  0.00  0.00     0.054 A 
ATOM      3  C3  IND d   1      -0.881  -2.172   2.711  0.00  0.00    -0.031 A 
ATOM      4  C4  IND d   1      -2.162  -1.082   0.762  0.00  0.00     0.051 A 
ATOM      5  C5  IND d   1      -2.455  -1.251  -0.562  0.00  0.00    -0.031 A 
ATOM      6  C6  IND d   1      -2.040  -2.364  -1.265  0.00  0.00     0.015 A 
ATOM      7  C7  IND d   1      -1.322  -3.359  -0.664  0.00  0.00    -0.016 A 
ATOM      8  C8  IND d   1      -1.016  -3.187   0.679  0.00  0.00    -0.047 A 
ATOM      9  C9  IND d   1      -1.399  -2.040   1.386  0.00  0.00    -0.096 A 
ATOM     10  HN1 IND d   1       0.051  -4.745   1.353  0.00  0.00     0.298 HD
ENDROOT
TORSDOF 0
ENDMDL
