MODEL 1
REMARK minimizedAffinity 4.49942112
REMARK minimizedRMSD -1
REMARK  0 active torsions:
REMARK  status: ('A' for Active; 'I' for Inactive)
ROOT
ATOM      1  N1  IND d   1      -0.752  -2.719  -0.368  0.00  0.00    -0.196 N 
ATOM      2  C2  IND d   1      -1.568  -1.634  -0.211  0.00  0.00     0.054 A 
ATOM      3  C3  IND d   1      -2.701  -1.986   0.436  0.00  0.00    -0.031 A 
ATOM      4  C4  IND d   1      -3.382  -4.266   1.418  0.00  0.00     0.051 A 
ATOM      5  C5  IND d   1      -2.979  -5.570   1.493  0.00  0.00    -0.031 A 
ATOM      6  C6  IND d   1      -1.789  -5.999   0.943  0.00  0.00     0.015 A 
ATOM      7  C7  IND d   1      -0.947  -5.133   0.304  0.00  0.00    -0.016 A 
ATOM      8  C8  IND d   1      -1.355  -3.809   0.220  0.00  0.00    -0.047 A 
ATOM      9  C9  IND d   1      -2.582  -3.377   0.739  0.00  0.00    -0.096 A 
ATOM     10  HN1 IND d   1       0.010  -2.721  -0.766  0.00  0.00     0.298 HD
ENDROOT
TORSDOF 0
ENDMDL
