MODEL 1
REMARK minimizedAffinity 14.8797865
REMARK minimizedRMSD -1
REMARK  0 active torsions:
REMARK  status: ('A' for Active; 'I' for Inactive)
ROOT
ATOM      1  N1  IND d   1      -5.999   4.736  -5.999  0.00  0.00    -0.196 N 
ATOM      2  C2  IND d   1      -5.951   5.972  -5.417  0.00  0.00     0.054 A 
ATOM      3  C3  IND d   1      -5.008   5.999  -4.449  0.00  0.00    -0.031 A 
ATOM      4  C4  IND d   1      -3.358   4.163  -3.719  0.00  0.00     0.051 A 
ATOM      5  C5  IND d   1      -3.044   2.850  -3.933  0.00  0.00    -0.031 A 
ATOM      6  C6  IND d   1      -3.710   2.084  -4.868  0.00  0.00     0.015 A 
ATOM      7  C7  IND d   1      -4.712   2.608  -5.635  0.00  0.00    -0.016 A 
ATOM      8  C8  IND d   1      -5.039   3.939  -5.415  0.00  0.00    -0.047 A 
ATOM      9  C9  IND d   1      -4.395   4.709  -4.438  0.00  0.00    -0.096 A 
ATOM     10  HN1 IND d   1      -6.537   4.496  -6.625  0.00  0.00     0.298 HD
ENDROOT
TORSDOF 0
ENDMDL
