MODEL 1
REMARK minimizedAffinity 6.09946489
REMARK minimizedRMSD -1
REMARK  0 active torsions:
REMARK  status: ('A' for Active; 'I' for Inactive)
ROOT
ATOM      1  N1  IND d   1      -1.156  -4.871   3.189  0.00  0.00    -0.196 N 
ATOM      2  C2  IND d   1      -0.965  -5.958   2.382  0.00  0.00     0.054 A 
ATOM      3  C3  IND d   1      -0.940  -5.581   1.084  0.00  0.00    -0.031 A 
ATOM      4  C4  IND d   1      -1.089  -3.222   0.062  0.00  0.00     0.051 A 
ATOM      5  C5  IND d   1      -1.303  -1.915   0.397  0.00  0.00    -0.031 A 
ATOM      6  C6  IND d   1      -1.481  -1.518   1.707  0.00  0.00     0.015 A 
ATOM      7  C7  IND d   1      -1.439  -2.416   2.736  0.00  0.00    -0.016 A 
ATOM      8  C8  IND d   1      -1.228  -3.745   2.398  0.00  0.00    -0.047 A 
ATOM      9  C9  IND d   1      -1.090  -4.160   1.068  0.00  0.00    -0.096 A 
ATOM     10  HN1 IND d   1      -1.221  -4.888   4.046  0.00  0.00     0.298 HD
ENDROOT
TORSDOF 0
ENDMDL
