MODEL 1
REMARK minimizedAffinity 16.5811939
REMARK minimizedRMSD -1
REMARK  0 active torsions:
REMARK  status: ('A' for Active; 'I' for Inactive)
ROOT
ATOM      1  N1  IND d   1      -2.491  -2.962   1.726  0.00  0.00    -0.196 N 
ATOM      2  C2  IND d   1      -1.490  -2.207   1.181  0.00  0.00     0.054 A 
ATOM      3  C3  IND d   1      -2.006  -1.138   0.533  0.00  0.00    -0.031 A 
ATOM      4  C4  IND d   1      -4.457  -0.376   0.328  0.00  0.00     0.051 A 
ATOM      5  C5  IND d   1      -5.733  -0.761   0.629  0.00  0.00    -0.031 A 
ATOM      6  C6  IND d   1      -5.999  -1.921   1.328  0.00  0.00     0.015 A 
ATOM      7  C7  IND d   1      -4.994  -2.737   1.763  0.00  0.00    -0.016 A 
ATOM      8  C8  IND d   1      -3.697  -2.354   1.453  0.00  0.00    -0.047 A 
ATOM      9  C9  IND d   1      -3.423  -1.200   0.707  0.00  0.00    -0.096 A 
ATOM     10  HN1 IND d   1      -2.386  -3.693   2.165  0.00  0.00     0.298 HD
ENDROOT
TORSDOF 0
ENDMDL
