MODEL 1
REMARK minimizedAffinity 13.8435421
REMARK minimizedRMSD -1
REMARK  0 active torsions:
REMARK  status: ('A' for Active; 'I' for Inactive)
ROOT
ATOM      1  N1  IND d   1      -2.630  -0.772   2.301  0.00  0.00    -0.196 N 
ATOM      2  C2  IND d   1      -3.191  -0.359   1.124  0.00  0.00     0.054 A 
ATOM      3  C3  IND d   1      -2.618  -0.999   0.080  0.00  0.00    -0.031 A 
ATOM      4  C4  IND d   1      -0.813  -2.835   0.078  0.00  0.00     0.051 A 
ATOM      5  C5  IND d   1       0.031  -3.516   0.909  0.00  0.00    -0.031 A 
ATOM      6  C6  IND d   1       0.029  -3.316   2.275  0.00  0.00     0.015 A 
ATOM      7  C7  IND d   1      -0.829  -2.431   2.863  0.00  0.00    -0.016 A 
ATOM      8  C8  IND d   1      -1.682  -1.731   2.022  0.00  0.00    -0.047 A 
ATOM      9  C9  IND d   1      -1.656  -1.900   0.631  0.00  0.00    -0.096 A 
ATOM     10  HN1 IND d   1      -2.835  -0.481   3.084  0.00  0.00     0.298 HD
ENDROOT
TORSDOF 0
ENDMDL
