MODEL 1
REMARK minimizedAffinity 0.925721824
REMARK minimizedRMSD -1
REMARK  0 active torsions:
REMARK  status: ('A' for Active; 'I' for Inactive)
ROOT
ATOM      1  N1  IND d   1      -1.775  -3.705  -1.902  0.00  0.00    -0.196 N 
ATOM      2  C2  IND d   1      -2.228  -2.538  -2.452  0.00  0.00     0.054 A 
ATOM      3  C3  IND d   1      -2.236  -1.553  -1.526  0.00  0.00    -0.031 A 
ATOM      4  C4  IND d   1      -1.454  -1.608   0.926  0.00  0.00     0.051 A 
ATOM      5  C5  IND d   1      -0.996  -2.460   1.892  0.00  0.00    -0.031 A 
ATOM      6  C6  IND d   1      -0.767  -3.797   1.636  0.00  0.00     0.015 A 
ATOM      7  C7  IND d   1      -0.978  -4.331   0.397  0.00  0.00    -0.016 A 
ATOM      8  C8  IND d   1      -1.450  -3.471  -0.584  0.00  0.00    -0.047 A 
ATOM      9  C9  IND d   1      -1.724  -2.123  -0.320  0.00  0.00    -0.096 A 
ATOM     10  HN1 IND d   1      -1.706  -4.458  -2.311  0.00  0.00     0.298 HD
ENDROOT
TORSDOF 0
ENDMDL
