MODEL 1
REMARK minimizedAffinity 5.46138048
REMARK minimizedRMSD -1
REMARK  0 active torsions:
REMARK  status: ('A' for Active; 'I' for Inactive)
ROOT
ATOM      1  N1  IND d   1      -0.939  -3.727  -1.676  0.00  0.00    -0.196 N 
ATOM      2  C2  IND d   1      -1.557  -2.957  -2.621  0.00  0.00     0.054 A 
ATOM      3  C3  IND d   1      -2.285  -1.982  -2.032  0.00  0.00    -0.031 A 
ATOM      4  C4  IND d   1      -2.522  -1.401   0.465  0.00  0.00     0.051 A 
ATOM      5  C5  IND d   1      -2.175  -1.842   1.711  0.00  0.00    -0.031 A 
ATOM      6  C6  IND d   1      -1.379  -2.954   1.896  0.00  0.00     0.015 A 
ATOM      7  C7  IND d   1      -0.890  -3.664   0.836  0.00  0.00    -0.016 A 
ATOM      8  C8  IND d   1      -1.247  -3.224  -0.431  0.00  0.00    -0.047 A 
ATOM      9  C9  IND d   1      -2.089  -2.121  -0.623  0.00  0.00    -0.096 A 
ATOM     10  HN1 IND d   1      -0.442  -4.411  -1.832  0.00  0.00     0.298 HD
ENDROOT
TORSDOF 0
ENDMDL
