MODEL 1
REMARK minimizedAffinity 3.12747312
REMARK minimizedRMSD -1
REMARK  0 active torsions:
REMARK  status: ('A' for Active; 'I' for Inactive)
ROOT
ATOM      1  N1  IND d   1      -1.476  -3.266  -2.264  0.00  0.00    -0.196 N 
ATOM      2  C2  IND d   1      -2.158  -2.165  -2.702  0.00  0.00     0.054 A 
ATOM      3  C3  IND d   1      -2.486  -1.370  -1.659  0.00  0.00    -0.031 A 
ATOM      4  C4  IND d   1      -1.917  -1.630   0.839  0.00  0.00     0.051 A 
ATOM      5  C5  IND d   1      -1.342  -2.494   1.728  0.00  0.00    -0.031 A 
ATOM      6  C6  IND d   1      -0.768  -3.682   1.324  0.00  0.00     0.015 A 
ATOM      7  C7  IND d   1      -0.738  -4.047   0.008  0.00  0.00    -0.016 A 
ATOM      8  C8  IND d   1      -1.327  -3.176  -0.897  0.00  0.00    -0.047 A 
ATOM      9  C9  IND d   1      -1.949  -1.989  -0.488  0.00  0.00    -0.096 A 
ATOM     10  HN1 IND d   1      -1.188  -3.908  -2.759  0.00  0.00     0.298 HD
ENDROOT
TORSDOF 0
ENDMDL
