MODEL 1
REMARK minimizedAffinity 2.01523781
REMARK minimizedRMSD -1
REMARK  0 active torsions:
REMARK  status: ('A' for Active; 'I' for Inactive)
ROOT
ATOM      1  N1  IND d   1      -2.405  -0.375   5.811  0.00  0.00    -0.196 N 
ATOM      2  C2  IND d   1      -2.842  -1.669   5.877  0.00  0.00     0.054 A 
ATOM      3  C3  IND d   1      -4.189  -1.705   5.995  0.00  0.00    -0.031 A 
ATOM      4  C4  IND d   1      -5.882   0.234   6.000  0.00  0.00     0.051 A 
ATOM      5  C5  IND d   1      -5.957   1.599   6.000  0.00  0.00    -0.031 A 
ATOM      6  C6  IND d   1      -4.830   2.391   5.933  0.00  0.00     0.015 A 
ATOM      7  C7  IND d   1      -3.580   1.846   5.851  0.00  0.00    -0.016 A 
ATOM      8  C8  IND d   1      -3.499   0.460   5.858  0.00  0.00    -0.047 A 
ATOM      9  C9  IND d   1      -4.637  -0.349   5.969  0.00  0.00    -0.096 A 
ATOM     10  HN1 IND d   1      -1.584  -0.126   5.750  0.00  0.00     0.298 HD
ENDROOT
TORSDOF 0
ENDMDL
