MODEL 1
REMARK minimizedAffinity -3.25912237
REMARK minimizedRMSD -1
REMARK  0 active torsions:
REMARK  status: ('A' for Active; 'I' for Inactive)
ROOT
ATOM      1  C2' OXE d   1      -0.776  -0.325   1.259  0.00  0.00     0.078 C 
ATOM      2  C1' OXE d   1       0.494  -2.334  -0.233  0.00  0.00     0.078 C 
ATOM      3  C1  OXE d   1       0.851  -0.901  -0.537  0.00  0.00    -0.078 A 
ATOM      4  C2  OXE d   1       0.190   0.078   0.166  0.00  0.00    -0.078 A 
ATOM      5  C3  OXE d   1       0.521   1.415  -0.036  0.00  0.00     0.003 A 
ATOM      6  C4  OXE d   1       1.408   1.779  -1.056  0.00  0.00    -0.002 A 
ATOM      7  C5  OXE d   1       2.063   0.800  -1.811  0.00  0.00    -0.002 A 
ATOM      8  C6  OXE d   1       1.828  -0.543  -1.536  0.00  0.00     0.003 A 
ENDROOT
TORSDOF 0
ENDMDL
