MODEL 1
REMARK minimizedAffinity -1.68369055
REMARK minimizedRMSD -1
REMARK  0 active torsions:
REMARK  status: ('A' for Active; 'I' for Inactive)
ROOT
ATOM      1  C2' OXE d   1      -2.742  -0.119   2.570  0.00  0.00     0.078 C 
ATOM      2  C1' OXE d   1      -4.763   1.503   1.491  0.00  0.00     0.078 C 
ATOM      3  C1  OXE d   1      -4.009   2.023   2.690  0.00  0.00    -0.078 A 
ATOM      4  C2  OXE d   1      -3.054   1.202   3.240  0.00  0.00    -0.078 A 
ATOM      5  C3  OXE d   1      -2.291   1.654   4.313  0.00  0.00     0.003 A 
ATOM      6  C4  OXE d   1      -2.592   2.873   4.933  0.00  0.00    -0.002 A 
ATOM      7  C5  OXE d   1      -3.588   3.707   4.413  0.00  0.00    -0.002 A 
ATOM      8  C6  OXE d   1      -4.275   3.316   3.269  0.00  0.00     0.003 A 
ENDROOT
TORSDOF 0
ENDMDL
