MODEL 1
REMARK minimizedAffinity -4.44080353
REMARK minimizedRMSD -1
REMARK  0 active torsions:
REMARK  status: ('A' for Active; 'I' for Inactive)
ROOT
ATOM      1  C2' OXE d   1       1.148   2.106   0.573  0.00  0.00     0.078 C 
ATOM      2  C1' OXE d   1      -0.943   0.236   0.493  0.00  0.00     0.078 C 
ATOM      3  C1  OXE d   1       0.157   0.105  -0.530  0.00  0.00    -0.078 A 
ATOM      4  C2  OXE d   1       1.153   1.052  -0.513  0.00  0.00    -0.078 A 
ATOM      5  C3  OXE d   1       2.220   0.946  -1.400  0.00  0.00     0.003 A 
ATOM      6  C4  OXE d   1       2.211  -0.026  -2.407  0.00  0.00    -0.002 A 
ATOM      7  C5  OXE d   1       1.187  -0.977  -2.467  0.00  0.00    -0.002 A 
ATOM      8  C6  OXE d   1       0.177  -0.951  -1.512  0.00  0.00     0.003 A 
ENDROOT
TORSDOF 0
ENDMDL
