MODEL 1
REMARK minimizedAffinity -1.69037926
REMARK minimizedRMSD -1
REMARK  0 active torsions:
REMARK  status: ('A' for Active; 'I' for Inactive)
ROOT
ATOM      1  C2' OXE d   1       1.095  -1.555  -2.250  0.00  0.00     0.078 C 
ATOM      2  C1' OXE d   1       3.007   0.437  -1.741  0.00  0.00     0.078 C 
ATOM      3  C1  OXE d   1       1.742   0.448  -0.918  0.00  0.00    -0.078 A 
ATOM      4  C2  OXE d   1       0.792  -0.502  -1.206  0.00  0.00    -0.078 A 
ATOM      5  C3  OXE d   1      -0.368  -0.570  -0.441  0.00  0.00     0.003 A 
ATOM      6  C4  OXE d   1      -0.645   0.414   0.516  0.00  0.00    -0.002 A 
ATOM      7  C5  OXE d   1       0.292   1.414   0.798  0.00  0.00    -0.002 A 
ATOM      8  C6  OXE d   1       1.506   1.420   0.121  0.00  0.00     0.003 A 
ENDROOT
TORSDOF 0
ENDMDL
