MODEL 1
REMARK minimizedAffinity -1.30910242
REMARK minimizedRMSD -1
REMARK  0 active torsions:
REMARK  status: ('A' for Active; 'I' for Inactive)
ROOT
ATOM      1  C2' OXE d   1       2.018   0.657  -1.796  0.00  0.00     0.078 C 
ATOM      2  C1' OXE d   1       1.894   2.254   0.508  0.00  0.00     0.078 C 
ATOM      3  C1  OXE d   1       0.868   1.159   0.355  0.00  0.00    -0.078 A 
ATOM      4  C2  OXE d   1       0.908   0.412  -0.798  0.00  0.00    -0.078 A 
ATOM      5  C3  OXE d   1       0.019  -0.646  -0.964  0.00  0.00     0.003 A 
ATOM      6  C4  OXE d   1      -1.011  -0.859  -0.040  0.00  0.00    -0.002 A 
ATOM      7  C5  OXE d   1      -1.094  -0.084   1.122  0.00  0.00    -0.002 A 
ATOM      8  C6  OXE d   1      -0.139   0.899   1.355  0.00  0.00     0.003 A 
ENDROOT
TORSDOF 0
ENDMDL
