MODEL 1
REMARK minimizedAffinity -2.91714025
REMARK minimizedRMSD -1
REMARK  0 active torsions:
REMARK  status: ('A' for Active; 'I' for Inactive)
ROOT
ATOM      1  C2' OXE d   1      -2.625   0.429   0.857  0.00  0.00     0.078 C 
ATOM      2  C1' OXE d   1      -0.482  -0.937   2.048  0.00  0.00     0.078 C 
ATOM      3  C1  OXE d   1      -0.167   0.035   0.939  0.00  0.00    -0.078 A 
ATOM      4  C2  OXE d   1      -1.226   0.664   0.330  0.00  0.00    -0.078 A 
ATOM      5  C3  OXE d   1      -0.988   1.612  -0.661  0.00  0.00     0.003 A 
ATOM      6  C4  OXE d   1       0.308   1.816  -1.150  0.00  0.00    -0.002 A 
ATOM      7  C5  OXE d   1       1.397   1.156  -0.571  0.00  0.00    -0.002 A 
ATOM      8  C6  OXE d   1       1.182   0.296   0.501  0.00  0.00     0.003 A 
ENDROOT
TORSDOF 0
ENDMDL
