MODEL 1
REMARK minimizedAffinity -6.61391449
REMARK minimizedRMSD -1
REMARK  0 active torsions:
REMARK  status: ('A' for Active; 'I' for Inactive)
ROOT
ATOM      1  C2' OXE d   1       0.834   1.782  -0.148  0.00  0.00     0.078 C 
ATOM      2  C1' OXE d   1       0.045  -0.626   1.060  0.00  0.00     0.078 C 
ATOM      3  C1  OXE d   1       0.706  -0.701  -0.294  0.00  0.00    -0.078 A 
ATOM      4  C2  OXE d   1       1.047   0.485  -0.898  0.00  0.00    -0.078 A 
ATOM      5  C3  OXE d   1       1.709   0.470  -2.123  0.00  0.00     0.003 A 
ATOM      6  C4  OXE d   1       1.893  -0.734  -2.814  0.00  0.00    -0.002 A 
ATOM      7  C5  OXE d   1       1.518  -1.950  -2.234  0.00  0.00    -0.002 A 
ATOM      8  C6  OXE d   1       0.963  -1.955  -0.959  0.00  0.00     0.003 A 
ENDROOT
TORSDOF 0
ENDMDL
