MODEL 1
REMARK minimizedAffinity -0.814959884
REMARK minimizedRMSD -1
REMARK  0 active torsions:
REMARK  status: ('A' for Active; 'I' for Inactive)
ROOT
ATOM      1  C2' OXE d   1       0.579  -2.075  -0.018  0.00  0.00     0.078 C 
ATOM      2  C1' OXE d   1      -0.845   0.232   0.711  0.00  0.00     0.078 C 
ATOM      3  C1  OXE d   1       0.451   0.413  -0.039  0.00  0.00    -0.078 A 
ATOM      4  C2  OXE d   1       1.165  -0.720  -0.351  0.00  0.00    -0.078 A 
ATOM      5  C3  OXE d   1       2.339  -0.613  -1.090  0.00  0.00     0.003 A 
ATOM      6  C4  OXE d   1       2.879   0.644  -1.385  0.00  0.00    -0.002 A 
ATOM      7  C5  OXE d   1       2.189   1.812  -1.042  0.00  0.00    -0.002 A 
ATOM      8  C6  OXE d   1       0.956   1.713  -0.408  0.00  0.00     0.003 A 
ENDROOT
TORSDOF 0
ENDMDL
