MODEL 1
REMARK minimizedAffinity -4.63632298
REMARK minimizedRMSD -1
REMARK  0 active torsions:
REMARK  status: ('A' for Active; 'I' for Inactive)
ROOT
ATOM      1  C2' OXE d   1       0.712   2.443  -0.087  0.00  0.00     0.078 C 
ATOM      2  C1' OXE d   1      -0.555   0.273   1.164  0.00  0.00     0.078 C 
ATOM      3  C1  OXE d   1       0.500  -0.029   0.129  0.00  0.00    -0.078 A 
ATOM      4  C2  OXE d   1       1.081   1.038  -0.512  0.00  0.00    -0.078 A 
ATOM      5  C3  OXE d   1       2.099   0.817  -1.435  0.00  0.00     0.003 A 
ATOM      6  C4  OXE d   1       2.428  -0.486  -1.829  0.00  0.00    -0.002 A 
ATOM      7  C5  OXE d   1       1.819  -1.587  -1.218  0.00  0.00    -0.002 A 
ATOM      8  C6  OXE d   1       0.886  -1.377  -0.209  0.00  0.00     0.003 A 
ENDROOT
TORSDOF 0
ENDMDL
