MODEL 1
REMARK minimizedAffinity -3.82570529
REMARK minimizedRMSD -1
REMARK  0 active torsions:
REMARK  status: ('A' for Active; 'I' for Inactive)
ROOT
ATOM      1  C2' OXE d   1       0.427  -2.098   0.154  0.00  0.00     0.078 C 
ATOM      2  C1' OXE d   1      -0.929   0.263   0.837  0.00  0.00     0.078 C 
ATOM      3  C1  OXE d   1       0.204   0.364  -0.153  0.00  0.00    -0.078 A 
ATOM      4  C2  OXE d   1       0.892  -0.789  -0.446  0.00  0.00    -0.078 A 
ATOM      5  C3  OXE d   1       1.911  -0.762  -1.394  0.00  0.00     0.003 A 
ATOM      6  C4  OXE d   1       2.342   0.455  -1.937  0.00  0.00    -0.002 A 
ATOM      7  C5  OXE d   1       1.680   1.647  -1.622  0.00  0.00    -0.002 A 
ATOM      8  C6  OXE d   1       0.585   1.612  -0.767  0.00  0.00     0.003 A 
ENDROOT
TORSDOF 0
ENDMDL
