MODEL 1
REMARK minimizedAffinity -3.7627759
REMARK minimizedRMSD -1
REMARK  0 active torsions:
REMARK  status: ('A' for Active; 'I' for Inactive)
ROOT
ATOM      1  C2' OXE d   1      -2.048   0.074   3.411  0.00  0.00     0.078 C 
ATOM      2  C1' OXE d   1      -3.743   0.951   1.352  0.00  0.00     0.078 C 
ATOM      3  C1  OXE d   1      -2.341   0.536   0.980  0.00  0.00    -0.078 A 
ATOM      4  C2  OXE d   1      -1.504   0.152   2.000  0.00  0.00    -0.078 A 
ATOM      5  C3  OXE d   1      -0.218  -0.292   1.706  0.00  0.00     0.003 A 
ATOM      6  C4  OXE d   1       0.280  -0.207   0.401  0.00  0.00    -0.002 A 
ATOM      7  C5  OXE d   1      -0.543   0.218  -0.647  0.00  0.00    -0.002 A 
ATOM      8  C6  OXE d   1      -1.866   0.552  -0.381  0.00  0.00     0.003 A 
ENDROOT
TORSDOF 0
ENDMDL
