MODEL 1
REMARK minimizedAffinity -2.38450241
REMARK minimizedRMSD -1
REMARK  0 active torsions:
REMARK  status: ('A' for Active; 'I' for Inactive)
ROOT
ATOM      1  C2' OXE d   1      -0.730  -0.201   1.023  0.00  0.00     0.078 C 
ATOM      2  C1' OXE d   1       0.407  -2.301  -0.451  0.00  0.00     0.078 C 
ATOM      3  C1  OXE d   1       0.860  -0.897  -0.763  0.00  0.00    -0.078 A 
ATOM      4  C2  OXE d   1       0.264   0.128  -0.070  0.00  0.00    -0.078 A 
ATOM      5  C3  OXE d   1       0.684   1.439  -0.280  0.00  0.00     0.003 A 
ATOM      6  C4  OXE d   1       1.597   1.735  -1.300  0.00  0.00    -0.002 A 
ATOM      7  C5  OXE d   1       2.187   0.709  -2.045  0.00  0.00    -0.002 A 
ATOM      8  C6  OXE d   1       1.862  -0.613  -1.761  0.00  0.00     0.003 A 
ENDROOT
TORSDOF 0
ENDMDL
