MODEL 1
REMARK minimizedAffinity -1.34562588
REMARK minimizedRMSD -1
REMARK  0 active torsions:
REMARK  status: ('A' for Active; 'I' for Inactive)
ROOT
ATOM      1  C2' OXE d   1      -3.173  -1.677   1.174  0.00  0.00     0.078 C 
ATOM      2  C1' OXE d   1      -0.697  -0.773   2.140  0.00  0.00     0.078 C 
ATOM      3  C1  OXE d   1      -1.842   0.209   2.110  0.00  0.00    -0.078 A 
ATOM      4  C2  OXE d   1      -3.037  -0.229   1.593  0.00  0.00    -0.078 A 
ATOM      5  C3  OXE d   1      -4.141   0.619   1.592  0.00  0.00     0.003 A 
ATOM      6  C4  OXE d   1      -4.004   1.960   1.972  0.00  0.00    -0.002 A 
ATOM      7  C5  OXE d   1      -2.785   2.438   2.465  0.00  0.00    -0.002 A 
ATOM      8  C6  OXE d   1      -1.708   1.566   2.581  0.00  0.00     0.003 A 
ENDROOT
TORSDOF 0
ENDMDL
