MODEL 1
REMARK minimizedAffinity -3.42074585
REMARK minimizedRMSD -1
REMARK  0 active torsions:
REMARK  status: ('A' for Active; 'I' for Inactive)
ROOT
ATOM      1  C2' OXE d   1      -2.310   0.784   3.072  0.00  0.00     0.078 C 
ATOM      2  C1' OXE d   1      -4.057  -0.103   1.061  0.00  0.00     0.078 C 
ATOM      3  C1  OXE d   1      -2.578  -0.107   0.761  0.00  0.00    -0.078 A 
ATOM      4  C2  OXE d   1      -1.735   0.373   1.734  0.00  0.00    -0.078 A 
ATOM      5  C3  OXE d   1      -0.358   0.341   1.530  0.00  0.00     0.003 A 
ATOM      6  C4  OXE d   1       0.165  -0.031   0.286  0.00  0.00    -0.002 A 
ATOM      7  C5  OXE d   1      -0.679  -0.486  -0.733  0.00  0.00    -0.002 A 
ATOM      8  C6  OXE d   1      -2.047  -0.570  -0.497  0.00  0.00     0.003 A 
ENDROOT
TORSDOF 0
ENDMDL
