MODEL 1
REMARK minimizedAffinity -4.98746824
REMARK minimizedRMSD -1
REMARK  2 active torsions:
REMARK  status: ('A' for Active; 'I' for Inactive)
REMARK    1  A    between atoms: C2'_3  and  C1'_4 
REMARK    2  A    between atoms: C1'_4  and  C1_5 
ROOT
ATOM      1  C1  I4B d   1      -0.127  -0.477  -0.281  0.00  0.00    -0.075 A 
ATOM      2  C2  I4B d   1      -1.489  -0.308  -0.302  0.00  0.00     0.003 A 
ATOM      3  C3  I4B d   1      -2.144   0.328   0.780  0.00  0.00     0.002 A 
ATOM      4  C4  I4B d   1      -1.411   0.731   1.877  0.00  0.00    -0.004 A 
ATOM      5  C5  I4B d   1      -0.027   0.580   1.886  0.00  0.00     0.002 A 
ATOM      6  C6  I4B d   1       0.621  -0.017   0.795  0.00  0.00     0.003 A 
ENDROOT
BRANCH   1   7
ATOM      7  C1' I4B d   1       0.530  -1.183  -1.425  0.00  0.00     0.060 C 
BRANCH   7   8
ATOM      8  C2' I4B d   1       0.483  -0.264  -2.629  0.00  0.00    -0.013 C 
ATOM      9  C4' I4B d   1       1.847  -0.102  -3.245  0.00  0.00     0.013 C 
ATOM     10  C3' I4B d   1      -0.491  -0.839  -3.613  0.00  0.00     0.013 C 
ENDBRANCH   7   8
ENDBRANCH   1   7
TORSDOF 2
ENDMDL
