MODEL 1
REMARK minimizedAffinity -4.78850746
REMARK minimizedRMSD -1
REMARK  2 active torsions:
REMARK  status: ('A' for Active; 'I' for Inactive)
REMARK    1  A    between atoms: C2'_3  and  C1'_4 
REMARK    2  A    between atoms: C1'_4  and  C1_5 
ROOT
ATOM      1  C1  I4B d   1      -0.170  -0.231  -0.620  0.00  0.00    -0.075 A 
ATOM      2  C2  I4B d   1       0.710  -0.046   0.417  0.00  0.00     0.003 A 
ATOM      3  C3  I4B d   1       0.240   0.369   1.686  0.00  0.00     0.002 A 
ATOM      4  C4  I4B d   1      -1.103   0.636   1.859  0.00  0.00    -0.004 A 
ATOM      5  C5  I4B d   1      -1.997   0.426   0.813  0.00  0.00     0.002 A 
ATOM      6  C6  I4B d   1      -1.530  -0.022  -0.431  0.00  0.00     0.003 A 
ENDROOT
BRANCH   1   7
ATOM      7  C1' I4B d   1       0.366  -0.638  -1.956  0.00  0.00     0.060 C 
BRANCH   7   8
ATOM      8  C2' I4B d   1       0.370   0.585  -2.850  0.00  0.00    -0.013 C 
ATOM      9  C4' I4B d   1       1.745   0.852  -3.403  0.00  0.00     0.013 C 
ATOM     10  C3' I4B d   1      -0.621   0.357  -3.952  0.00  0.00     0.013 C 
ENDBRANCH   7   8
ENDBRANCH   1   7
TORSDOF 2
ENDMDL
