MODEL 1
REMARK minimizedAffinity -2.90329194
REMARK minimizedRMSD -1
REMARK  2 active torsions:
REMARK  status: ('A' for Active; 'I' for Inactive)
REMARK    1  A    between atoms: C2'_3  and  C1'_4 
REMARK    2  A    between atoms: C1'_4  and  C1_5 
ROOT
ATOM      1  C1  I4B d   1      -0.125  -0.178   0.250  0.00  0.00    -0.075 A 
ATOM      2  C2  I4B d   1      -1.445  -0.179   0.627  0.00  0.00     0.003 A 
ATOM      3  C3  I4B d   1      -1.861   0.553   1.766  0.00  0.00     0.002 A 
ATOM      4  C4  I4B d   1      -0.922   1.225   2.522  0.00  0.00    -0.004 A 
ATOM      5  C5  I4B d   1       0.412   1.243   2.125  0.00  0.00     0.002 A 
ATOM      6  C6  I4B d   1       0.811   0.547   0.975  0.00  0.00     0.003 A 
ENDROOT
BRANCH   1   7
ATOM      7  C1' I4B d   1       0.285  -0.989  -0.939  0.00  0.00     0.060 C 
BRANCH   7   8
ATOM      8  C2' I4B d   1       0.923  -0.053  -1.944  0.00  0.00    -0.013 C 
ATOM      9  C4' I4B d   1       2.419  -0.228  -1.980  0.00  0.00     0.013 C 
ATOM     10  C3' I4B d   1       0.314  -0.329  -3.286  0.00  0.00     0.013 C 
ENDBRANCH   7   8
ENDBRANCH   1   7
TORSDOF 2
ENDMDL
