MODEL 1
REMARK minimizedAffinity -3.45034528
REMARK minimizedRMSD -1
REMARK  2 active torsions:
REMARK  status: ('A' for Active; 'I' for Inactive)
REMARK    1  A    between atoms: C2'_3  and  C1'_4 
REMARK    2  A    between atoms: C1'_4  and  C1_5 
ROOT
ATOM      1  C1  I4B d   1       0.384  -0.174  -1.761  0.00  0.00    -0.075 A 
ATOM      2  C2  I4B d   1       1.626   0.225  -2.188  0.00  0.00     0.003 A 
ATOM      3  C3  I4B d   1       1.795   0.761  -3.487  0.00  0.00     0.002 A 
ATOM      4  C4  I4B d   1       0.712   0.832  -4.340  0.00  0.00    -0.004 A 
ATOM      5  C5  I4B d   1      -0.551   0.448  -3.898  0.00  0.00     0.002 A 
ATOM      6  C6  I4B d   1      -0.719  -0.047  -2.597  0.00  0.00     0.003 A 
ENDROOT
BRANCH   1   7
ATOM      7  C1' I4B d   1       0.246  -0.766  -0.395  0.00  0.00     0.060 C 
BRANCH   7   8
ATOM      8  C2' I4B d   1       0.223   0.372   0.606  0.00  0.00    -0.013 C 
ATOM      9  C4' I4B d   1      -1.098   0.438   1.327  0.00  0.00     0.013 C 
ATOM     10  C3' I4B d   1       1.355   0.165   1.568  0.00  0.00     0.013 C 
ENDBRANCH   7   8
ENDBRANCH   1   7
TORSDOF 2
ENDMDL
