MODEL 1
REMARK minimizedAffinity -5.24666786
REMARK minimizedRMSD -1
REMARK  2 active torsions:
REMARK  status: ('A' for Active; 'I' for Inactive)
REMARK    1  A    between atoms: C2'_3  and  C1'_4 
REMARK    2  A    between atoms: C1'_4  and  C1_5 
ROOT
ATOM      1  C1  I4B d   1       0.136  -0.397  -0.153  0.00  0.00    -0.075 A 
ATOM      2  C2  I4B d   1       1.236  -0.091   0.610  0.00  0.00     0.003 A 
ATOM      3  C3  I4B d   1       1.093   0.679   1.790  0.00  0.00     0.002 A 
ATOM      4  C4  I4B d   1      -0.151   1.163   2.140  0.00  0.00    -0.004 A 
ATOM      5  C5  I4B d   1      -1.268   0.833   1.378  0.00  0.00     0.002 A 
ATOM      6  C6  I4B d   1      -1.126   0.038   0.231  0.00  0.00     0.003 A 
ENDROOT
BRANCH   1   7
ATOM      7  C1' I4B d   1       0.327  -1.185  -1.410  0.00  0.00     0.060 C 
BRANCH   7   8
ATOM      8  C2' I4B d   1       0.085  -0.257  -2.583  0.00  0.00    -0.013 C 
ATOM      9  C4' I4B d   1       1.383   0.199  -3.194  0.00  0.00     0.013 C 
ATOM     10  C3' I4B d   1      -0.758  -0.989  -3.585  0.00  0.00     0.013 C 
ENDBRANCH   7   8
ENDBRANCH   1   7
TORSDOF 2
ENDMDL
