MODEL 1
REMARK minimizedAffinity -3.36318016
REMARK minimizedRMSD -1
REMARK  2 active torsions:
REMARK  status: ('A' for Active; 'I' for Inactive)
REMARK    1  A    between atoms: C2'_3  and  C1'_4 
REMARK    2  A    between atoms: C1'_4  and  C1_5 
ROOT
ATOM      1  C1  I4B d   1       0.061   0.186   0.944  0.00  0.00    -0.075 A 
ATOM      2  C2  I4B d   1      -1.189  -0.148   1.402  0.00  0.00     0.003 A 
ATOM      3  C3  I4B d   1      -1.707   0.464   2.569  0.00  0.00     0.002 A 
ATOM      4  C4  I4B d   1      -0.926   1.359   3.271  0.00  0.00    -0.004 A 
ATOM      5  C5  I4B d   1       0.333   1.713   2.792  0.00  0.00     0.002 A 
ATOM      6  C6  I4B d   1       0.825   1.132   1.614  0.00  0.00     0.003 A 
ENDROOT
BRANCH   1   7
ATOM      7  C1' I4B d   1       0.590  -0.504  -0.274  0.00  0.00     0.060 C 
BRANCH   7   8
ATOM      8  C2' I4B d   1      -0.581  -0.800  -1.189  0.00  0.00    -0.013 C 
ATOM      9  C4' I4B d   1      -0.273  -0.413  -2.611  0.00  0.00     0.013 C 
ATOM     10  C3' I4B d   1      -0.894  -2.263  -1.081  0.00  0.00     0.013 C 
ENDBRANCH   7   8
ENDBRANCH   1   7
TORSDOF 2
ENDMDL
