MODEL 1
REMARK minimizedAffinity -4.82917118
REMARK minimizedRMSD -1
REMARK  2 active torsions:
REMARK  status: ('A' for Active; 'I' for Inactive)
REMARK    1  A    between atoms: C2'_3  and  C1'_4 
REMARK    2  A    between atoms: C1'_4  and  C1_5 
ROOT
ATOM      1  C1  I4B d   1       0.331  -0.331  -0.121  0.00  0.00    -0.075 A 
ATOM      2  C2  I4B d   1       1.055   0.347   0.828  0.00  0.00     0.003 A 
ATOM      3  C3  I4B d   1       0.394   1.015   1.887  0.00  0.00     0.002 A 
ATOM      4  C4  I4B d   1      -0.985   1.021   1.930  0.00  0.00    -0.004 A 
ATOM      5  C5  I4B d   1      -1.717   0.314   0.980  0.00  0.00     0.002 A 
ATOM      6  C6  I4B d   1      -1.055  -0.377  -0.045  0.00  0.00     0.003 A 
ENDROOT
BRANCH   1   7
ATOM      7  C1' I4B d   1       1.061  -0.997  -1.244  0.00  0.00     0.060 C 
BRANCH   7   8
ATOM      8  C2' I4B d   1       1.133  -0.019  -2.399  0.00  0.00    -0.013 C 
ATOM      9  C4' I4B d   1       2.500   0.603  -2.503  0.00  0.00     0.013 C 
ATOM     10  C3' I4B d   1       0.777  -0.759  -3.655  0.00  0.00     0.013 C 
ENDBRANCH   7   8
ENDBRANCH   1   7
TORSDOF 2
ENDMDL
