MODEL 1
REMARK minimizedAffinity -4.68034172
REMARK minimizedRMSD -1
REMARK  2 active torsions:
REMARK  status: ('A' for Active; 'I' for Inactive)
REMARK    1  A    between atoms: C2'_3  and  C1'_4 
REMARK    2  A    between atoms: C1'_4  and  C1_5 
ROOT
ATOM      1  C1  I4B d   1      -0.113   0.054   0.320  0.00  0.00    -0.075 A 
ATOM      2  C2  I4B d   1       0.698   0.837   1.103  0.00  0.00     0.003 A 
ATOM      3  C3  I4B d   1       0.179   1.469   2.258  0.00  0.00     0.002 A 
ATOM      4  C4  I4B d   1      -1.160   1.333   2.564  0.00  0.00    -0.004 A 
ATOM      5  C5  I4B d   1      -1.976   0.521   1.783  0.00  0.00     0.002 A 
ATOM      6  C6  I4B d   1      -1.447  -0.134   0.660  0.00  0.00     0.003 A 
ENDROOT
BRANCH   1   7
ATOM      7  C1' I4B d   1       0.460  -0.573  -0.911  0.00  0.00     0.060 C 
BRANCH   7   8
ATOM      8  C2' I4B d   1       0.661   0.521  -1.941  0.00  0.00    -0.013 C 
ATOM      9  C4' I4B d   1       2.028   0.435  -2.567  0.00  0.00     0.013 C 
ATOM     10  C3' I4B d   1      -0.418   0.388  -2.974  0.00  0.00     0.013 C 
ENDBRANCH   7   8
ENDBRANCH   1   7
TORSDOF 2
ENDMDL
