MODEL 1
REMARK minimizedAffinity -3.07145691
REMARK minimizedRMSD -1
REMARK  2 active torsions:
REMARK  status: ('A' for Active; 'I' for Inactive)
REMARK    1  A    between atoms: C2'_3  and  C1'_4 
REMARK    2  A    between atoms: C1'_4  and  C1_5 
ROOT
ATOM      1  C1  I4B d   1      -0.052   0.351   0.380  0.00  0.00    -0.075 A 
ATOM      2  C2  I4B d   1       0.726   1.134   1.196  0.00  0.00     0.003 A 
ATOM      3  C3  I4B d   1       0.168   1.735   2.350  0.00  0.00     0.002 A 
ATOM      4  C4  I4B d   1      -1.174   1.568   2.622  0.00  0.00    -0.004 A 
ATOM      5  C5  I4B d   1      -1.956   0.755   1.807  0.00  0.00     0.002 A 
ATOM      6  C6  I4B d   1      -1.389   0.132   0.686  0.00  0.00     0.003 A 
ENDROOT
BRANCH   1   7
ATOM      7  C1' I4B d   1       0.561  -0.241  -0.849  0.00  0.00     0.060 C 
BRANCH   7   8
ATOM      8  C2' I4B d   1       0.504   0.801  -1.947  0.00  0.00    -0.013 C 
ATOM      9  C4' I4B d   1       1.885   1.163  -2.427  0.00  0.00     0.013 C 
ATOM     10  C3' I4B d   1      -0.331   0.251  -3.065  0.00  0.00     0.013 C 
ENDBRANCH   7   8
ENDBRANCH   1   7
TORSDOF 2
ENDMDL
