MODEL 1
REMARK minimizedAffinity -0.818844736
REMARK minimizedRMSD -1
REMARK  0 active torsions:
REMARK  status: ('A' for Active; 'I' for Inactive)
ROOT
ATOM      1  C   UNL d   1       3.279   2.741   3.762  0.00  0.00     0.078 C 
ATOM      2  C1  UNL d   1       4.140   3.868   4.251  0.00  0.00    -0.077 A 
ATOM      3  C2  UNL d   1       4.648   3.873   5.555  0.00  0.00    -0.001 A 
ATOM      4  C3  UNL d   1       5.440   4.933   6.000  0.00  0.00     0.003 A 
ATOM      5  C4  UNL d   1       5.731   5.995   5.146  0.00  0.00    -0.005 A 
ATOM      6  C5  UNL d   1       5.227   6.000   3.847  0.00  0.00     0.003 A 
ATOM      7  C6  UNL d   1       4.435   4.941   3.401  0.00  0.00    -0.001 A 
ENDROOT
TORSDOF 0
ENDMDL
