MODEL 1
REMARK minimizedAffinity 4.05753851
REMARK minimizedRMSD -1
REMARK  0 active torsions:
REMARK  status: ('A' for Active; 'I' for Inactive)
ROOT
ATOM      1  C   UNL d   1       1.203  -0.838  -0.849  0.00  0.00     0.078 C 
ATOM      2  C1  UNL d   1       1.761   0.263   0.002  0.00  0.00    -0.077 A 
ATOM      3  C2  UNL d   1       1.150   0.622   1.210  0.00  0.00    -0.001 A 
ATOM      4  C3  UNL d   1       1.675   1.655   1.987  0.00  0.00     0.003 A 
ATOM      5  C4  UNL d   1       2.813   2.340   1.564  0.00  0.00    -0.005 A 
ATOM      6  C5  UNL d   1       3.426   1.992   0.362  0.00  0.00     0.003 A 
ATOM      7  C6  UNL d   1       2.903   0.959  -0.416  0.00  0.00    -0.001 A 
ENDROOT
TORSDOF 0
ENDMDL
