MODEL 1
REMARK minimizedAffinity 11.4717054
REMARK minimizedRMSD -1
REMARK  0 active torsions:
REMARK  status: ('A' for Active; 'I' for Inactive)
ROOT
ATOM      1  C   UNL d   1       0.385  -1.722   3.746  0.00  0.00     0.078 C 
ATOM      2  C1  UNL d   1       0.366  -3.005   4.522  0.00  0.00    -0.077 A 
ATOM      3  C2  UNL d   1      -0.767  -3.827   4.529  0.00  0.00    -0.001 A 
ATOM      4  C3  UNL d   1      -0.774  -5.014   5.263  0.00  0.00     0.003 A 
ATOM      5  C4  UNL d   1       0.349  -5.388   5.998  0.00  0.00    -0.005 A 
ATOM      6  C5  UNL d   1       1.480  -4.575   6.000  0.00  0.00     0.003 A 
ATOM      7  C6  UNL d   1       1.489  -3.388   5.266  0.00  0.00    -0.001 A 
ENDROOT
TORSDOF 0
ENDMDL
