MODEL 1
REMARK minimizedAffinity 9.61620235
REMARK minimizedRMSD -1
REMARK  0 active torsions:
REMARK  status: ('A' for Active; 'I' for Inactive)
ROOT
ATOM      1  C   UNL d   1       0.114  -0.232   3.478  0.00  0.00     0.078 C 
ATOM      2  C1  UNL d   1      -0.006  -1.578   4.128  0.00  0.00    -0.077 A 
ATOM      3  C2  UNL d   1       0.509  -1.808   5.409  0.00  0.00    -0.001 A 
ATOM      4  C3  UNL d   1       0.399  -3.069   5.998  0.00  0.00     0.003 A 
ATOM      5  C4  UNL d   1      -0.224  -4.110   5.312  0.00  0.00    -0.005 A 
ATOM      6  C5  UNL d   1      -0.737  -3.891   4.035  0.00  0.00     0.003 A 
ATOM      7  C6  UNL d   1      -0.628  -2.631   3.445  0.00  0.00    -0.001 A 
ENDROOT
TORSDOF 0
ENDMDL
