MODEL 1
REMARK minimizedAffinity 5.89987707
REMARK minimizedRMSD -1
REMARK  0 active torsions:
REMARK  status: ('A' for Active; 'I' for Inactive)
ROOT
ATOM      1  C   UNL d   1       2.663  -1.264  -1.155  0.00  0.00     0.078 C 
ATOM      2  C1  UNL d   1       2.712   0.154  -0.668  0.00  0.00    -0.077 A 
ATOM      3  C2  UNL d   1       3.563   1.092  -1.264  0.00  0.00    -0.001 A 
ATOM      4  C3  UNL d   1       3.606   2.406  -0.794  0.00  0.00     0.003 A 
ATOM      5  C4  UNL d   1       2.800   2.793   0.275  0.00  0.00    -0.005 A 
ATOM      6  C5  UNL d   1       1.951   1.865   0.876  0.00  0.00     0.003 A 
ATOM      7  C6  UNL d   1       1.908   0.551   0.407  0.00  0.00    -0.001 A 
ENDROOT
TORSDOF 0
ENDMDL
