MODEL 1
REMARK minimizedAffinity 13.6197309
REMARK minimizedRMSD -1
REMARK  0 active torsions:
REMARK  status: ('A' for Active; 'I' for Inactive)
ROOT
ATOM      1  C   UNL d   1      -1.065   0.792  -1.477  0.00  0.00     0.078 C 
ATOM      2  C1  UNL d   1      -0.035   1.396  -0.571  0.00  0.00    -0.077 A 
ATOM      3  C2  UNL d   1       0.536   0.651   0.469  0.00  0.00    -0.001 A 
ATOM      4  C3  UNL d   1       1.488   1.228   1.311  0.00  0.00     0.003 A 
ATOM      5  C4  UNL d   1       1.875   2.554   1.124  0.00  0.00    -0.005 A 
ATOM      6  C5  UNL d   1       1.311   3.303   0.094  0.00  0.00     0.003 A 
ATOM      7  C6  UNL d   1       0.359   2.728  -0.749  0.00  0.00    -0.001 A 
ENDROOT
TORSDOF 0
ENDMDL
