MODEL 1
REMARK minimizedAffinity 4.32026958
REMARK minimizedRMSD -1
REMARK  0 active torsions:
REMARK  status: ('A' for Active; 'I' for Inactive)
ROOT
ATOM      1  C   UNL d   1       3.227   1.043   1.054  0.00  0.00     0.078 C 
ATOM      2  C1  UNL d   1       2.601  -0.253   0.633  0.00  0.00    -0.077 A 
ATOM      3  C2  UNL d   1       2.174  -0.453  -0.685  0.00  0.00    -0.001 A 
ATOM      4  C3  UNL d   1       1.585  -1.661  -1.061  0.00  0.00     0.003 A 
ATOM      5  C4  UNL d   1       1.416  -2.678  -0.124  0.00  0.00    -0.005 A 
ATOM      6  C5  UNL d   1       1.836  -2.488   1.191  0.00  0.00     0.003 A 
ATOM      7  C6  UNL d   1       2.426  -1.280   1.568  0.00  0.00    -0.001 A 
ENDROOT
TORSDOF 0
ENDMDL
