MODEL 1
REMARK minimizedAffinity 6.83330631
REMARK minimizedRMSD -1
REMARK  0 active torsions:
REMARK  status: ('A' for Active; 'I' for Inactive)
ROOT
ATOM      1  C   UNL d   1       2.714  -1.666  -1.993  0.00  0.00     0.078 C 
ATOM      2  C1  UNL d   1       2.714  -1.064  -0.619  0.00  0.00    -0.077 A 
ATOM      3  C2  UNL d   1       1.827  -0.034  -0.283  0.00  0.00    -0.001 A 
ATOM      4  C3  UNL d   1       1.844   0.522   0.997  0.00  0.00     0.003 A 
ATOM      5  C4  UNL d   1       2.748   0.057   1.950  0.00  0.00    -0.005 A 
ATOM      6  C5  UNL d   1       3.636  -0.966   1.624  0.00  0.00     0.003 A 
ATOM      7  C6  UNL d   1       3.620  -1.524   0.345  0.00  0.00    -0.001 A 
ENDROOT
TORSDOF 0
ENDMDL
