MODEL 1
REMARK minimizedAffinity 2.75933743
REMARK minimizedRMSD -1
REMARK  0 active torsions:
REMARK  status: ('A' for Active; 'I' for Inactive)
ROOT
ATOM      1  C   UNL d   1      -5.434   4.220   2.212  0.00  0.00     0.078 C 
ATOM      2  C1  UNL d   1      -5.051   4.833   3.527  0.00  0.00    -0.077 A 
ATOM      3  C2  UNL d   1      -3.748   5.293   3.756  0.00  0.00    -0.001 A 
ATOM      4  C3  UNL d   1      -3.404   5.852   4.987  0.00  0.00     0.003 A 
ATOM      5  C4  UNL d   1      -4.355   5.955   6.000  0.00  0.00    -0.005 A 
ATOM      6  C5  UNL d   1      -5.653   5.498   5.782  0.00  0.00     0.003 A 
ATOM      7  C6  UNL d   1      -6.000   4.938   4.551  0.00  0.00    -0.001 A 
ENDROOT
TORSDOF 0
ENDMDL
