MODEL 1
REMARK minimizedAffinity 0.240044624
REMARK minimizedRMSD -1
REMARK  0 active torsions:
REMARK  status: ('A' for Active; 'I' for Inactive)
ROOT
ATOM      1  C   UNL d   1       1.119  -2.590   0.345  0.00  0.00     0.078 C 
ATOM      2  C1  UNL d   1       2.044  -1.537  -0.186  0.00  0.00    -0.077 A 
ATOM      3  C2  UNL d   1       1.924  -0.201   0.218  0.00  0.00    -0.001 A 
ATOM      4  C3  UNL d   1       2.786   0.771  -0.292  0.00  0.00     0.003 A 
ATOM      5  C4  UNL d   1       3.774   0.418  -1.209  0.00  0.00    -0.005 A 
ATOM      6  C5  UNL d   1       3.901  -0.908  -1.618  0.00  0.00     0.003 A 
ATOM      7  C6  UNL d   1       3.039  -1.881  -1.109  0.00  0.00    -0.001 A 
ENDROOT
TORSDOF 0
ENDMDL
