MODEL 1
REMARK minimizedAffinity 2.53125501
REMARK minimizedRMSD -1
REMARK  0 active torsions:
REMARK  status: ('A' for Active; 'I' for Inactive)
ROOT
ATOM      1  C   UNL d   1      -5.993   3.692   2.305  0.00  0.00     0.078 C 
ATOM      2  C1  UNL d   1      -5.359   4.504   3.395  0.00  0.00    -0.077 A 
ATOM      3  C2  UNL d   1      -4.142   5.165   3.187  0.00  0.00    -0.001 A 
ATOM      4  C3  UNL d   1      -3.559   5.909   4.213  0.00  0.00     0.003 A 
ATOM      5  C4  UNL d   1      -4.185   6.000   5.455  0.00  0.00    -0.005 A 
ATOM      6  C5  UNL d   1      -5.395   5.344   5.672  0.00  0.00     0.003 A 
ATOM      7  C6  UNL d   1      -5.980   4.599   4.647  0.00  0.00    -0.001 A 
ENDROOT
TORSDOF 0
ENDMDL
