MODEL 1
REMARK minimizedAffinity 3.93582106
REMARK minimizedRMSD -1
REMARK  0 active torsions:
REMARK  status: ('A' for Active; 'I' for Inactive)
ROOT
ATOM      1  C   UNL d   1      -4.740   0.349  -0.818  0.00  0.00     0.078 C 
ATOM      2  C1  UNL d   1      -4.299   0.620  -2.225  0.00  0.00    -0.077 A 
ATOM      3  C2  UNL d   1      -2.945   0.573  -2.579  0.00  0.00    -0.001 A 
ATOM      4  C3  UNL d   1      -2.548   0.837  -3.891  0.00  0.00     0.003 A 
ATOM      5  C4  UNL d   1      -3.500   1.150  -4.860  0.00  0.00    -0.005 A 
ATOM      6  C5  UNL d   1      -4.849   1.201  -4.517  0.00  0.00     0.003 A 
ATOM      7  C6  UNL d   1      -5.248   0.937  -3.205  0.00  0.00    -0.001 A 
ENDROOT
TORSDOF 0
ENDMDL
