MODEL 1
REMARK minimizedAffinity -4.01226616
REMARK minimizedRMSD -1
REMARK  1 active torsions:
REMARK  status: ('A' for Active; 'I' for Inactive)
REMARK    1  A    between atoms: N_2  and  C1_3 
ROOT
ATOM      1  C1  UNL d   1      -0.108  -0.387  -0.008  0.00  0.00     0.143 A 
ATOM      2  C2  UNL d   1      -1.226  -0.054   0.764  0.00  0.00    -0.057 A 
ATOM      3  C3  UNL d   1      -1.586   1.281   0.982  0.00  0.00     0.033 A 
ATOM      4  C4  UNL d   1      -0.814   2.311   0.456  0.00  0.00    -0.042 A 
ATOM      5  C5  UNL d   1       0.316   2.004  -0.294  0.00  0.00     0.033 A 
ATOM      6  C6  UNL d   1       0.667   0.669  -0.514  0.00  0.00    -0.057 A 
ENDROOT
BRANCH   1   7
ATOM      7  N   UNL d   1       0.358  -1.693  -0.179  0.00  0.00    -0.732 N 
ATOM      8  C   UNL d   1      -0.440  -2.674  -0.884  0.00  0.00     0.284 C 
ATOM      9  H3  UNL d   1       1.350  -1.725  -0.404  0.00  0.00     0.395 HD
ENDBRANCH   1   7
TORSDOF 1
ENDMDL
