MODEL 1
REMARK minimizedAffinity -3.79924345
REMARK minimizedRMSD -1
REMARK  1 active torsions:
REMARK  status: ('A' for Active; 'I' for Inactive)
REMARK    1  A    between atoms: N_2  and  C1_3 
ROOT
ATOM      1  C1  UNL d   1       0.539   0.873   0.421  0.00  0.00     0.143 A 
ATOM      2  C2  UNL d   1      -0.213   2.047   0.313  0.00  0.00    -0.057 A 
ATOM      3  C3  UNL d   1      -1.594   2.006   0.087  0.00  0.00     0.033 A 
ATOM      4  C4  UNL d   1      -2.245   0.786  -0.065  0.00  0.00    -0.042 A 
ATOM      5  C5  UNL d   1      -1.513  -0.393   0.013  0.00  0.00     0.033 A 
ATOM      6  C6  UNL d   1      -0.135  -0.346   0.246  0.00  0.00    -0.057 A 
ENDROOT
BRANCH   1   7
ATOM      7  N   UNL d   1       1.930   0.849   0.547  0.00  0.00    -0.732 N 
ATOM      8  C   UNL d   1       2.628   1.928   1.214  0.00  0.00     0.284 C 
ATOM      9  H3  UNL d   1       2.284  -0.078   0.774  0.00  0.00     0.395 HD
ENDBRANCH   1   7
TORSDOF 1
ENDMDL
