MODEL 1
REMARK minimizedAffinity -0.793463528
REMARK minimizedRMSD -1
REMARK  1 active torsions:
REMARK  status: ('A' for Active; 'I' for Inactive)
REMARK    1  A    between atoms: N_2  and  C1_3 
ROOT
ATOM      1  C1  UNL d   1       0.144  -1.138  -0.152  0.00  0.00     0.143 A 
ATOM      2  C2  UNL d   1       1.492  -0.775  -0.063  0.00  0.00    -0.057 A 
ATOM      3  C3  UNL d   1       1.871   0.529   0.277  0.00  0.00     0.033 A 
ATOM      4  C4  UNL d   1       0.906   1.504   0.506  0.00  0.00    -0.042 A 
ATOM      5  C5  UNL d   1      -0.440   1.171   0.398  0.00  0.00     0.033 A 
ATOM      6  C6  UNL d   1      -0.813  -0.134   0.065  0.00  0.00    -0.057 A 
ENDROOT
BRANCH   1   7
ATOM      7  N   UNL d   1      -0.297  -2.393  -0.582  0.00  0.00    -0.732 N 
ATOM      8  C   UNL d   1      -0.289  -2.735  -1.988  0.00  0.00     0.284 C 
ATOM      9  H3  UNL d   1       0.013  -3.144   0.030  0.00  0.00     0.395 HD
ENDBRANCH   1   7
TORSDOF 1
ENDMDL
