MODEL 1
REMARK minimizedAffinity -4.55397272
REMARK minimizedRMSD -1
REMARK  1 active torsions:
REMARK  status: ('A' for Active; 'I' for Inactive)
REMARK    1  A    between atoms: N_2  and  C1_3 
ROOT
ATOM      1  C1  UNL d   1       0.185   0.739   0.658  0.00  0.00     0.143 A 
ATOM      2  C2  UNL d   1       1.431   0.132   0.465  0.00  0.00    -0.057 A 
ATOM      3  C3  UNL d   1       1.605  -1.244   0.653  0.00  0.00     0.033 A 
ATOM      4  C4  UNL d   1       0.539  -2.036   1.067  0.00  0.00    -0.042 A 
ATOM      5  C5  UNL d   1      -0.702  -1.450   1.289  0.00  0.00     0.033 A 
ATOM      6  C6  UNL d   1      -0.871  -0.076   1.094  0.00  0.00    -0.057 A 
ENDROOT
BRANCH   1   7
ATOM      7  N   UNL d   1      -0.028   2.118   0.584  0.00  0.00    -0.732 N 
ATOM      8  C   UNL d   1      -0.122   2.916   1.787  0.00  0.00     0.284 C 
ATOM      9  H3  UNL d   1       0.508   2.554  -0.163  0.00  0.00     0.395 HD
ENDBRANCH   1   7
TORSDOF 1
ENDMDL
