MODEL 1
REMARK minimizedAffinity -3.59078717
REMARK minimizedRMSD -1
REMARK  1 active torsions:
REMARK  status: ('A' for Active; 'I' for Inactive)
REMARK    1  A    between atoms: N_2  and  C1_3 
ROOT
ATOM      1  C1  UNL d   1      -0.295  -0.812   0.173  0.00  0.00     0.143 A 
ATOM      2  C2  UNL d   1      -1.463  -0.201   0.644  0.00  0.00    -0.057 A 
ATOM      3  C3  UNL d   1      -1.531   1.184   0.833  0.00  0.00     0.033 A 
ATOM      4  C4  UNL d   1      -0.420   1.983   0.582  0.00  0.00    -0.042 A 
ATOM      5  C5  UNL d   1       0.759   1.394   0.138  0.00  0.00     0.033 A 
ATOM      6  C6  UNL d   1       0.819   0.011  -0.056  0.00  0.00    -0.057 A 
ENDROOT
BRANCH   1   7
ATOM      7  N   UNL d   1      -0.133  -2.195   0.058  0.00  0.00    -0.732 N 
ATOM      8  C   UNL d   1      -0.634  -2.902  -1.101  0.00  0.00     0.284 C 
ATOM      9  H3  UNL d   1       0.784  -2.506   0.371  0.00  0.00     0.395 HD
ENDBRANCH   1   7
TORSDOF 1
ENDMDL
