MODEL 1
REMARK minimizedAffinity -4.66308975
REMARK minimizedRMSD -1
REMARK  1 active torsions:
REMARK  status: ('A' for Active; 'I' for Inactive)
REMARK    1  A    between atoms: N_2  and  C1_3 
ROOT
ATOM      1  C1  UNL d   1       0.684   0.549  -0.011  0.00  0.00     0.143 A 
ATOM      2  C2  UNL d   1       0.018   1.756   0.226  0.00  0.00    -0.057 A 
ATOM      3  C3  UNL d   1       0.693   2.869   0.743  0.00  0.00     0.033 A 
ATOM      4  C4  UNL d   1       2.044   2.784   1.060  0.00  0.00    -0.042 A 
ATOM      5  C5  UNL d   1       2.721   1.587   0.856  0.00  0.00     0.033 A 
ATOM      6  C6  UNL d   1       2.043   0.482   0.333  0.00  0.00    -0.057 A 
ENDROOT
BRANCH   1   7
ATOM      7  N   UNL d   1       0.047  -0.622  -0.431  0.00  0.00    -0.732 N 
ATOM      8  C   UNL d   1       0.115  -1.825   0.370  0.00  0.00     0.284 C 
ATOM      9  H3  UNL d   1      -0.869  -0.442  -0.835  0.00  0.00     0.395 HD
ENDBRANCH   1   7
TORSDOF 1
ENDMDL
