MODEL 1
REMARK minimizedAffinity -5.32208395
REMARK minimizedRMSD -1
REMARK  1 active torsions:
REMARK  status: ('A' for Active; 'I' for Inactive)
REMARK    1  A    between atoms: N_2  and  C1_3 
ROOT
ATOM      1  C1  UNL d   1       0.278   0.203   0.134  0.00  0.00     0.143 A 
ATOM      2  C2  UNL d   1       1.301   0.831  -0.584  0.00  0.00    -0.057 A 
ATOM      3  C3  UNL d   1       1.332   2.223  -0.737  0.00  0.00     0.033 A 
ATOM      4  C4  UNL d   1       0.321   3.011  -0.197  0.00  0.00    -0.042 A 
ATOM      5  C5  UNL d   1      -0.719   2.406   0.499  0.00  0.00     0.033 A 
ATOM      6  C6  UNL d   1      -0.741   1.016   0.654  0.00  0.00    -0.057 A 
ENDROOT
BRANCH   1   7
ATOM      7  N   UNL d   1       0.138  -1.183   0.237  0.00  0.00    -0.732 N 
ATOM      8  C   UNL d   1      -0.351  -1.960  -0.881  0.00  0.00     0.284 C 
ATOM      9  H3  UNL d   1       0.911  -1.615   0.737  0.00  0.00     0.395 HD
ENDBRANCH   1   7
TORSDOF 1
ENDMDL
