MODEL 1
REMARK minimizedAffinity -3.83764553
REMARK minimizedRMSD -1
REMARK  1 active torsions:
REMARK  status: ('A' for Active; 'I' for Inactive)
REMARK    1  A    between atoms: N_2  and  C1_3 
ROOT
ATOM      1  C1  UNL d   1       0.466  -1.017   0.375  0.00  0.00     0.143 A 
ATOM      2  C2  UNL d   1       1.857  -0.946   0.512  0.00  0.00    -0.057 A 
ATOM      3  C3  UNL d   1       2.524   0.285   0.511  0.00  0.00     0.033 A 
ATOM      4  C4  UNL d   1       1.813   1.469   0.343  0.00  0.00    -0.042 A 
ATOM      5  C5  UNL d   1       0.433   1.420   0.180  0.00  0.00     0.033 A 
ATOM      6  C6  UNL d   1      -0.228   0.189   0.189  0.00  0.00    -0.057 A 
ENDROOT
BRANCH   1   7
ATOM      7  N   UNL d   1      -0.244  -2.215   0.269  0.00  0.00    -0.732 N 
ATOM      8  C   UNL d   1      -0.238  -2.969  -0.966  0.00  0.00     0.284 C 
ATOM      9  H3  UNL d   1      -0.167  -2.788   1.107  0.00  0.00     0.395 HD
ENDBRANCH   1   7
TORSDOF 1
ENDMDL
