MODEL 1
REMARK minimizedAffinity -5.15632534
REMARK minimizedRMSD -1
REMARK  1 active torsions:
REMARK  status: ('A' for Active; 'I' for Inactive)
REMARK    1  A    between atoms: N_2  and  C1_3 
ROOT
ATOM      1  C1  UNL d   1       0.165   0.241   0.069  0.00  0.00     0.143 A 
ATOM      2  C2  UNL d   1      -0.879   1.087   0.458  0.00  0.00    -0.057 A 
ATOM      3  C3  UNL d   1      -0.721   2.479   0.466  0.00  0.00     0.033 A 
ATOM      4  C4  UNL d   1       0.498   3.048   0.111  0.00  0.00    -0.042 A 
ATOM      5  C5  UNL d   1       1.556   2.225  -0.256  0.00  0.00     0.033 A 
ATOM      6  C6  UNL d   1       1.390   0.837  -0.268  0.00  0.00    -0.057 A 
ENDROOT
BRANCH   1   7
ATOM      7  N   UNL d   1       0.101  -1.153   0.134  0.00  0.00    -0.732 N 
ATOM      8  C   UNL d   1      -0.265  -1.930  -1.031  0.00  0.00     0.284 C 
ATOM      9  H3  UNL d   1       0.864  -1.552   0.677  0.00  0.00     0.395 HD
ENDBRANCH   1   7
TORSDOF 1
ENDMDL
