MODEL 1
REMARK minimizedAffinity -4.58467436
REMARK minimizedRMSD -1
REMARK  3 active torsions:
REMARK  status: ('A' for Active; 'I' for Inactive)
REMARK    1  A    between atoms: C3'_2  and  C2'_3 
REMARK    2  A    between atoms: C2'_3  and  C1'_4 
REMARK    3  A    between atoms: C1'_4  and  C1_5 
ROOT
ATOM      1  C1  N4B d   1      -0.946   0.779  -1.605  0.00  0.00    -0.075 A 
ATOM      2  C2  N4B d   1      -1.518   2.057  -1.790  0.00  0.00     0.002 A 
ATOM      3  C3  N4B d   1      -2.263   2.320  -2.913  0.00  0.00     0.002 A 
ATOM      4  C4  N4B d   1      -2.433   1.331  -3.870  0.00  0.00    -0.004 A 
ATOM      5  C5  N4B d   1      -1.899   0.091  -3.672  0.00  0.00     0.002 A 
ATOM      6  C6  N4B d   1      -1.151  -0.188  -2.546  0.00  0.00     0.002 A 
ENDROOT
BRANCH   1   7
ATOM      7  C1' N4B d   1      -0.052   0.471  -0.436  0.00  0.00     0.057 C 
BRANCH   7   8
ATOM      8  C2' N4B d   1       1.325   0.062  -0.951  0.00  0.00     0.009 C 
BRANCH   8   9
ATOM      9  C3' N4B d   1       2.399   0.215   0.112  0.00  0.00     0.004 C 
ATOM     10  C4' N4B d   1       2.380  -0.895   1.121  0.00  0.00     0.003 C 
ENDBRANCH   8   9
ENDBRANCH   7   8
ENDBRANCH   1   7
TORSDOF 3
ENDMDL
