MODEL 1
REMARK minimizedAffinity -5.85474491
REMARK minimizedRMSD -1
REMARK  3 active torsions:
REMARK  status: ('A' for Active; 'I' for Inactive)
REMARK    1  A    between atoms: C3'_2  and  C2'_3 
REMARK    2  A    between atoms: C2'_3  and  C1'_4 
REMARK    3  A    between atoms: C1'_4  and  C1_5 
ROOT
ATOM      1  C1  N4B d   1       0.515   0.136   0.482  0.00  0.00    -0.075 A 
ATOM      2  C2  N4B d   1      -0.114  -0.903   1.203  0.00  0.00     0.002 A 
ATOM      3  C3  N4B d   1       0.636  -1.929   1.724  0.00  0.00     0.002 A 
ATOM      4  C4  N4B d   1       2.008  -1.946   1.522  0.00  0.00    -0.004 A 
ATOM      5  C5  N4B d   1       2.611  -0.926   0.847  0.00  0.00     0.002 A 
ATOM      6  C6  N4B d   1       1.870   0.113   0.321  0.00  0.00     0.002 A 
ENDROOT
BRANCH   1   7
ATOM      7  C1' N4B d   1      -0.273   1.233  -0.180  0.00  0.00     0.057 C 
BRANCH   7   8
ATOM      8  C2' N4B d   1      -0.702   0.773  -1.570  0.00  0.00     0.009 C 
BRANCH   8   9
ATOM      9  C3' N4B d   1      -1.494   1.842  -2.303  0.00  0.00     0.004 C 
ATOM     10  C4' N4B d   1      -1.095   1.975  -3.743  0.00  0.00     0.003 C 
ENDBRANCH   8   9
ENDBRANCH   7   8
ENDBRANCH   1   7
TORSDOF 3
ENDMDL
