MODEL 1
REMARK minimizedAffinity -4.00136614
REMARK minimizedRMSD -1
REMARK  3 active torsions:
REMARK  status: ('A' for Active; 'I' for Inactive)
REMARK    1  A    between atoms: C3'_2  and  C2'_3 
REMARK    2  A    between atoms: C2'_3  and  C1'_4 
REMARK    3  A    between atoms: C1'_4  and  C1_5 
ROOT
ATOM      1  C1  N4B d   1      -1.083   0.594  -1.229  0.00  0.00    -0.075 A 
ATOM      2  C2  N4B d   1      -2.481   0.764  -1.325  0.00  0.00     0.002 A 
ATOM      3  C3  N4B d   1      -3.045   1.157  -2.514  0.00  0.00     0.002 A 
ATOM      4  C4  N4B d   1      -2.231   1.403  -3.611  0.00  0.00    -0.004 A 
ATOM      5  C5  N4B d   1      -0.884   1.211  -3.516  0.00  0.00     0.002 A 
ATOM      6  C6  N4B d   1      -0.304   0.813  -2.328  0.00  0.00     0.002 A 
ENDROOT
BRANCH   1   7
ATOM      7  C1' N4B d   1      -0.412   0.249   0.073  0.00  0.00     0.057 C 
BRANCH   7   8
ATOM      8  C2' N4B d   1       1.100   0.236  -0.130  0.00  0.00     0.009 C 
BRANCH   8   9
ATOM      9  C3' N4B d   1       1.776  -0.840   0.702  0.00  0.00     0.004 C 
ATOM     10  C4' N4B d   1       2.838  -1.579  -0.056  0.00  0.00     0.003 C 
ENDBRANCH   8   9
ENDBRANCH   7   8
ENDBRANCH   1   7
TORSDOF 3
ENDMDL
