MODEL 1
REMARK minimizedAffinity -2.87843633
REMARK minimizedRMSD -1
REMARK  3 active torsions:
REMARK  status: ('A' for Active; 'I' for Inactive)
REMARK    1  A    between atoms: C3'_2  and  C2'_3 
REMARK    2  A    between atoms: C2'_3  and  C1'_4 
REMARK    3  A    between atoms: C1'_4  and  C1_5 
ROOT
ATOM      1  C1  N4B d   1       0.769  -0.338  -0.348  0.00  0.00    -0.075 A 
ATOM      2  C2  N4B d   1       1.105  -0.455   1.019  0.00  0.00     0.002 A 
ATOM      3  C3  N4B d   1       2.370  -0.844   1.384  0.00  0.00     0.002 A 
ATOM      4  C4  N4B d   1       3.307  -1.137   0.405  0.00  0.00    -0.004 A 
ATOM      5  C5  N4B d   1       2.983  -0.997  -0.912  0.00  0.00     0.002 A 
ATOM      6  C6  N4B d   1       1.716  -0.604  -1.294  0.00  0.00     0.002 A 
ENDROOT
BRANCH   1   7
ATOM      7  C1' N4B d   1      -0.626   0.000  -0.797  0.00  0.00     0.057 C 
BRANCH   7   8
ATOM      8  C2' N4B d   1      -0.592   0.417  -2.265  0.00  0.00     0.009 C 
BRANCH   8   9
ATOM      9  C3' N4B d   1      -1.893   1.069  -2.700  0.00  0.00     0.004 C 
ATOM     10  C4' N4B d   1      -2.206   0.833  -4.147  0.00  0.00     0.003 C 
ENDBRANCH   8   9
ENDBRANCH   7   8
ENDBRANCH   1   7
TORSDOF 3
ENDMDL
