MODEL 1
REMARK minimizedAffinity -3.63177466
REMARK minimizedRMSD -1
REMARK  3 active torsions:
REMARK  status: ('A' for Active; 'I' for Inactive)
REMARK    1  A    between atoms: C3'_2  and  C2'_3 
REMARK    2  A    between atoms: C2'_3  and  C1'_4 
REMARK    3  A    between atoms: C1'_4  and  C1_5 
ROOT
ATOM      1  C1  N4B d   1       0.738   0.024   0.085  0.00  0.00    -0.075 A 
ATOM      2  C2  N4B d   1       2.094  -0.112   0.452  0.00  0.00     0.002 A 
ATOM      3  C3  N4B d   1       2.563  -1.318   0.912  0.00  0.00     0.002 A 
ATOM      4  C4  N4B d   1       1.694  -2.392   1.030  0.00  0.00    -0.004 A 
ATOM      5  C5  N4B d   1       0.391  -2.260   0.648  0.00  0.00     0.002 A 
ATOM      6  C6  N4B d   1      -0.093  -1.054   0.181  0.00  0.00     0.002 A 
ENDROOT
BRANCH   1   7
ATOM      7  C1' N4B d   1       0.159   1.346  -0.342  0.00  0.00     0.057 C 
BRANCH   7   8
ATOM      8  C2' N4B d   1      -1.340   1.185  -0.574  0.00  0.00     0.009 C 
BRANCH   8   9
ATOM      9  C3' N4B d   1      -1.822   1.999  -1.763  0.00  0.00     0.004 C 
ATOM     10  C4' N4B d   1      -3.274   1.781  -2.066  0.00  0.00     0.003 C 
ENDBRANCH   8   9
ENDBRANCH   7   8
ENDBRANCH   1   7
TORSDOF 3
ENDMDL
