MODEL 1
REMARK minimizedAffinity -4.98218489
REMARK minimizedRMSD -1
REMARK  3 active torsions:
REMARK  status: ('A' for Active; 'I' for Inactive)
REMARK    1  A    between atoms: C3'_2  and  C2'_3 
REMARK    2  A    between atoms: C2'_3  and  C1'_4 
REMARK    3  A    between atoms: C1'_4  and  C1_5 
ROOT
ATOM      1  C1  N4B d   1       0.092  -0.019  -0.010  0.00  0.00    -0.075 A 
ATOM      2  C2  N4B d   1       1.449  -0.153  -0.378  0.00  0.00     0.002 A 
ATOM      3  C3  N4B d   1       2.157  -1.265   0.003  0.00  0.00     0.002 A 
ATOM      4  C4  N4B d   1       1.539  -2.245   0.765  0.00  0.00    -0.004 A 
ATOM      5  C5  N4B d   1       0.221  -2.121   1.095  0.00  0.00     0.002 A 
ATOM      6  C6  N4B d   1      -0.505  -1.010   0.715  0.00  0.00     0.002 A 
ENDROOT
BRANCH   1   7
ATOM      7  C1' N4B d   1      -0.700   1.219  -0.330  0.00  0.00     0.057 C 
BRANCH   7   8
ATOM      8  C2' N4B d   1      -1.948   0.826  -1.116  0.00  0.00     0.009 C 
BRANCH   8   9
ATOM      9  C3' N4B d   1      -2.184   1.744  -2.303  0.00  0.00     0.004 C 
ATOM     10  C4' N4B d   1      -1.213   1.509  -3.422  0.00  0.00     0.003 C 
ENDBRANCH   8   9
ENDBRANCH   7   8
ENDBRANCH   1   7
TORSDOF 3
ENDMDL
