MODEL 1
REMARK minimizedAffinity -5.68609524
REMARK minimizedRMSD -1
REMARK  3 active torsions:
REMARK  status: ('A' for Active; 'I' for Inactive)
REMARK    1  A    between atoms: C3'_2  and  C2'_3 
REMARK    2  A    between atoms: C2'_3  and  C1'_4 
REMARK    3  A    between atoms: C1'_4  and  C1_5 
ROOT
ATOM      1  C1  N4B d   1       0.270  -0.278   0.330  0.00  0.00    -0.075 A 
ATOM      2  C2  N4B d   1      -0.112  -1.509   0.907  0.00  0.00     0.002 A 
ATOM      3  C3  N4B d   1       0.794  -2.537   0.993  0.00  0.00     0.002 A 
ATOM      4  C4  N4B d   1       2.077  -2.365   0.493  0.00  0.00    -0.004 A 
ATOM      5  C5  N4B d   1       2.445  -1.164  -0.040  0.00  0.00     0.002 A 
ATOM      6  C6  N4B d   1       1.546  -0.121  -0.129  0.00  0.00     0.002 A 
ENDROOT
BRANCH   1   7
ATOM      7  C1' N4B d   1      -0.710   0.847   0.137  0.00  0.00     0.057 C 
BRANCH   7   8
ATOM      8  C2' N4B d   1      -0.594   1.373  -1.291  0.00  0.00     0.009 C 
BRANCH   8   9
ATOM      9  C3' N4B d   1      -1.951   1.501  -1.962  0.00  0.00     0.004 C 
ATOM     10  C4' N4B d   1      -1.875   1.379  -3.454  0.00  0.00     0.003 C 
ENDBRANCH   8   9
ENDBRANCH   7   8
ENDBRANCH   1   7
TORSDOF 3
ENDMDL
