MODEL 1
REMARK minimizedAffinity -4.02596855
REMARK minimizedRMSD -1
REMARK  3 active torsions:
REMARK  status: ('A' for Active; 'I' for Inactive)
REMARK    1  A    between atoms: C3'_2  and  C2'_3 
REMARK    2  A    between atoms: C2'_3  and  C1'_4 
REMARK    3  A    between atoms: C1'_4  and  C1_5 
ROOT
ATOM      1  C1  N4B d   1       0.993   0.235  -0.049  0.00  0.00    -0.075 A 
ATOM      2  C2  N4B d   1       2.078   0.217   0.854  0.00  0.00     0.002 A 
ATOM      3  C3  N4B d   1       2.832  -0.922   1.000  0.00  0.00     0.002 A 
ATOM      4  C4  N4B d   1       2.508  -2.056   0.271  0.00  0.00    -0.004 A 
ATOM      5  C5  N4B d   1       1.474  -2.023  -0.618  0.00  0.00     0.002 A 
ATOM      6  C6  N4B d   1       0.711  -0.884  -0.778  0.00  0.00     0.002 A 
ENDROOT
BRANCH   1   7
ATOM      7  C1' N4B d   1       0.088   1.429  -0.180  0.00  0.00     0.057 C 
BRANCH   7   8
ATOM      8  C2' N4B d   1      -1.076   1.077  -1.101  0.00  0.00     0.009 C 
BRANCH   8   9
ATOM      9  C3' N4B d   1      -1.218   2.070  -2.242  0.00  0.00     0.004 C 
ATOM     10  C4' N4B d   1      -0.333   1.744  -3.409  0.00  0.00     0.003 C 
ENDBRANCH   8   9
ENDBRANCH   7   8
ENDBRANCH   1   7
TORSDOF 3
ENDMDL
