MODEL 1
REMARK minimizedAffinity -2.39415669
REMARK minimizedRMSD -1
REMARK  3 active torsions:
REMARK  status: ('A' for Active; 'I' for Inactive)
REMARK    1  A    between atoms: C3'_2  and  C2'_3 
REMARK    2  A    between atoms: C2'_3  and  C1'_4 
REMARK    3  A    between atoms: C1'_4  and  C1_5 
ROOT
ATOM      1  C1  N4B d   1       0.937  -0.205   0.222  0.00  0.00    -0.075 A 
ATOM      2  C2  N4B d   1       0.944  -1.287  -0.686  0.00  0.00     0.002 A 
ATOM      3  C3  N4B d   1       1.691  -2.407  -0.414  0.00  0.00     0.002 A 
ATOM      4  C4  N4B d   1       2.449  -2.460   0.746  0.00  0.00    -0.004 A 
ATOM      5  C5  N4B d   1       2.417  -1.422   1.630  0.00  0.00     0.002 A 
ATOM      6  C6  N4B d   1       1.668  -0.292   1.371  0.00  0.00     0.002 A 
ENDROOT
BRANCH   1   7
ATOM      7  C1' N4B d   1       0.204   1.075  -0.073  0.00  0.00     0.057 C 
BRANCH   7   8
ATOM      8  C2' N4B d   1      -1.113   0.748  -0.772  0.00  0.00     0.009 C 
BRANCH   8   9
ATOM      9  C3' N4B d   1      -1.250   1.481  -2.096  0.00  0.00     0.004 C 
ATOM     10  C4' N4B d   1      -2.538   1.173  -2.799  0.00  0.00     0.003 C 
ENDBRANCH   8   9
ENDBRANCH   7   8
ENDBRANCH   1   7
TORSDOF 3
ENDMDL
