MODEL 1
REMARK minimizedAffinity -5.46043205
REMARK minimizedRMSD -1
REMARK  3 active torsions:
REMARK  status: ('A' for Active; 'I' for Inactive)
REMARK    1  A    between atoms: C3'_2  and  C2'_3 
REMARK    2  A    between atoms: C2'_3  and  C1'_4 
REMARK    3  A    between atoms: C1'_4  and  C1_5 
ROOT
ATOM      1  C1  N4B d   1       0.456  -0.143   0.251  0.00  0.00    -0.075 A 
ATOM      2  C2  N4B d   1       1.708   0.066   0.869  0.00  0.00     0.002 A 
ATOM      3  C3  N4B d   1       2.524  -1.004   1.146  0.00  0.00     0.002 A 
ATOM      4  C4  N4B d   1       2.102  -2.287   0.833  0.00  0.00    -0.004 A 
ATOM      5  C5  N4B d   1       0.901  -2.478   0.213  0.00  0.00     0.002 A 
ATOM      6  C6  N4B d   1       0.073  -1.412  -0.075  0.00  0.00     0.002 A 
ENDROOT
BRANCH   1   7
ATOM      7  C1' N4B d   1      -0.507   0.987   0.007  0.00  0.00     0.057 C 
BRANCH   7   8
ATOM      8  C2' N4B d   1      -0.520   1.321  -1.482  0.00  0.00     0.009 C 
BRANCH   8   9
ATOM      9  C3' N4B d   1      -1.897   1.756  -1.955  0.00  0.00     0.004 C 
ATOM     10  C4' N4B d   1      -1.959   1.975  -3.437  0.00  0.00     0.003 C 
ENDBRANCH   8   9
ENDBRANCH   7   8
ENDBRANCH   1   7
TORSDOF 3
ENDMDL
