MODEL 1
REMARK minimizedAffinity -5.53669691
REMARK minimizedRMSD -1
REMARK  3 active torsions:
REMARK  status: ('A' for Active; 'I' for Inactive)
REMARK    1  A    between atoms: C3'_2  and  C2'_3 
REMARK    2  A    between atoms: C2'_3  and  C1'_4 
REMARK    3  A    between atoms: C1'_4  and  C1_5 
ROOT
ATOM      1  C1  N4B d   1       0.716  -0.406  -0.363  0.00  0.00    -0.075 A 
ATOM      2  C2  N4B d   1       1.998  -0.265   0.212  0.00  0.00     0.002 A 
ATOM      3  C3  N4B d   1       2.567  -1.316   0.888  0.00  0.00     0.002 A 
ATOM      4  C4  N4B d   1       1.868  -2.507   1.017  0.00  0.00    -0.004 A 
ATOM      5  C5  N4B d   1       0.641  -2.643   0.437  0.00  0.00     0.002 A 
ATOM      6  C6  N4B d   1       0.059  -1.596  -0.249  0.00  0.00     0.002 A 
ENDROOT
BRANCH   1   7
ATOM      7  C1' N4B d   1       0.018   0.743  -1.038  0.00  0.00     0.057 C 
BRANCH   7   8
ATOM      8  C2' N4B d   1      -1.265   1.066  -0.277  0.00  0.00     0.009 C 
BRANCH   8   9
ATOM      9  C3' N4B d   1      -1.028   1.162   1.221  0.00  0.00     0.004 C 
ATOM     10  C4' N4B d   1      -2.028   0.379   2.018  0.00  0.00     0.003 C 
ENDBRANCH   8   9
ENDBRANCH   7   8
ENDBRANCH   1   7
TORSDOF 3
ENDMDL
