MODEL 1
REMARK minimizedAffinity -1.59396124
REMARK minimizedRMSD -1
REMARK  0 active torsions:
REMARK  status: ('A' for Active; 'I' for Inactive)
ROOT
ATOM      1  C   UNL d   1       0.342   1.200   0.078  0.00  0.00     0.172 C 
ATOM      2  N   UNL d   1      -0.142  -0.148   0.264  0.00  0.00    -0.070 N 
ATOM      3  C1  UNL d   1      -0.427  -0.734   1.469  0.00  0.00    -0.004 A 
ATOM      4  C2  UNL d   1      -0.861  -2.019   1.221  0.00  0.00    -0.047 A 
ATOM      5  C3  UNL d   1      -0.835  -2.211  -0.181  0.00  0.00    -0.047 A 
ATOM      6  C4  UNL d   1      -0.387  -1.037  -0.749  0.00  0.00    -0.004 A 
ENDROOT
TORSDOF 0
ENDMDL
