MODEL 1
REMARK minimizedAffinity -1.898615
REMARK minimizedRMSD -1
REMARK  0 active torsions:
REMARK  status: ('A' for Active; 'I' for Inactive)
ROOT
ATOM      1  C   UNL d   1      -0.179   0.408   0.775  0.00  0.00     0.172 C 
ATOM      2  N   UNL d   1       0.685   1.562   0.699  0.00  0.00    -0.070 N 
ATOM      3  C1  UNL d   1       1.362   1.981  -0.415  0.00  0.00    -0.004 A 
ATOM      4  C2  UNL d   1       2.071   3.114  -0.077  0.00  0.00    -0.047 A 
ATOM      5  C3  UNL d   1       1.811   3.384   1.288  0.00  0.00    -0.047 A 
ATOM      6  C4  UNL d   1       0.950   2.408   1.744  0.00  0.00    -0.004 A 
ENDROOT
TORSDOF 0
ENDMDL
