MODEL 1
REMARK minimizedAffinity -1.39949024
REMARK minimizedRMSD -1
REMARK  0 active torsions:
REMARK  status: ('A' for Active; 'I' for Inactive)
ROOT
ATOM      1  C   UNL d   1      -0.214   1.184  -0.131  0.00  0.00     0.172 C 
ATOM      2  N   UNL d   1       0.634   2.345   0.010  0.00  0.00    -0.070 N 
ATOM      3  C1  UNL d   1       1.642   2.706  -0.843  0.00  0.00    -0.004 A 
ATOM      4  C2  UNL d   1       2.207   3.867  -0.361  0.00  0.00    -0.047 A 
ATOM      5  C3  UNL d   1       1.514   4.216   0.822  0.00  0.00    -0.047 A 
ATOM      6  C4  UNL d   1       0.546   3.256   1.029  0.00  0.00    -0.004 A 
ENDROOT
TORSDOF 0
ENDMDL
