MODEL 1
REMARK minimizedAffinity -2.2607007
REMARK minimizedRMSD -1
REMARK  0 active torsions:
REMARK  status: ('A' for Active; 'I' for Inactive)
ROOT
ATOM      1  C   UNL d   1      -1.179  -2.273   0.735  0.00  0.00     0.172 C 
ATOM      2  N   UNL d   1      -0.734  -0.962   0.324  0.00  0.00    -0.070 N 
ATOM      3  C1  UNL d   1       0.021  -0.686  -0.785  0.00  0.00    -0.004 A 
ATOM      4  C2  UNL d   1       0.231   0.675  -0.825  0.00  0.00    -0.047 A 
ATOM      5  C3  UNL d   1      -0.418   1.237   0.300  0.00  0.00    -0.047 A 
ATOM      6  C4  UNL d   1      -1.008   0.201   0.994  0.00  0.00    -0.004 A 
ENDROOT
TORSDOF 0
ENDMDL
