MODEL 1
REMARK minimizedAffinity -1.58673298
REMARK minimizedRMSD -1
REMARK  0 active torsions:
REMARK  status: ('A' for Active; 'I' for Inactive)
ROOT
ATOM      1  C   UNL d   1      -0.277   1.109  -0.418  0.00  0.00     0.172 C 
ATOM      2  N   UNL d   1       0.598   2.190  -0.029  0.00  0.00    -0.070 N 
ATOM      3  C1  UNL d   1       0.221   3.317   0.650  0.00  0.00    -0.004 A 
ATOM      4  C2  UNL d   1       1.342   4.099   0.827  0.00  0.00    -0.047 A 
ATOM      5  C3  UNL d   1       2.431   3.418   0.233  0.00  0.00    -0.047 A 
ATOM      6  C4  UNL d   1       1.942   2.239  -0.290  0.00  0.00    -0.004 A 
ENDROOT
TORSDOF 0
ENDMDL
