MODEL 1
REMARK minimizedAffinity -3.31326151
REMARK minimizedRMSD -1
REMARK  0 active torsions:
REMARK  status: ('A' for Active; 'I' for Inactive)
ROOT
ATOM      1  C   UNL d   1       2.350   3.233   0.562  0.00  0.00     0.172 C 
ATOM      2  N   UNL d   1       1.304   2.287   0.253  0.00  0.00    -0.070 N 
ATOM      3  C1  UNL d   1       1.322   0.951   0.553  0.00  0.00    -0.004 A 
ATOM      4  C2  UNL d   1       0.145   0.400   0.094  0.00  0.00    -0.047 A 
ATOM      5  C3  UNL d   1      -0.605   1.440  -0.504  0.00  0.00    -0.047 A 
ATOM      6  C4  UNL d   1       0.136   2.597  -0.392  0.00  0.00    -0.004 A 
ENDROOT
TORSDOF 0
ENDMDL
