MODEL 1
REMARK minimizedAffinity -2.62774873
REMARK minimizedRMSD -1
REMARK  0 active torsions:
REMARK  status: ('A' for Active; 'I' for Inactive)
ROOT
ATOM      1  C   UNL d   1       1.493   0.026   0.818  0.00  0.00     0.172 C 
ATOM      2  N   UNL d   1       1.352   1.461   0.747  0.00  0.00    -0.070 N 
ATOM      3  C1  UNL d   1       2.272   2.376   1.185  0.00  0.00    -0.004 A 
ATOM      4  C2  UNL d   1       1.766   3.634   0.938  0.00  0.00    -0.047 A 
ATOM      5  C3  UNL d   1       0.499   3.470   0.332  0.00  0.00    -0.047 A 
ATOM      6  C4  UNL d   1       0.267   2.115   0.225  0.00  0.00    -0.004 A 
ENDROOT
TORSDOF 0
ENDMDL
