MODEL 1
REMARK minimizedAffinity -1.94721329
REMARK minimizedRMSD -1
REMARK  0 active torsions:
REMARK  status: ('A' for Active; 'I' for Inactive)
ROOT
ATOM      1  C   UNL d   1       0.608   1.334   0.026  0.00  0.00     0.172 C 
ATOM      2  N   UNL d   1      -0.071   0.240   0.680  0.00  0.00    -0.070 N 
ATOM      3  C1  UNL d   1       0.195  -0.225   1.940  0.00  0.00    -0.004 A 
ATOM      4  C2  UNL d   1      -0.666  -1.271   2.194  0.00  0.00    -0.047 A 
ATOM      5  C3  UNL d   1      -1.477  -1.440   1.047  0.00  0.00    -0.047 A 
ATOM      6  C4  UNL d   1      -1.087  -0.491   0.125  0.00  0.00    -0.004 A 
ENDROOT
TORSDOF 0
ENDMDL
