MODEL 1
REMARK minimizedAffinity -3.22687221
REMARK minimizedRMSD -1
REMARK  0 active torsions:
REMARK  status: ('A' for Active; 'I' for Inactive)
ROOT
ATOM      1  C   UNL d   1       1.133   1.979   0.539  0.00  0.00     0.172 C 
ATOM      2  N   UNL d   1       0.490   0.705   0.761  0.00  0.00    -0.070 N 
ATOM      3  C1  UNL d   1      -0.275   0.027  -0.151  0.00  0.00    -0.004 A 
ATOM      4  C2  UNL d   1      -0.703  -1.140   0.443  0.00  0.00    -0.047 A 
ATOM      5  C3  UNL d   1      -0.179  -1.165   1.757  0.00  0.00    -0.047 A 
ATOM      6  C4  UNL d   1       0.556  -0.011   1.927  0.00  0.00    -0.004 A 
ENDROOT
TORSDOF 0
ENDMDL
