MODEL 1
REMARK minimizedAffinity -1.90833747
REMARK minimizedRMSD -1
REMARK  0 active torsions:
REMARK  status: ('A' for Active; 'I' for Inactive)
ROOT
ATOM      1  C   UNL d   1       0.086   1.621  -0.095  0.00  0.00     0.172 C 
ATOM      2  N   UNL d   1      -0.244   0.225   0.069  0.00  0.00    -0.070 N 
ATOM      3  C1  UNL d   1      -0.773  -0.342   1.197  0.00  0.00    -0.004 A 
ATOM      4  C2  UNL d   1      -0.943  -1.688   0.953  0.00  0.00    -0.047 A 
ATOM      5  C3  UNL d   1      -0.499  -1.938  -0.367  0.00  0.00    -0.047 A 
ATOM      6  C4  UNL d   1      -0.072  -0.736  -0.891  0.00  0.00    -0.004 A 
ENDROOT
TORSDOF 0
ENDMDL
