MODEL 1
REMARK minimizedAffinity -2.91268492
REMARK minimizedRMSD -1
REMARK  0 active torsions:
REMARK  status: ('A' for Active; 'I' for Inactive)
ROOT
ATOM      1  C   UNL d   1      -0.363  -0.558   0.416  0.00  0.00     0.172 C 
ATOM      2  N   UNL d   1       0.135   0.795   0.499  0.00  0.00    -0.070 N 
ATOM      3  C1  UNL d   1      -0.297   1.853  -0.255  0.00  0.00    -0.004 A 
ATOM      4  C2  UNL d   1       0.423   2.964   0.124  0.00  0.00    -0.047 A 
ATOM      5  C3  UNL d   1       1.320   2.561   1.142  0.00  0.00    -0.047 A 
ATOM      6  C4  UNL d   1       1.120   1.213   1.354  0.00  0.00    -0.004 A 
ENDROOT
TORSDOF 0
ENDMDL
