MODEL 1
REMARK minimizedAffinity -2.81822872
REMARK minimizedRMSD -1
REMARK  0 active torsions:
REMARK  status: ('A' for Active; 'I' for Inactive)
ROOT
ATOM      1  C   UNL d   1       1.235   2.585   0.329  0.00  0.00     0.172 C 
ATOM      2  N   UNL d   1       0.504   1.369   0.593  0.00  0.00    -0.070 N 
ATOM      3  C1  UNL d   1       0.592   0.617   1.735  0.00  0.00    -0.004 A 
ATOM      4  C2  UNL d   1      -0.259  -0.458   1.598  0.00  0.00    -0.047 A 
ATOM      5  C3  UNL d   1      -0.879  -0.350   0.330  0.00  0.00    -0.047 A 
ATOM      6  C4  UNL d   1      -0.388   0.790  -0.270  0.00  0.00    -0.004 A 
ENDROOT
TORSDOF 0
ENDMDL
