MODEL 1
REMARK minimizedAffinity -2.49365616
REMARK minimizedRMSD -1
REMARK  0 active torsions:
REMARK  status: ('A' for Active; 'I' for Inactive)
ROOT
ATOM      1  C   UNL d   1       0.304   1.169   0.091  0.00  0.00     0.172 C 
ATOM      2  N   UNL d   1      -0.320  -0.122   0.258  0.00  0.00    -0.070 N 
ATOM      3  C1  UNL d   1      -1.364  -0.402   1.099  0.00  0.00    -0.004 A 
ATOM      4  C2  UNL d   1      -1.666  -1.740   0.966  0.00  0.00    -0.047 A 
ATOM      5  C3  UNL d   1      -0.772  -2.283   0.013  0.00  0.00    -0.047 A 
ATOM      6  C4  UNL d   1       0.050  -1.260  -0.410  0.00  0.00    -0.004 A 
ENDROOT
TORSDOF 0
ENDMDL
