MODEL 1
REMARK minimizedAffinity -2.76789331
REMARK minimizedRMSD -1
REMARK  0 active torsions:
REMARK  status: ('A' for Active; 'I' for Inactive)
ROOT
ATOM      1  C   UNL d   1       1.473   2.227   0.110  0.00  0.00     0.172 C 
ATOM      2  N   UNL d   1       0.370   1.336   0.381  0.00  0.00    -0.070 N 
ATOM      3  C1  UNL d   1       0.431   0.194   1.133  0.00  0.00    -0.004 A 
ATOM      4  C2  UNL d   1      -0.827  -0.369   1.150  0.00  0.00    -0.047 A 
ATOM      5  C3  UNL d   1      -1.673   0.464   0.381  0.00  0.00    -0.047 A 
ATOM      6  C4  UNL d   1      -0.907   1.512  -0.084  0.00  0.00    -0.004 A 
ENDROOT
TORSDOF 0
ENDMDL
