MODEL 1
REMARK minimizedAffinity -0.554265857
REMARK minimizedRMSD -1
REMARK  0 active torsions:
REMARK  status: ('A' for Active; 'I' for Inactive)
ROOT
ATOM      1  C   UNL d   1       0.748   0.837   0.752  0.00  0.00     0.172 C 
ATOM      2  N   UNL d   1      -0.038  -0.373   0.804  0.00  0.00    -0.070 N 
ATOM      3  C1  UNL d   1      -0.709  -0.935  -0.249  0.00  0.00    -0.004 A 
ATOM      4  C2  UNL d   1      -1.334  -2.075   0.208  0.00  0.00    -0.047 A 
ATOM      5  C3  UNL d   1      -1.029  -2.202   1.584  0.00  0.00    -0.047 A 
ATOM      6  C4  UNL d   1      -0.226  -1.135   1.927  0.00  0.00    -0.004 A 
ENDROOT
TORSDOF 0
ENDMDL
