MODEL 1
REMARK minimizedAffinity -2.88814378
REMARK minimizedRMSD -1
REMARK  0 active torsions:
REMARK  status: ('A' for Active; 'I' for Inactive)
ROOT
ATOM      1  C   UNL d   1      -0.287   1.116  -1.079  0.00  0.00     0.172 C 
ATOM      2  N   UNL d   1      -0.190   0.236   0.062  0.00  0.00    -0.070 N 
ATOM      3  C1  UNL d   1      -1.117  -0.704   0.426  0.00  0.00    -0.004 A 
ATOM      4  C2  UNL d   1      -0.657  -1.332   1.564  0.00  0.00    -0.047 A 
ATOM      5  C3  UNL d   1       0.589  -0.748   1.895  0.00  0.00    -0.047 A 
ATOM      6  C4  UNL d   1       0.854   0.219   0.949  0.00  0.00    -0.004 A 
ENDROOT
TORSDOF 0
ENDMDL
