MODEL 1
REMARK minimizedAffinity -3.05321431
REMARK minimizedRMSD -1
REMARK  0 active torsions:
REMARK  status: ('A' for Active; 'I' for Inactive)
ROOT
ATOM      1  C   UNL d   1       0.206   1.449   0.035  0.00  0.00     0.172 C 
ATOM      2  N   UNL d   1      -0.426   0.217   0.445  0.00  0.00    -0.070 N 
ATOM      3  C1  UNL d   1      -0.294  -0.994  -0.180  0.00  0.00    -0.004 A 
ATOM      4  C2  UNL d   1      -1.050  -1.913   0.516  0.00  0.00    -0.047 A 
ATOM      5  C3  UNL d   1      -1.658  -1.230   1.596  0.00  0.00    -0.047 A 
ATOM      6  C4  UNL d   1      -1.255   0.087   1.528  0.00  0.00    -0.004 A 
ENDROOT
TORSDOF 0
ENDMDL
