MODEL 1
REMARK minimizedAffinity -3.47498465
REMARK minimizedRMSD -1
REMARK  0 active torsions:
REMARK  status: ('A' for Active; 'I' for Inactive)
ROOT
ATOM      1  N1  IND d   1      -1.149  -0.897  -0.070  0.00  0.00    -0.196 N 
ATOM      2  C2  IND d   1      -0.024  -0.569  -0.774  0.00  0.00     0.054 A 
ATOM      3  C3  IND d   1       0.664   0.403  -0.135  0.00  0.00    -0.031 A 
ATOM      4  C4  IND d   1       0.182   1.531   2.128  0.00  0.00     0.051 A 
ATOM      5  C5  IND d   1      -0.750   1.590   3.126  0.00  0.00    -0.031 A 
ATOM      6  C6  IND d   1      -1.885   0.805   3.110  0.00  0.00     0.015 A 
ATOM      7  C7  IND d   1      -2.125  -0.080   2.097  0.00  0.00    -0.016 A 
ATOM      8  C8  IND d   1      -1.183  -0.138   1.079  0.00  0.00    -0.047 A 
ATOM      9  C9  IND d   1      -0.051   0.687   1.068  0.00  0.00    -0.096 A 
ATOM     10  HN1 IND d   1      -1.736  -1.479  -0.305  0.00  0.00     0.298 HD
ENDROOT
TORSDOF 0
ENDMDL
