MODEL 1
REMARK minimizedAffinity -1.90705693
REMARK minimizedRMSD -1
REMARK  0 active torsions:
REMARK  status: ('A' for Active; 'I' for Inactive)
ROOT
ATOM      1  N1  IND d   1      -0.522   0.680  -5.998  0.00  0.00    -0.196 N 
ATOM      2  C2  IND d   1      -1.255  -0.394  -5.575  0.00  0.00     0.054 A 
ATOM      3  C3  IND d   1      -0.714  -0.921  -4.453  0.00  0.00    -0.031 A 
ATOM      4  C4  IND d   1       1.313  -0.120  -3.083  0.00  0.00     0.051 A 
ATOM      5  C5  IND d   1       2.326   0.797  -3.094  0.00  0.00    -0.031 A 
ATOM      6  C6  IND d   1       2.442   1.744  -4.091  0.00  0.00     0.015 A 
ATOM      7  C7  IND d   1       1.539   1.815  -5.114  0.00  0.00    -0.016 A 
ATOM      8  C8  IND d   1       0.513   0.880  -5.111  0.00  0.00    -0.047 A 
ATOM      9  C9  IND d   1       0.415  -0.110  -4.124  0.00  0.00    -0.096 A 
ATOM     10  HN1 IND d   1      -0.680   1.150  -6.699  0.00  0.00     0.298 HD
ENDROOT
TORSDOF 0
ENDMDL
