MODEL 1
REMARK minimizedAffinity -2.17331648
REMARK minimizedRMSD -1
REMARK  0 active torsions:
REMARK  status: ('A' for Active; 'I' for Inactive)
ROOT
ATOM      1  N1  IND d   1      -1.205  -0.960  -0.297  0.00  0.00    -0.196 N 
ATOM      2  C2  IND d   1      -0.043  -1.172  -0.986  0.00  0.00     0.054 A 
ATOM      3  C3  IND d   1       0.948  -0.402  -0.485  0.00  0.00    -0.031 A 
ATOM      4  C4  IND d   1       0.914   1.203   1.528  0.00  0.00     0.051 A 
ATOM      5  C5  IND d   1       0.070   1.756   2.450  0.00  0.00    -0.031 A 
ATOM      6  C6  IND d   1      -1.268   1.423   2.507  0.00  0.00     0.015 A 
ATOM      7  C7  IND d   1      -1.812   0.512   1.646  0.00  0.00    -0.016 A 
ATOM      8  C8  IND d   1      -0.960  -0.046   0.704  0.00  0.00    -0.047 A 
ATOM      9  C9  IND d   1       0.389   0.320   0.614  0.00  0.00    -0.096 A 
ATOM     10  HN1 IND d   1      -1.961  -1.335  -0.462  0.00  0.00     0.298 HD
ENDROOT
TORSDOF 0
ENDMDL
