MODEL 1
REMARK minimizedAffinity 2.39281106
REMARK minimizedRMSD -1
REMARK  0 active torsions:
REMARK  status: ('A' for Active; 'I' for Inactive)
ROOT
ATOM      1  N1  IND d   1       0.784  -1.013  -1.877  0.00  0.00    -0.196 N 
ATOM      2  C2  IND d   1      -0.495  -0.617  -2.151  0.00  0.00     0.054 A 
ATOM      3  C3  IND d   1      -1.095  -0.155  -1.031  0.00  0.00    -0.031 A 
ATOM      4  C4  IND d   1      -0.130   0.138   1.338  0.00  0.00     0.051 A 
ATOM      5  C5  IND d   1       0.985  -0.117   2.086  0.00  0.00    -0.031 A 
ATOM      6  C6  IND d   1       2.113  -0.694   1.540  0.00  0.00     0.015 A 
ATOM      7  C7  IND d   1       2.174  -1.027   0.216  0.00  0.00    -0.016 A 
ATOM      8  C8  IND d   1       1.041  -0.775  -0.545  0.00  0.00    -0.047 A 
ATOM      9  C9  IND d   1      -0.122  -0.230   0.013  0.00  0.00    -0.096 A 
ATOM     10  HN1 IND d   1       1.336  -1.353  -2.442  0.00  0.00     0.298 HD
ENDROOT
TORSDOF 0
ENDMDL
