MODEL 1
REMARK minimizedAffinity -5.7364459
REMARK minimizedRMSD -1
REMARK  0 active torsions:
REMARK  status: ('A' for Active; 'I' for Inactive)
ROOT
ATOM      1  N1  IND d   1       0.774  -0.661  -0.001  0.00  0.00    -0.196 N 
ATOM      2  C2  IND d   1      -0.418  -0.615  -0.670  0.00  0.00     0.054 A 
ATOM      3  C3  IND d   1      -1.357  -0.001   0.083  0.00  0.00    -0.031 A 
ATOM      4  C4  IND d   1      -1.133   1.097   2.401  0.00  0.00     0.051 A 
ATOM      5  C5  IND d   1      -0.248   1.277   3.427  0.00  0.00    -0.031 A 
ATOM      6  C6  IND d   1       1.050   0.813   3.360  0.00  0.00     0.015 A 
ATOM      7  C7  IND d   1       1.516   0.159   2.255  0.00  0.00    -0.016 A 
ATOM      8  C8  IND d   1       0.618  -0.032   1.214  0.00  0.00    -0.047 A 
ATOM      9  C9  IND d   1      -0.712   0.399   1.294  0.00  0.00    -0.096 A 
ATOM     10  HN1 IND d   1       1.498  -1.022  -0.291  0.00  0.00     0.298 HD
ENDROOT
TORSDOF 0
ENDMDL
