MODEL 1
REMARK minimizedAffinity -0.261455506
REMARK minimizedRMSD -1
REMARK  0 active torsions:
REMARK  status: ('A' for Active; 'I' for Inactive)
ROOT
ATOM      1  N1  IND d   1       0.516  -0.767  -0.915  0.00  0.00    -0.196 N 
ATOM      2  C2  IND d   1       0.215   0.415  -0.298  0.00  0.00     0.054 A 
ATOM      3  C3  IND d   1      -1.120   0.522  -0.112  0.00  0.00    -0.031 A 
ATOM      4  C4  IND d   1      -2.986  -1.167  -0.649  0.00  0.00     0.051 A 
ATOM      5  C5  IND d   1      -3.206  -2.374  -1.252  0.00  0.00    -0.031 A 
ATOM      6  C6  IND d   1      -2.175  -3.124  -1.781  0.00  0.00     0.015 A 
ATOM      7  C7  IND d   1      -0.878  -2.697  -1.717  0.00  0.00    -0.016 A 
ATOM      8  C8  IND d   1      -0.653  -1.468  -1.112  0.00  0.00    -0.047 A 
ATOM      9  C9  IND d   1      -1.700  -0.684  -0.611  0.00  0.00    -0.096 A 
ATOM     10  HN1 IND d   1       1.303  -1.028  -1.141  0.00  0.00     0.298 HD
ENDROOT
TORSDOF 0
ENDMDL
