MODEL 1
REMARK minimizedAffinity -2.30103683
REMARK minimizedRMSD -1
REMARK  0 active torsions:
REMARK  status: ('A' for Active; 'I' for Inactive)
ROOT
ATOM      1  N1  IND d   1       0.680  -0.639  -1.168  0.00  0.00    -0.196 N 
ATOM      2  C2  IND d   1       0.384   0.232  -0.158  0.00  0.00     0.054 A 
ATOM      3  C3  IND d   1      -0.866   0.007   0.306  0.00  0.00    -0.031 A 
ATOM      4  C4  IND d   1      -2.562  -1.806  -0.376  0.00  0.00     0.051 A 
ATOM      5  C5  IND d   1      -2.758  -2.812  -1.281  0.00  0.00    -0.031 A 
ATOM      6  C6  IND d   1      -1.797  -3.153  -2.211  0.00  0.00     0.015 A 
ATOM      7  C7  IND d   1      -0.595  -2.506  -2.264  0.00  0.00    -0.016 A 
ATOM      8  C8  IND d   1      -0.395  -1.480  -1.352  0.00  0.00    -0.047 A 
ATOM      9  C9  IND d   1      -1.383  -1.101  -0.433  0.00  0.00    -0.096 A 
ATOM     10  HN1 IND d   1       1.415  -0.659  -1.614  0.00  0.00     0.298 HD
ENDROOT
TORSDOF 0
ENDMDL
