MODEL 1
REMARK minimizedAffinity -5.96422577
REMARK minimizedRMSD -1
REMARK  0 active torsions:
REMARK  status: ('A' for Active; 'I' for Inactive)
ROOT
ATOM      1  N1  IND d   1       1.754  -1.033   1.290  0.00  0.00    -0.196 N 
ATOM      2  C2  IND d   1       1.492  -1.431   0.009  0.00  0.00     0.054 A 
ATOM      3  C3  IND d   1       0.286  -0.968  -0.390  0.00  0.00    -0.031 A 
ATOM      4  C4  IND d   1      -1.380   0.545   0.859  0.00  0.00     0.051 A 
ATOM      5  C5  IND d   1      -1.598   1.138   2.071  0.00  0.00    -0.031 A 
ATOM      6  C6  IND d   1      -0.689   1.037   3.105  0.00  0.00     0.015 A 
ATOM      7  C7  IND d   1       0.481   0.347   2.961  0.00  0.00    -0.016 A 
ATOM      8  C8  IND d   1       0.702  -0.262   1.734  0.00  0.00    -0.047 A 
ATOM      9  C9  IND d   1      -0.236  -0.199   0.695  0.00  0.00    -0.096 A 
ATOM     10  HN1 IND d   1       2.457  -1.231   1.743  0.00  0.00     0.298 HD
ENDROOT
TORSDOF 0
ENDMDL
