MODEL 1
REMARK minimizedAffinity -0.134884328
REMARK minimizedRMSD -1
REMARK  0 active torsions:
REMARK  status: ('A' for Active; 'I' for Inactive)
ROOT
ATOM      1  N1  IND d   1      -1.194   1.694   1.209  0.00  0.00    -0.196 N 
ATOM      2  C2  IND d   1      -1.054   2.198   2.472  0.00  0.00     0.054 A 
ATOM      3  C3  IND d   1      -0.009   1.613   3.099  0.00  0.00    -0.031 A 
ATOM      4  C4  IND d   1       1.671  -0.122   2.206  0.00  0.00     0.051 A 
ATOM      5  C5  IND d   1       1.930  -0.911   1.121  0.00  0.00    -0.031 A 
ATOM      6  C6  IND d   1       1.146  -0.870  -0.015  0.00  0.00     0.015 A 
ATOM      7  C7  IND d   1       0.077  -0.025  -0.111  0.00  0.00    -0.016 A 
ATOM      8  C8  IND d   1      -0.193   0.773   0.991  0.00  0.00    -0.047 A 
ATOM      9  C9  IND d   1       0.573   0.704   2.162  0.00  0.00    -0.096 A 
ATOM     10  HN1 IND d   1      -1.805   1.915   0.646  0.00  0.00     0.298 HD
ENDROOT
TORSDOF 0
ENDMDL
