MODEL 1
REMARK minimizedAffinity -1.88055146
REMARK minimizedRMSD -1
REMARK  0 active torsions:
REMARK  status: ('A' for Active; 'I' for Inactive)
ROOT
ATOM      1  N1  IND d   1       0.332  -1.179  -0.650  0.00  0.00    -0.196 N 
ATOM      2  C2  IND d   1       0.256  -0.063   0.134  0.00  0.00     0.054 A 
ATOM      3  C3  IND d   1      -1.021   0.153   0.523  0.00  0.00    -0.031 A 
ATOM      4  C4  IND d   1      -3.128  -1.255   0.071  0.00  0.00     0.051 A 
ATOM      5  C5  IND d   1      -3.566  -2.346  -0.627  0.00  0.00    -0.031 A 
ATOM      6  C6  IND d   1      -2.709  -3.120  -1.381  0.00  0.00     0.015 A 
ATOM      7  C7  IND d   1      -1.374  -2.839  -1.457  0.00  0.00    -0.016 A 
ATOM      8  C8  IND d   1      -0.927  -1.728  -0.755  0.00  0.00    -0.047 A 
ATOM      9  C9  IND d   1      -1.800  -0.913  -0.022  0.00  0.00    -0.096 A 
ATOM     10  HN1 IND d   1       1.046  -1.487  -1.017  0.00  0.00     0.298 HD
ENDROOT
TORSDOF 0
ENDMDL
