MODEL 1
REMARK minimizedAffinity -3.63819695
REMARK minimizedRMSD -1
REMARK  1 active torsions:
REMARK  status: ('A' for Active; 'I' for Inactive)
REMARK    1  A    between atoms: N_2  and  C1_3 
ROOT
ATOM      1  C1  UNL d   1      -1.091   0.443  -0.814  0.00  0.00     0.143 A 
ATOM      2  C2  UNL d   1      -0.797  -0.818  -0.286  0.00  0.00    -0.057 A 
ATOM      3  C3  UNL d   1       0.387  -1.050   0.425  0.00  0.00     0.033 A 
ATOM      4  C4  UNL d   1       1.314  -0.027   0.596  0.00  0.00    -0.042 A 
ATOM      5  C5  UNL d   1       1.054   1.229   0.058  0.00  0.00     0.033 A 
ATOM      6  C6  UNL d   1      -0.133   1.455  -0.645  0.00  0.00    -0.057 A 
ENDROOT
BRANCH   1   7
ATOM      7  N   UNL d   1      -2.204   0.711  -1.615  0.00  0.00    -0.732 N 
ATOM      8  C   UNL d   1      -2.398   0.010  -2.867  0.00  0.00     0.284 C 
ATOM      9  H3  UNL d   1      -3.055   0.831  -1.070  0.00  0.00     0.395 HD
ENDBRANCH   1   7
TORSDOF 1
ENDMDL
