MODEL 1
REMARK minimizedAffinity -4.85007095
REMARK minimizedRMSD -1
REMARK  1 active torsions:
REMARK  status: ('A' for Active; 'I' for Inactive)
REMARK    1  A    between atoms: N_2  and  C1_3 
ROOT
ATOM      1  C1  UNL d   1       0.793   0.076   0.250  0.00  0.00     0.143 A 
ATOM      2  C2  UNL d   1       2.076   0.594   0.045  0.00  0.00    -0.057 A 
ATOM      3  C3  UNL d   1       3.203  -0.012   0.613  0.00  0.00     0.033 A 
ATOM      4  C4  UNL d   1       3.063  -1.133   1.424  0.00  0.00    -0.042 A 
ATOM      5  C5  UNL d   1       1.794  -1.650   1.663  0.00  0.00     0.033 A 
ATOM      6  C6  UNL d   1       0.674  -1.045   1.087  0.00  0.00    -0.057 A 
ENDROOT
BRANCH   1   7
ATOM      7  N   UNL d   1      -0.376   0.690  -0.206  0.00  0.00    -0.732 N 
ATOM      8  C   UNL d   1      -1.481  -0.103  -0.699  0.00  0.00     0.284 C 
ATOM      9  H3  UNL d   1      -0.655   1.476   0.377  0.00  0.00     0.395 HD
ENDBRANCH   1   7
TORSDOF 1
ENDMDL
