MODEL 1
REMARK minimizedAffinity 2.31858611
REMARK minimizedRMSD -1
REMARK  1 active torsions:
REMARK  status: ('A' for Active; 'I' for Inactive)
REMARK    1  A    between atoms: N_2  and  C1_3 
ROOT
ATOM      1  C1  UNL d   1       1.625   0.683   0.994  0.00  0.00     0.143 A 
ATOM      2  C2  UNL d   1       1.041  -0.433   0.386  0.00  0.00    -0.057 A 
ATOM      3  C3  UNL d   1      -0.286  -0.407  -0.059  0.00  0.00     0.033 A 
ATOM      4  C4  UNL d   1      -1.064   0.732   0.122  0.00  0.00    -0.042 A 
ATOM      5  C5  UNL d   1      -0.512   1.845   0.746  0.00  0.00     0.033 A 
ATOM      6  C6  UNL d   1       0.815   1.815   1.183  0.00  0.00    -0.057 A 
ENDROOT
BRANCH   1   7
ATOM      7  N   UNL d   1       2.908   0.686   1.547  0.00  0.00    -0.732 N 
ATOM      8  C   UNL d   1       3.865  -0.339   1.192  0.00  0.00     0.284 C 
ATOM      9  H3  UNL d   1       3.303   1.622   1.606  0.00  0.00     0.395 HD
ENDBRANCH   1   7
TORSDOF 1
ENDMDL
