MODEL 1
REMARK minimizedAffinity -2.59466553
REMARK minimizedRMSD -1
REMARK  1 active torsions:
REMARK  status: ('A' for Active; 'I' for Inactive)
REMARK    1  A    between atoms: N_2  and  C1_3 
ROOT
ATOM      1  C1  UNL d   1       0.409  -0.023   0.285  0.00  0.00     0.143 A 
ATOM      2  C2  UNL d   1       0.706  -1.372   0.062  0.00  0.00    -0.057 A 
ATOM      3  C3  UNL d   1       2.028  -1.833   0.054  0.00  0.00     0.033 A 
ATOM      4  C4  UNL d   1       3.082  -0.944   0.241  0.00  0.00    -0.042 A 
ATOM      5  C5  UNL d   1       2.812   0.405   0.440  0.00  0.00     0.033 A 
ATOM      6  C6  UNL d   1       1.489   0.858   0.453  0.00  0.00    -0.057 A 
ENDROOT
BRANCH   1   7
ATOM      7  N   UNL d   1      -0.878   0.513   0.206  0.00  0.00    -0.732 N 
ATOM      8  C   UNL d   1      -1.581   0.560  -1.057  0.00  0.00     0.284 C 
ATOM      9  H3  UNL d   1      -1.460   0.244   0.996  0.00  0.00     0.395 HD
ENDBRANCH   1   7
TORSDOF 1
ENDMDL
