MODEL 1
REMARK minimizedAffinity -2.25590277
REMARK minimizedRMSD -1
REMARK  1 active torsions:
REMARK  status: ('A' for Active; 'I' for Inactive)
REMARK    1  A    between atoms: N_2  and  C1_3 
ROOT
ATOM      1  C1  UNL d   1       0.792   0.367   0.082  0.00  0.00     0.143 A 
ATOM      2  C2  UNL d   1       1.471  -0.637  -0.617  0.00  0.00    -0.057 A 
ATOM      3  C3  UNL d   1       2.743  -1.065  -0.218  0.00  0.00     0.033 A 
ATOM      4  C4  UNL d   1       3.373  -0.475   0.873  0.00  0.00    -0.042 A 
ATOM      5  C5  UNL d   1       2.727   0.541   1.567  0.00  0.00     0.033 A 
ATOM      6  C6  UNL d   1       1.454   0.960   1.169  0.00  0.00    -0.057 A 
ENDROOT
BRANCH   1   7
ATOM      7  N   UNL d   1      -0.432   0.905  -0.322  0.00  0.00    -0.732 N 
ATOM      8  C   UNL d   1      -1.544   0.040  -0.653  0.00  0.00     0.284 C 
ATOM      9  H3  UNL d   1      -0.692   1.728   0.216  0.00  0.00     0.395 HD
ENDBRANCH   1   7
TORSDOF 1
ENDMDL
