MODEL 1
REMARK minimizedAffinity -1.22840309
REMARK minimizedRMSD -1
REMARK  1 active torsions:
REMARK  status: ('A' for Active; 'I' for Inactive)
REMARK    1  A    between atoms: N_2  and  C1_3 
ROOT
ATOM      1  C1  UNL d   1      -0.351   0.029  -0.383  0.00  0.00     0.143 A 
ATOM      2  C2  UNL d   1       0.326   1.090   0.229  0.00  0.00    -0.057 A 
ATOM      3  C3  UNL d   1       1.454   0.867   1.028  0.00  0.00     0.033 A 
ATOM      4  C4  UNL d   1       1.909  -0.428   1.254  0.00  0.00    -0.042 A 
ATOM      5  C5  UNL d   1       1.237  -1.500   0.676  0.00  0.00     0.033 A 
ATOM      6  C6  UNL d   1       0.115  -1.270  -0.127  0.00  0.00    -0.057 A 
ENDROOT
BRANCH   1   7
ATOM      7  N   UNL d   1      -1.535   0.178  -1.108  0.00  0.00    -0.732 N 
ATOM      8  C   UNL d   1      -1.675  -0.415  -2.421  0.00  0.00     0.284 C 
ATOM      9  H3  UNL d   1      -2.363   0.090  -0.523  0.00  0.00     0.395 HD
ENDBRANCH   1   7
TORSDOF 1
ENDMDL
