MODEL 1
REMARK minimizedAffinity -4.37906885
REMARK minimizedRMSD -1
REMARK  1 active torsions:
REMARK  status: ('A' for Active; 'I' for Inactive)
REMARK    1  A    between atoms: N_2  and  C1_3 
ROOT
ATOM      1  C1  UNL d   1      -0.032   0.047  -0.090  0.00  0.00     0.143 A 
ATOM      2  C2  UNL d   1       0.508   1.288   0.265  0.00  0.00    -0.057 A 
ATOM      3  C3  UNL d   1       1.863   1.423   0.591  0.00  0.00     0.033 A 
ATOM      4  C4  UNL d   1       2.699   0.311   0.594  0.00  0.00    -0.042 A 
ATOM      5  C5  UNL d   1       2.178  -0.936   0.268  0.00  0.00     0.033 A 
ATOM      6  C6  UNL d   1       0.826  -1.064  -0.063  0.00  0.00    -0.057 A 
ENDROOT
BRANCH   1   7
ATOM      7  N   UNL d   1      -1.391  -0.170  -0.328  0.00  0.00    -0.732 N 
ATOM      8  C   UNL d   1      -1.940  -0.018  -1.659  0.00  0.00     0.284 C 
ATOM      9  H3  UNL d   1      -1.751  -0.974   0.181  0.00  0.00     0.395 HD
ENDBRANCH   1   7
TORSDOF 1
ENDMDL
