MODEL 1
REMARK minimizedAffinity -2.39483786
REMARK minimizedRMSD -1
REMARK  1 active torsions:
REMARK  status: ('A' for Active; 'I' for Inactive)
REMARK    1  A    between atoms: N_2  and  C1_3 
ROOT
ATOM      1  C1  UNL d   1      -0.639   0.039   0.266  0.00  0.00     0.143 A 
ATOM      2  C2  UNL d   1       0.094  -1.073   0.696  0.00  0.00    -0.057 A 
ATOM      3  C3  UNL d   1       1.468  -0.983   0.951  0.00  0.00     0.033 A 
ATOM      4  C4  UNL d   1       2.141   0.218   0.752  0.00  0.00    -0.042 A 
ATOM      5  C5  UNL d   1       1.438   1.330   0.301  0.00  0.00     0.033 A 
ATOM      6  C6  UNL d   1       0.065   1.235   0.054  0.00  0.00    -0.057 A 
ENDROOT
BRANCH   1   7
ATOM      7  N   UNL d   1      -1.986  -0.011  -0.099  0.00  0.00    -0.732 N 
ATOM      8  C   UNL d   1      -2.377   0.071  -1.490  0.00  0.00     0.284 C 
ATOM      9  H3  UNL d   1      -2.509  -0.697   0.440  0.00  0.00     0.395 HD
ENDBRANCH   1   7
TORSDOF 1
ENDMDL
