MODEL 1
REMARK minimizedAffinity -2.65263629
REMARK minimizedRMSD -1
REMARK  0 active torsions:
REMARK  status: ('A' for Active; 'I' for Inactive)
ROOT
ATOM      1  C   UNL d   1      -0.290  -0.025  -3.117  0.00  0.00     0.172 C 
ATOM      2  N   UNL d   1      -0.229   0.298  -1.711  0.00  0.00    -0.070 N 
ATOM      3  C1  UNL d   1       0.880   0.743  -1.041  0.00  0.00    -0.004 A 
ATOM      4  C2  UNL d   1       0.528   0.936   0.277  0.00  0.00    -0.047 A 
ATOM      5  C3  UNL d   1      -0.840   0.594   0.405  0.00  0.00    -0.047 A 
ATOM      6  C4  UNL d   1      -1.283   0.202  -0.841  0.00  0.00    -0.004 A 
ENDROOT
TORSDOF 0
ENDMDL
