MODEL 1
REMARK minimizedAffinity -3.11036253
REMARK minimizedRMSD -1
REMARK  0 active torsions:
REMARK  status: ('A' for Active; 'I' for Inactive)
ROOT
ATOM      1  C   UNL d   1       0.313   0.091  -1.880  0.00  0.00     0.172 C 
ATOM      2  N   UNL d   1      -1.084   0.091  -2.247  0.00  0.00    -0.070 N 
ATOM      3  C1  UNL d   1      -2.139   0.092  -1.373  0.00  0.00    -0.004 A 
ATOM      4  C2  UNL d   1      -3.300   0.093  -2.115  0.00  0.00    -0.047 A 
ATOM      5  C3  UNL d   1      -2.931   0.092  -3.481  0.00  0.00    -0.047 A 
ATOM      6  C4  UNL d   1      -1.553   0.091  -3.534  0.00  0.00    -0.004 A 
ENDROOT
TORSDOF 0
ENDMDL
