MODEL 1
REMARK minimizedAffinity -2.72721481
REMARK minimizedRMSD -1
REMARK  0 active torsions:
REMARK  status: ('A' for Active; 'I' for Inactive)
ROOT
ATOM      1  C   UNL d   1       2.346   0.666   1.072  0.00  0.00     0.172 C 
ATOM      2  N   UNL d   1       1.002   0.550   0.558  0.00  0.00    -0.070 N 
ATOM      3  C1  UNL d   1       0.371   1.466  -0.242  0.00  0.00    -0.004 A 
ATOM      4  C2  UNL d   1      -0.893   0.989  -0.514  0.00  0.00    -0.047 A 
ATOM      5  C3  UNL d   1      -1.027  -0.256   0.145  0.00  0.00    -0.047 A 
ATOM      6  C4  UNL d   1       0.161  -0.503   0.801  0.00  0.00    -0.004 A 
ENDROOT
TORSDOF 0
ENDMDL
