MODEL 1
REMARK minimizedAffinity -2.89651203
REMARK minimizedRMSD -1
REMARK  0 active torsions:
REMARK  status: ('A' for Active; 'I' for Inactive)
ROOT
ATOM      1  C   UNL d   1      -0.504  -0.002  -0.220  0.00  0.00     0.172 C 
ATOM      2  N   UNL d   1      -1.412  -0.119  -1.338  0.00  0.00    -0.070 N 
ATOM      3  C1  UNL d   1      -2.136   0.904  -1.888  0.00  0.00    -0.004 A 
ATOM      4  C2  UNL d   1      -2.876   0.385  -2.929  0.00  0.00    -0.047 A 
ATOM      5  C3  UNL d   1      -2.586  -0.998  -3.007  0.00  0.00    -0.047 A 
ATOM      6  C4  UNL d   1      -1.677  -1.283  -2.010  0.00  0.00    -0.004 A 
ENDROOT
TORSDOF 0
ENDMDL
