MODEL 1
REMARK minimizedAffinity -2.63921738
REMARK minimizedRMSD -1
REMARK  0 active torsions:
REMARK  status: ('A' for Active; 'I' for Inactive)
ROOT
ATOM      1  C   UNL d   1      -1.147   0.010   0.145  0.00  0.00     0.172 C 
ATOM      2  N   UNL d   1      -1.823   0.131  -1.125  0.00  0.00    -0.070 N 
ATOM      3  C1  UNL d   1      -2.734   1.098  -1.456  0.00  0.00    -0.004 A 
ATOM      4  C2  UNL d   1      -3.143   0.867  -2.752  0.00  0.00    -0.047 A 
ATOM      5  C3  UNL d   1      -2.455  -0.279  -3.215  0.00  0.00    -0.047 A 
ATOM      6  C4  UNL d   1      -1.645  -0.715  -2.188  0.00  0.00    -0.004 A 
ENDROOT
TORSDOF 0
ENDMDL
