MODEL 1
REMARK minimizedAffinity -3.06843209
REMARK minimizedRMSD -1
REMARK  0 active torsions:
REMARK  status: ('A' for Active; 'I' for Inactive)
ROOT
ATOM      1  C   UNL d   1      -1.381   0.614  -0.427  0.00  0.00     0.172 C 
ATOM      2  N   UNL d   1       0.014   0.567  -0.060  0.00  0.00    -0.070 N 
ATOM      3  C1  UNL d   1       0.550  -0.190   0.948  0.00  0.00    -0.004 A 
ATOM      4  C2  UNL d   1       1.907   0.044   0.976  0.00  0.00    -0.047 A 
ATOM      5  C3  UNL d   1       2.198   0.974  -0.050  0.00  0.00    -0.047 A 
ATOM      6  C4  UNL d   1       1.008   1.281  -0.675  0.00  0.00    -0.004 A 
ENDROOT
TORSDOF 0
ENDMDL
