MODEL 1
REMARK minimizedAffinity 1.4198308
REMARK minimizedRMSD -1
REMARK  2 active torsions:
REMARK  status: ('A' for Active; 'I' for Inactive)
REMARK    1  A    between atoms: C1_2  and  C2_3 
REMARK    2  A    between atoms: C2_3  and  C3_4 
ROOT
ATOM      1  C3  UNL d   1      -0.293  -0.131  -1.662  0.00  0.00    -0.075 A 
ATOM      2  C4  UNL d   1       0.496  -0.449  -0.547  0.00  0.00     0.002 A 
ATOM      3  C5  UNL d   1       0.100  -0.064   0.734  0.00  0.00     0.002 A 
ATOM      4  C6  UNL d   1      -1.082   0.651   0.916  0.00  0.00    -0.004 A 
ATOM      5  C7  UNL d   1      -1.865   0.987  -0.187  0.00  0.00     0.002 A 
ATOM      6  C8  UNL d   1      -1.473   0.599  -1.469  0.00  0.00     0.002 A 
ENDROOT
BRANCH   1   7
ATOM      7  C2  UNL d   1       0.116  -0.570  -3.048  0.00  0.00     0.056 C 
BRANCH   7   8
ATOM      8  C1  UNL d   1      -0.183   0.460  -4.142  0.00  0.00     0.007 C 
ATOM      9  C   UNL d   1       1.022   1.321  -4.500  0.00  0.00     0.009 C 
ENDBRANCH   7   8
ENDBRANCH   1   7
TORSDOF 2
ENDMDL
