MODEL 1
REMARK minimizedAffinity -2.44450569
REMARK minimizedRMSD -1
REMARK  2 active torsions:
REMARK  status: ('A' for Active; 'I' for Inactive)
REMARK    1  A    between atoms: C1_2  and  C2_3 
REMARK    2  A    between atoms: C2_3  and  C3_4 
ROOT
ATOM      1  C3  UNL d   1       0.373   0.028  -1.116  0.00  0.00    -0.075 A 
ATOM      2  C4  UNL d   1       1.536   0.725  -0.756  0.00  0.00     0.002 A 
ATOM      3  C5  UNL d   1       2.283   1.402  -1.720  0.00  0.00     0.002 A 
ATOM      4  C6  UNL d   1       1.884   1.383  -3.055  0.00  0.00    -0.004 A 
ATOM      5  C7  UNL d   1       0.740   0.680  -3.426  0.00  0.00     0.002 A 
ATOM      6  C8  UNL d   1      -0.012   0.005  -2.463  0.00  0.00     0.002 A 
ENDROOT
BRANCH   1   7
ATOM      7  C2  UNL d   1      -0.456  -0.683  -0.073  0.00  0.00     0.056 C 
BRANCH   7   8
ATOM      8  C1  UNL d   1      -1.843  -0.069   0.145  0.00  0.00     0.007 C 
ATOM      9  C   UNL d   1      -2.190   0.123   1.615  0.00  0.00     0.009 C 
ENDBRANCH   7   8
ENDBRANCH   1   7
TORSDOF 2
ENDMDL
