MODEL 1
REMARK minimizedAffinity 7.27596235
REMARK minimizedRMSD -1
REMARK  2 active torsions:
REMARK  status: ('A' for Active; 'I' for Inactive)
REMARK    1  A    between atoms: C1_2  and  C2_3 
REMARK    2  A    between atoms: C2_3  and  C3_4 
ROOT
ATOM      1  C3  UNL d   1      -0.652  -0.895  -1.729  0.00  0.00    -0.075 A 
ATOM      2  C4  UNL d   1      -1.976  -0.829  -1.272  0.00  0.00     0.002 A 
ATOM      3  C5  UNL d   1      -2.250  -0.621   0.080  0.00  0.00     0.002 A 
ATOM      4  C6  UNL d   1      -1.206  -0.486   0.993  0.00  0.00    -0.004 A 
ATOM      5  C7  UNL d   1       0.114  -0.566   0.553  0.00  0.00     0.002 A 
ATOM      6  C8  UNL d   1       0.390  -0.769  -0.800  0.00  0.00     0.002 A 
ENDROOT
BRANCH   1   7
ATOM      7  C2  UNL d   1      -0.349  -1.090  -3.195  0.00  0.00     0.056 C 
BRANCH   7   8
ATOM      8  C1  UNL d   1      -0.341   0.208  -4.009  0.00  0.00     0.007 C 
ATOM      9  C   UNL d   1       1.045   0.824  -4.144  0.00  0.00     0.009 C 
ENDBRANCH   7   8
ENDBRANCH   1   7
TORSDOF 2
ENDMDL
