MODEL 1
REMARK minimizedAffinity -2.83159924
REMARK minimizedRMSD -1
REMARK  2 active torsions:
REMARK  status: ('A' for Active; 'I' for Inactive)
REMARK    1  A    between atoms: C1_2  and  C2_3 
REMARK    2  A    between atoms: C2_3  and  C3_4 
ROOT
ATOM      1  C3  UNL d   1      -1.112   0.082   1.131  0.00  0.00    -0.075 A 
ATOM      2  C4  UNL d   1      -0.481  -0.228  -0.082  0.00  0.00     0.002 A 
ATOM      3  C5  UNL d   1       0.872  -0.567  -0.111  0.00  0.00     0.002 A 
ATOM      4  C6  UNL d   1       1.613  -0.590   1.069  0.00  0.00    -0.004 A 
ATOM      5  C7  UNL d   1       1.000  -0.268   2.278  0.00  0.00     0.002 A 
ATOM      6  C8  UNL d   1      -0.354   0.068   2.310  0.00  0.00     0.002 A 
ENDROOT
BRANCH   1   7
ATOM      7  C2  UNL d   1      -2.583   0.421   1.173  0.00  0.00     0.056 C 
BRANCH   7   8
ATOM      8  C1  UNL d   1      -3.357  -0.006  -0.079  0.00  0.00     0.007 C 
ATOM      9  C   UNL d   1      -4.679   0.730  -0.247  0.00  0.00     0.009 C 
ENDBRANCH   7   8
ENDBRANCH   1   7
TORSDOF 2
ENDMDL
