MODEL 1
REMARK minimizedAffinity -5.64168453
REMARK minimizedRMSD -1
REMARK  2 active torsions:
REMARK  status: ('A' for Active; 'I' for Inactive)
REMARK    1  A    between atoms: C1_2  and  C2_3 
REMARK    2  A    between atoms: C2_3  and  C3_4 
ROOT
ATOM      1  C3  UNL d   1       0.074   0.331   0.238  0.00  0.00    -0.075 A 
ATOM      2  C4  UNL d   1       1.253   0.135   0.971  0.00  0.00     0.002 A 
ATOM      3  C5  UNL d   1       1.270   0.333   2.352  0.00  0.00     0.002 A 
ATOM      4  C6  UNL d   1       0.114   0.739   3.015  0.00  0.00    -0.004 A 
ATOM      5  C7  UNL d   1      -1.059   0.953   2.294  0.00  0.00     0.002 A 
ATOM      6  C8  UNL d   1      -1.080   0.751   0.913  0.00  0.00     0.002 A 
ENDROOT
BRANCH   1   7
ATOM      7  C2  UNL d   1       0.041   0.090  -1.252  0.00  0.00     0.056 C 
BRANCH   7   8
ATOM      8  C1  UNL d   1       0.968   1.010  -2.054  0.00  0.00     0.007 C 
ATOM      9  C   UNL d   1       0.767   0.901  -3.559  0.00  0.00     0.009 C 
ENDBRANCH   7   8
ENDBRANCH   1   7
TORSDOF 2
ENDMDL
