MODEL 1
REMARK minimizedAffinity 18.8382664
REMARK minimizedRMSD -1
REMARK  0 active torsions:
REMARK  status: ('A' for Active; 'I' for Inactive)
ROOT
ATOM      1  C   UNL d   1      -2.290  -0.703  -2.504  0.00  0.00     0.124 A 
ATOM      2  C1  UNL d   1      -3.158  -0.986  -3.549  0.00  0.00     0.062 A 
ATOM      3  C2  UNL d   1      -4.112  -0.051  -3.940  0.00  0.00     0.162 A 
ATOM      4  C3  UNL d   1      -4.203   1.178  -3.285  0.00  0.00    -0.034 A 
ATOM      5  C4  UNL d   1      -3.327   1.455  -2.234  0.00  0.00     0.162 A 
ATOM      6  C5  UNL d   1      -2.375   0.517  -1.848  0.00  0.00     0.062 A 
ATOM      7  F   UNL d   1      -1.537   0.792  -0.838  0.00  0.00    -0.097 F 
ATOM      8  F1  UNL d   1      -3.386   2.626  -1.583  0.00  0.00    -0.096 F 
ATOM      9  I   UNL d   1      -5.628   2.579  -3.866  0.00  0.00    -0.060 I 
ATOM     10  F2  UNL d   1      -4.938  -0.351  -4.953  0.00  0.00    -0.096 F 
ATOM     11  F3  UNL d   1      -3.079  -2.164  -4.184  0.00  0.00    -0.097 F 
ATOM     12  F4  UNL d   1      -1.374  -1.605  -2.130  0.00  0.00    -0.092 F 
ENDROOT
TORSDOF 0
ENDMDL
