MODEL 1
REMARK minimizedAffinity 21.2597885
REMARK minimizedRMSD -1
REMARK  0 active torsions:
REMARK  status: ('A' for Active; 'I' for Inactive)
ROOT
ATOM      1  C   UNL d   1       1.560  -5.820   0.025  0.00  0.00     0.124 A 
ATOM      2  C1  UNL d   1       2.917  -5.856   0.313  0.00  0.00     0.062 A 
ATOM      3  C2  UNL d   1       3.850  -5.908  -0.718  0.00  0.00     0.162 A 
ATOM      4  C3  UNL d   1       3.430  -5.923  -2.048  0.00  0.00    -0.034 A 
ATOM      5  C4  UNL d   1       2.063  -5.888  -2.330  0.00  0.00     0.162 A 
ATOM      6  C5  UNL d   1       1.134  -5.836  -1.296  0.00  0.00     0.062 A 
ATOM      7  F   UNL d   1      -0.177  -5.802  -1.576  0.00  0.00    -0.097 F 
ATOM      8  F1  UNL d   1       1.624  -5.901  -3.597  0.00  0.00    -0.096 F 
ATOM      9  I   UNL d   1       4.822  -6.000  -3.593  0.00  0.00    -0.060 I 
ATOM     10  F2  UNL d   1       5.156  -5.941  -0.411  0.00  0.00    -0.096 F 
ATOM     11  F3  UNL d   1       3.331  -5.842   1.588  0.00  0.00    -0.097 F 
ATOM     12  F4  UNL d   1       0.664  -5.772   1.019  0.00  0.00    -0.092 F 
ENDROOT
TORSDOF 0
ENDMDL
