MODEL 1
REMARK minimizedAffinity 20.7803555
REMARK minimizedRMSD -1
REMARK  0 active torsions:
REMARK  status: ('A' for Active; 'I' for Inactive)
ROOT
ATOM      1  C   UNL d   1       2.159  -1.652   3.246  0.00  0.00     0.124 A 
ATOM      2  C1  UNL d   1       1.315  -1.918   2.177  0.00  0.00     0.062 A 
ATOM      3  C2  UNL d   1       1.475  -3.083   1.432  0.00  0.00     0.162 A 
ATOM      4  C3  UNL d   1       2.482  -3.992   1.755  0.00  0.00    -0.034 A 
ATOM      5  C4  UNL d   1       3.327  -3.717   2.832  0.00  0.00     0.162 A 
ATOM      6  C5  UNL d   1       3.163  -2.552   3.573  0.00  0.00     0.062 A 
ATOM      7  F   UNL d   1       3.979  -2.297   4.606  0.00  0.00    -0.097 F 
ATOM      8  F1  UNL d   1       4.305  -4.570   3.170  0.00  0.00    -0.096 F 
ATOM      9  I   UNL d   1       2.724  -5.735   0.644  0.00  0.00    -0.060 I 
ATOM     10  F2  UNL d   1       0.645  -3.314   0.404  0.00  0.00    -0.096 F 
ATOM     11  F3  UNL d   1       0.344  -1.049   1.858  0.00  0.00    -0.097 F 
ATOM     12  F4  UNL d   1       2.003  -0.530   3.961  0.00  0.00    -0.092 F 
ENDROOT
TORSDOF 0
ENDMDL
