MODEL 1
REMARK minimizedAffinity 11.0393724
REMARK minimizedRMSD -1
REMARK  0 active torsions:
REMARK  status: ('A' for Active; 'I' for Inactive)
ROOT
ATOM      1  C   UNL d   1       1.691  -2.611   3.361  0.00  0.00     0.124 A 
ATOM      2  C1  UNL d   1       2.153  -3.877   3.694  0.00  0.00     0.062 A 
ATOM      3  C2  UNL d   1       2.494  -4.783   2.695  0.00  0.00     0.162 A 
ATOM      4  C3  UNL d   1       2.376  -4.427   1.351  0.00  0.00    -0.034 A 
ATOM      5  C4  UNL d   1       1.909  -3.152   1.024  0.00  0.00     0.162 A 
ATOM      6  C5  UNL d   1       1.569  -2.250   2.027  0.00  0.00     0.062 A 
ATOM      7  F   UNL d   1       1.123  -1.028   1.703  0.00  0.00    -0.097 F 
ATOM      8  F1  UNL d   1       1.783  -2.776  -0.257  0.00  0.00    -0.096 F 
ATOM      9  I   UNL d   1       2.885  -5.778  -0.147  0.00  0.00    -0.060 I 
ATOM     10  F2  UNL d   1       2.938  -5.999   3.045  0.00  0.00    -0.096 F 
ATOM     11  F3  UNL d   1       2.270  -4.229   4.983  0.00  0.00    -0.097 F 
ATOM     12  F4  UNL d   1       1.362  -1.742   4.325  0.00  0.00    -0.092 F 
ENDROOT
TORSDOF 0
ENDMDL
