MODEL 1
REMARK minimizedAffinity 8.49753189
REMARK minimizedRMSD -1
REMARK  0 active torsions:
REMARK  status: ('A' for Active; 'I' for Inactive)
ROOT
ATOM      1  C   UNL d   1       2.422  -5.973   1.382  0.00  0.00     0.124 A 
ATOM      2  C1  UNL d   1       3.807  -5.984   1.300  0.00  0.00     0.062 A 
ATOM      3  C2  UNL d   1       4.435  -5.989   0.058  0.00  0.00     0.162 A 
ATOM      4  C3  UNL d   1       3.678  -5.982  -1.113  0.00  0.00    -0.034 A 
ATOM      5  C4  UNL d   1       2.285  -5.972  -1.023  0.00  0.00     0.162 A 
ATOM      6  C5  UNL d   1       1.662  -5.967   0.221  0.00  0.00     0.062 A 
ATOM      7  F   UNL d   1       0.323  -5.957   0.298  0.00  0.00    -0.097 F 
ATOM      8  F1  UNL d   1       1.526  -5.965  -2.129  0.00  0.00    -0.096 F 
ATOM      9  I   UNL d   1       4.613  -5.989  -2.973  0.00  0.00    -0.060 I 
ATOM     10  F2  UNL d   1       5.775  -5.999   0.009  0.00  0.00    -0.096 F 
ATOM     11  F3  UNL d   1       4.544  -5.991   2.421  0.00  0.00    -0.097 F 
ATOM     12  F4  UNL d   1       1.820  -5.970   2.579  0.00  0.00    -0.092 F 
ENDROOT
TORSDOF 0
ENDMDL
