MODEL 1
REMARK minimizedAffinity 20.2349339
REMARK minimizedRMSD -1
REMARK  0 active torsions:
REMARK  status: ('A' for Active; 'I' for Inactive)
ROOT
ATOM      1  C   UNL d   1       5.275  -0.260  -5.062  0.00  0.00     0.124 A 
ATOM      2  C1  UNL d   1       4.524   0.419  -4.113  0.00  0.00     0.062 A 
ATOM      3  C2  UNL d   1       3.769  -0.287  -3.181  0.00  0.00     0.162 A 
ATOM      4  C3  UNL d   1       3.762  -1.682  -3.193  0.00  0.00    -0.034 A 
ATOM      5  C4  UNL d   1       4.519  -2.358  -4.151  0.00  0.00     0.162 A 
ATOM      6  C5  UNL d   1       5.272  -1.648  -5.080  0.00  0.00     0.062 A 
ATOM      7  F   UNL d   1       5.997  -2.306  -5.996  0.00  0.00    -0.097 F 
ATOM      8  F1  UNL d   1       4.535  -3.699  -4.190  0.00  0.00    -0.096 F 
ATOM      9  I   UNL d   1       2.634  -2.741  -1.801  0.00  0.00    -0.060 I 
ATOM     10  F2  UNL d   1       3.053   0.396  -2.275  0.00  0.00    -0.096 F 
ATOM     11  F3  UNL d   1       4.525   1.760  -4.094  0.00  0.00    -0.097 F 
ATOM     12  F4  UNL d   1       6.000   0.422  -5.958  0.00  0.00    -0.092 F 
ENDROOT
TORSDOF 0
ENDMDL
