MODEL 1
REMARK minimizedAffinity -6.0628767
REMARK minimizedRMSD -1
REMARK  0 active torsions:
REMARK  status: ('A' for Active; 'I' for Inactive)
ROOT
ATOM      1  C1  DEN d   1      -0.424  -1.373   1.347  0.00  0.00     0.130 A 
ATOM      2  C2  DEN d   1      -1.523  -0.635   0.729  0.00  0.00    -0.031 A 
ATOM      3  C3  DEN d   1      -0.951   0.530   0.025  0.00  0.00     0.027 A 
ATOM      4  C4  DEN d   1       1.516   1.257  -0.172  0.00  0.00     0.027 A 
ATOM      5  C5  DEN d   1       2.809   0.952   0.194  0.00  0.00    -0.003 A 
ATOM      6  C6  DEN d   1       3.108  -0.120   0.992  0.00  0.00     0.001 A 
ATOM      7  C7  DEN d   1       2.106  -0.954   1.413  0.00  0.00     0.017 A 
ATOM      8  C8  DEN d   1       0.800  -0.649   1.054  0.00  0.00    -0.094 A 
ATOM      9  C9  DEN d   1       0.519   0.432   0.236  0.00  0.00    -0.072 A 
ENDROOT
TORSDOF 0
ENDMDL
