MODEL 1
REMARK minimizedAffinity -5.00368452
REMARK minimizedRMSD -1
REMARK  0 active torsions:
REMARK  status: ('A' for Active; 'I' for Inactive)
ROOT
ATOM      1  C1  DEN d   1       1.502  -1.426   0.416  0.00  0.00     0.130 A 
ATOM      2  C2  DEN d   1       2.673  -0.644   0.804  0.00  0.00    -0.031 A 
ATOM      3  C3  DEN d   1       2.312   0.786   0.730  0.00  0.00     0.027 A 
ATOM      4  C4  DEN d   1       0.064   1.860   0.062  0.00  0.00     0.027 A 
ATOM      5  C5  DEN d   1      -1.222   1.602  -0.358  0.00  0.00    -0.003 A 
ATOM      6  C6  DEN d   1      -1.676   0.329  -0.581  0.00  0.00     0.001 A 
ATOM      7  C7  DEN d   1      -0.851  -0.738  -0.341  0.00  0.00     0.017 A 
ATOM      8  C8  DEN d   1       0.449  -0.485   0.076  0.00  0.00    -0.094 A 
ATOM      9  C9  DEN d   1       0.886   0.808   0.308  0.00  0.00    -0.072 A 
ENDROOT
TORSDOF 0
ENDMDL
