MODEL 1
REMARK minimizedAffinity -3.43809867
REMARK minimizedRMSD -1
REMARK  0 active torsions:
REMARK  status: ('A' for Active; 'I' for Inactive)
ROOT
ATOM      1  C1  DEN d   1      -0.740   0.273   1.096  0.00  0.00     0.130 A 
ATOM      2  C2  DEN d   1      -1.445   0.006  -0.154  0.00  0.00    -0.031 A 
ATOM      3  C3  DEN d   1      -0.461  -0.496  -1.135  0.00  0.00     0.027 A 
ATOM      4  C4  DEN d   1       2.070  -0.889  -0.837  0.00  0.00     0.027 A 
ATOM      5  C5  DEN d   1       3.125  -0.795   0.044  0.00  0.00    -0.003 A 
ATOM      6  C6  DEN d   1       2.973  -0.311   1.316  0.00  0.00     0.001 A 
ATOM      7  C7  DEN d   1       1.729   0.056   1.759  0.00  0.00     0.017 A 
ATOM      8  C8  DEN d   1       0.662  -0.029   0.874  0.00  0.00    -0.094 A 
ATOM      9  C9  DEN d   1       0.835  -0.532  -0.405  0.00  0.00    -0.072 A 
ENDROOT
TORSDOF 0
ENDMDL
