MODEL 1
REMARK minimizedAffinity -3.5227809
REMARK minimizedRMSD -1
REMARK  0 active torsions:
REMARK  status: ('A' for Active; 'I' for Inactive)
ROOT
ATOM      1  C1  DEN d   1      -0.913  -0.739   0.637  0.00  0.00     0.130 A 
ATOM      2  C2  DEN d   1      -0.908   0.501  -0.133  0.00  0.00    -0.031 A 
ATOM      3  C3  DEN d   1       0.400   1.156   0.064  0.00  0.00     0.027 A 
ATOM      4  C4  DEN d   1       2.411   0.373   1.476  0.00  0.00     0.027 A 
ATOM      5  C5  DEN d   1       2.875  -0.613   2.319  0.00  0.00    -0.003 A 
ATOM      6  C6  DEN d   1       2.103  -1.684   2.684  0.00  0.00     0.001 A 
ATOM      7  C7  DEN d   1       0.840  -1.818   2.169  0.00  0.00     0.017 A 
ATOM      8  C8  DEN d   1       0.363  -0.824   1.325  0.00  0.00    -0.094 A 
ATOM      9  C9  DEN d   1       1.164   0.244   0.958  0.00  0.00    -0.072 A 
ENDROOT
TORSDOF 0
ENDMDL
