MODEL 1
REMARK minimizedAffinity -6.79864502
REMARK minimizedRMSD -1
REMARK  0 active torsions:
REMARK  status: ('A' for Active; 'I' for Inactive)
ROOT
ATOM      1  C1  DEN d   1       0.168   0.687   0.046  0.00  0.00     0.130 A 
ATOM      2  C2  DEN d   1      -1.080  -0.059   0.187  0.00  0.00    -0.031 A 
ATOM      3  C3  DEN d   1      -0.769  -1.349   0.836  0.00  0.00     0.027 A 
ATOM      4  C4  DEN d   1       1.509  -2.256   1.635  0.00  0.00     0.027 A 
ATOM      5  C5  DEN d   1       2.857  -1.988   1.719  0.00  0.00    -0.003 A 
ATOM      6  C6  DEN d   1       3.404  -0.833   1.225  0.00  0.00     0.001 A 
ATOM      7  C7  DEN d   1       2.592   0.117   0.664  0.00  0.00     0.017 A 
ATOM      8  C8  DEN d   1       1.232  -0.150   0.569  0.00  0.00    -0.094 A 
ATOM      9  C9  DEN d   1       0.697  -1.318   1.086  0.00  0.00    -0.072 A 
ENDROOT
TORSDOF 0
ENDMDL
