MODEL 1
REMARK minimizedAffinity -4.52231646
REMARK minimizedRMSD -1
REMARK  0 active torsions:
REMARK  status: ('A' for Active; 'I' for Inactive)
ROOT
ATOM      1  C1  DEN d   1       1.135   1.675   1.132  0.00  0.00     0.130 A 
ATOM      2  C2  DEN d   1       2.561   1.470   1.372  0.00  0.00    -0.031 A 
ATOM      3  C3  DEN d   1       2.868   0.050   1.108  0.00  0.00     0.027 A 
ATOM      4  C4  DEN d   1       1.285  -1.839   0.349  0.00  0.00     0.027 A 
ATOM      5  C5  DEN d   1      -0.018  -2.150   0.026  0.00  0.00    -0.003 A 
ATOM      6  C6  DEN d   1      -1.025  -1.224   0.082  0.00  0.00     0.001 A 
ATOM      7  C7  DEN d   1      -0.738   0.071   0.425  0.00  0.00     0.017 A 
ATOM      8  C8  DEN d   1       0.571   0.391   0.759  0.00  0.00    -0.094 A 
ATOM      9  C9  DEN d   1       1.578  -0.557   0.685  0.00  0.00    -0.072 A 
ENDROOT
TORSDOF 0
ENDMDL
