MODEL 1
REMARK minimizedAffinity -6.74968052
REMARK minimizedRMSD -1
REMARK  0 active torsions:
REMARK  status: ('A' for Active; 'I' for Inactive)
ROOT
ATOM      1  C1  DEN d   1       3.138  -1.102   1.366  0.00  0.00     0.130 A 
ATOM      2  C2  DEN d   1       2.582  -2.431   1.603  0.00  0.00    -0.031 A 
ATOM      3  C3  DEN d   1       1.161  -2.411   1.202  0.00  0.00     0.027 A 
ATOM      4  C4  DEN d   1      -0.224  -0.461   0.237  0.00  0.00     0.027 A 
ATOM      5  C5  DEN d   1      -0.190   0.866  -0.131  0.00  0.00    -0.003 A 
ATOM      6  C6  DEN d   1       0.937   1.633   0.004  0.00  0.00     0.001 A 
ATOM      7  C7  DEN d   1       2.091   1.066   0.479  0.00  0.00     0.017 A 
ATOM      8  C8  DEN d   1       2.062  -0.269   0.860  0.00  0.00    -0.094 A 
ATOM      9  C9  DEN d   1       0.916  -1.030   0.704  0.00  0.00    -0.072 A 
ENDROOT
TORSDOF 0
ENDMDL
