MODEL 1
REMARK minimizedAffinity -6.41639662
REMARK minimizedRMSD -1
REMARK  0 active torsions:
REMARK  status: ('A' for Active; 'I' for Inactive)
ROOT
ATOM      1  C1  DEN d   1       0.324   0.729  -0.005  0.00  0.00     0.130 A 
ATOM      2  C2  DEN d   1      -0.951   0.062   0.244  0.00  0.00    -0.031 A 
ATOM      3  C3  DEN d   1      -0.688  -1.129   1.076  0.00  0.00     0.027 A 
ATOM      4  C4  DEN d   1       1.558  -1.998   2.001  0.00  0.00     0.027 A 
ATOM      5  C5  DEN d   1       2.916  -1.774   2.045  0.00  0.00    -0.003 A 
ATOM      6  C6  DEN d   1       3.505  -0.727   1.386  0.00  0.00     0.001 A 
ATOM      7  C7  DEN d   1       2.727   0.161   0.691  0.00  0.00     0.017 A 
ATOM      8  C8  DEN d   1       1.358  -0.063   0.636  0.00  0.00    -0.094 A 
ATOM      9  C9  DEN d   1       0.780  -1.120   1.319  0.00  0.00    -0.072 A 
ENDROOT
TORSDOF 0
ENDMDL
