MODEL 1
REMARK minimizedAffinity -5.8635335
REMARK minimizedRMSD -1
REMARK  0 active torsions:
REMARK  status: ('A' for Active; 'I' for Inactive)
ROOT
ATOM      1  C1  DEN d   1      -0.071   0.597  -0.068  0.00  0.00     0.130 A 
ATOM      2  C2  DEN d   1      -1.318  -0.154  -0.185  0.00  0.00    -0.031 A 
ATOM      3  C3  DEN d   1      -1.197  -1.373   0.639  0.00  0.00     0.027 A 
ATOM      4  C4  DEN d   1       0.789  -2.163   2.084  0.00  0.00     0.027 A 
ATOM      5  C5  DEN d   1       2.071  -1.865   2.489  0.00  0.00    -0.003 A 
ATOM      6  C6  DEN d   1       2.736  -0.752   2.048  0.00  0.00     0.001 A 
ATOM      7  C7  DEN d   1       2.104   0.128   1.209  0.00  0.00     0.017 A 
ATOM      8  C8  DEN d   1       0.814  -0.170   0.790  0.00  0.00    -0.094 A 
ATOM      9  C9  DEN d   1       0.154  -1.294   1.257  0.00  0.00    -0.072 A 
ENDROOT
TORSDOF 0
ENDMDL
