MODEL 1
REMARK minimizedAffinity -5.23954821
REMARK minimizedRMSD -1
REMARK  0 active torsions:
REMARK  status: ('A' for Active; 'I' for Inactive)
ROOT
ATOM      1  C1  DEN d   1      -0.009  -1.883   1.702  0.00  0.00     0.130 A 
ATOM      2  C2  DEN d   1      -1.439  -1.676   1.490  0.00  0.00    -0.031 A 
ATOM      3  C3  DEN d   1      -1.622  -0.342   0.883  0.00  0.00     0.027 A 
ATOM      4  C4  DEN d   1       0.161   1.411   0.249  0.00  0.00     0.027 A 
ATOM      5  C5  DEN d   1       1.509   1.691   0.249  0.00  0.00    -0.003 A 
ATOM      6  C6  DEN d   1       2.436   0.822   0.761  0.00  0.00     0.001 A 
ATOM      7  C7  DEN d   1       2.030  -0.391   1.253  0.00  0.00     0.017 A 
ATOM      8  C8  DEN d   1       0.671  -0.678   1.262  0.00  0.00    -0.094 A 
ATOM      9  C9  DEN d   1      -0.249   0.209   0.729  0.00  0.00    -0.072 A 
ENDROOT
TORSDOF 0
ENDMDL
