MODEL 1
REMARK minimizedAffinity -4.79584026
REMARK minimizedRMSD -1
REMARK  1 active torsions:
REMARK  status: ('A' for Active; 'I' for Inactive)
REMARK    1  A    between atoms: N_2  and  C1_3 
ROOT
ATOM      1  C1  UNL d   1       4.844   4.701  -2.863  0.00  0.00     0.143 A 
ATOM      2  C2  UNL d   1       5.999   4.169  -3.446  0.00  0.00    -0.057 A 
ATOM      3  C3  UNL d   1       5.950   3.500  -4.675  0.00  0.00     0.033 A 
ATOM      4  C4  UNL d   1       4.735   3.325  -5.331  0.00  0.00    -0.042 A 
ATOM      5  C5  UNL d   1       3.571   3.824  -4.757  0.00  0.00     0.033 A 
ATOM      6  C6  UNL d   1       3.628   4.497  -3.533  0.00  0.00    -0.057 A 
ENDROOT
BRANCH   1   7
ATOM      7  N   UNL d   1       4.813   5.290  -1.597  0.00  0.00    -0.732 N 
ATOM      8  C   UNL d   1       5.976   5.973  -1.072  0.00  0.00     0.284 C 
ATOM      9  H3  UNL d   1       3.933   5.766  -1.411  0.00  0.00     0.395 HD
ENDBRANCH   1   7
TORSDOF 1
ENDMDL
