MODEL 1
REMARK minimizedAffinity -2.83046842
REMARK minimizedRMSD -1
REMARK  1 active torsions:
REMARK  status: ('A' for Active; 'I' for Inactive)
REMARK    1  A    between atoms: N_2  and  C1_3 
ROOT
ATOM      1  C1  UNL d   1       5.520   3.578  -5.160  0.00  0.00     0.143 A 
ATOM      2  C2  UNL d   1       4.518   4.490  -5.507  0.00  0.00    -0.057 A 
ATOM      3  C3  UNL d   1       4.045   5.433  -4.587  0.00  0.00     0.033 A 
ATOM      4  C4  UNL d   1       4.547   5.462  -3.290  0.00  0.00    -0.042 A 
ATOM      5  C5  UNL d   1       5.526   4.549  -2.916  0.00  0.00     0.033 A 
ATOM      6  C6  UNL d   1       6.000   3.614  -3.841  0.00  0.00    -0.057 A 
ENDROOT
BRANCH   1   7
ATOM      7  N   UNL d   1       5.963   2.552  -5.999  0.00  0.00    -0.732 N 
ATOM      8  C   UNL d   1       5.985   1.181  -5.538  0.00  0.00     0.284 C 
ATOM      9  H3  UNL d   1       5.635   2.664  -6.956  0.00  0.00     0.395 HD
ENDBRANCH   1   7
TORSDOF 1
ENDMDL
