MODEL 1
REMARK minimizedAffinity -3.42435145
REMARK minimizedRMSD -1
REMARK  1 active torsions:
REMARK  status: ('A' for Active; 'I' for Inactive)
REMARK    1  A    between atoms: N_2  and  C1_3 
ROOT
ATOM      1  C1  UNL d   1       4.944   4.654  -3.285  0.00  0.00     0.143 A 
ATOM      2  C2  UNL d   1       4.097   5.208  -4.251  0.00  0.00    -0.057 A 
ATOM      3  C3  UNL d   1       4.175   4.818  -5.594  0.00  0.00     0.033 A 
ATOM      4  C4  UNL d   1       5.125   3.886  -6.000  0.00  0.00    -0.042 A 
ATOM      5  C5  UNL d   1       5.993   3.341  -5.061  0.00  0.00     0.033 A 
ATOM      6  C6  UNL d   1       5.906   3.730  -3.721  0.00  0.00    -0.057 A 
ENDROOT
BRANCH   1   7
ATOM      7  N   UNL d   1       4.982   5.073  -1.953  0.00  0.00    -0.732 N 
ATOM      8  C   UNL d   1       5.997   6.000  -1.499  0.00  0.00     0.284 C 
ATOM      9  H3  UNL d   1       4.054   5.255  -1.576  0.00  0.00     0.395 HD
ENDBRANCH   1   7
TORSDOF 1
ENDMDL
