MODEL 1
REMARK minimizedAffinity -2.97891784
REMARK minimizedRMSD -1
REMARK  1 active torsions:
REMARK  status: ('A' for Active; 'I' for Inactive)
REMARK    1  A    between atoms: N_2  and  C1_3 
ROOT
ATOM      1  C1  UNL d   1       5.506   4.005  -5.255  0.00  0.00     0.143 A 
ATOM      2  C2  UNL d   1       4.644   4.978  -5.771  0.00  0.00    -0.057 A 
ATOM      3  C3  UNL d   1       4.101   5.975  -4.952  0.00  0.00     0.033 A 
ATOM      4  C4  UNL d   1       4.387   5.998  -3.591  0.00  0.00    -0.042 A 
ATOM      5  C5  UNL d   1       5.221   5.025  -3.051  0.00  0.00     0.033 A 
ATOM      6  C6  UNL d   1       5.766   4.036  -3.876  0.00  0.00    -0.057 A 
ENDROOT
BRANCH   1   7
ATOM      7  N   UNL d   1       6.000   2.930  -5.998  0.00  0.00    -0.732 N 
ATOM      8  C   UNL d   1       5.628   1.571  -5.667  0.00  0.00     0.284 C 
ATOM      9  H3  UNL d   1       6.018   3.124  -6.997  0.00  0.00     0.395 HD
ENDBRANCH   1   7
TORSDOF 1
ENDMDL
