MODEL 1
REMARK minimizedAffinity 1.68487072
REMARK minimizedRMSD -1
REMARK  1 active torsions:
REMARK  status: ('A' for Active; 'I' for Inactive)
REMARK    1  A    between atoms: N_2  and  C1_3 
ROOT
ATOM      1  C1  UNL d   1       4.915   5.127  -3.241  0.00  0.00     0.143 A 
ATOM      2  C2  UNL d   1       3.636   5.378  -3.748  0.00  0.00    -0.057 A 
ATOM      3  C3  UNL d   1       3.440   5.713  -5.093  0.00  0.00     0.033 A 
ATOM      4  C4  UNL d   1       4.529   5.832  -5.952  0.00  0.00    -0.042 A 
ATOM      5  C5  UNL d   1       5.812   5.611  -5.464  0.00  0.00     0.033 A 
ATOM      6  C6  UNL d   1       5.999   5.271  -4.121  0.00  0.00    -0.057 A 
ENDROOT
BRANCH   1   7
ATOM      7  N   UNL d   1       5.184   4.887  -1.891  0.00  0.00    -0.732 N 
ATOM      8  C   UNL d   1       6.000   5.805  -1.127  0.00  0.00     0.284 C 
ATOM      9  H3  UNL d   1       4.370   4.537  -1.390  0.00  0.00     0.395 HD
ENDBRANCH   1   7
TORSDOF 1
ENDMDL
