MODEL 1
REMARK minimizedAffinity -1.86709547
REMARK minimizedRMSD -1
REMARK  1 active torsions:
REMARK  status: ('A' for Active; 'I' for Inactive)
REMARK    1  A    between atoms: N_2  and  C1_3 
ROOT
ATOM      1  C1  UNL d   1       5.284   4.130  -4.146  0.00  0.00     0.143 A 
ATOM      2  C2  UNL d   1       3.888   4.128  -4.058  0.00  0.00    -0.057 A 
ATOM      3  C3  UNL d   1       3.229   4.692  -2.959  0.00  0.00     0.033 A 
ATOM      4  C4  UNL d   1       3.959   5.245  -1.911  0.00  0.00    -0.042 A 
ATOM      5  C5  UNL d   1       5.348   5.235  -1.966  0.00  0.00     0.033 A 
ATOM      6  C6  UNL d   1       6.000   4.676  -3.069  0.00  0.00    -0.057 A 
ENDROOT
BRANCH   1   7
ATOM      7  N   UNL d   1       6.000   3.497  -5.165  0.00  0.00    -0.732 N 
ATOM      8  C   UNL d   1       5.999   2.054  -5.280  0.00  0.00     0.284 C 
ATOM      9  H3  UNL d   1       5.922   3.984  -6.055  0.00  0.00     0.395 HD
ENDBRANCH   1   7
TORSDOF 1
ENDMDL
