MODEL 1
REMARK minimizedAffinity -3.91746998
REMARK minimizedRMSD -1
REMARK  1 active torsions:
REMARK  status: ('A' for Active; 'I' for Inactive)
REMARK    1  A    between atoms: N_2  and  C1_3 
ROOT
ATOM      1  C1  UNL d   1       4.800   3.684  -4.704  0.00  0.00     0.143 A 
ATOM      2  C2  UNL d   1       5.996   4.167  -4.161  0.00  0.00    -0.057 A 
ATOM      3  C3  UNL d   1       6.000   4.973  -3.017  0.00  0.00     0.033 A 
ATOM      4  C4  UNL d   1       4.802   5.335  -2.409  0.00  0.00    -0.042 A 
ATOM      5  C5  UNL d   1       3.600   4.887  -2.945  0.00  0.00     0.033 A 
ATOM      6  C6  UNL d   1       3.603   4.077  -4.085  0.00  0.00    -0.057 A 
ENDROOT
BRANCH   1   7
ATOM      7  N   UNL d   1       4.723   2.960  -5.896  0.00  0.00    -0.732 N 
ATOM      8  C   UNL d   1       5.295   1.634  -5.992  0.00  0.00     0.284 C 
ATOM      9  H3  UNL d   1       3.819   3.057  -6.352  0.00  0.00     0.395 HD
ENDBRANCH   1   7
TORSDOF 1
ENDMDL
