MODEL 1
REMARK minimizedAffinity -2.95139241
REMARK minimizedRMSD -1
REMARK  1 active torsions:
REMARK  status: ('A' for Active; 'I' for Inactive)
REMARK    1  A    between atoms: N_2  and  C1_3 
ROOT
ATOM      1  C1  UNL d   1       5.470   4.059  -5.144  0.00  0.00     0.143 A 
ATOM      2  C2  UNL d   1       4.346   4.814  -5.497  0.00  0.00    -0.057 A 
ATOM      3  C3  UNL d   1       3.800   5.758  -4.619  0.00  0.00     0.033 A 
ATOM      4  C4  UNL d   1       4.353   5.942  -3.356  0.00  0.00    -0.042 A 
ATOM      5  C5  UNL d   1       5.455   5.185  -2.974  0.00  0.00     0.033 A 
ATOM      6  C6  UNL d   1       5.999   4.250  -3.858  0.00  0.00    -0.057 A 
ENDROOT
BRANCH   1   7
ATOM      7  N   UNL d   1       5.999   3.036  -5.935  0.00  0.00    -0.732 N 
ATOM      8  C   UNL d   1       6.000   1.667  -5.466  0.00  0.00     0.284 C 
ATOM      9  H3  UNL d   1       5.756   3.139  -6.917  0.00  0.00     0.395 HD
ENDBRANCH   1   7
TORSDOF 1
ENDMDL
