MODEL 1
REMARK minimizedAffinity -1.94285905
REMARK minimizedRMSD -1
REMARK  1 active torsions:
REMARK  status: ('A' for Active; 'I' for Inactive)
REMARK    1  A    between atoms: N_2  and  C1_3 
ROOT
ATOM      1  C1  UNL d   1       4.979   5.355  -3.194  0.00  0.00     0.143 A 
ATOM      2  C2  UNL d   1       5.999   4.666  -3.859  0.00  0.00    -0.057 A 
ATOM      3  C3  UNL d   1       5.978   4.502  -5.250  0.00  0.00     0.033 A 
ATOM      4  C4  UNL d   1       4.917   5.001  -5.999  0.00  0.00    -0.042 A 
ATOM      5  C5  UNL d   1       3.879   5.667  -5.356  0.00  0.00     0.033 A 
ATOM      6  C6  UNL d   1       3.910   5.833  -3.968  0.00  0.00    -0.057 A 
ENDROOT
BRANCH   1   7
ATOM      7  N   UNL d   1       4.894   5.465  -1.804  0.00  0.00    -0.732 N 
ATOM      8  C   UNL d   1       5.999   5.999  -1.038  0.00  0.00     0.284 C 
ATOM      9  H3  UNL d   1       3.980   5.789  -1.496  0.00  0.00     0.395 HD
ENDBRANCH   1   7
TORSDOF 1
ENDMDL
