MODEL 1
REMARK minimizedAffinity -0.569182575
REMARK minimizedRMSD -1
REMARK  1 active torsions:
REMARK  status: ('A' for Active; 'I' for Inactive)
REMARK    1  A    between atoms: N_2  and  C1_3 
ROOT
ATOM      1  C1  UNL d   1       4.875  -3.688  -3.087  0.00  0.00     0.143 A 
ATOM      2  C2  UNL d   1       4.864  -2.572  -2.244  0.00  0.00    -0.057 A 
ATOM      3  C3  UNL d   1       5.433  -2.621  -0.966  0.00  0.00     0.033 A 
ATOM      4  C4  UNL d   1       6.000  -3.801  -0.495  0.00  0.00    -0.042 A 
ATOM      5  C5  UNL d   1       5.999  -4.931  -1.306  0.00  0.00     0.033 A 
ATOM      6  C6  UNL d   1       5.435  -4.873  -2.584  0.00  0.00    -0.057 A 
ENDROOT
BRANCH   1   7
ATOM      7  N   UNL d   1       4.238  -3.731  -4.329  0.00  0.00    -0.732 N 
ATOM      8  C   UNL d   1       3.003  -3.011  -4.550  0.00  0.00     0.284 C 
ATOM      9  H3  UNL d   1       4.895  -3.677  -5.104  0.00  0.00     0.395 HD
ENDBRANCH   1   7
TORSDOF 1
ENDMDL
