MODEL 1
REMARK minimizedAffinity 2.98627329
REMARK minimizedRMSD -1
REMARK  1 active torsions:
REMARK  status: ('A' for Active; 'I' for Inactive)
REMARK    1  A    between atoms: N_2  and  C1_3 
ROOT
ATOM      1  C1  UNL d   1       5.074   3.730  -3.495  0.00  0.00     0.143 A 
ATOM      2  C2  UNL d   1       5.979   3.820  -2.431  0.00  0.00    -0.057 A 
ATOM      3  C3  UNL d   1       5.998   4.937  -1.587  0.00  0.00     0.033 A 
ATOM      4  C4  UNL d   1       5.129   6.000  -1.810  0.00  0.00    -0.042 A 
ATOM      5  C5  UNL d   1       4.238   5.943  -2.876  0.00  0.00     0.033 A 
ATOM      6  C6  UNL d   1       4.219   4.822  -3.711  0.00  0.00    -0.057 A 
ENDROOT
BRANCH   1   7
ATOM      7  N   UNL d   1       5.072   2.691  -4.428  0.00  0.00    -0.732 N 
ATOM      8  C   UNL d   1       4.833   2.959  -5.830  0.00  0.00     0.284 C 
ATOM      9  H3  UNL d   1       5.810   2.012  -4.255  0.00  0.00     0.395 HD
ENDBRANCH   1   7
TORSDOF 1
ENDMDL
