MODEL 1
REMARK minimizedAffinity 0.0362331159
REMARK minimizedRMSD -1
REMARK  1 active torsions:
REMARK  status: ('A' for Active; 'I' for Inactive)
REMARK    1  A    between atoms: N_2  and  C1_3 
ROOT
ATOM      1  C1  UNL d   1       5.340   5.243  -3.523  0.00  0.00     0.143 A 
ATOM      2  C2  UNL d   1       4.120   5.611  -4.100  0.00  0.00    -0.057 A 
ATOM      3  C3  UNL d   1       3.556   4.866  -5.143  0.00  0.00     0.033 A 
ATOM      4  C4  UNL d   1       4.219   3.752  -5.648  0.00  0.00    -0.042 A 
ATOM      5  C5  UNL d   1       5.445   3.383  -5.106  0.00  0.00     0.033 A 
ATOM      6  C6  UNL d   1       6.000   4.127  -4.060  0.00  0.00    -0.057 A 
ENDROOT
BRANCH   1   7
ATOM      7  N   UNL d   1       6.000   5.999  -2.551  0.00  0.00    -0.732 N 
ATOM      8  C   UNL d   1       5.966   5.603  -1.160  0.00  0.00     0.284 C 
ATOM      9  H3  UNL d   1       6.909   6.330  -2.867  0.00  0.00     0.395 HD
ENDBRANCH   1   7
TORSDOF 1
ENDMDL
