MODEL 1
REMARK minimizedAffinity 12.1628008
REMARK minimizedRMSD -1
REMARK  2 active torsions:
REMARK  status: ('A' for Active; 'I' for Inactive)
REMARK    1  A    between atoms: C2'_3  and  C1'_4 
REMARK    2  A    between atoms: C1'_4  and  C1_5 
ROOT
ATOM      1  C1  I4B d   1      -0.239   2.033   0.118  0.00  0.00    -0.075 A 
ATOM      2  C2  I4B d   1      -0.771   2.628  -0.999  0.00  0.00     0.003 A 
ATOM      3  C3  I4B d   1      -0.184   2.413  -2.269  0.00  0.00     0.002 A 
ATOM      4  C4  I4B d   1       0.955   1.641  -2.370  0.00  0.00    -0.004 A 
ATOM      5  C5  I4B d   1       1.479   1.019  -1.241  0.00  0.00     0.002 A 
ATOM      6  C6  I4B d   1       0.872   1.206   0.009  0.00  0.00     0.003 A 
ENDROOT
BRANCH   1   7
ATOM      7  C1' I4B d   1      -0.863   2.308   1.449  0.00  0.00     0.060 C 
BRANCH   7   8
ATOM      8  C2' I4B d   1       0.134   1.919   2.521  0.00  0.00    -0.013 C 
ATOM      9  C4' I4B d   1       0.845   3.128   3.069  0.00  0.00     0.013 C 
ATOM     10  C3' I4B d   1      -0.610   1.193   3.603  0.00  0.00     0.013 C 
ENDBRANCH   7   8
ENDBRANCH   1   7
TORSDOF 2
ENDMDL
