MODEL 1
REMARK minimizedAffinity 14.1951075
REMARK minimizedRMSD -1
REMARK  2 active torsions:
REMARK  status: ('A' for Active; 'I' for Inactive)
REMARK    1  A    between atoms: C2'_3  and  C1'_4 
REMARK    2  A    between atoms: C1'_4  and  C1_5 
ROOT
ATOM      1  C1  I4B d   1       0.019  -2.349   3.091  0.00  0.00    -0.075 A 
ATOM      2  C2  I4B d   1       0.401  -1.073   3.424  0.00  0.00     0.003 A 
ATOM      3  C3  I4B d   1       1.455  -0.439   2.722  0.00  0.00     0.002 A 
ATOM      4  C4  I4B d   1       2.128  -1.131   1.736  0.00  0.00    -0.004 A 
ATOM      5  C5  I4B d   1       1.724  -2.416   1.384  0.00  0.00     0.002 A 
ATOM      6  C6  I4B d   1       0.655  -3.024   2.057  0.00  0.00     0.003 A 
ENDROOT
BRANCH   1   7
ATOM      7  C1' I4B d   1      -1.076  -3.001   3.874  0.00  0.00     0.060 C 
BRANCH   7   8
ATOM      8  C2' I4B d   1      -0.843  -2.700   5.341  0.00  0.00    -0.013 C 
ATOM      9  C4' I4B d   1      -2.099  -2.192   5.999  0.00  0.00     0.013 C 
ATOM     10  C3' I4B d   1      -0.357  -3.956   6.000  0.00  0.00     0.013 C 
ENDBRANCH   7   8
ENDBRANCH   1   7
TORSDOF 2
ENDMDL
