MODEL 1
REMARK minimizedAffinity 4.77973986
REMARK minimizedRMSD -1
REMARK  2 active torsions:
REMARK  status: ('A' for Active; 'I' for Inactive)
REMARK    1  A    between atoms: C2'_3  and  C1'_4 
REMARK    2  A    between atoms: C1'_4  and  C1_5 
ROOT
ATOM      1  C1  I4B d   1      -2.734   3.528  -5.244  0.00  0.00    -0.075 A 
ATOM      2  C2  I4B d   1      -3.033   4.672  -5.941  0.00  0.00     0.003 A 
ATOM      3  C3  I4B d   1      -2.571   5.928  -5.481  0.00  0.00     0.002 A 
ATOM      4  C4  I4B d   1      -1.859   6.000  -4.301  0.00  0.00    -0.004 A 
ATOM      5  C5  I4B d   1      -1.536   4.837  -3.608  0.00  0.00     0.002 A 
ATOM      6  C6  I4B d   1      -1.966   3.591  -4.089  0.00  0.00     0.003 A 
ENDROOT
BRANCH   1   7
ATOM      7  C1' I4B d   1      -3.266   2.221  -5.741  0.00  0.00     0.060 C 
BRANCH   7   8
ATOM      8  C2' I4B d   1      -4.567   1.941  -5.016  0.00  0.00    -0.013 C 
ATOM      9  C4' I4B d   1      -5.543   1.219  -5.906  0.00  0.00     0.013 C 
ATOM     10  C3' I4B d   1      -4.251   1.135  -3.792  0.00  0.00     0.013 C 
ENDBRANCH   7   8
ENDBRANCH   1   7
TORSDOF 2
ENDMDL
