MODEL 1
REMARK minimizedAffinity 6.49374533
REMARK minimizedRMSD -1
REMARK  2 active torsions:
REMARK  status: ('A' for Active; 'I' for Inactive)
REMARK    1  A    between atoms: C2'_3  and  C1'_4 
REMARK    2  A    between atoms: C1'_4  and  C1_5 
ROOT
ATOM      1  C1  I4B d   1      -3.954   3.589  -5.605  0.00  0.00    -0.075 A 
ATOM      2  C2  I4B d   1      -3.175   2.513  -5.261  0.00  0.00     0.003 A 
ATOM      3  C3  I4B d   1      -3.712   1.204  -5.295  0.00  0.00     0.002 A 
ATOM      4  C4  I4B d   1      -5.038   1.022  -5.629  0.00  0.00    -0.004 A 
ATOM      5  C5  I4B d   1      -5.821   2.111  -6.000  0.00  0.00     0.002 A 
ATOM      6  C6  I4B d   1      -5.273   3.402  -5.999  0.00  0.00     0.003 A 
ENDROOT
BRANCH   1   7
ATOM      7  C1' I4B d   1      -3.365   4.962  -5.525  0.00  0.00     0.060 C 
BRANCH   7   8
ATOM      8  C2' I4B d   1      -1.865   4.817  -5.367  0.00  0.00    -0.013 C 
ATOM      9  C4' I4B d   1      -1.136   5.973  -5.999  0.00  0.00     0.013 C 
ATOM     10  C3' I4B d   1      -1.560   4.720  -3.902  0.00  0.00     0.013 C 
ENDBRANCH   7   8
ENDBRANCH   1   7
TORSDOF 2
ENDMDL
