MODEL 1
REMARK minimizedAffinity 5.85850048
REMARK minimizedRMSD -1
REMARK  2 active torsions:
REMARK  status: ('A' for Active; 'I' for Inactive)
REMARK    1  A    between atoms: C2'_3  and  C1'_4 
REMARK    2  A    between atoms: C1'_4  and  C1_5 
ROOT
ATOM      1  C1  I4B d   1      -3.126   4.795  -5.613  0.00  0.00    -0.075 A 
ATOM      2  C2  I4B d   1      -4.449   4.984  -5.925  0.00  0.00     0.003 A 
ATOM      3  C3  I4B d   1      -5.329   3.877  -6.000  0.00  0.00     0.002 A 
ATOM      4  C4  I4B d   1      -4.836   2.603  -5.805  0.00  0.00    -0.004 A 
ATOM      5  C5  I4B d   1      -3.499   2.416  -5.466  0.00  0.00     0.002 A 
ATOM      6  C6  I4B d   1      -2.641   3.519  -5.356  0.00  0.00     0.003 A 
ENDROOT
BRANCH   1   7
ATOM      7  C1' I4B d   1      -2.217   5.983  -5.575  0.00  0.00     0.060 C 
BRANCH   7   8
ATOM      8  C2' I4B d   1      -0.889   5.537  -4.997  0.00  0.00    -0.013 C 
ATOM      9  C4' I4B d   1      -0.913   5.566  -3.491  0.00  0.00     0.013 C 
ATOM     10  C3' I4B d   1      -0.602   4.157  -5.507  0.00  0.00     0.013 C 
ENDBRANCH   7   8
ENDBRANCH   1   7
TORSDOF 2
ENDMDL
