MODEL 1
REMARK minimizedAffinity 2.66383052
REMARK minimizedRMSD -1
REMARK  2 active torsions:
REMARK  status: ('A' for Active; 'I' for Inactive)
REMARK    1  A    between atoms: C2'_3  and  C1'_4 
REMARK    2  A    between atoms: C1'_4  and  C1_5 
ROOT
ATOM      1  C1  I4B d   1      -4.413   3.929  -5.779  0.00  0.00    -0.075 A 
ATOM      2  C2  I4B d   1      -3.302   3.182  -5.477  0.00  0.00     0.003 A 
ATOM      3  C3  I4B d   1      -3.420   1.791  -5.242  0.00  0.00     0.002 A 
ATOM      4  C4  I4B d   1      -4.667   1.200  -5.269  0.00  0.00    -0.004 A 
ATOM      5  C5  I4B d   1      -5.789   1.954  -5.597  0.00  0.00     0.002 A 
ATOM      6  C6  I4B d   1      -5.661   3.325  -5.867  0.00  0.00     0.003 A 
ENDROOT
BRANCH   1   7
ATOM      7  C1' I4B d   1      -4.257   5.401  -5.989  0.00  0.00     0.060 C 
BRANCH   7   8
ATOM      8  C2' I4B d   1      -3.177   5.895  -5.049  0.00  0.00    -0.013 C 
ATOM      9  C4' I4B d   1      -3.021   4.976  -3.866  0.00  0.00     0.013 C 
ATOM     10  C3' I4B d   1      -1.899   5.999  -5.826  0.00  0.00     0.013 C 
ENDBRANCH   7   8
ENDBRANCH   1   7
TORSDOF 2
ENDMDL
