MODEL 1
REMARK minimizedAffinity 18.3369999
REMARK minimizedRMSD -1
REMARK  2 active torsions:
REMARK  status: ('A' for Active; 'I' for Inactive)
REMARK    1  A    between atoms: C2'_3  and  C1'_4 
REMARK    2  A    between atoms: C1'_4  and  C1_5 
ROOT
ATOM      1  C1  I4B d   1      -1.388   1.245   1.381  0.00  0.00    -0.075 A 
ATOM      2  C2  I4B d   1      -1.768   0.693   2.579  0.00  0.00     0.003 A 
ATOM      3  C3  I4B d   1      -0.791   0.229   3.492  0.00  0.00     0.002 A 
ATOM      4  C4  I4B d   1       0.544   0.290   3.148  0.00  0.00    -0.004 A 
ATOM      5  C5  I4B d   1       0.929   0.871   1.944  0.00  0.00     0.002 A 
ATOM      6  C6  I4B d   1      -0.042   1.363   1.059  0.00  0.00     0.003 A 
ENDROOT
BRANCH   1   7
ATOM      7  C1' I4B d   1      -2.447   1.695   0.426  0.00  0.00     0.060 C 
BRANCH   7   8
ATOM      8  C2' I4B d   1      -1.968   2.971  -0.236  0.00  0.00    -0.013 C 
ATOM      9  C4' I4B d   1      -1.703   2.758  -1.703  0.00  0.00     0.013 C 
ATOM     10  C3' I4B d   1      -3.014   4.024  -0.022  0.00  0.00     0.013 C 
ENDBRANCH   7   8
ENDBRANCH   1   7
TORSDOF 2
ENDMDL
