MODEL 1
REMARK minimizedAffinity 3.23362374
REMARK minimizedRMSD -1
REMARK  2 active torsions:
REMARK  status: ('A' for Active; 'I' for Inactive)
REMARK    1  A    between atoms: C2'_3  and  C1'_4 
REMARK    2  A    between atoms: C1'_4  and  C1_5 
ROOT
ATOM      1  C1  I4B d   1      -3.001   3.192  -4.826  0.00  0.00    -0.075 A 
ATOM      2  C2  I4B d   1      -1.630   3.142  -4.869  0.00  0.00     0.003 A 
ATOM      3  C3  I4B d   1      -0.873   4.339  -4.859  0.00  0.00     0.002 A 
ATOM      4  C4  I4B d   1      -1.525   5.555  -4.857  0.00  0.00    -0.004 A 
ATOM      5  C5  I4B d   1      -2.914   5.603  -4.790  0.00  0.00     0.002 A 
ATOM      6  C6  I4B d   1      -3.657   4.414  -4.762  0.00  0.00     0.003 A 
ENDROOT
BRANCH   1   7
ATOM      7  C1' I4B d   1      -3.770   1.910  -4.871  0.00  0.00     0.060 C 
BRANCH   7   8
ATOM      8  C2' I4B d   1      -5.244   2.245  -4.761  0.00  0.00    -0.013 C 
ATOM      9  C4' I4B d   1      -5.738   2.944  -6.000  0.00  0.00     0.013 C 
ATOM     10  C3' I4B d   1      -5.993   0.968  -4.525  0.00  0.00     0.013 C 
ENDBRANCH   7   8
ENDBRANCH   1   7
TORSDOF 2
ENDMDL
