MODEL 1
REMARK minimizedAffinity 6.27758741
REMARK minimizedRMSD -1
REMARK  2 active torsions:
REMARK  status: ('A' for Active; 'I' for Inactive)
REMARK    1  A    between atoms: C2'_3  and  C1'_4 
REMARK    2  A    between atoms: C1'_4  and  C1_5 
ROOT
ATOM      1  C1  I4B d   1      -3.269   3.508  -4.939  0.00  0.00    -0.075 A 
ATOM      2  C2  I4B d   1      -2.333   3.717  -3.957  0.00  0.00     0.003 A 
ATOM      3  C3  I4B d   1      -1.727   4.988  -3.810  0.00  0.00     0.002 A 
ATOM      4  C4  I4B d   1      -2.047   6.000  -4.692  0.00  0.00    -0.004 A 
ATOM      5  C5  I4B d   1      -3.013   5.792  -5.672  0.00  0.00     0.002 A 
ATOM      6  C6  I4B d   1      -3.637   4.542  -5.789  0.00  0.00     0.003 A 
ENDROOT
BRANCH   1   7
ATOM      7  C1' I4B d   1      -3.866   2.144  -5.087  0.00  0.00     0.060 C 
BRANCH   7   8
ATOM      8  C2' I4B d   1      -5.373   2.286  -5.037  0.00  0.00    -0.013 C 
ATOM      9  C4' I4B d   1      -5.854   3.339  -5.999  0.00  0.00     0.013 C 
ATOM     10  C3' I4B d   1      -5.975   0.949  -5.352  0.00  0.00     0.013 C 
ENDBRANCH   7   8
ENDBRANCH   1   7
TORSDOF 2
ENDMDL
