MODEL 1
REMARK minimizedAffinity 10.5710354
REMARK minimizedRMSD -1
REMARK  2 active torsions:
REMARK  status: ('A' for Active; 'I' for Inactive)
REMARK    1  A    between atoms: C2'_3  and  C1'_4 
REMARK    2  A    between atoms: C1'_4  and  C1_5 
ROOT
ATOM      1  C1  I4B d   1      -3.307   2.805  -5.074  0.00  0.00    -0.075 A 
ATOM      2  C2  I4B d   1      -2.175   2.979  -4.318  0.00  0.00     0.003 A 
ATOM      3  C3  I4B d   1      -1.567   4.255  -4.227  0.00  0.00     0.002 A 
ATOM      4  C4  I4B d   1      -2.092   5.310  -4.944  0.00  0.00    -0.004 A 
ATOM      5  C5  I4B d   1      -3.253   5.137  -5.692  0.00  0.00     0.002 A 
ATOM      6  C6  I4B d   1      -3.872   3.880  -5.748  0.00  0.00     0.003 A 
ENDROOT
BRANCH   1   7
ATOM      7  C1' I4B d   1      -3.904   1.437  -5.174  0.00  0.00     0.060 C 
BRANCH   7   8
ATOM      8  C2' I4B d   1      -5.411   1.586  -5.201  0.00  0.00    -0.013 C 
ATOM      9  C4' I4B d   1      -5.825   2.794  -6.000  0.00  0.00     0.013 C 
ATOM     10  C3' I4B d   1      -5.990   0.330  -5.780  0.00  0.00     0.013 C 
ENDBRANCH   7   8
ENDBRANCH   1   7
TORSDOF 2
ENDMDL
