MODEL 1
REMARK minimizedAffinity 10.1369762
REMARK minimizedRMSD -1
REMARK  2 active torsions:
REMARK  status: ('A' for Active; 'I' for Inactive)
REMARK    1  A    between atoms: C2'_3  and  C1'_4 
REMARK    2  A    between atoms: C1'_4  and  C1_5 
ROOT
ATOM      1  C1  I4B d   1      -3.934  -3.419   5.002  0.00  0.00    -0.075 A 
ATOM      2  C2  I4B d   1      -4.932  -3.297   5.936  0.00  0.00     0.003 A 
ATOM      3  C3  I4B d   1      -5.971  -4.257   5.998  0.00  0.00     0.002 A 
ATOM      4  C4  I4B d   1      -5.999  -5.288   5.081  0.00  0.00    -0.004 A 
ATOM      5  C5  I4B d   1      -4.974  -5.423   4.150  0.00  0.00     0.002 A 
ATOM      6  C6  I4B d   1      -3.928  -4.490   4.117  0.00  0.00     0.003 A 
ENDROOT
BRANCH   1   7
ATOM      7  C1' I4B d   1      -2.870  -2.369   4.943  0.00  0.00     0.060 C 
BRANCH   7   8
ATOM      8  C2' I4B d   1      -1.571  -2.993   5.412  0.00  0.00    -0.013 C 
ATOM      9  C4' I4B d   1      -1.031  -3.959   4.390  0.00  0.00     0.013 C 
ATOM     10  C3' I4B d   1      -0.596  -1.886   5.678  0.00  0.00     0.013 C 
ENDBRANCH   7   8
ENDBRANCH   1   7
TORSDOF 2
ENDMDL
