MODEL 1
REMARK minimizedAffinity 11.0748196
REMARK minimizedRMSD -1
REMARK  2 active torsions:
REMARK  status: ('A' for Active; 'I' for Inactive)
REMARK    1  A    between atoms: C2'_3  and  C1'_4 
REMARK    2  A    between atoms: C1'_4  and  C1_5 
ROOT
ATOM      1  C1  I4B d   1      -2.986   3.511  -4.844  0.00  0.00    -0.075 A 
ATOM      2  C2  I4B d   1      -1.703   3.560  -4.360  0.00  0.00     0.003 A 
ATOM      3  C3  I4B d   1      -1.061   4.807  -4.166  0.00  0.00     0.002 A 
ATOM      4  C4  I4B d   1      -1.716   5.970  -4.516  0.00  0.00    -0.004 A 
ATOM      5  C5  I4B d   1      -3.026   5.920  -4.985  0.00  0.00     0.002 A 
ATOM      6  C6  I4B d   1      -3.670   4.683  -5.139  0.00  0.00     0.003 A 
ENDROOT
BRANCH   1   7
ATOM      7  C1' I4B d   1      -3.622   2.175  -5.068  0.00  0.00     0.060 C 
BRANCH   7   8
ATOM      8  C2' I4B d   1      -5.121   2.343  -4.930  0.00  0.00    -0.013 C 
ATOM      9  C4' I4B d   1      -5.668   3.252  -5.999  0.00  0.00     0.013 C 
ATOM     10  C3' I4B d   1      -5.748   0.983  -5.003  0.00  0.00     0.013 C 
ENDBRANCH   7   8
ENDBRANCH   1   7
TORSDOF 2
ENDMDL
