MODEL 1
REMARK minimizedAffinity -6.27697945
REMARK minimizedRMSD -1
REMARK  0 active torsions:
REMARK  status: ('A' for Active; 'I' for Inactive)
ROOT
ATOM      1  C1  DEN d   1       0.413   0.152  -0.906  0.00  0.00     0.130 A 
ATOM      2  C2  DEN d   1      -0.882   0.662  -0.461  0.00  0.00    -0.031 A 
ATOM      3  C3  DEN d   1      -1.062   0.278   0.953  0.00  0.00     0.027 A 
ATOM      4  C4  DEN d   1       0.531  -1.044   2.492  0.00  0.00     0.027 A 
ATOM      5  C5  DEN d   1       1.743  -1.695   2.559  0.00  0.00    -0.003 A 
ATOM      6  C6  DEN d   1       2.574  -1.805   1.476  0.00  0.00     0.001 A 
ATOM      7  C7  DEN d   1       2.225  -1.216   0.290  0.00  0.00     0.017 A 
ATOM      8  C8  DEN d   1       1.001  -0.563   0.212  0.00  0.00    -0.094 A 
ATOM      9  C9  DEN d   1       0.181  -0.453   1.322  0.00  0.00    -0.072 A 
ENDROOT
TORSDOF 0
ENDMDL
