MODEL 1
REMARK minimizedAffinity -6.42912388
REMARK minimizedRMSD -1
REMARK  0 active torsions:
REMARK  status: ('A' for Active; 'I' for Inactive)
ROOT
ATOM      1  C1  DEN d   1       0.319  -1.055   2.885  0.00  0.00     0.130 A 
ATOM      2  C2  DEN d   1       1.659  -1.635   2.934  0.00  0.00    -0.031 A 
ATOM      3  C3  DEN d   1       2.199  -1.653   1.560  0.00  0.00     0.027 A 
ATOM      4  C4  DEN d   1       1.100  -0.839  -0.627  0.00  0.00     0.027 A 
ATOM      5  C5  DEN d   1      -0.035  -0.282  -1.173  0.00  0.00    -0.003 A 
ATOM      6  C6  DEN d   1      -1.136   0.023  -0.416  0.00  0.00     0.001 A 
ATOM      7  C7  DEN d   1      -1.108  -0.186   0.937  0.00  0.00     0.017 A 
ATOM      8  C8  DEN d   1       0.030  -0.755   1.494  0.00  0.00    -0.094 A 
ATOM      9  C9  DEN d   1       1.137  -1.045   0.714  0.00  0.00    -0.072 A 
ENDROOT
TORSDOF 0
ENDMDL
