MODEL 1
REMARK minimizedAffinity -4.78176308
REMARK minimizedRMSD -1
REMARK  0 active torsions:
REMARK  status: ('A' for Active; 'I' for Inactive)
ROOT
ATOM      1  C1  DEN d   1       1.886  -1.098   1.877  0.00  0.00     0.130 A 
ATOM      2  C2  DEN d   1       1.104  -1.323   3.089  0.00  0.00    -0.031 A 
ATOM      3  C3  DEN d   1      -0.315  -1.063   2.773  0.00  0.00     0.027 A 
ATOM      4  C4  DEN d   1      -1.371  -0.342   0.533  0.00  0.00     0.027 A 
ATOM      5  C5  DEN d   1      -1.108  -0.015  -0.779  0.00  0.00    -0.003 A 
ATOM      6  C6  DEN d   1       0.165   0.007  -1.284  0.00  0.00     0.001 A 
ATOM      7  C7  DEN d   1       1.219  -0.348  -0.485  0.00  0.00     0.017 A 
ATOM      8  C8  DEN d   1       0.962  -0.672   0.841  0.00  0.00    -0.094 A 
ATOM      9  C9  DEN d   1      -0.333  -0.700   1.330  0.00  0.00    -0.072 A 
ENDROOT
TORSDOF 0
ENDMDL
