MODEL 1
REMARK minimizedAffinity -6.23685741
REMARK minimizedRMSD -1
REMARK  0 active torsions:
REMARK  status: ('A' for Active; 'I' for Inactive)
ROOT
ATOM      1  C1  DEN d   1       0.233  -0.933   2.777  0.00  0.00     0.130 A 
ATOM      2  C2  DEN d   1       1.656  -0.801   2.480  0.00  0.00    -0.031 A 
ATOM      3  C3  DEN d   1       1.793  -0.439   1.055  0.00  0.00     0.027 A 
ATOM      4  C4  DEN d   1      -0.051  -0.067  -0.710  0.00  0.00     0.027 A 
ATOM      5  C5  DEN d   1      -1.411  -0.078  -0.932  0.00  0.00    -0.003 A 
ATOM      6  C6  DEN d   1      -2.308  -0.405   0.050  0.00  0.00     0.001 A 
ATOM      7  C7  DEN d   1      -1.860  -0.691   1.312  0.00  0.00     0.017 A 
ATOM      8  C8  DEN d   1      -0.490  -0.690   1.542  0.00  0.00    -0.094 A 
ATOM      9  C9  DEN d   1       0.401  -0.344   0.540  0.00  0.00    -0.072 A 
ENDROOT
TORSDOF 0
ENDMDL
