MODEL 1
REMARK minimizedAffinity -5.78744793
REMARK minimizedRMSD -1
REMARK  0 active torsions:
REMARK  status: ('A' for Active; 'I' for Inactive)
ROOT
ATOM      1  C1  DEN d   1       2.258  -2.204   2.087  0.00  0.00     0.130 A 
ATOM      2  C2  DEN d   1       2.895  -2.385   0.786  0.00  0.00    -0.031 A 
ATOM      3  C3  DEN d   1       2.142  -1.591  -0.206  0.00  0.00     0.027 A 
ATOM      4  C4  DEN d   1       0.065  -0.103   0.146  0.00  0.00     0.027 A 
ATOM      5  C5  DEN d   1      -0.843   0.354   1.075  0.00  0.00    -0.003 A 
ATOM      6  C6  DEN d   1      -0.803  -0.032   2.388  0.00  0.00     0.001 A 
ATOM      7  C7  DEN d   1       0.194  -0.867   2.820  0.00  0.00     0.017 A 
ATOM      8  C8  DEN d   1       1.110  -1.338   1.888  0.00  0.00    -0.094 A 
ATOM      9  C9  DEN d   1       1.059  -0.926   0.567  0.00  0.00    -0.072 A 
ENDROOT
TORSDOF 0
ENDMDL
