MODEL 1
REMARK minimizedAffinity -2.17985702
REMARK minimizedRMSD -1
REMARK  1 active torsions:
REMARK  status: ('A' for Active; 'I' for Inactive)
REMARK    1  A    between atoms: C3_4  and  O_7 
ROOT
ATOM      1  C   UNL d   1       2.997  -5.984  -3.147  0.00  0.00    -0.033 A 
ATOM      2  C1  UNL d   1       3.320  -5.997  -4.505  0.00  0.00     0.039 A 
ATOM      3  C2  UNL d   1       3.499  -4.795  -5.193  0.00  0.00    -0.080 A 
ATOM      4  C3  UNL d   1       3.353  -3.590  -4.512  0.00  0.00     0.150 A 
ATOM      5  C4  UNL d   1       3.035  -3.570  -3.158  0.00  0.00    -0.007 A 
ATOM      6  C5  UNL d   1       2.856  -4.771  -2.473  0.00  0.00     0.039 A 
ENDROOT
BRANCH   4   7
ATOM      7  O   UNL d   1       3.513  -2.392  -5.142  0.00  0.00    -0.526 OA
ATOM      8  H5  UNL d   1       3.702  -2.560  -6.080  0.00  0.00     0.418 HD
ENDBRANCH   4   7
TORSDOF 1
ENDMDL
