MODEL 1
REMARK minimizedAffinity 2.10212374
REMARK minimizedRMSD -1
REMARK  1 active torsions:
REMARK  status: ('A' for Active; 'I' for Inactive)
REMARK    1  A    between atoms: C3_4  and  O_7 
ROOT
ATOM      1  C   UNL d   1       4.762  -1.137  -5.991  0.00  0.00    -0.033 A 
ATOM      2  C1  UNL d   1       5.976  -0.482  -5.772  0.00  0.00     0.039 A 
ATOM      3  C2  UNL d   1       5.998   0.898  -5.563  0.00  0.00    -0.080 A 
ATOM      4  C3  UNL d   1       4.802   1.610  -5.574  0.00  0.00     0.150 A 
ATOM      5  C4  UNL d   1       3.589   0.964  -5.787  0.00  0.00    -0.007 A 
ATOM      6  C5  UNL d   1       3.569  -0.414  -5.997  0.00  0.00     0.039 A 
ENDROOT
BRANCH   4   7
ATOM      7  O   UNL d   1       4.775   2.959  -5.379  0.00  0.00    -0.526 OA
ATOM      8  H5  UNL d   1       5.688   3.274  -5.273  0.00  0.00     0.418 HD
ENDBRANCH   4   7
TORSDOF 1
ENDMDL
