MODEL 1
REMARK minimizedAffinity -2.44221258
REMARK minimizedRMSD -1
REMARK  1 active torsions:
REMARK  status: ('A' for Active; 'I' for Inactive)
REMARK    1  A    between atoms: C3_4  and  O_7 
ROOT
ATOM      1  C   UNL d   1      -1.683  -1.209   0.608  0.00  0.00    -0.033 A 
ATOM      2  C1  UNL d   1      -0.366  -1.674   0.595  0.00  0.00     0.039 A 
ATOM      3  C2  UNL d   1       0.670  -0.828   0.195  0.00  0.00    -0.080 A 
ATOM      4  C3  UNL d   1       0.378   0.478  -0.188  0.00  0.00     0.150 A 
ATOM      5  C4  UNL d   1      -0.931   0.949  -0.173  0.00  0.00    -0.007 A 
ATOM      6  C5  UNL d   1      -1.965   0.103   0.225  0.00  0.00     0.039 A 
ENDROOT
BRANCH   4   7
ATOM      7  O   UNL d   1       1.356   1.338  -0.590  0.00  0.00    -0.526 OA
ATOM      8  H5  UNL d   1       2.205   0.867  -0.577  0.00  0.00     0.418 HD
ENDBRANCH   4   7
TORSDOF 1
ENDMDL
