MODEL 1
REMARK minimizedAffinity 1.08391786
REMARK minimizedRMSD -1
REMARK  1 active torsions:
REMARK  status: ('A' for Active; 'I' for Inactive)
REMARK    1  A    between atoms: C3_4  and  O_7 
ROOT
ATOM      1  C   UNL d   1       0.806   1.633   0.032  0.00  0.00    -0.033 A 
ATOM      2  C1  UNL d   1       0.016   0.530   0.363  0.00  0.00     0.039 A 
ATOM      3  C2  UNL d   1       0.353  -0.269   1.458  0.00  0.00    -0.080 A 
ATOM      4  C3  UNL d   1       1.479   0.046   2.213  0.00  0.00     0.150 A 
ATOM      5  C4  UNL d   1       2.269   1.146   1.891  0.00  0.00    -0.007 A 
ATOM      6  C5  UNL d   1       1.932   1.941   0.796  0.00  0.00     0.039 A 
ENDROOT
BRANCH   4   7
ATOM      7  O   UNL d   1       1.851  -0.706   3.287  0.00  0.00    -0.526 OA
ATOM      8  H5  UNL d   1       1.229  -1.448   3.372  0.00  0.00     0.418 HD
ENDBRANCH   4   7
TORSDOF 1
ENDMDL
