MODEL 1
REMARK minimizedAffinity -4.07427073
REMARK minimizedRMSD -1
REMARK  1 active torsions:
REMARK  status: ('A' for Active; 'I' for Inactive)
REMARK    1  A    between atoms: C3_4  and  O_7 
ROOT
ATOM      1  C   UNL d   1      -0.442   1.051   0.443  0.00  0.00    -0.033 A 
ATOM      2  C1  UNL d   1       0.656   1.908   0.341  0.00  0.00     0.039 A 
ATOM      3  C2  UNL d   1       1.936   1.444   0.649  0.00  0.00    -0.080 A 
ATOM      4  C3  UNL d   1       2.106   0.124   1.057  0.00  0.00     0.150 A 
ATOM      5  C4  UNL d   1       1.017  -0.736   1.157  0.00  0.00    -0.007 A 
ATOM      6  C5  UNL d   1      -0.261  -0.271   0.850  0.00  0.00     0.039 A 
ENDROOT
BRANCH   4   7
ATOM      7  O   UNL d   1       3.335  -0.372   1.372  0.00  0.00    -0.526 OA
ATOM      8  H5  UNL d   1       3.988   0.343   1.284  0.00  0.00     0.418 HD
ENDBRANCH   4   7
TORSDOF 1
ENDMDL
