MODEL 1
REMARK minimizedAffinity 1.28146052
REMARK minimizedRMSD -1
REMARK  1 active torsions:
REMARK  status: ('A' for Active; 'I' for Inactive)
REMARK    1  A    between atoms: C3_4  and  O_7 
ROOT
ATOM      1  C   UNL d   1       2.739  -0.205   1.077  0.00  0.00    -0.033 A 
ATOM      2  C1  UNL d   1       1.392   0.099   1.280  0.00  0.00     0.039 A 
ATOM      3  C2  UNL d   1       0.834   1.235   0.690  0.00  0.00    -0.080 A 
ATOM      4  C3  UNL d   1       1.633   2.056  -0.101  0.00  0.00     0.150 A 
ATOM      5  C4  UNL d   1       2.975   1.757  -0.311  0.00  0.00    -0.007 A 
ATOM      6  C5  UNL d   1       3.530   0.623   0.280  0.00  0.00     0.039 A 
ENDROOT
BRANCH   4   7
ATOM      7  O   UNL d   1       1.134   3.178  -0.693  0.00  0.00    -0.526 OA
ATOM      8  H5  UNL d   1       0.202   3.274  -0.436  0.00  0.00     0.418 HD
ENDBRANCH   4   7
TORSDOF 1
ENDMDL
