MODEL 1
REMARK minimizedAffinity 2.15877867
REMARK minimizedRMSD -1
REMARK  1 active torsions:
REMARK  status: ('A' for Active; 'I' for Inactive)
REMARK    1  A    between atoms: C3_4  and  O_7 
ROOT
ATOM      1  C   UNL d   1       4.815  -2.109  -5.874  0.00  0.00    -0.033 A 
ATOM      2  C1  UNL d   1       3.585  -1.450  -5.837  0.00  0.00     0.039 A 
ATOM      3  C2  UNL d   1       3.536  -0.055  -5.871  0.00  0.00    -0.080 A 
ATOM      4  C3  UNL d   1       4.724   0.668  -5.944  0.00  0.00     0.150 A 
ATOM      5  C4  UNL d   1       5.953   0.018  -5.985  0.00  0.00    -0.007 A 
ATOM      6  C5  UNL d   1       5.999  -1.375  -5.950  0.00  0.00     0.039 A 
ENDROOT
BRANCH   4   7
ATOM      7  O   UNL d   1       4.727   2.031  -5.974  0.00  0.00    -0.526 OA
ATOM      8  H5  UNL d   1       3.809   2.343  -5.910  0.00  0.00     0.418 HD
ENDBRANCH   4   7
TORSDOF 1
ENDMDL
