MODEL 1
REMARK minimizedAffinity -1.53971767
REMARK minimizedRMSD -1
REMARK  1 active torsions:
REMARK  status: ('A' for Active; 'I' for Inactive)
REMARK    1  A    between atoms: C3_4  and  O_7 
ROOT
ATOM      1  C   UNL d   1      -0.883   0.712   0.767  0.00  0.00    -0.033 A 
ATOM      2  C1  UNL d   1      -0.313   1.982   0.661  0.00  0.00     0.039 A 
ATOM      3  C2  UNL d   1       1.041   2.168   0.949  0.00  0.00    -0.080 A 
ATOM      4  C3  UNL d   1       1.812   1.077   1.340  0.00  0.00     0.150 A 
ATOM      5  C4  UNL d   1       1.252  -0.192   1.443  0.00  0.00    -0.007 A 
ATOM      6  C5  UNL d   1      -0.100  -0.376   1.156  0.00  0.00     0.039 A 
ENDROOT
BRANCH   4   7
ATOM      7  O   UNL d   1       3.136   1.210   1.636  0.00  0.00    -0.526 OA
ATOM      8  H5  UNL d   1       3.378   2.147   1.548  0.00  0.00     0.418 HD
ENDBRANCH   4   7
TORSDOF 1
ENDMDL
