MODEL 1
REMARK minimizedAffinity 1.83124328
REMARK minimizedRMSD -1
REMARK  1 active torsions:
REMARK  status: ('A' for Active; 'I' for Inactive)
REMARK    1  A    between atoms: C3_4  and  O_7 
ROOT
ATOM      1  C   UNL d   1       1.310   0.726   0.518  0.00  0.00    -0.033 A 
ATOM      2  C1  UNL d   1       0.221   1.063  -0.288  0.00  0.00     0.039 A 
ATOM      3  C2  UNL d   1      -0.269   2.370  -0.292  0.00  0.00    -0.080 A 
ATOM      4  C3  UNL d   1       0.339   3.330   0.512  0.00  0.00     0.150 A 
ATOM      5  C4  UNL d   1       1.427   3.003   1.314  0.00  0.00    -0.007 A 
ATOM      6  C5  UNL d   1       1.914   1.696   1.318  0.00  0.00     0.039 A 
ENDROOT
BRANCH   4   7
ATOM      7  O   UNL d   1      -0.106   4.618   0.544  0.00  0.00    -0.526 OA
ATOM      8  H5  UNL d   1      -0.881   4.691  -0.038  0.00  0.00     0.418 HD
ENDBRANCH   4   7
TORSDOF 1
ENDMDL
