MODEL 1
REMARK minimizedAffinity 13.781004
REMARK minimizedRMSD -1
REMARK  0 active torsions:
REMARK  status: ('A' for Active; 'I' for Inactive)
ROOT
ATOM      1  C   UNL d   1       2.484  -1.433   4.505  0.00  0.00    -0.002 A 
ATOM      2  C1  UNL d   1       3.509  -2.023   3.780  0.00  0.00     0.010 A 
ATOM      3  C2  UNL d   1       3.685  -3.408   3.796  0.00  0.00     0.041 A 
ATOM      4  C3  UNL d   1       2.802  -4.198   4.559  0.00  0.00    -0.075 A 
ATOM      5  S   UNL d   1       2.825  -5.914   4.727  0.00  0.00     0.015 SA
ATOM      6  C4  UNL d   1       1.473  -5.905   5.765  0.00  0.00     0.022 A 
ATOM      7  C5  UNL d   1       1.004  -4.632   5.988  0.00  0.00     0.026 A 
ATOM      8  C6  UNL d   1       1.762  -3.628   5.297  0.00  0.00    -0.082 A 
ATOM      9  C7  UNL d   1       1.610  -2.220   5.261  0.00  0.00     0.045 A 
ENDROOT
TORSDOF 0
ENDMDL
