MODEL 1
REMARK minimizedAffinity 12.8024607
REMARK minimizedRMSD -1
REMARK  0 active torsions:
REMARK  status: ('A' for Active; 'I' for Inactive)
ROOT
ATOM      1  C   UNL d   1       2.122  -2.204   4.604  0.00  0.00    -0.002 A 
ATOM      2  C1  UNL d   1       3.064  -2.744   3.741  0.00  0.00     0.010 A 
ATOM      3  C2  UNL d   1       3.546  -2.002   2.661  0.00  0.00     0.041 A 
ATOM      4  C3  UNL d   1       3.062  -0.694   2.463  0.00  0.00    -0.075 A 
ATOM      5  S   UNL d   1       3.510   0.402   1.209  0.00  0.00     0.015 SA
ATOM      6  C4  UNL d   1       2.462   1.613   1.791  0.00  0.00     0.022 A 
ATOM      7  C5  UNL d   1       1.779   1.209   2.913  0.00  0.00     0.026 A 
ATOM      8  C6  UNL d   1       2.114  -0.127   3.320  0.00  0.00    -0.082 A 
ATOM      9  C7  UNL d   1       1.644  -0.906   4.405  0.00  0.00     0.045 A 
ENDROOT
TORSDOF 0
ENDMDL
