MODEL 1
REMARK minimizedAffinity 2.81694436
REMARK minimizedRMSD -1
REMARK  0 active torsions:
REMARK  status: ('A' for Active; 'I' for Inactive)
ROOT
ATOM      1  C   UNL d   1       4.872   3.473  -5.269  0.00  0.00    -0.002 A 
ATOM      2  C1  UNL d   1       5.999   2.722  -5.573  0.00  0.00     0.010 A 
ATOM      3  C2  UNL d   1       5.999   1.338  -5.393  0.00  0.00     0.041 A 
ATOM      4  C3  UNL d   1       4.837   0.714  -4.899  0.00  0.00    -0.075 A 
ATOM      5  S   UNL d   1       4.607  -0.968  -4.599  0.00  0.00     0.015 SA
ATOM      6  C4  UNL d   1       3.008  -0.729  -4.060  0.00  0.00     0.022 A 
ATOM      7  C5  UNL d   1       2.642   0.595  -4.101  0.00  0.00     0.026 A 
ATOM      8  C6  UNL d   1       3.690   1.449  -4.586  0.00  0.00    -0.082 A 
ATOM      9  C7  UNL d   1       3.721   2.851  -4.779  0.00  0.00     0.045 A 
ENDROOT
TORSDOF 0
ENDMDL
