MODEL 1
REMARK minimizedAffinity 8.39288425
REMARK minimizedRMSD -1
REMARK  0 active torsions:
REMARK  status: ('A' for Active; 'I' for Inactive)
ROOT
ATOM      1  C   UNL d   1       2.251  -2.024   3.611  0.00  0.00    -0.002 A 
ATOM      2  C1  UNL d   1       3.468  -2.441   4.131  0.00  0.00     0.010 A 
ATOM      3  C2  UNL d   1       3.559  -3.627   4.863  0.00  0.00     0.041 A 
ATOM      4  C3  UNL d   1       2.396  -4.395   5.063  0.00  0.00    -0.075 A 
ATOM      5  S   UNL d   1       2.268  -5.882   5.926  0.00  0.00     0.015 SA
ATOM      6  C4  UNL d   1       0.595  -6.000   5.624  0.00  0.00     0.022 A 
ATOM      7  C5  UNL d   1       0.128  -4.939   4.885  0.00  0.00     0.026 A 
ATOM      8  C6  UNL d   1       1.158  -3.996   4.549  0.00  0.00    -0.082 A 
ATOM      9  C7  UNL d   1       1.098  -2.789   3.813  0.00  0.00     0.045 A 
ENDROOT
TORSDOF 0
ENDMDL
