MODEL 1
REMARK minimizedAffinity 2.25768995
REMARK minimizedRMSD -1
REMARK  0 active torsions:
REMARK  status: ('A' for Active; 'I' for Inactive)
ROOT
ATOM      1  C   UNL d   1       1.161  -0.231   1.284  0.00  0.00     0.172 C 
ATOM      2  N   UNL d   1       1.800  -0.505   2.550  0.00  0.00    -0.070 N 
ATOM      3  C1  UNL d   1       1.211  -1.109   3.628  0.00  0.00    -0.004 A 
ATOM      4  C2  UNL d   1       2.149  -1.186   4.634  0.00  0.00    -0.047 A 
ATOM      5  C3  UNL d   1       3.344  -0.607   4.144  0.00  0.00    -0.047 A 
ATOM      6  C4  UNL d   1       3.100  -0.193   2.852  0.00  0.00    -0.004 A 
ENDROOT
TORSDOF 0
ENDMDL
