MODEL 1
REMARK minimizedAffinity -0.999103367
REMARK minimizedRMSD -1
REMARK  0 active torsions:
REMARK  status: ('A' for Active; 'I' for Inactive)
ROOT
ATOM      1  C   UNL d   1      -1.572  -0.451   2.942  0.00  0.00     0.172 C 
ATOM      2  N   UNL d   1      -0.263  -0.925   3.323  0.00  0.00    -0.070 N 
ATOM      3  C1  UNL d   1       0.056  -1.515   4.517  0.00  0.00    -0.004 A 
ATOM      4  C2  UNL d   1       1.400  -1.822   4.490  0.00  0.00    -0.047 A 
ATOM      5  C3  UNL d   1       1.906  -1.400   3.238  0.00  0.00    -0.047 A 
ATOM      6  C4  UNL d   1       0.855  -0.848   2.535  0.00  0.00    -0.004 A 
ENDROOT
TORSDOF 0
ENDMDL
