MODEL 1
REMARK minimizedAffinity -1.7511636
REMARK minimizedRMSD -1
REMARK  0 active torsions:
REMARK  status: ('A' for Active; 'I' for Inactive)
ROOT
ATOM      1  C   UNL d   1       1.072  -0.707   1.694  0.00  0.00     0.172 C 
ATOM      2  N   UNL d   1       1.192  -1.078   3.084  0.00  0.00    -0.070 N 
ATOM      3  C1  UNL d   1       0.185  -1.036   4.011  0.00  0.00    -0.004 A 
ATOM      4  C2  UNL d   1       0.701  -1.468   5.214  0.00  0.00    -0.047 A 
ATOM      5  C3  UNL d   1       2.065  -1.780   5.003  0.00  0.00    -0.047 A 
ATOM      6  C4  UNL d   1       2.342  -1.530   3.675  0.00  0.00    -0.004 A 
ENDROOT
TORSDOF 0
ENDMDL
