MODEL 1
REMARK minimizedAffinity -1.78899813
REMARK minimizedRMSD -1
REMARK  0 active torsions:
REMARK  status: ('A' for Active; 'I' for Inactive)
ROOT
ATOM      1  C   UNL d   1       1.186  -0.973   0.653  0.00  0.00     0.172 C 
ATOM      2  N   UNL d   1      -0.235  -0.883   0.411  0.00  0.00    -0.070 N 
ATOM      3  C1  UNL d   1      -1.128  -0.163   1.158  0.00  0.00    -0.004 A 
ATOM      4  C2  UNL d   1      -2.378  -0.335   0.604  0.00  0.00    -0.047 A 
ATOM      5  C3  UNL d   1      -2.231  -1.190  -0.514  0.00  0.00    -0.047 A 
ATOM      6  C4  UNL d   1      -0.894  -1.514  -0.611  0.00  0.00    -0.004 A 
ENDROOT
TORSDOF 0
ENDMDL
