MODEL 1
REMARK minimizedAffinity 0.668650389
REMARK minimizedRMSD -1
REMARK  0 active torsions:
REMARK  status: ('A' for Active; 'I' for Inactive)
ROOT
ATOM      1  C   UNL d   1      -2.247   0.272   2.049  0.00  0.00     0.172 C 
ATOM      2  N   UNL d   1      -1.794  -0.257   0.784  0.00  0.00    -0.070 N 
ATOM      3  C1  UNL d   1      -0.492  -0.518   0.449  0.00  0.00    -0.004 A 
ATOM      4  C2  UNL d   1      -0.478  -1.010  -0.839  0.00  0.00    -0.047 A 
ATOM      5  C3  UNL d   1      -1.818  -1.045  -1.293  0.00  0.00    -0.047 A 
ATOM      6  C4  UNL d   1      -2.611  -0.573  -0.269  0.00  0.00    -0.004 A 
ENDROOT
TORSDOF 0
ENDMDL
