MODEL 1
REMARK minimizedAffinity 0.443084985
REMARK minimizedRMSD -1
REMARK  0 active torsions:
REMARK  status: ('A' for Active; 'I' for Inactive)
ROOT
ATOM      1  C   UNL d   1       0.950  -0.660   1.027  0.00  0.00     0.172 C 
ATOM      2  N   UNL d   1      -0.404  -0.569   0.534  0.00  0.00    -0.070 N 
ATOM      3  C1  UNL d   1      -0.869  -1.120  -0.630  0.00  0.00    -0.004 A 
ATOM      4  C2  UNL d   1      -2.207  -0.809  -0.740  0.00  0.00    -0.047 A 
ATOM      5  C3  UNL d   1      -2.558  -0.043   0.397  0.00  0.00    -0.047 A 
ATOM      6  C4  UNL d   1      -1.423   0.091   1.169  0.00  0.00    -0.004 A 
ENDROOT
TORSDOF 0
ENDMDL
