MODEL 1
REMARK minimizedAffinity 5.29958725
REMARK minimizedRMSD -1
REMARK  0 active torsions:
REMARK  status: ('A' for Active; 'I' for Inactive)
ROOT
ATOM      1  C   UNL d   1       0.589  -0.671   1.379  0.00  0.00     0.172 C 
ATOM      2  N   UNL d   1      -0.755  -0.409   0.921  0.00  0.00    -0.070 N 
ATOM      3  C1  UNL d   1      -1.295  -0.842  -0.260  0.00  0.00    -0.004 A 
ATOM      4  C2  UNL d   1      -2.593  -0.384  -0.324  0.00  0.00    -0.047 A 
ATOM      5  C3  UNL d   1      -2.842   0.351   0.859  0.00  0.00    -0.047 A 
ATOM      6  C4  UNL d   1      -1.687   0.320   1.612  0.00  0.00    -0.004 A 
ENDROOT
TORSDOF 0
ENDMDL
