MODEL 1
REMARK minimizedAffinity 4.84783983
REMARK minimizedRMSD -1
REMARK  0 active torsions:
REMARK  status: ('A' for Active; 'I' for Inactive)
ROOT
ATOM      1  C   UNL d   1       1.522  -0.486   1.416  0.00  0.00     0.172 C 
ATOM      2  N   UNL d   1       1.457  -0.850   2.812  0.00  0.00    -0.070 N 
ATOM      3  C1  UNL d   1       2.527  -1.174   3.604  0.00  0.00    -0.004 A 
ATOM      4  C2  UNL d   1       2.048  -1.458   4.865  0.00  0.00    -0.047 A 
ATOM      5  C3  UNL d   1       0.642  -1.300   4.829  0.00  0.00    -0.047 A 
ATOM      6  C4  UNL d   1       0.303  -0.923   3.547  0.00  0.00    -0.004 A 
ENDROOT
TORSDOF 0
ENDMDL
