MODEL 1
REMARK minimizedAffinity -2.61010861
REMARK minimizedRMSD -1
REMARK  0 active torsions:
REMARK  status: ('A' for Active; 'I' for Inactive)
ROOT
ATOM      1  C   UNL d   1       1.298  -0.216   1.762  0.00  0.00     0.172 C 
ATOM      2  N   UNL d   1       1.555  -0.746   3.080  0.00  0.00    -0.070 N 
ATOM      3  C1  UNL d   1       2.792  -0.965   3.625  0.00  0.00    -0.004 A 
ATOM      4  C2  UNL d   1       2.611  -1.474   4.893  0.00  0.00    -0.047 A 
ATOM      5  C3  UNL d   1       1.216  -1.565   5.117  0.00  0.00    -0.047 A 
ATOM      6  C4  UNL d   1       0.587  -1.108   3.979  0.00  0.00    -0.004 A 
ENDROOT
TORSDOF 0
ENDMDL
