MODEL 1
REMARK minimizedAffinity 18.7010288
REMARK minimizedRMSD -1
REMARK  0 active torsions:
REMARK  status: ('A' for Active; 'I' for Inactive)
ROOT
ATOM      1  C   UNL d   1      -1.234  -4.890  -3.747  0.00  0.00     0.023 A 
ATOM      2  C1  UNL d   1      -1.629  -4.009  -4.755  0.00  0.00     0.003 A 
ATOM      3  C2  UNL d   1      -2.899  -4.122  -5.324  0.00  0.00     0.048 A 
ATOM      4  C3  UNL d   1      -3.769  -5.117  -4.881  0.00  0.00     0.023 A 
ATOM      5  C4  UNL d   1      -3.379  -6.000  -3.873  0.00  0.00     0.048 A 
ATOM      6  C5  UNL d   1      -2.108  -5.884  -3.307  0.00  0.00     0.003 A 
ATOM      7  I   UNL d   1      -5.660  -5.287  -5.727  0.00  0.00    -0.146 I 
ENDROOT
TORSDOF 0
ENDMDL
