MODEL 1
REMARK minimizedAffinity 13.2260056
REMARK minimizedRMSD -1
REMARK  0 active torsions:
REMARK  status: ('A' for Active; 'I' for Inactive)
ROOT
ATOM      1  C   UNL d   1       3.994   3.344  -4.795  0.00  0.00     0.023 A 
ATOM      2  C1  UNL d   1       3.241   3.241  -3.625  0.00  0.00     0.003 A 
ATOM      3  C2  UNL d   1       3.721   3.789  -2.434  0.00  0.00     0.048 A 
ATOM      4  C3  UNL d   1       4.954   4.440  -2.420  0.00  0.00     0.023 A 
ATOM      5  C4  UNL d   1       5.710   4.547  -3.589  0.00  0.00     0.048 A 
ATOM      6  C5  UNL d   1       5.226   3.996  -4.777  0.00  0.00     0.003 A 
ATOM      7  I   UNL d   1       5.671   5.258  -0.648  0.00  0.00    -0.146 I 
ENDROOT
TORSDOF 0
ENDMDL
