MODEL 1
REMARK minimizedAffinity 13.0729036
REMARK minimizedRMSD -1
REMARK  0 active torsions:
REMARK  status: ('A' for Active; 'I' for Inactive)
ROOT
ATOM      1  C   UNL d   1      -2.882  -0.662   2.228  0.00  0.00     0.023 A 
ATOM      2  C1  UNL d   1      -2.315  -0.475   3.489  0.00  0.00     0.003 A 
ATOM      3  C2  UNL d   1      -1.118  -1.113   3.820  0.00  0.00     0.048 A 
ATOM      4  C3  UNL d   1      -0.493  -1.937   2.885  0.00  0.00     0.023 A 
ATOM      5  C4  UNL d   1      -1.055  -2.126   1.621  0.00  0.00     0.048 A 
ATOM      6  C5  UNL d   1      -2.253  -1.487   1.296  0.00  0.00     0.003 A 
ATOM      7  I   UNL d   1       1.289  -2.888   3.374  0.00  0.00    -0.146 I 
ENDROOT
TORSDOF 0
ENDMDL
