MODEL 1
REMARK minimizedAffinity 14.2454691
REMARK minimizedRMSD -1
REMARK  0 active torsions:
REMARK  status: ('A' for Active; 'I' for Inactive)
ROOT
ATOM      1  C   UNL d   1       3.850  -3.177  -1.258  0.00  0.00     0.023 A 
ATOM      2  C1  UNL d   1       3.114  -4.163  -0.602  0.00  0.00     0.003 A 
ATOM      3  C2  UNL d   1       3.729  -4.975   0.354  0.00  0.00     0.048 A 
ATOM      4  C3  UNL d   1       5.079  -4.793   0.650  0.00  0.00     0.023 A 
ATOM      5  C4  UNL d   1       5.819  -3.807  -0.003  0.00  0.00     0.048 A 
ATOM      6  C5  UNL d   1       5.201  -2.999  -0.959  0.00  0.00     0.003 A 
ATOM      7  I   UNL d   1       5.996  -5.999   2.073  0.00  0.00    -0.146 I 
ENDROOT
TORSDOF 0
ENDMDL
