MODEL 1
REMARK minimizedAffinity 18.8769169
REMARK minimizedRMSD -1
REMARK  0 active torsions:
REMARK  status: ('A' for Active; 'I' for Inactive)
ROOT
ATOM      1  C   UNL d   1       5.961   5.700  -3.965  0.00  0.00     0.023 A 
ATOM      2  C1  UNL d   1       6.000   4.415  -4.505  0.00  0.00     0.003 A 
ATOM      3  C2  UNL d   1       5.149   3.423  -4.014  0.00  0.00     0.048 A 
ATOM      4  C3  UNL d   1       4.260   3.724  -2.982  0.00  0.00     0.023 A 
ATOM      5  C4  UNL d   1       4.217   5.009  -2.439  0.00  0.00     0.048 A 
ATOM      6  C5  UNL d   1       5.071   5.997  -2.933  0.00  0.00     0.003 A 
ATOM      7  I   UNL d   1       2.991   2.250  -2.249  0.00  0.00    -0.146 I 
ENDROOT
TORSDOF 0
ENDMDL
