MODEL 1
REMARK minimizedAffinity 4.53163052
REMARK minimizedRMSD -1
REMARK  0 active torsions:
REMARK  status: ('A' for Active; 'I' for Inactive)
ROOT
ATOM      1  C   UNL d   1      -2.238  -3.520   0.674  0.00  0.00     0.023 A 
ATOM      2  C1  UNL d   1      -1.200  -4.450   0.623  0.00  0.00     0.003 A 
ATOM      3  C2  UNL d   1      -0.022  -4.223   1.337  0.00  0.00     0.048 A 
ATOM      4  C3  UNL d   1       0.112  -3.064   2.100  0.00  0.00     0.023 A 
ATOM      5  C4  UNL d   1      -0.924  -2.130   2.154  0.00  0.00     0.048 A 
ATOM      6  C5  UNL d   1      -2.100  -2.361   1.438  0.00  0.00     0.003 A 
ATOM      7  I   UNL d   1       1.865  -2.724   3.163  0.00  0.00    -0.146 I 
ENDROOT
TORSDOF 0
ENDMDL
