MODEL 1
REMARK minimizedAffinity 20.5229778
REMARK minimizedRMSD -1
REMARK  0 active torsions:
REMARK  status: ('A' for Active; 'I' for Inactive)
ROOT
ATOM      1  C   UNL d   1      -2.636  -5.237   0.698  0.00  0.00     0.023 A 
ATOM      2  C1  UNL d   1      -1.838  -4.487  -0.166  0.00  0.00     0.003 A 
ATOM      3  C2  UNL d   1      -2.177  -3.165  -0.462  0.00  0.00     0.048 A 
ATOM      4  C3  UNL d   1      -3.317  -2.600   0.110  0.00  0.00     0.023 A 
ATOM      5  C4  UNL d   1      -4.118  -3.346   0.975  0.00  0.00     0.048 A 
ATOM      6  C5  UNL d   1      -3.775  -4.667   1.267  0.00  0.00     0.003 A 
ATOM      7  I   UNL d   1      -3.824  -0.633  -0.330  0.00  0.00    -0.146 I 
ENDROOT
TORSDOF 0
ENDMDL
