MODEL 1
REMARK minimizedAffinity 14.8023272
REMARK minimizedRMSD -1
REMARK  0 active torsions:
REMARK  status: ('A' for Active; 'I' for Inactive)
ROOT
ATOM      1  C   UNL d   1       3.189   3.023  -4.676  0.00  0.00     0.023 A 
ATOM      2  C1  UNL d   1       4.512   3.398  -4.910  0.00  0.00     0.003 A 
ATOM      3  C2  UNL d   1       5.319   3.814  -3.849  0.00  0.00     0.048 A 
ATOM      4  C3  UNL d   1       4.797   3.853  -2.557  0.00  0.00     0.023 A 
ATOM      5  C4  UNL d   1       3.474   3.478  -2.318  0.00  0.00     0.048 A 
ATOM      6  C5  UNL d   1       2.670   3.063  -3.381  0.00  0.00     0.003 A 
ATOM      7  I   UNL d   1       5.996   4.473  -0.976  0.00  0.00    -0.146 I 
ENDROOT
TORSDOF 0
ENDMDL
