MODEL 1
REMARK minimizedAffinity 12.7362814
REMARK minimizedRMSD -1
REMARK  0 active torsions:
REMARK  status: ('A' for Active; 'I' for Inactive)
ROOT
ATOM      1  C   UNL d   1       0.890  -1.724   4.503  0.00  0.00     0.023 A 
ATOM      2  C1  UNL d   1       0.945  -2.621   3.436  0.00  0.00     0.003 A 
ATOM      3  C2  UNL d   1       0.116  -2.439   2.327  0.00  0.00     0.048 A 
ATOM      4  C3  UNL d   1      -0.764  -1.358   2.291  0.00  0.00     0.023 A 
ATOM      5  C4  UNL d   1      -0.821  -0.457   3.356  0.00  0.00     0.048 A 
ATOM      6  C5  UNL d   1       0.009  -0.643   4.463  0.00  0.00     0.003 A 
ATOM      7  I   UNL d   1      -1.998  -1.085   0.641  0.00  0.00    -0.146 I 
ENDROOT
TORSDOF 0
ENDMDL
