MODEL 1
REMARK minimizedAffinity 12.4104023
REMARK minimizedRMSD -1
REMARK  0 active torsions:
REMARK  status: ('A' for Active; 'I' for Inactive)
ROOT
ATOM      1  C   UNL d   1       4.841   4.446  -5.190  0.00  0.00     0.023 A 
ATOM      2  C1  UNL d   1       5.176   4.595  -3.844  0.00  0.00     0.003 A 
ATOM      3  C2  UNL d   1       4.418   3.956  -2.860  0.00  0.00     0.048 A 
ATOM      4  C3  UNL d   1       3.328   3.169  -3.229  0.00  0.00     0.023 A 
ATOM      5  C4  UNL d   1       2.990   3.016  -4.575  0.00  0.00     0.048 A 
ATOM      6  C5  UNL d   1       3.750   3.658  -5.555  0.00  0.00     0.003 A 
ATOM      7  I   UNL d   1       2.199   2.217  -1.767  0.00  0.00    -0.146 I 
ENDROOT
TORSDOF 0
ENDMDL
