MODEL 1
REMARK minimizedAffinity 18.5791721
REMARK minimizedRMSD -1
REMARK  0 active torsions:
REMARK  status: ('A' for Active; 'I' for Inactive)
ROOT
ATOM      1  C   UNL d   1      -5.643  -5.274  -5.865  0.00  0.00     0.023 A 
ATOM      2  C1  UNL d   1      -5.675  -4.119  -5.084  0.00  0.00     0.003 A 
ATOM      3  C2  UNL d   1      -4.520  -3.683  -4.431  0.00  0.00     0.048 A 
ATOM      4  C3  UNL d   1      -3.336  -4.407  -4.565  0.00  0.00     0.023 A 
ATOM      5  C4  UNL d   1      -3.299  -5.563  -5.345  0.00  0.00     0.048 A 
ATOM      6  C5  UNL d   1      -4.456  -5.996  -5.995  0.00  0.00     0.003 A 
ATOM      7  I   UNL d   1      -1.615  -3.760  -3.594  0.00  0.00    -0.146 I 
ENDROOT
TORSDOF 0
ENDMDL
