MODEL 1
REMARK minimizedAffinity 12.7864723
REMARK minimizedRMSD -1
REMARK  0 active torsions:
REMARK  status: ('A' for Active; 'I' for Inactive)
ROOT
ATOM      1  C   UNL d   1       0.081  -4.733  -4.287  0.00  0.00     0.023 A 
ATOM      2  C1  UNL d   1      -1.018  -4.072  -3.737  0.00  0.00     0.003 A 
ATOM      3  C2  UNL d   1      -2.306  -4.357  -4.195  0.00  0.00     0.048 A 
ATOM      4  C3  UNL d   1      -2.488  -5.304  -5.203  0.00  0.00     0.023 A 
ATOM      5  C4  UNL d   1      -1.392  -5.968  -5.755  0.00  0.00     0.048 A 
ATOM      6  C5  UNL d   1      -0.106  -5.680  -5.294  0.00  0.00     0.003 A 
ATOM      7  I   UNL d   1      -4.405  -5.729  -5.886  0.00  0.00    -0.146 I 
ENDROOT
TORSDOF 0
ENDMDL
