MODEL 1
REMARK minimizedAffinity 17.2595005
REMARK minimizedRMSD -1
REMARK  0 active torsions:
REMARK  status: ('A' for Active; 'I' for Inactive)
ROOT
ATOM      1  C   UNL d   1      -0.124  -4.799  -4.245  0.00  0.00     0.023 A 
ATOM      2  C1  UNL d   1      -1.167  -3.982  -3.810  0.00  0.00     0.003 A 
ATOM      3  C2  UNL d   1      -2.457  -4.169  -4.312  0.00  0.00     0.048 A 
ATOM      4  C3  UNL d   1      -2.696  -5.175  -5.247  0.00  0.00     0.023 A 
ATOM      5  C4  UNL d   1      -1.655  -5.996  -5.684  0.00  0.00     0.048 A 
ATOM      6  C5  UNL d   1      -0.367  -5.805  -5.181  0.00  0.00     0.003 A 
ATOM      7  I   UNL d   1      -4.615  -5.455  -5.995  0.00  0.00    -0.146 I 
ENDROOT
TORSDOF 0
ENDMDL
