MODEL 1
REMARK minimizedAffinity 12.4289169
REMARK minimizedRMSD -1
REMARK  0 active torsions:
REMARK  status: ('A' for Active; 'I' for Inactive)
ROOT
ATOM      1  C   UNL d   1      -2.239  -6.000  -6.000  0.00  0.00     0.023 A 
ATOM      2  C1  UNL d   1      -3.219  -5.648  -5.072  0.00  0.00     0.003 A 
ATOM      3  C2  UNL d   1      -2.867  -4.961  -3.908  0.00  0.00     0.048 A 
ATOM      4  C3  UNL d   1      -1.532  -4.628  -3.680  0.00  0.00     0.023 A 
ATOM      5  C4  UNL d   1      -0.548  -4.977  -4.606  0.00  0.00     0.048 A 
ATOM      6  C5  UNL d   1      -0.905  -5.665  -5.767  0.00  0.00     0.003 A 
ATOM      7  I   UNL d   1      -1.005  -3.606  -1.949  0.00  0.00    -0.146 I 
ENDROOT
TORSDOF 0
ENDMDL
