MODEL 1
REMARK minimizedAffinity 12.6740522
REMARK minimizedRMSD -1
REMARK  0 active torsions:
REMARK  status: ('A' for Active; 'I' for Inactive)
ROOT
ATOM      1  C   UNL d   1      -2.751  -3.317   1.189  0.00  0.00     0.023 A 
ATOM      2  C1  UNL d   1      -2.634  -2.140   1.928  0.00  0.00     0.003 A 
ATOM      3  C2  UNL d   1      -1.414  -1.800   2.514  0.00  0.00     0.048 A 
ATOM      4  C3  UNL d   1      -0.313  -2.641   2.357  0.00  0.00     0.023 A 
ATOM      5  C4  UNL d   1      -0.424  -3.820   1.617  0.00  0.00     0.048 A 
ATOM      6  C5  UNL d   1      -1.647  -4.156   1.034  0.00  0.00     0.003 A 
ATOM      7  I   UNL d   1       1.505  -2.137   3.228  0.00  0.00    -0.146 I 
ENDROOT
TORSDOF 0
ENDMDL
