MODEL 1
REMARK minimizedAffinity 14.2806644
REMARK minimizedRMSD -1
REMARK  0 active torsions:
REMARK  status: ('A' for Active; 'I' for Inactive)
ROOT
ATOM      1  C   UNL d   1      -2.705  -0.027   2.225  0.00  0.00     0.023 A 
ATOM      2  C1  UNL d   1      -1.907   0.419   3.279  0.00  0.00     0.003 A 
ATOM      3  C2  UNL d   1      -0.713  -0.240   3.579  0.00  0.00     0.048 A 
ATOM      4  C3  UNL d   1      -0.322  -1.343   2.821  0.00  0.00     0.023 A 
ATOM      5  C4  UNL d   1      -1.117  -1.792   1.765  0.00  0.00     0.048 A 
ATOM      6  C5  UNL d   1      -2.310  -1.131   1.469  0.00  0.00     0.003 A 
ATOM      7  I   UNL d   1       1.455  -2.325   3.266  0.00  0.00    -0.146 I 
ENDROOT
TORSDOF 0
ENDMDL
