MODEL 1
REMARK minimizedAffinity 3.13533568
REMARK minimizedRMSD -1
REMARK  0 active torsions:
REMARK  status: ('A' for Active; 'I' for Inactive)
ROOT
ATOM      1  C   UNL d   1       3.539   1.471  -3.269  0.00  0.00     0.023 A 
ATOM      2  C1  UNL d   1       3.628   2.563  -4.132  0.00  0.00     0.003 A 
ATOM      3  C2  UNL d   1       4.334   3.704  -3.746  0.00  0.00     0.048 A 
ATOM      4  C3  UNL d   1       4.949   3.747  -2.495  0.00  0.00     0.023 A 
ATOM      5  C4  UNL d   1       4.863   2.656  -1.628  0.00  0.00     0.048 A 
ATOM      6  C5  UNL d   1       4.156   1.517  -2.018  0.00  0.00     0.003 A 
ATOM      7  I   UNL d   1       6.000   5.444  -1.918  0.00  0.00    -0.146 I 
ENDROOT
TORSDOF 0
ENDMDL
