MODEL 1
REMARK minimizedAffinity 8.73235798
REMARK minimizedRMSD -1
REMARK  0 active torsions:
REMARK  status: ('A' for Active; 'I' for Inactive)
ROOT
ATOM      1  C   UNL d   1       2.948  -3.800   0.959  0.00  0.00     0.023 A 
ATOM      2  C1  UNL d   1       1.906  -2.981   1.393  0.00  0.00     0.003 A 
ATOM      3  C2  UNL d   1       1.583  -1.823   0.682  0.00  0.00     0.048 A 
ATOM      4  C3  UNL d   1       2.306  -1.492  -0.464  0.00  0.00     0.023 A 
ATOM      5  C4  UNL d   1       3.349  -2.309  -0.902  0.00  0.00     0.048 A 
ATOM      6  C5  UNL d   1       3.669  -3.465  -0.187  0.00  0.00     0.003 A 
ATOM      7  I   UNL d   1       1.828   0.230  -1.525  0.00  0.00    -0.146 I 
ENDROOT
TORSDOF 0
ENDMDL
