MODEL 1
REMARK minimizedAffinity 5.84977961
REMARK minimizedRMSD -1
REMARK  0 active torsions:
REMARK  status: ('A' for Active; 'I' for Inactive)
ROOT
ATOM      1  C   UNL d   1       1.947  -2.970   2.166  0.00  0.00     0.023 A 
ATOM      2  C1  UNL d   1       1.108  -1.862   2.282  0.00  0.00     0.003 A 
ATOM      3  C2  UNL d   1       1.020  -0.939   1.238  0.00  0.00     0.048 A 
ATOM      4  C3  UNL d   1       1.774  -1.130   0.081  0.00  0.00     0.023 A 
ATOM      5  C4  UNL d   1       2.615  -2.238  -0.040  0.00  0.00     0.048 A 
ATOM      6  C5  UNL d   1       2.700  -3.158   1.007  0.00  0.00     0.003 A 
ATOM      7  I   UNL d   1       1.645   0.243  -1.474  0.00  0.00    -0.146 I 
ENDROOT
TORSDOF 0
ENDMDL
