MODEL 1
REMARK minimizedAffinity -0.343404233
REMARK minimizedRMSD -1
REMARK  0 active torsions:
REMARK  status: ('A' for Active; 'I' for Inactive)
ROOT
ATOM      1  C   UNL d   1       2.416  -3.641   0.895  0.00  0.00     0.023 A 
ATOM      2  C1  UNL d   1       3.625  -4.286   1.158  0.00  0.00     0.003 A 
ATOM      3  C2  UNL d   1       4.276  -4.080   2.376  0.00  0.00     0.048 A 
ATOM      4  C3  UNL d   1       3.713  -3.229   3.326  0.00  0.00     0.023 A 
ATOM      5  C4  UNL d   1       2.503  -2.583   3.067  0.00  0.00     0.048 A 
ATOM      6  C5  UNL d   1       1.856  -2.791   1.848  0.00  0.00     0.003 A 
ATOM      7  I   UNL d   1       4.681  -2.921   5.139  0.00  0.00    -0.146 I 
ENDROOT
TORSDOF 0
ENDMDL
