MODEL 1
REMARK minimizedAffinity 14.2745886
REMARK minimizedRMSD -1
REMARK  0 active torsions:
REMARK  status: ('A' for Active; 'I' for Inactive)
ROOT
ATOM      1  C   UNL d   1       0.717  -0.722   3.378  0.00  0.00     0.023 A 
ATOM      2  C1  UNL d   1       0.730  -1.673   2.357  0.00  0.00     0.003 A 
ATOM      3  C2  UNL d   1       1.215  -1.335   1.093  0.00  0.00     0.048 A 
ATOM      4  C3  UNL d   1       1.687  -0.044   0.855  0.00  0.00     0.023 A 
ATOM      5  C4  UNL d   1       1.677   0.910   1.874  0.00  0.00     0.048 A 
ATOM      6  C5  UNL d   1       1.190   0.568   3.136  0.00  0.00     0.003 A 
ATOM      7  I   UNL d   1       2.410   0.461  -1.027  0.00  0.00    -0.146 I 
ENDROOT
TORSDOF 0
ENDMDL
