MODEL 1
REMARK minimizedAffinity 6.25533724
REMARK minimizedRMSD -1
REMARK  0 active torsions:
REMARK  status: ('A' for Active; 'I' for Inactive)
ROOT
ATOM      1  C   UNL d   1       5.261  -3.412   6.000  0.00  0.00     0.023 A 
ATOM      2  C1  UNL d   1       5.910  -2.616   5.057  0.00  0.00     0.003 A 
ATOM      3  C2  UNL d   1       5.808  -2.917   3.697  0.00  0.00     0.048 A 
ATOM      4  C3  UNL d   1       5.054  -4.015   3.287  0.00  0.00     0.023 A 
ATOM      5  C4  UNL d   1       4.402  -4.815   4.227  0.00  0.00     0.048 A 
ATOM      6  C5  UNL d   1       4.507  -4.511   5.586  0.00  0.00     0.003 A 
ATOM      7  I   UNL d   1       4.901  -4.465   1.264  0.00  0.00    -0.146 I 
ENDROOT
TORSDOF 0
ENDMDL
