MODEL 1
REMARK minimizedAffinity 0.259334415
REMARK minimizedRMSD -1
REMARK  0 active torsions:
REMARK  status: ('A' for Active; 'I' for Inactive)
ROOT
ATOM      1  C   UNL d   1       0.307  -3.984   3.181  0.00  0.00     0.023 A 
ATOM      2  C1  UNL d   1       1.205  -4.311   2.165  0.00  0.00     0.003 A 
ATOM      3  C2  UNL d   1       1.540  -3.364   1.195  0.00  0.00     0.048 A 
ATOM      4  C3  UNL d   1       0.973  -2.091   1.248  0.00  0.00     0.023 A 
ATOM      5  C4  UNL d   1       0.074  -1.759   2.263  0.00  0.00     0.048 A 
ATOM      6  C5  UNL d   1      -0.258  -2.710   3.230  0.00  0.00     0.003 A 
ATOM      7  I   UNL d   1       1.469  -0.680  -0.195  0.00  0.00    -0.146 I 
ENDROOT
TORSDOF 0
ENDMDL
