MODEL 1
REMARK minimizedAffinity 10.4136181
REMARK minimizedRMSD -1
REMARK  0 active torsions:
REMARK  status: ('A' for Active; 'I' for Inactive)
ROOT
ATOM      1  C4' PXY d   1       2.272  -4.264   5.169  0.00  0.00     0.077 C 
ATOM      2  C1' PXY d   1       2.931   0.664   2.220  0.00  0.00     0.077 C 
ATOM      3  C1  PXY d   1       2.771  -0.631   2.992  0.00  0.00    -0.082 A 
ATOM      4  C2  PXY d   1       1.582  -1.207   3.063  0.00  0.00     0.003 A 
ATOM      5  C3  PXY d   1       1.413  -2.361   3.783  0.00  0.00     0.003 A 
ATOM      6  C4  PXY d   1       2.482  -2.961   4.393  0.00  0.00    -0.082 A 
ATOM      7  C5  PXY d   1       3.701  -2.384   4.316  0.00  0.00     0.003 A 
ATOM      8  C6  PXY d   1       3.843  -1.191   3.614  0.00  0.00     0.003 A 
ENDROOT
TORSDOF 0
ENDMDL
