MODEL 1
REMARK minimizedAffinity 11.8855829
REMARK minimizedRMSD -1
REMARK  0 active torsions:
REMARK  status: ('A' for Active; 'I' for Inactive)
ROOT
ATOM      1  C4' PXY d   1       2.299  -3.699   2.260  0.00  0.00     0.077 C 
ATOM      2  C1' PXY d   1       2.795   2.034   2.811  0.00  0.00     0.077 C 
ATOM      3  C1  PXY d   1       2.653   0.531   2.671  0.00  0.00    -0.082 A 
ATOM      4  C2  PXY d   1       3.733  -0.232   2.687  0.00  0.00     0.003 A 
ATOM      5  C3  PXY d   1       3.625  -1.590   2.530  0.00  0.00     0.003 A 
ATOM      6  C4  PXY d   1       2.394  -2.178   2.408  0.00  0.00    -0.082 A 
ATOM      7  C5  PXY d   1       1.287  -1.406   2.401  0.00  0.00     0.003 A 
ATOM      8  C6  PXY d   1       1.421  -0.026   2.521  0.00  0.00     0.003 A 
ENDROOT
TORSDOF 0
ENDMDL
