MODEL 1
REMARK minimizedAffinity 14.5002413
REMARK minimizedRMSD -1
REMARK  0 active torsions:
REMARK  status: ('A' for Active; 'I' for Inactive)
ROOT
ATOM      1  C4' PXY d   1       1.248  -2.571  -0.839  0.00  0.00     0.077 C 
ATOM      2  C1' PXY d   1       1.944  -1.305   4.758  0.00  0.00     0.077 C 
ATOM      3  C1  PXY d   1       1.771  -1.646   3.291  0.00  0.00    -0.082 A 
ATOM      4  C2  PXY d   1       1.215  -0.765   2.476  0.00  0.00     0.003 A 
ATOM      5  C3  PXY d   1       1.022  -1.069   1.153  0.00  0.00     0.003 A 
ATOM      6  C4  PXY d   1       1.451  -2.267   0.647  0.00  0.00    -0.082 A 
ATOM      7  C5  PXY d   1       2.029  -3.167   1.470  0.00  0.00     0.003 A 
ATOM      8  C6  PXY d   1       2.179  -2.855   2.819  0.00  0.00     0.003 A 
ENDROOT
TORSDOF 0
ENDMDL
