MODEL 1
REMARK minimizedAffinity 1.97124994
REMARK minimizedRMSD -1
REMARK  0 active torsions:
REMARK  status: ('A' for Active; 'I' for Inactive)
ROOT
ATOM      1  C4' PXY d   1       1.855  -0.487   2.250  0.00  0.00     0.077 C 
ATOM      2  C1' PXY d   1       1.938   4.506  -0.662  0.00  0.00     0.077 C 
ATOM      3  C1  PXY d   1       1.927   3.193   0.095  0.00  0.00    -0.082 A 
ATOM      4  C2  PXY d   1       0.796   2.750   0.621  0.00  0.00     0.003 A 
ATOM      5  C3  PXY d   1       0.775   1.581   1.336  0.00  0.00     0.003 A 
ATOM      6  C4  PXY d   1       1.911   0.829   1.469  0.00  0.00    -0.082 A 
ATOM      7  C5  PXY d   1       3.067   1.268   0.926  0.00  0.00     0.003 A 
ATOM      8  C6  PXY d   1       3.076   2.478   0.239  0.00  0.00     0.003 A 
ENDROOT
TORSDOF 0
ENDMDL
