MODEL 1
REMARK minimizedAffinity -0.89118588
REMARK minimizedRMSD -1
REMARK  0 active torsions:
REMARK  status: ('A' for Active; 'I' for Inactive)
ROOT
ATOM      1  C4' PXY d   1       5.999  -2.743   5.999  0.00  0.00     0.077 C 
ATOM      2  C1' PXY d   1       1.626  -0.870   2.715  0.00  0.00     0.077 C 
ATOM      3  C1  PXY d   1       2.767  -1.357   3.587  0.00  0.00    -0.082 A 
ATOM      4  C2  PXY d   1       3.974  -1.502   3.064  0.00  0.00     0.003 A 
ATOM      5  C3  PXY d   1       5.009  -1.972   3.830  0.00  0.00     0.003 A 
ATOM      6  C4  PXY d   1       4.820  -2.245   5.159  0.00  0.00    -0.082 A 
ATOM      7  C5  PXY d   1       3.594  -2.089   5.702  0.00  0.00     0.003 A 
ATOM      8  C6  PXY d   1       2.547  -1.650   4.897  0.00  0.00     0.003 A 
ENDROOT
TORSDOF 0
ENDMDL
