MODEL 1
REMARK minimizedAffinity 6.17377567
REMARK minimizedRMSD -1
REMARK  0 active torsions:
REMARK  status: ('A' for Active; 'I' for Inactive)
ROOT
ATOM      1  C4' PXY d   1       5.210  -2.631   6.000  0.00  0.00     0.077 C 
ATOM      2  C1' PXY d   1       1.179  -1.123   2.141  0.00  0.00     0.077 C 
ATOM      3  C1  PXY d   1       2.227  -1.520   3.162  0.00  0.00    -0.082 A 
ATOM      4  C2  PXY d   1       3.484  -1.147   2.987  0.00  0.00     0.003 A 
ATOM      5  C3  PXY d   1       4.450  -1.524   3.884  0.00  0.00     0.003 A 
ATOM      6  C4  PXY d   1       4.117  -2.245   4.999  0.00  0.00    -0.082 A 
ATOM      7  C5  PXY d   1       2.834  -2.620   5.190  0.00  0.00     0.003 A 
ATOM      8  C6  PXY d   1       1.875  -2.262   4.247  0.00  0.00     0.003 A 
ENDROOT
TORSDOF 0
ENDMDL
