MODEL 1
REMARK minimizedAffinity 3.96470857
REMARK minimizedRMSD -1
REMARK  0 active torsions:
REMARK  status: ('A' for Active; 'I' for Inactive)
ROOT
ATOM      1  C4' PXY d   1       5.989  -2.990   6.000  0.00  0.00     0.077 C 
ATOM      2  C1' PXY d   1       1.606  -1.079   2.753  0.00  0.00     0.077 C 
ATOM      3  C1  PXY d   1       2.748  -1.580   3.615  0.00  0.00    -0.082 A 
ATOM      4  C2  PXY d   1       3.996  -1.394   3.219  0.00  0.00     0.003 A 
ATOM      5  C3  PXY d   1       5.040  -1.869   3.970  0.00  0.00     0.003 A 
ATOM      6  C4  PXY d   1       4.805  -2.493   5.166  0.00  0.00    -0.082 A 
ATOM      7  C5  PXY d   1       3.534  -2.677   5.582  0.00  0.00     0.003 A 
ATOM      8  C6  PXY d   1       2.487  -2.224   4.785  0.00  0.00     0.003 A 
ENDROOT
TORSDOF 0
ENDMDL
