MODEL 1
REMARK minimizedAffinity 7.37303734
REMARK minimizedRMSD -1
REMARK  0 active torsions:
REMARK  status: ('A' for Active; 'I' for Inactive)
ROOT
ATOM      1  C4' PXY d   1       1.129  -0.751   1.861  0.00  0.00     0.077 C 
ATOM      2  C1' PXY d   1       5.226  -2.422   5.581  0.00  0.00     0.077 C 
ATOM      3  C1  PXY d   1       4.146  -1.995   4.607  0.00  0.00    -0.082 A 
ATOM      4  C2  PXY d   1       4.405  -1.054   3.713  0.00  0.00     0.003 A 
ATOM      5  C3  PXY d   1       3.430  -0.634   2.846  0.00  0.00     0.003 A 
ATOM      6  C4  PXY d   1       2.193  -1.220   2.858  0.00  0.00    -0.082 A 
ATOM      7  C5  PXY d   1       1.923  -2.188   3.759  0.00  0.00     0.003 A 
ATOM      8  C6  PXY d   1       2.914  -2.571   4.658  0.00  0.00     0.003 A 
ENDROOT
TORSDOF 0
ENDMDL
