MODEL 1
REMARK minimizedAffinity -0.77699703
REMARK minimizedRMSD -1
REMARK  0 active torsions:
REMARK  status: ('A' for Active; 'I' for Inactive)
ROOT
ATOM      1  C4' PXY d   1       5.991  -2.665  -5.108  0.00  0.00     0.077 C 
ATOM      2  C1' PXY d   1       4.583   2.937  -4.874  0.00  0.00     0.077 C 
ATOM      3  C1  PXY d   1       4.951   1.467  -4.922  0.00  0.00    -0.082 A 
ATOM      4  C2  PXY d   1       5.685   1.009  -5.923  0.00  0.00     0.003 A 
ATOM      5  C3  PXY d   1       5.999  -0.324  -6.000  0.00  0.00     0.003 A 
ATOM      6  C4  PXY d   1       5.603  -1.187  -5.013  0.00  0.00    -0.082 A 
ATOM      7  C5  PXY d   1       4.863  -0.725  -3.983  0.00  0.00     0.003 A 
ATOM      8  C6  PXY d   1       4.520   0.623  -3.946  0.00  0.00     0.003 A 
ENDROOT
TORSDOF 0
ENDMDL
