MODEL 1
REMARK minimizedAffinity -1.99534774
REMARK minimizedRMSD -1
REMARK  0 active torsions:
REMARK  status: ('A' for Active; 'I' for Inactive)
ROOT
ATOM      1  C   UNL d   1       2.064   1.956   0.344  0.00  0.00     0.078 C 
ATOM      2  C1  UNL d   1       2.041   0.845   1.352  0.00  0.00    -0.077 A 
ATOM      3  C2  UNL d   1       1.147  -0.224   1.226  0.00  0.00    -0.001 A 
ATOM      4  C3  UNL d   1       1.130  -1.246   2.177  0.00  0.00     0.003 A 
ATOM      5  C4  UNL d   1       2.004  -1.207   3.261  0.00  0.00    -0.005 A 
ATOM      6  C5  UNL d   1       2.896  -0.146   3.396  0.00  0.00     0.003 A 
ATOM      7  C6  UNL d   1       2.915   0.877   2.446  0.00  0.00    -0.001 A 
ENDROOT
TORSDOF 0
ENDMDL
