MODEL 1
REMARK minimizedAffinity -3.03554797
REMARK minimizedRMSD -1
REMARK  0 active torsions:
REMARK  status: ('A' for Active; 'I' for Inactive)
ROOT
ATOM      1  C   UNL d   1      -1.356   0.132  -0.527  0.00  0.00     0.078 C 
ATOM      2  C1  UNL d   1      -0.102  -0.038   0.278  0.00  0.00    -0.077 A 
ATOM      3  C2  UNL d   1       0.443   1.032   0.999  0.00  0.00    -0.001 A 
ATOM      4  C3  UNL d   1       1.615   0.862   1.736  0.00  0.00     0.003 A 
ATOM      5  C4  UNL d   1       2.254  -0.376   1.759  0.00  0.00    -0.005 A 
ATOM      6  C5  UNL d   1       1.721  -1.446   1.043  0.00  0.00     0.003 A 
ATOM      7  C6  UNL d   1       0.548  -1.278   0.305  0.00  0.00    -0.001 A 
ENDROOT
TORSDOF 0
ENDMDL
