MODEL 1
REMARK minimizedAffinity -1.92924547
REMARK minimizedRMSD -1
REMARK  0 active torsions:
REMARK  status: ('A' for Active; 'I' for Inactive)
ROOT
ATOM      1  C   UNL d   1       1.920  -1.900   3.517  0.00  0.00     0.078 C 
ATOM      2  C1  UNL d   1       2.177  -0.469   3.150  0.00  0.00    -0.077 A 
ATOM      3  C2  UNL d   1       2.218   0.530   4.130  0.00  0.00    -0.001 A 
ATOM      4  C3  UNL d   1       2.449   1.860   3.773  0.00  0.00     0.003 A 
ATOM      5  C4  UNL d   1       2.638   2.203   2.436  0.00  0.00    -0.005 A 
ATOM      6  C5  UNL d   1       2.597   1.215   1.453  0.00  0.00     0.003 A 
ATOM      7  C6  UNL d   1       2.366  -0.115   1.808  0.00  0.00    -0.001 A 
ENDROOT
TORSDOF 0
ENDMDL
