MODEL 1
REMARK minimizedAffinity 3.79293966
REMARK minimizedRMSD -1
REMARK  0 active torsions:
REMARK  status: ('A' for Active; 'I' for Inactive)
ROOT
ATOM      1  C   UNL d   1       1.121   2.523  -0.144  0.00  0.00     0.078 C 
ATOM      2  C1  UNL d   1       1.761   1.935   1.078  0.00  0.00    -0.077 A 
ATOM      3  C2  UNL d   1       2.103   0.578   1.132  0.00  0.00    -0.001 A 
ATOM      4  C3  UNL d   1       2.689   0.043   2.280  0.00  0.00     0.003 A 
ATOM      5  C4  UNL d   1       2.938   0.858   3.383  0.00  0.00    -0.005 A 
ATOM      6  C5  UNL d   1       2.600   2.209   3.340  0.00  0.00     0.003 A 
ATOM      7  C6  UNL d   1       2.014   2.745   2.193  0.00  0.00    -0.001 A 
ENDROOT
TORSDOF 0
ENDMDL
