MODEL 1
REMARK minimizedAffinity 3.61015344
REMARK minimizedRMSD -1
REMARK  0 active torsions:
REMARK  status: ('A' for Active; 'I' for Inactive)
ROOT
ATOM      1  C   UNL d   1      -4.720  -1.339  -3.896  0.00  0.00     0.078 C 
ATOM      2  C1  UNL d   1      -5.158  -2.717  -4.295  0.00  0.00    -0.077 A 
ATOM      3  C2  UNL d   1      -5.578  -2.990  -5.603  0.00  0.00    -0.001 A 
ATOM      4  C3  UNL d   1      -5.992  -4.275  -5.957  0.00  0.00     0.003 A 
ATOM      5  C4  UNL d   1      -5.992  -5.297  -5.009  0.00  0.00    -0.005 A 
ATOM      6  C5  UNL d   1      -5.578  -5.034  -3.705  0.00  0.00     0.003 A 
ATOM      7  C6  UNL d   1      -5.163  -3.749  -3.349  0.00  0.00    -0.001 A 
ENDROOT
TORSDOF 0
ENDMDL
