MODEL 1
REMARK minimizedAffinity 6.63792181
REMARK minimizedRMSD -1
REMARK  0 active torsions:
REMARK  status: ('A' for Active; 'I' for Inactive)
ROOT
ATOM      1  C   UNL d   1      -6.000   4.651  -1.465  0.00  0.00     0.078 C 
ATOM      2  C1  UNL d   1      -5.305   3.955  -0.333  0.00  0.00    -0.077 A 
ATOM      3  C2  UNL d   1      -5.953   3.744   0.890  0.00  0.00    -0.001 A 
ATOM      4  C3  UNL d   1      -5.290   3.103   1.938  0.00  0.00     0.003 A 
ATOM      5  C4  UNL d   1      -3.976   2.670   1.774  0.00  0.00    -0.005 A 
ATOM      6  C5  UNL d   1      -3.322   2.878   0.561  0.00  0.00     0.003 A 
ATOM      7  C6  UNL d   1      -3.983   3.518  -0.488  0.00  0.00    -0.001 A 
ENDROOT
TORSDOF 0
ENDMDL
