MODEL 1
REMARK minimizedAffinity 9.53384304
REMARK minimizedRMSD -1
REMARK  0 active torsions:
REMARK  status: ('A' for Active; 'I' for Inactive)
ROOT
ATOM      1  C   UNL d   1      -1.399  -1.300   0.414  0.00  0.00     0.078 C 
ATOM      2  C1  UNL d   1      -0.551  -2.185  -0.449  0.00  0.00    -0.077 A 
ATOM      3  C2  UNL d   1       0.473  -2.965   0.104  0.00  0.00    -0.001 A 
ATOM      4  C3  UNL d   1       1.261  -3.777  -0.713  0.00  0.00     0.003 A 
ATOM      5  C4  UNL d   1       1.036  -3.816  -2.088  0.00  0.00    -0.005 A 
ATOM      6  C5  UNL d   1       0.021  -3.042  -2.647  0.00  0.00     0.003 A 
ATOM      7  C6  UNL d   1      -0.768  -2.229  -1.832  0.00  0.00    -0.001 A 
ENDROOT
TORSDOF 0
ENDMDL
