MODEL 1
REMARK minimizedAffinity 2.87078929
REMARK minimizedRMSD -1
REMARK  0 active torsions:
REMARK  status: ('A' for Active; 'I' for Inactive)
ROOT
ATOM      1  C   UNL d   1       0.405  -1.693   0.564  0.00  0.00     0.078 C 
ATOM      2  C1  UNL d   1       0.514  -0.206   0.406  0.00  0.00    -0.077 A 
ATOM      3  C2  UNL d   1      -0.630   0.598   0.344  0.00  0.00    -0.001 A 
ATOM      4  C3  UNL d   1      -0.514   1.981   0.187  0.00  0.00     0.003 A 
ATOM      5  C4  UNL d   1       0.745   2.570   0.090  0.00  0.00    -0.005 A 
ATOM      6  C5  UNL d   1       1.889   1.778   0.148  0.00  0.00     0.003 A 
ATOM      7  C6  UNL d   1       1.775   0.396   0.305  0.00  0.00    -0.001 A 
ENDROOT
TORSDOF 0
ENDMDL
