MODEL 1
REMARK minimizedAffinity 7.62465048
REMARK minimizedRMSD -1
REMARK  0 active torsions:
REMARK  status: ('A' for Active; 'I' for Inactive)
ROOT
ATOM      1  C   UNL d   1       0.321  -2.193   1.126  0.00  0.00     0.078 C 
ATOM      2  C1  UNL d   1      -0.337  -2.647  -0.143  0.00  0.00    -0.077 A 
ATOM      3  C2  UNL d   1       0.284  -3.577  -0.985  0.00  0.00    -0.001 A 
ATOM      4  C3  UNL d   1      -0.336  -3.984  -2.167  0.00  0.00     0.003 A 
ATOM      5  C4  UNL d   1      -1.580  -3.464  -2.519  0.00  0.00    -0.005 A 
ATOM      6  C5  UNL d   1      -2.205  -2.536  -1.689  0.00  0.00     0.003 A 
ATOM      7  C6  UNL d   1      -1.587  -2.128  -0.506  0.00  0.00    -0.001 A 
ENDROOT
TORSDOF 0
ENDMDL
