MODEL 1
REMARK minimizedAffinity -1.21475959
REMARK minimizedRMSD -1
REMARK  0 active torsions:
REMARK  status: ('A' for Active; 'I' for Inactive)
ROOT
ATOM      1  C   UNL d   1       4.643   1.101  -5.980  0.00  0.00     0.078 C 
ATOM      2  C1  UNL d   1       4.485  -0.390  -5.971  0.00  0.00    -0.077 A 
ATOM      3  C2  UNL d   1       5.602  -1.234  -5.995  0.00  0.00    -0.001 A 
ATOM      4  C3  UNL d   1       5.440  -2.620  -5.996  0.00  0.00     0.003 A 
ATOM      5  C4  UNL d   1       4.162  -3.175  -5.973  0.00  0.00    -0.005 A 
ATOM      6  C5  UNL d   1       3.044  -2.344  -5.951  0.00  0.00     0.003 A 
ATOM      7  C6  UNL d   1       3.204  -0.957  -5.950  0.00  0.00    -0.001 A 
ENDROOT
TORSDOF 0
ENDMDL
