MODEL 1
REMARK minimizedAffinity -2.76778674
REMARK minimizedRMSD -1
REMARK  0 active torsions:
REMARK  status: ('A' for Active; 'I' for Inactive)
ROOT
ATOM      1  C4' PXY d   1       2.401  -0.751   5.618  0.00  0.00     0.077 C 
ATOM      2  C1' PXY d   1       5.998  -4.872   3.749  0.00  0.00     0.077 C 
ATOM      3  C1  PXY d   1       5.057  -3.795   4.252  0.00  0.00    -0.082 A 
ATOM      4  C2  PXY d   1       4.149  -3.287   3.434  0.00  0.00     0.003 A 
ATOM      5  C3  PXY d   1       3.311  -2.290   3.863  0.00  0.00     0.003 A 
ATOM      6  C4  PXY d   1       3.366  -1.847   5.157  0.00  0.00    -0.082 A 
ATOM      7  C5  PXY d   1       4.282  -2.368   6.000  0.00  0.00     0.003 A 
ATOM      8  C6  PXY d   1       5.152  -3.350   5.534  0.00  0.00     0.003 A 
ENDROOT
TORSDOF 0
ENDMDL
