MODEL 1
REMARK minimizedAffinity 10.1693115
REMARK minimizedRMSD -1
REMARK  0 active torsions:
REMARK  status: ('A' for Active; 'I' for Inactive)
ROOT
ATOM      1  C4' PXY d   1       5.999   5.275  -0.653  0.00  0.00     0.077 C 
ATOM      2  C1' PXY d   1       3.810   4.103  -5.873  0.00  0.00     0.077 C 
ATOM      3  C1  PXY d   1       4.378   4.422  -4.505  0.00  0.00    -0.082 A 
ATOM      4  C2  PXY d   1       5.489   3.826  -4.103  0.00  0.00     0.003 A 
ATOM      5  C3  PXY d   1       5.999   4.079  -2.855  0.00  0.00     0.003 A 
ATOM      6  C4  PXY d   1       5.395   4.990  -2.031  0.00  0.00    -0.082 A 
ATOM      7  C5  PXY d   1       4.267   5.610  -2.438  0.00  0.00     0.003 A 
ATOM      8  C6  PXY d   1       3.742   5.309  -3.692  0.00  0.00     0.003 A 
ENDROOT
TORSDOF 0
ENDMDL
