MODEL 1
REMARK minimizedAffinity -2.44952345
REMARK minimizedRMSD -1
REMARK  0 active torsions:
REMARK  status: ('A' for Active; 'I' for Inactive)
ROOT
ATOM      1  C4' PXY d   1       3.473  -0.748   5.999  0.00  0.00     0.077 C 
ATOM      2  C1' PXY d   1       6.000  -5.141   3.218  0.00  0.00     0.077 C 
ATOM      3  C1  PXY d   1       5.333  -3.997   3.957  0.00  0.00    -0.082 A 
ATOM      4  C2  PXY d   1       4.939  -2.927   3.287  0.00  0.00     0.003 A 
ATOM      5  C3  PXY d   1       4.364  -1.870   3.944  0.00  0.00     0.003 A 
ATOM      6  C4  PXY d   1       4.141  -1.931   5.293  0.00  0.00    -0.082 A 
ATOM      7  C5  PXY d   1       4.531  -3.024   5.983  0.00  0.00     0.003 A 
ATOM      8  C6  PXY d   1       5.150  -4.069   5.303  0.00  0.00     0.003 A 
ENDROOT
TORSDOF 0
ENDMDL
