MODEL 1
REMARK minimizedAffinity 1.56185746
REMARK minimizedRMSD -1
REMARK  0 active torsions:
REMARK  status: ('A' for Active; 'I' for Inactive)
ROOT
ATOM      1  C4' PXY d   1       4.896   5.989  -0.839  0.00  0.00     0.077 C 
ATOM      2  C1' PXY d   1       4.972   3.377  -5.996  0.00  0.00     0.077 C 
ATOM      3  C1  PXY d   1       4.965   4.063  -4.644  0.00  0.00    -0.082 A 
ATOM      4  C2  PXY d   1       3.945   3.879  -3.822  0.00  0.00     0.003 A 
ATOM      5  C3  PXY d   1       3.907   4.517  -2.609  0.00  0.00     0.003 A 
ATOM      6  C4  PXY d   1       4.950   5.309  -2.210  0.00  0.00    -0.082 A 
ATOM      7  C5  PXY d   1       6.000   5.493  -3.038  0.00  0.00     0.003 A 
ATOM      8  C6  PXY d   1       6.000   4.870  -4.283  0.00  0.00     0.003 A 
ENDROOT
TORSDOF 0
ENDMDL
