MODEL 1
REMARK minimizedAffinity -0.513171792
REMARK minimizedRMSD -1
REMARK  0 active torsions:
REMARK  status: ('A' for Active; 'I' for Inactive)
ROOT
ATOM      1  C4' PXY d   1       6.000  -4.128   4.028  0.00  0.00     0.077 C 
ATOM      2  C1' PXY d   1       1.887  -0.394   5.625  0.00  0.00     0.077 C 
ATOM      3  C1  PXY d   1       2.957  -1.379   5.198  0.00  0.00    -0.082 A 
ATOM      4  C2  PXY d   1       3.982  -1.618   5.999  0.00  0.00     0.003 A 
ATOM      5  C3  PXY d   1       4.976  -2.482   5.615  0.00  0.00     0.003 A 
ATOM      6  C4  PXY d   1       4.891  -3.148   4.422  0.00  0.00    -0.082 A 
ATOM      7  C5  PXY d   1       3.843  -2.918   3.604  0.00  0.00     0.003 A 
ATOM      8  C6  PXY d   1       2.866  -2.006   3.994  0.00  0.00     0.003 A 
ENDROOT
TORSDOF 0
ENDMDL
