MODEL 1
REMARK minimizedAffinity 6.86570501
REMARK minimizedRMSD -1
REMARK  0 active torsions:
REMARK  status: ('A' for Active; 'I' for Inactive)
ROOT
ATOM      1  C4' PXY d   1       2.633  -1.203   2.280  0.00  0.00     0.077 C 
ATOM      2  C1' PXY d   1       5.999  -4.084   5.993  0.00  0.00     0.077 C 
ATOM      3  C1  PXY d   1       5.122  -3.334   5.009  0.00  0.00    -0.082 A 
ATOM      4  C2  PXY d   1       4.544  -2.203   5.379  0.00  0.00     0.003 A 
ATOM      5  C3  PXY d   1       3.723  -1.529   4.512  0.00  0.00     0.003 A 
ATOM      6  C4  PXY d   1       3.534  -1.989   3.237  0.00  0.00    -0.082 A 
ATOM      7  C5  PXY d   1       4.129  -3.137   2.848  0.00  0.00     0.003 A 
ATOM      8  C6  PXY d   1       4.926  -3.828   3.756  0.00  0.00     0.003 A 
ENDROOT
TORSDOF 0
ENDMDL
