MODEL 1
REMARK minimizedAffinity 2.92631221
REMARK minimizedRMSD -1
REMARK  0 active torsions:
REMARK  status: ('A' for Active; 'I' for Inactive)
ROOT
ATOM      1  C4' PXY d   1       4.863   2.643  -5.985  0.00  0.00     0.077 C 
ATOM      2  C1' PXY d   1       4.867   5.996  -1.277  0.00  0.00     0.077 C 
ATOM      3  C1  PXY d   1       4.855   5.111  -2.507  0.00  0.00    -0.082 A 
ATOM      4  C2  PXY d   1       5.986   4.866  -3.148  0.00  0.00     0.003 A 
ATOM      5  C3  PXY d   1       5.988   4.094  -4.281  0.00  0.00     0.003 A 
ATOM      6  C4  PXY d   1       4.829   3.523  -4.733  0.00  0.00    -0.082 A 
ATOM      7  C5  PXY d   1       3.672   3.760  -4.078  0.00  0.00     0.003 A 
ATOM      8  C6  PXY d   1       3.684   4.580  -2.954  0.00  0.00     0.003 A 
ENDROOT
TORSDOF 0
ENDMDL
