MODEL 1
REMARK minimizedAffinity 15.9509926
REMARK minimizedRMSD -1
REMARK  0 active torsions:
REMARK  status: ('A' for Active; 'I' for Inactive)
ROOT
ATOM      1  C4' PXY d   1      -2.154   3.542   1.851  0.00  0.00     0.077 C 
ATOM      2  C1' PXY d   1       3.027   6.000   1.126  0.00  0.00     0.077 C 
ATOM      3  C1  PXY d   1       1.670   5.348   1.305  0.00  0.00    -0.082 A 
ATOM      4  C2  PXY d   1       0.729   5.976   1.990  0.00  0.00     0.003 A 
ATOM      5  C3  PXY d   1      -0.494   5.388   2.189  0.00  0.00     0.003 A 
ATOM      6  C4  PXY d   1      -0.773   4.166   1.637  0.00  0.00    -0.082 A 
ATOM      7  C5  PXY d   1       0.179   3.524   0.928  0.00  0.00     0.003 A 
ATOM      8  C6  PXY d   1       1.427   4.120   0.772  0.00  0.00     0.003 A 
ENDROOT
TORSDOF 0
ENDMDL
