MODEL 1
REMARK minimizedAffinity -1.38291752
REMARK minimizedRMSD -1
REMARK  0 active torsions:
REMARK  status: ('A' for Active; 'I' for Inactive)
ROOT
ATOM      1  C4' PXY d   1       4.703   5.999  -1.229  0.00  0.00     0.077 C 
ATOM      2  C1' PXY d   1       4.884   2.721  -5.987  0.00  0.00     0.077 C 
ATOM      3  C1  PXY d   1       4.848   3.575  -4.735  0.00  0.00    -0.082 A 
ATOM      4  C2  PXY d   1       3.692   4.050  -4.300  0.00  0.00     0.003 A 
ATOM      5  C3  PXY d   1       3.645   4.850  -3.188  0.00  0.00     0.003 A 
ATOM      6  C4  PXY d   1       4.786   5.124  -2.483  0.00  0.00    -0.082 A 
ATOM      7  C5  PXY d   1       5.968   4.635  -2.914  0.00  0.00     0.003 A 
ATOM      8  C6  PXY d   1       6.000   3.859  -4.068  0.00  0.00     0.003 A 
ENDROOT
TORSDOF 0
ENDMDL
