MODEL 1
REMARK minimizedAffinity 6.98136902
REMARK minimizedRMSD -1
REMARK  0 active torsions:
REMARK  status: ('A' for Active; 'I' for Inactive)
ROOT
ATOM      1  C4' PXY d   1       4.121   5.290  -0.165  0.00  0.00     0.077 C 
ATOM      2  C1' PXY d   1       5.369   4.737  -5.782  0.00  0.00     0.077 C 
ATOM      3  C1  PXY d   1       5.029   4.884  -4.312  0.00  0.00    -0.082 A 
ATOM      4  C2  PXY d   1       5.962   5.280  -3.461  0.00  0.00     0.003 A 
ATOM      5  C3  PXY d   1       5.681   5.387  -2.123  0.00  0.00     0.003 A 
ATOM      6  C4  PXY d   1       4.417   5.137  -1.659  0.00  0.00    -0.082 A 
ATOM      7  C5  PXY d   1       3.457   4.743  -2.522  0.00  0.00     0.003 A 
ATOM      8  C6  PXY d   1       3.774   4.601  -3.870  0.00  0.00     0.003 A 
ENDROOT
TORSDOF 0
ENDMDL
