MODEL 1
REMARK minimizedAffinity 4.71877241
REMARK minimizedRMSD -1
REMARK  0 active torsions:
REMARK  status: ('A' for Active; 'I' for Inactive)
ROOT
ATOM      1  C4' PXY d   1       5.975   5.424  -0.708  0.00  0.00     0.077 C 
ATOM      2  C1' PXY d   1       3.672   5.088  -6.000  0.00  0.00     0.077 C 
ATOM      3  C1  PXY d   1       4.282   5.165  -4.614  0.00  0.00    -0.082 A 
ATOM      4  C2  PXY d   1       3.689   5.886  -3.677  0.00  0.00     0.003 A 
ATOM      5  C3  PXY d   1       4.244   5.993  -2.428  0.00  0.00     0.003 A 
ATOM      6  C4  PXY d   1       5.390   5.310  -2.119  0.00  0.00    -0.082 A 
ATOM      7  C5  PXY d   1       5.995   4.563  -3.066  0.00  0.00     0.003 A 
ATOM      8  C6  PXY d   1       5.438   4.501  -4.340  0.00  0.00     0.003 A 
ENDROOT
TORSDOF 0
ENDMDL
