MODEL 1
REMARK minimizedAffinity -2.68250608
REMARK minimizedRMSD -1
REMARK  0 active torsions:
REMARK  status: ('A' for Active; 'I' for Inactive)
ROOT
ATOM      1  C4' PXY d   1       1.141  -3.005   2.945  0.00  0.00     0.077 C 
ATOM      2  C1' PXY d   1       6.000  -2.319   6.000  0.00  0.00     0.077 C 
ATOM      3  C1  PXY d   1       4.719  -2.496   5.209  0.00  0.00    -0.082 A 
ATOM      4  C2  PXY d   1       4.724  -3.236   4.112  0.00  0.00     0.003 A 
ATOM      5  C3  PXY d   1       3.582  -3.381   3.368  0.00  0.00     0.003 A 
ATOM      6  C4  PXY d   1       2.409  -2.806   3.780  0.00  0.00    -0.082 A 
ATOM      7  C5  PXY d   1       2.393  -2.059   4.903  0.00  0.00     0.003 A 
ATOM      8  C6  PXY d   1       3.573  -1.890   5.623  0.00  0.00     0.003 A 
ENDROOT
TORSDOF 0
ENDMDL
