MODEL 1
REMARK minimizedAffinity -2.712852
REMARK minimizedRMSD -1
REMARK  0 active torsions:
REMARK  status: ('A' for Active; 'I' for Inactive)
ROOT
ATOM      1  C4' PXY d   1       6.000  -5.629   3.534  0.00  0.00     0.077 C 
ATOM      2  C1' PXY d   1       3.252  -1.132   5.910  0.00  0.00     0.077 C 
ATOM      3  C1  PXY d   1       3.983  -2.309   5.295  0.00  0.00    -0.082 A 
ATOM      4  C2  PXY d   1       3.668  -2.709   4.073  0.00  0.00     0.003 A 
ATOM      5  C3  PXY d   1       4.296  -3.791   3.514  0.00  0.00     0.003 A 
ATOM      6  C4  PXY d   1       5.295  -4.439   4.192  0.00  0.00    -0.082 A 
ATOM      7  C5  PXY d   1       5.629  -4.030   5.434  0.00  0.00     0.003 A 
ATOM      8  C6  PXY d   1       4.951  -2.955   6.000  0.00  0.00     0.003 A 
ENDROOT
TORSDOF 0
ENDMDL
