MODEL 1
REMARK minimizedAffinity -2.26749301
REMARK minimizedRMSD -1
REMARK  0 active torsions:
REMARK  status: ('A' for Active; 'I' for Inactive)
ROOT
ATOM      1  C4' PXY d   1       3.001  -1.213   3.358  0.00  0.00     0.077 C 
ATOM      2  C1' PXY d   1       5.999  -5.392   5.996  0.00  0.00     0.077 C 
ATOM      3  C1  PXY d   1       5.217  -4.300   5.293  0.00  0.00    -0.082 A 
ATOM      4  C2  PXY d   1       4.913  -3.190   5.944  0.00  0.00     0.003 A 
ATOM      5  C3  PXY d   1       4.179  -2.206   5.334  0.00  0.00     0.003 A 
ATOM      6  C4  PXY d   1       3.797  -2.338   4.025  0.00  0.00    -0.082 A 
ATOM      7  C5  PXY d   1       4.112  -3.463   3.350  0.00  0.00     0.003 A 
ATOM      8  C6  PXY d   1       4.823  -4.468   4.001  0.00  0.00     0.003 A 
ENDROOT
TORSDOF 0
ENDMDL
