MODEL 1
REMARK minimizedAffinity 10.0911112
REMARK minimizedRMSD -1
REMARK  0 active torsions:
REMARK  status: ('A' for Active; 'I' for Inactive)
ROOT
ATOM      1  C4' PXY d   1       4.773   2.710  -5.998  0.00  0.00     0.077 C 
ATOM      2  C1' PXY d   1       5.998   5.995  -1.403  0.00  0.00     0.077 C 
ATOM      3  C1  PXY d   1       5.668   5.142  -2.612  0.00  0.00    -0.082 A 
ATOM      4  C2  PXY d   1       5.889   3.838  -2.573  0.00  0.00     0.003 A 
ATOM      5  C3  PXY d   1       5.626   3.057  -3.669  0.00  0.00     0.003 A 
ATOM      6  C4  PXY d   1       5.082   3.608  -4.798  0.00  0.00    -0.082 A 
ATOM      7  C5  PXY d   1       4.844   4.936  -4.842  0.00  0.00     0.003 A 
ATOM      8  C6  PXY d   1       5.156   5.718  -3.733  0.00  0.00     0.003 A 
ENDROOT
TORSDOF 0
ENDMDL
