MODEL 1
REMARK minimizedAffinity 3.95475698
REMARK minimizedRMSD -1
REMARK  0 active torsions:
REMARK  status: ('A' for Active; 'I' for Inactive)
ROOT
ATOM      1  C4' PXY d   1       2.940  -0.836   3.022  0.00  0.00     0.077 C 
ATOM      2  C1' PXY d   1       6.000  -4.733   5.999  0.00  0.00     0.077 C 
ATOM      3  C1  PXY d   1       5.192  -3.707   5.230  0.00  0.00    -0.082 A 
ATOM      4  C2  PXY d   1       4.924  -3.911   3.950  0.00  0.00     0.003 A 
ATOM      5  C3  PXY d   1       4.222  -2.978   3.231  0.00  0.00     0.003 A 
ATOM      6  C4  PXY d   1       3.744  -1.850   3.841  0.00  0.00    -0.082 A 
ATOM      7  C5  PXY d   1       4.004  -1.639   5.148  0.00  0.00     0.003 A 
ATOM      8  C6  PXY d   1       4.753  -2.578   5.851  0.00  0.00     0.003 A 
ENDROOT
TORSDOF 0
ENDMDL
