MODEL 1
REMARK minimizedAffinity 5.58289623
REMARK minimizedRMSD -1
REMARK  0 active torsions:
REMARK  status: ('A' for Active; 'I' for Inactive)
ROOT
ATOM      1  C4' PXY d   1       5.974  -5.342   6.000  0.00  0.00     0.077 C 
ATOM      2  C1' PXY d   1       2.926  -0.506   5.145  0.00  0.00     0.077 C 
ATOM      3  C1  PXY d   1       3.714  -1.781   5.370  0.00  0.00    -0.082 A 
ATOM      4  C2  PXY d   1       4.958  -1.711   5.817  0.00  0.00     0.003 A 
ATOM      5  C3  PXY d   1       5.696  -2.852   5.996  0.00  0.00     0.003 A 
ATOM      6  C4  PXY d   1       5.138  -4.081   5.767  0.00  0.00    -0.082 A 
ATOM      7  C5  PXY d   1       3.866  -4.162   5.321  0.00  0.00     0.003 A 
ATOM      8  C6  PXY d   1       3.147  -2.989   5.106  0.00  0.00     0.003 A 
ENDROOT
TORSDOF 0
ENDMDL
