MODEL 1
REMARK minimizedAffinity 2.70343518
REMARK minimizedRMSD -1
REMARK  0 active torsions:
REMARK  status: ('A' for Active; 'I' for Inactive)
ROOT
ATOM      1  C4' PXY d   1       2.698  -1.123   3.479  0.00  0.00     0.077 C 
ATOM      2  C1' PXY d   1       5.997  -5.146   6.000  0.00  0.00     0.077 C 
ATOM      3  C1  PXY d   1       5.129  -4.086   5.351  0.00  0.00    -0.082 A 
ATOM      4  C2  PXY d   1       4.615  -4.306   4.151  0.00  0.00     0.003 A 
ATOM      5  C3  PXY d   1       3.854  -3.345   3.536  0.00  0.00     0.003 A 
ATOM      6  C4  PXY d   1       3.572  -2.169   4.177  0.00  0.00    -0.082 A 
ATOM      7  C5  PXY d   1       4.084  -1.941   5.405  0.00  0.00     0.003 A 
ATOM      8  C6  PXY d   1       4.888  -2.912   5.996  0.00  0.00     0.003 A 
ENDROOT
TORSDOF 0
ENDMDL
