MODEL 1
REMARK minimizedAffinity 6.42554998
REMARK minimizedRMSD -1
REMARK  0 active torsions:
REMARK  status: ('A' for Active; 'I' for Inactive)
ROOT
ATOM      1  C4' PXY d   1       5.999  -4.721   6.000  0.00  0.00     0.077 C 
ATOM      2  C1' PXY d   1       2.474  -0.989   3.344  0.00  0.00     0.077 C 
ATOM      3  C1  PXY d   1       3.402  -1.958   4.049  0.00  0.00    -0.082 A 
ATOM      4  C2  PXY d   1       3.878  -3.003   3.391  0.00  0.00     0.003 A 
ATOM      5  C3  PXY d   1       4.693  -3.907   4.023  0.00  0.00     0.003 A 
ATOM      6  C4  PXY d   1       5.067  -3.711   5.325  0.00  0.00    -0.082 A 
ATOM      7  C5  PXY d   1       4.594  -2.641   6.000  0.00  0.00     0.003 A 
ATOM      8  C6  PXY d   1       3.735  -1.758   5.353  0.00  0.00     0.003 A 
ENDROOT
TORSDOF 0
ENDMDL
