MODEL 1
REMARK minimizedAffinity -0.926335037
REMARK minimizedRMSD -1
REMARK  1 active torsions:
REMARK  status: ('A' for Active; 'I' for Inactive)
REMARK    1  A    between atoms: C1_2  and  C2_3 
ROOT
ATOM      1  C2  UNL d   1       1.187   2.821   0.459  0.00  0.00    -0.073 A 
ATOM      2  C3  UNL d   1       2.424   2.233   0.169  0.00  0.00    -0.002 A 
ATOM      3  C4  UNL d   1       2.514   0.860  -0.065  0.00  0.00     0.004 A 
ATOM      4  C5  UNL d   1       1.370   0.063  -0.019  0.00  0.00    -0.004 A 
ATOM      5  C6  UNL d   1       0.123   0.634   0.258  0.00  0.00    -0.075 A 
ATOM      6  C7  UNL d   1      -1.116  -0.209   0.314  0.00  0.00     0.076 C 
ATOM      7  C8  UNL d   1       0.041   2.013   0.495  0.00  0.00     0.001 A 
ENDROOT
BRANCH   1   8
ATOM      8  C1  UNL d   1       1.084   4.304   0.706  0.00  0.00     0.053 C 
ATOM      9  C   UNL d   1       2.450   4.952   0.866  0.00  0.00     0.018 C 
ENDBRANCH   1   8
TORSDOF 1
ENDMDL
