MODEL 1
REMARK minimizedAffinity -1.35070539
REMARK minimizedRMSD -1
REMARK  1 active torsions:
REMARK  status: ('A' for Active; 'I' for Inactive)
REMARK    1  A    between atoms: C1_2  and  C2_3 
ROOT
ATOM      1  C2  UNL d   1       0.958   0.438   0.466  0.00  0.00    -0.073 A 
ATOM      2  C3  UNL d   1       0.679   1.383   1.460  0.00  0.00    -0.002 A 
ATOM      3  C4  UNL d   1      -0.631   1.580   1.897  0.00  0.00     0.004 A 
ATOM      4  C5  UNL d   1      -1.674   0.832   1.351  0.00  0.00    -0.004 A 
ATOM      5  C6  UNL d   1      -1.414  -0.125   0.365  0.00  0.00    -0.075 A 
ATOM      6  C7  UNL d   1      -2.525  -0.936  -0.234  0.00  0.00     0.076 C 
ATOM      7  C8  UNL d   1      -0.096  -0.316  -0.071  0.00  0.00     0.001 A 
ENDROOT
BRANCH   1   8
ATOM      8  C1  UNL d   1       2.372   0.216  -0.005  0.00  0.00     0.053 C 
ATOM      9  C   UNL d   1       3.116  -0.776   0.873  0.00  0.00     0.018 C 
ENDBRANCH   1   8
TORSDOF 1
ENDMDL
