MODEL 1
REMARK minimizedAffinity -2.57994914
REMARK minimizedRMSD -1
REMARK  1 active torsions:
REMARK  status: ('A' for Active; 'I' for Inactive)
REMARK    1  A    between atoms: C1_2  and  C2_3 
ROOT
ATOM      1  C2  UNL d   1      -0.358  -0.733   4.192  0.00  0.00    -0.073 A 
ATOM      2  C3  UNL d   1      -0.586   0.569   4.653  0.00  0.00    -0.002 A 
ATOM      3  C4  UNL d   1      -0.057   1.662   3.966  0.00  0.00     0.004 A 
ATOM      4  C5  UNL d   1       0.698   1.466   2.809  0.00  0.00    -0.004 A 
ATOM      5  C6  UNL d   1       0.927   0.173   2.327  0.00  0.00    -0.075 A 
ATOM      6  C7  UNL d   1       1.738  -0.055   1.086  0.00  0.00     0.076 C 
ATOM      7  C8  UNL d   1       0.394  -0.920   3.024  0.00  0.00     0.001 A 
ENDROOT
BRANCH   1   8
ATOM      8  C1  UNL d   1      -0.933  -1.917   4.927  0.00  0.00     0.053 C 
ATOM      9  C   UNL d   1      -2.377  -2.186   4.534  0.00  0.00     0.018 C 
ENDBRANCH   1   8
TORSDOF 1
ENDMDL
