MODEL 1
REMARK minimizedAffinity -2.50598478
REMARK minimizedRMSD -1
REMARK  1 active torsions:
REMARK  status: ('A' for Active; 'I' for Inactive)
REMARK    1  A    between atoms: C1_2  and  C2_3 
ROOT
ATOM      1  C2  UNL d   1       0.908  -0.262   0.954  0.00  0.00    -0.073 A 
ATOM      2  C3  UNL d   1      -0.212  -0.609   0.191  0.00  0.00    -0.002 A 
ATOM      3  C4  UNL d   1      -1.489  -0.220   0.595  0.00  0.00     0.004 A 
ATOM      4  C5  UNL d   1      -1.659   0.526   1.762  0.00  0.00    -0.004 A 
ATOM      5  C6  UNL d   1      -0.551   0.892   2.532  0.00  0.00    -0.075 A 
ATOM      6  C7  UNL d   1      -0.717   1.692   3.791  0.00  0.00     0.076 C 
ATOM      7  C8  UNL d   1       0.728   0.495   2.121  0.00  0.00     0.001 A 
ENDROOT
BRANCH   1   8
ATOM      8  C1  UNL d   1       2.290  -0.675   0.518  0.00  0.00     0.053 C 
ATOM      9  C   UNL d   1       3.063   0.481  -0.097  0.00  0.00     0.018 C 
ENDBRANCH   1   8
TORSDOF 1
ENDMDL
