MODEL 1
REMARK minimizedAffinity -5.96869469
REMARK minimizedRMSD -1
REMARK  1 active torsions:
REMARK  status: ('A' for Active; 'I' for Inactive)
REMARK    1  A    between atoms: C1_2  and  C2_3 
ROOT
ATOM      1  C2  UNL d   1       0.600  -0.240  -0.274  0.00  0.00    -0.073 A 
ATOM      2  C3  UNL d   1       1.857  -0.652   0.183  0.00  0.00    -0.002 A 
ATOM      3  C4  UNL d   1       2.232  -0.431   1.509  0.00  0.00     0.004 A 
ATOM      4  C5  UNL d   1       1.353   0.196   2.392  0.00  0.00    -0.004 A 
ATOM      5  C6  UNL d   1       0.088   0.604   1.958  0.00  0.00    -0.075 A 
ATOM      6  C7  UNL d   1      -0.868   1.282   2.895  0.00  0.00     0.076 C 
ATOM      7  C8  UNL d   1      -0.280   0.382   0.624  0.00  0.00     0.001 A 
ENDROOT
BRANCH   1   8
ATOM      8  C1  UNL d   1       0.188  -0.481  -1.703  0.00  0.00     0.053 C 
ATOM      9  C   UNL d   1       1.254  -0.026  -2.688  0.00  0.00     0.018 C 
ENDBRANCH   1   8
TORSDOF 1
ENDMDL
