MODEL 1
REMARK minimizedAffinity -4.41314697
REMARK minimizedRMSD -1
REMARK  1 active torsions:
REMARK  status: ('A' for Active; 'I' for Inactive)
REMARK    1  A    between atoms: C1_2  and  C2_3 
ROOT
ATOM      1  C2  UNL d   1       1.349   0.146  -2.077  0.00  0.00    -0.073 A 
ATOM      2  C3  UNL d   1       2.157  -0.689  -1.297  0.00  0.00    -0.002 A 
ATOM      3  C4  UNL d   1       1.758  -1.054  -0.010  0.00  0.00     0.004 A 
ATOM      4  C5  UNL d   1       0.546  -0.595   0.506  0.00  0.00    -0.004 A 
ATOM      5  C6  UNL d   1      -0.280   0.230  -0.263  0.00  0.00    -0.075 A 
ATOM      6  C7  UNL d   1      -1.586   0.734   0.278  0.00  0.00     0.076 C 
ATOM      7  C8  UNL d   1       0.128   0.595  -1.553  0.00  0.00     0.001 A 
ENDROOT
BRANCH   1   8
ATOM      8  C1  UNL d   1       1.773   0.537  -3.469  0.00  0.00     0.053 C 
ATOM      9  C   UNL d   1       1.095   1.817  -3.932  0.00  0.00     0.018 C 
ENDBRANCH   1   8
TORSDOF 1
ENDMDL
