MODEL 1
REMARK minimizedAffinity -4.4149332
REMARK minimizedRMSD -1
REMARK  1 active torsions:
REMARK  status: ('A' for Active; 'I' for Inactive)
REMARK    1  A    between atoms: C1_2  and  C2_3 
ROOT
ATOM      1  C2  UNL d   1       0.298  -0.626  -1.336  0.00  0.00    -0.073 A 
ATOM      2  C3  UNL d   1       1.543  -0.894  -0.756  0.00  0.00    -0.002 A 
ATOM      3  C4  UNL d   1       1.731  -0.726   0.617  0.00  0.00     0.004 A 
ATOM      4  C5  UNL d   1       0.678  -0.294   1.422  0.00  0.00    -0.004 A 
ATOM      5  C6  UNL d   1      -0.577  -0.032   0.863  0.00  0.00    -0.075 A 
ATOM      6  C7  UNL d   1      -1.720   0.435   1.715  0.00  0.00     0.076 C 
ATOM      7  C8  UNL d   1      -0.758  -0.201  -0.517  0.00  0.00     0.001 A 
ENDROOT
BRANCH   1   8
ATOM      8  C1  UNL d   1       0.087  -0.813  -2.817  0.00  0.00     0.053 C 
ATOM      9  C   UNL d   1       0.837   0.226  -3.635  0.00  0.00     0.018 C 
ENDBRANCH   1   8
TORSDOF 1
ENDMDL
