MODEL 1
REMARK minimizedAffinity 1.93585384
REMARK minimizedRMSD -1
REMARK  1 active torsions:
REMARK  status: ('A' for Active; 'I' for Inactive)
REMARK    1  A    between atoms: C1_2  and  C2_3 
ROOT
ATOM      1  C2  UNL d   1       0.051  -0.660   3.219  0.00  0.00    -0.073 A 
ATOM      2  C3  UNL d   1      -1.237  -0.498   3.743  0.00  0.00    -0.002 A 
ATOM      3  C4  UNL d   1      -2.272  -0.026   2.935  0.00  0.00     0.004 A 
ATOM      4  C5  UNL d   1      -2.034   0.281   1.596  0.00  0.00    -0.004 A 
ATOM      5  C6  UNL d   1      -0.757   0.114   1.051  0.00  0.00    -0.075 A 
ATOM      6  C7  UNL d   1      -0.483   0.443  -0.388  0.00  0.00     0.076 C 
ATOM      7  C8  UNL d   1       0.279  -0.357   1.869  0.00  0.00     0.001 A 
ENDROOT
BRANCH   1   8
ATOM      8  C1  UNL d   1       1.171  -1.175   4.086  0.00  0.00     0.053 C 
ATOM      9  C   UNL d   1       0.696  -1.511   5.491  0.00  0.00     0.018 C 
ENDBRANCH   1   8
TORSDOF 1
ENDMDL
