MODEL 1
REMARK minimizedAffinity -5.7695303
REMARK minimizedRMSD -1
REMARK  1 active torsions:
REMARK  status: ('A' for Active; 'I' for Inactive)
REMARK    1  A    between atoms: C1_2  and  C2_3 
ROOT
ATOM      1  C2  UNL d   1       0.575   0.037  -1.637  0.00  0.00    -0.073 A 
ATOM      2  C3  UNL d   1       1.669  -0.486  -0.938  0.00  0.00    -0.002 A 
ATOM      3  C4  UNL d   1       1.635  -0.584   0.454  0.00  0.00     0.004 A 
ATOM      4  C5  UNL d   1       0.505  -0.169   1.159  0.00  0.00    -0.004 A 
ATOM      5  C6  UNL d   1      -0.603   0.345   0.478  0.00  0.00    -0.075 A 
ATOM      6  C7  UNL d   1      -1.824   0.799   1.222  0.00  0.00     0.076 C 
ATOM      7  C8  UNL d   1      -0.559   0.443  -0.920  0.00  0.00     0.001 A 
ENDROOT
BRANCH   1   8
ATOM      8  C1  UNL d   1       0.605   0.139  -3.140  0.00  0.00     0.053 C 
ATOM      9  C   UNL d   1       1.965   0.583  -3.654  0.00  0.00     0.018 C 
ENDBRANCH   1   8
TORSDOF 1
ENDMDL
