MODEL 1
REMARK minimizedAffinity 16.7438011
REMARK minimizedRMSD -1
REMARK  0 active torsions:
REMARK  status: ('A' for Active; 'I' for Inactive)
ROOT
ATOM      1  C   UNL d   1      -1.949   3.404  -3.057  0.00  0.00     0.124 A 
ATOM      2  C1  UNL d   1      -2.864   3.749  -2.072  0.00  0.00     0.062 A 
ATOM      3  C2  UNL d   1      -4.021   4.447  -2.406  0.00  0.00     0.162 A 
ATOM      4  C3  UNL d   1      -4.271   4.804  -3.731  0.00  0.00    -0.034 A 
ATOM      5  C4  UNL d   1      -3.345   4.454  -4.716  0.00  0.00     0.162 A 
ATOM      6  C5  UNL d   1      -2.190   3.756  -4.378  0.00  0.00     0.062 A 
ATOM      7  F   UNL d   1      -1.307   3.423  -5.330  0.00  0.00    -0.097 F 
ATOM      8  F1  UNL d   1      -3.554   4.781  -6.000  0.00  0.00    -0.096 F 
ATOM      9  I   UNL d   1      -6.000   5.847  -4.234  0.00  0.00    -0.060 I 
ATOM     10  F2  UNL d   1      -4.888   4.768  -1.434  0.00  0.00    -0.096 F 
ATOM     11  F3  UNL d   1      -2.633   3.411  -0.796  0.00  0.00    -0.097 F 
ATOM     12  F4  UNL d   1      -0.836   2.733  -2.733  0.00  0.00    -0.092 F 
ENDROOT
TORSDOF 0
ENDMDL
