MODEL 1
REMARK minimizedAffinity 0.638413608
REMARK minimizedRMSD -1
REMARK  0 active torsions:
REMARK  status: ('A' for Active; 'I' for Inactive)
ROOT
ATOM      1  C   UNL d   1      -1.474   2.652   2.403  0.00  0.00     0.124 A 
ATOM      2  C1  UNL d   1      -1.476   3.094   1.087  0.00  0.00     0.062 A 
ATOM      3  C2  UNL d   1      -0.798   2.377   0.106  0.00  0.00     0.162 A 
ATOM      4  C3  UNL d   1      -0.112   1.208   0.436  0.00  0.00    -0.034 A 
ATOM      5  C4  UNL d   1      -0.113   0.770   1.761  0.00  0.00     0.162 A 
ATOM      6  C5  UNL d   1      -0.792   1.490   2.738  0.00  0.00     0.062 A 
ATOM      7  F   UNL d   1      -0.788   1.061   4.009  0.00  0.00    -0.097 F 
ATOM      8  F1  UNL d   1       0.537  -0.349   2.113  0.00  0.00    -0.096 F 
ATOM      9  I   UNL d   1       0.903   0.133  -1.029  0.00  0.00    -0.060 I 
ATOM     10  F2  UNL d   1      -0.818   2.828  -1.157  0.00  0.00    -0.096 F 
ATOM     11  F3  UNL d   1      -2.133   4.217   0.760  0.00  0.00    -0.097 F 
ATOM     12  F4  UNL d   1      -2.126   3.344   3.345  0.00  0.00    -0.092 F 
ENDROOT
TORSDOF 0
ENDMDL
