MODEL 1
REMARK minimizedAffinity 6.94226885
REMARK minimizedRMSD -1
REMARK  0 active torsions:
REMARK  status: ('A' for Active; 'I' for Inactive)
ROOT
ATOM      1  C   UNL d   1      -1.013   1.560   3.137  0.00  0.00     0.124 A 
ATOM      2  C1  UNL d   1      -0.171   0.854   2.288  0.00  0.00     0.062 A 
ATOM      3  C2  UNL d   1      -0.068   1.214   0.947  0.00  0.00     0.162 A 
ATOM      4  C3  UNL d   1      -0.807   2.286   0.447  0.00  0.00    -0.034 A 
ATOM      5  C4  UNL d   1      -1.652   2.990   1.307  0.00  0.00     0.162 A 
ATOM      6  C5  UNL d   1      -1.752   2.627   2.646  0.00  0.00     0.062 A 
ATOM      7  F   UNL d   1      -2.565   3.310   3.465  0.00  0.00    -0.097 F 
ATOM      8  F1  UNL d   1      -2.377   4.026   0.859  0.00  0.00    -0.096 F 
ATOM      9  I   UNL d   1      -0.655   2.827  -1.557  0.00  0.00    -0.060 I 
ATOM     10  F2  UNL d   1       0.753   0.514   0.150  0.00  0.00    -0.096 F 
ATOM     11  F3  UNL d   1       0.543  -0.178   2.760  0.00  0.00    -0.097 F 
ATOM     12  F4  UNL d   1      -1.111   1.211   4.426  0.00  0.00    -0.092 F 
ENDROOT
TORSDOF 0
ENDMDL
