MODEL 1
REMARK minimizedAffinity 17.0096989
REMARK minimizedRMSD -1
REMARK  0 active torsions:
REMARK  status: ('A' for Active; 'I' for Inactive)
ROOT
ATOM      1  C   UNL d   1       0.815   0.566   0.185  0.00  0.00     0.124 A 
ATOM      2  C1  UNL d   1       1.075   1.392   1.270  0.00  0.00     0.062 A 
ATOM      3  C2  UNL d   1       0.135   2.336   1.673  0.00  0.00     0.162 A 
ATOM      4  C3  UNL d   1      -1.076   2.459   0.991  0.00  0.00    -0.034 A 
ATOM      5  C4  UNL d   1      -1.330   1.625  -0.099  0.00  0.00     0.162 A 
ATOM      6  C5  UNL d   1      -0.387   0.683  -0.498  0.00  0.00     0.062 A 
ATOM      7  F   UNL d   1      -0.641  -0.114  -1.546  0.00  0.00    -0.097 F 
ATOM      8  F1  UNL d   1      -2.484   1.717  -0.777  0.00  0.00    -0.096 F 
ATOM      9  I   UNL d   1      -2.484   3.869   1.590  0.00  0.00    -0.060 I 
ATOM     10  F2  UNL d   1       0.414   3.121   2.724  0.00  0.00    -0.096 F 
ATOM     11  F3  UNL d   1       2.236   1.281   1.932  0.00  0.00    -0.097 F 
ATOM     12  F4  UNL d   1       1.721  -0.341  -0.201  0.00  0.00    -0.092 F 
ENDROOT
TORSDOF 0
ENDMDL
