MODEL 1
REMARK minimizedAffinity 13.7878027
REMARK minimizedRMSD -1
REMARK  0 active torsions:
REMARK  status: ('A' for Active; 'I' for Inactive)
ROOT
ATOM      1  C   UNL d   1      -3.049   2.651  -1.829  0.00  0.00     0.124 A 
ATOM      2  C1  UNL d   1      -3.389   2.387  -3.148  0.00  0.00     0.062 A 
ATOM      3  C2  UNL d   1      -4.067   3.341  -3.901  0.00  0.00     0.162 A 
ATOM      4  C3  UNL d   1      -4.409   4.570  -3.336  0.00  0.00    -0.034 A 
ATOM      5  C4  UNL d   1      -4.065   4.828  -2.008  0.00  0.00     0.162 A 
ATOM      6  C5  UNL d   1      -3.387   3.871  -1.260  0.00  0.00     0.062 A 
ATOM      7  F   UNL d   1      -3.059   4.128   0.014  0.00  0.00    -0.097 F 
ATOM      8  F1  UNL d   1      -4.378   5.999  -1.434  0.00  0.00    -0.096 F 
ATOM      9  I   UNL d   1      -5.423   6.000  -4.459  0.00  0.00    -0.060 I 
ATOM     10  F2  UNL d   1      -4.383   3.059  -5.174  0.00  0.00    -0.096 F 
ATOM     11  F3  UNL d   1      -3.064   1.209  -3.700  0.00  0.00    -0.097 F 
ATOM     12  F4  UNL d   1      -2.397   1.731  -1.107  0.00  0.00    -0.092 F 
ENDROOT
TORSDOF 0
ENDMDL
