MODEL 1
REMARK minimizedAffinity 3.2844727
REMARK minimizedRMSD -1
REMARK  0 active torsions:
REMARK  status: ('A' for Active; 'I' for Inactive)
ROOT
ATOM      1  C   UNL d   1       1.762   4.344   0.762  0.00  0.00     0.124 A 
ATOM      2  C1  UNL d   1       0.803   4.563  -0.217  0.00  0.00     0.062 A 
ATOM      3  C2  UNL d   1      -0.457   3.983  -0.105  0.00  0.00     0.162 A 
ATOM      4  C3  UNL d   1      -0.766   3.178   0.992  0.00  0.00    -0.034 A 
ATOM      5  C4  UNL d   1       0.205   2.962   1.972  0.00  0.00     0.162 A 
ATOM      6  C5  UNL d   1       1.463   3.544   1.855  0.00  0.00     0.062 A 
ATOM      7  F   UNL d   1       2.388   3.331   2.802  0.00  0.00    -0.097 F 
ATOM      8  F1  UNL d   1      -0.059   2.193   3.040  0.00  0.00    -0.096 F 
ATOM      9  I   UNL d   1      -2.649   2.308   1.164  0.00  0.00    -0.060 I 
ATOM     10  F2  UNL d   1      -1.364   4.211  -1.066  0.00  0.00    -0.096 F 
ATOM     11  F3  UNL d   1       1.091   5.335  -1.275  0.00  0.00    -0.097 F 
ATOM     12  F4  UNL d   1       2.974   4.903   0.650  0.00  0.00    -0.092 F 
ENDROOT
TORSDOF 0
ENDMDL
