MODEL 1
REMARK minimizedAffinity 16.1700573
REMARK minimizedRMSD -1
REMARK  0 active torsions:
REMARK  status: ('A' for Active; 'I' for Inactive)
ROOT
ATOM      1  C   UNL d   1       0.031   4.407  -1.091  0.00  0.00     0.124 A 
ATOM      2  C1  UNL d   1       0.860   4.534   0.015  0.00  0.00     0.062 A 
ATOM      3  C2  UNL d   1       0.676   3.713   1.124  0.00  0.00     0.162 A 
ATOM      4  C3  UNL d   1      -0.339   2.757   1.132  0.00  0.00    -0.034 A 
ATOM      5  C4  UNL d   1      -1.169   2.636   0.016  0.00  0.00     0.162 A 
ATOM      6  C5  UNL d   1      -0.982   3.459  -1.090  0.00  0.00     0.062 A 
ATOM      7  F   UNL d   1      -1.784   3.336  -2.158  0.00  0.00    -0.097 F 
ATOM      8  F1  UNL d   1      -2.156   1.728  -0.010  0.00  0.00    -0.096 F 
ATOM      9  I   UNL d   1      -0.617   1.528   2.789  0.00  0.00    -0.060 I 
ATOM     10  F2  UNL d   1       1.492   3.857   2.180  0.00  0.00    -0.096 F 
ATOM     11  F3  UNL d   1       1.839   5.450   0.017  0.00  0.00    -0.097 F 
ATOM     12  F4  UNL d   1       0.209   5.199  -2.157  0.00  0.00    -0.092 F 
ENDROOT
TORSDOF 0
ENDMDL
