MODEL 1
REMARK minimizedAffinity 9.85552406
REMARK minimizedRMSD -1
REMARK  0 active torsions:
REMARK  status: ('A' for Active; 'I' for Inactive)
ROOT
ATOM      1  C   UNL d   1      -0.107   1.627   2.060  0.00  0.00     0.124 A 
ATOM      2  C1  UNL d   1      -1.379   1.429   1.540  0.00  0.00     0.062 A 
ATOM      3  C2  UNL d   1      -1.559   0.625   0.418  0.00  0.00     0.162 A 
ATOM      4  C3  UNL d   1      -0.465   0.011  -0.191  0.00  0.00    -0.034 A 
ATOM      5  C4  UNL d   1       0.811   0.215   0.337  0.00  0.00     0.162 A 
ATOM      6  C5  UNL d   1       0.986   1.020   1.458  0.00  0.00     0.062 A 
ATOM      7  F   UNL d   1       2.216   1.210   1.959  0.00  0.00    -0.097 F 
ATOM      8  F1  UNL d   1       1.885  -0.360  -0.224  0.00  0.00    -0.096 F 
ATOM      9  I   UNL d   1      -0.731  -1.193  -1.868  0.00  0.00    -0.060 I 
ATOM     10  F2  UNL d   1      -2.799   0.451  -0.063  0.00  0.00    -0.096 F 
ATOM     11  F3  UNL d   1      -2.437   2.015   2.118  0.00  0.00    -0.097 F 
ATOM     12  F4  UNL d   1       0.064   2.402   3.138  0.00  0.00    -0.092 F 
ENDROOT
TORSDOF 0
ENDMDL
