MODEL 1
REMARK minimizedAffinity 12.6848946
REMARK minimizedRMSD -1
REMARK  0 active torsions:
REMARK  status: ('A' for Active; 'I' for Inactive)
ROOT
ATOM      1  C   UNL d   1       3.869  -4.985  -2.270  0.00  0.00     0.124 A 
ATOM      2  C1  UNL d   1       2.781  -4.803  -1.428  0.00  0.00     0.062 A 
ATOM      3  C2  UNL d   1       2.769  -3.750  -0.517  0.00  0.00     0.162 A 
ATOM      4  C3  UNL d   1       3.850  -2.871  -0.444  0.00  0.00    -0.034 A 
ATOM      5  C4  UNL d   1       4.941  -3.062  -1.293  0.00  0.00     0.162 A 
ATOM      6  C5  UNL d   1       4.948  -4.115  -2.202  0.00  0.00     0.062 A 
ATOM      7  F   UNL d   1       6.000  -4.290  -3.014  0.00  0.00    -0.097 F 
ATOM      8  F1  UNL d   1       5.996  -2.235  -1.250  0.00  0.00    -0.096 F 
ATOM      9  I   UNL d   1       3.836  -1.295   0.916  0.00  0.00    -0.060 I 
ATOM     10  F2  UNL d   1       1.704  -3.597   0.284  0.00  0.00    -0.096 F 
ATOM     11  F3  UNL d   1       1.737  -5.643  -1.491  0.00  0.00    -0.097 F 
ATOM     12  F4  UNL d   1       3.878  -6.000  -3.144  0.00  0.00    -0.092 F 
ENDROOT
TORSDOF 0
ENDMDL
