MODEL 1
REMARK minimizedAffinity -6.60952616
REMARK minimizedRMSD -1
REMARK  0 active torsions:
REMARK  status: ('A' for Active; 'I' for Inactive)
ROOT
ATOM      1  C1  DEN d   1      -0.655  -0.883   0.581  0.00  0.00     0.130 A 
ATOM      2  C2  DEN d   1      -0.513   0.347  -0.193  0.00  0.00    -0.031 A 
ATOM      3  C3  DEN d   1       0.899   0.772  -0.120  0.00  0.00     0.027 A 
ATOM      4  C4  DEN d   1       2.870  -0.351   1.107  0.00  0.00     0.027 A 
ATOM      5  C5  DEN d   1       3.237  -1.410   1.908  0.00  0.00    -0.003 A 
ATOM      6  C6  DEN d   1       2.333  -2.340   2.348  0.00  0.00     0.001 A 
ATOM      7  C7  DEN d   1       1.025  -2.256   1.951  0.00  0.00     0.017 A 
ATOM      8  C8  DEN d   1       0.646  -1.187   1.149  0.00  0.00    -0.094 A 
ATOM      9  C9  DEN d   1       1.577  -0.264   0.705  0.00  0.00    -0.072 A 
ENDROOT
TORSDOF 0
ENDMDL
