MODEL 1
REMARK minimizedAffinity -6.43288088
REMARK minimizedRMSD -1
REMARK  0 active torsions:
REMARK  status: ('A' for Active; 'I' for Inactive)
ROOT
ATOM      1  C1  DEN d   1       0.364  -2.529   1.829  0.00  0.00     0.130 A 
ATOM      2  C2  DEN d   1       1.769  -2.899   1.971  0.00  0.00    -0.031 A 
ATOM      3  C3  DEN d   1       2.590  -1.770   1.489  0.00  0.00     0.027 A 
ATOM      4  C4  DEN d   1       1.825   0.505   0.545  0.00  0.00     0.027 A 
ATOM      5  C5  DEN d   1       0.729   1.274   0.219  0.00  0.00    -0.003 A 
ATOM      6  C6  DEN d   1      -0.554   0.821   0.375  0.00  0.00     0.001 A 
ATOM      7  C7  DEN d   1      -0.775  -0.420   0.911  0.00  0.00     0.017 A 
ATOM      8  C8  DEN d   1       0.325  -1.205   1.234  0.00  0.00    -0.094 A 
ATOM      9  C9  DEN d   1       1.614  -0.723   1.081  0.00  0.00    -0.072 A 
ENDROOT
TORSDOF 0
ENDMDL
