MODEL 1
REMARK minimizedAffinity -4.53471518
REMARK minimizedRMSD -1
REMARK  0 active torsions:
REMARK  status: ('A' for Active; 'I' for Inactive)
ROOT
ATOM      1  C1  DEN d   1      -0.367   0.871  -0.162  0.00  0.00     0.130 A 
ATOM      2  C2  DEN d   1       0.167   2.155  -0.611  0.00  0.00    -0.031 A 
ATOM      3  C3  DEN d   1       1.625   2.150  -0.374  0.00  0.00     0.027 A 
ATOM      4  C4  DEN d   1       3.100   0.289   0.633  0.00  0.00     0.027 A 
ATOM      5  C5  DEN d   1       3.095  -0.978   1.172  0.00  0.00    -0.003 A 
ATOM      6  C6  DEN d   1       1.942  -1.699   1.334  0.00  0.00     0.001 A 
ATOM      7  C7  DEN d   1       0.749  -1.175   0.912  0.00  0.00     0.017 A 
ATOM      8  C8  DEN d   1       0.744   0.106   0.374  0.00  0.00    -0.094 A 
ATOM      9  C9  DEN d   1       1.923   0.813   0.207  0.00  0.00    -0.072 A 
ENDROOT
TORSDOF 0
ENDMDL
