MODEL 1
REMARK minimizedAffinity -1.35900366
REMARK minimizedRMSD -1
REMARK  0 active torsions:
REMARK  status: ('A' for Active; 'I' for Inactive)
ROOT
ATOM      1  C1  DEN d   1      -0.200  -0.212   1.274  0.00  0.00     0.130 A 
ATOM      2  C2  DEN d   1       0.006   0.893   0.342  0.00  0.00    -0.031 A 
ATOM      3  C3  DEN d   1       1.194   1.650   0.786  0.00  0.00     0.027 A 
ATOM      4  C4  DEN d   1       2.729   1.216   2.813  0.00  0.00     0.027 A 
ATOM      5  C5  DEN d   1       2.947   0.401   3.903  0.00  0.00    -0.003 A 
ATOM      6  C6  DEN d   1       2.118  -0.645   4.209  0.00  0.00     0.001 A 
ATOM      7  C7  DEN d   1       1.058  -0.933   3.391  0.00  0.00     0.017 A 
ATOM      8  C8  DEN d   1       0.827  -0.112   2.295  0.00  0.00    -0.094 A 
ATOM      9  C9  DEN d   1       1.684   0.934   1.996  0.00  0.00    -0.072 A 
ENDROOT
TORSDOF 0
ENDMDL
