MODEL 1
REMARK minimizedAffinity -3.50545359
REMARK minimizedRMSD -1
REMARK  0 active torsions:
REMARK  status: ('A' for Active; 'I' for Inactive)
ROOT
ATOM      1  C   UNL d   1       0.482  -0.273   0.037  0.00  0.00     0.172 C 
ATOM      2  N   UNL d   1      -0.269   0.852   0.542  0.00  0.00    -0.070 N 
ATOM      3  C1  UNL d   1       0.129   1.691   1.549  0.00  0.00    -0.004 A 
ATOM      4  C2  UNL d   1      -0.862   2.631   1.732  0.00  0.00    -0.047 A 
ATOM      5  C3  UNL d   1      -1.892   2.346   0.804  0.00  0.00    -0.047 A 
ATOM      6  C4  UNL d   1      -1.499   1.240   0.080  0.00  0.00    -0.004 A 
ENDROOT
TORSDOF 0
ENDMDL
