MODEL 1
REMARK minimizedAffinity -0.770836711
REMARK minimizedRMSD -1
REMARK  0 active torsions:
REMARK  status: ('A' for Active; 'I' for Inactive)
ROOT
ATOM      1  C   UNL d   1      -0.077  -3.192  -1.242  0.00  0.00     0.172 C 
ATOM      2  N   UNL d   1      -0.073  -1.852  -0.704  0.00  0.00    -0.070 N 
ATOM      3  C1  UNL d   1       0.855  -0.884  -0.980  0.00  0.00    -0.004 A 
ATOM      4  C2  UNL d   1       0.507   0.248  -0.275  0.00  0.00    -0.047 A 
ATOM      5  C3  UNL d   1      -0.671  -0.050   0.450  0.00  0.00    -0.047 A 
ATOM      6  C4  UNL d   1      -1.008  -1.357   0.166  0.00  0.00    -0.004 A 
ENDROOT
TORSDOF 0
ENDMDL
