MODEL 1
REMARK minimizedAffinity -1.6479497
REMARK minimizedRMSD -1
REMARK  0 active torsions:
REMARK  status: ('A' for Active; 'I' for Inactive)
ROOT
ATOM      1  C   UNL d   1      -0.661   2.339   1.960  0.00  0.00     0.172 C 
ATOM      2  N   UNL d   1      -0.193   1.139   1.309  0.00  0.00    -0.070 N 
ATOM      3  C1  UNL d   1       0.562   0.156   1.892  0.00  0.00    -0.004 A 
ATOM      4  C2  UNL d   1       0.799  -0.814   0.943  0.00  0.00    -0.047 A 
ATOM      5  C3  UNL d   1       0.166  -0.400  -0.253  0.00  0.00    -0.047 A 
ATOM      6  C4  UNL d   1      -0.440   0.812   0.002  0.00  0.00    -0.004 A 
ENDROOT
TORSDOF 0
ENDMDL
