MODEL 1
REMARK minimizedAffinity -3.23075438
REMARK minimizedRMSD -1
REMARK  0 active torsions:
REMARK  status: ('A' for Active; 'I' for Inactive)
ROOT
ATOM      1  C   UNL d   1       0.500  -0.576  -0.444  0.00  0.00     0.172 C 
ATOM      2  N   UNL d   1      -0.033   0.604   0.196  0.00  0.00    -0.070 N 
ATOM      3  C1  UNL d   1      -0.004   0.865   1.540  0.00  0.00    -0.004 A 
ATOM      4  C2  UNL d   1      -0.611   2.085   1.746  0.00  0.00    -0.047 A 
ATOM      5  C3  UNL d   1      -1.019   2.574   0.482  0.00  0.00    -0.047 A 
ATOM      6  C4  UNL d   1      -0.649   1.637  -0.459  0.00  0.00    -0.004 A 
ENDROOT
TORSDOF 0
ENDMDL
