MODEL 1
REMARK minimizedAffinity -1.37155783
REMARK minimizedRMSD -1
REMARK  0 active torsions:
REMARK  status: ('A' for Active; 'I' for Inactive)
ROOT
ATOM      1  C   UNL d   1       0.006   2.632   2.240  0.00  0.00     0.172 C 
ATOM      2  N   UNL d   1       0.011   1.499   1.344  0.00  0.00    -0.070 N 
ATOM      3  C1  UNL d   1       0.066   0.184   1.721  0.00  0.00    -0.004 A 
ATOM      4  C2  UNL d   1       0.050  -0.584   0.577  0.00  0.00    -0.047 A 
ATOM      5  C3  UNL d   1      -0.017   0.300  -0.526  0.00  0.00    -0.047 A 
ATOM      6  C4  UNL d   1      -0.040   1.584  -0.022  0.00  0.00    -0.004 A 
ENDROOT
TORSDOF 0
ENDMDL
