MODEL 1
REMARK minimizedAffinity -3.13577247
REMARK minimizedRMSD -1
REMARK  3 active torsions:
REMARK  status: ('A' for Active; 'I' for Inactive)
REMARK    1  A    between atoms: C3'_2  and  C2'_3 
REMARK    2  A    between atoms: C2'_3  and  C1'_4 
REMARK    3  A    between atoms: C1'_4  and  C1_5 
ROOT
ATOM      1  C1  N4B d   1      -0.800  -0.881   0.634  0.00  0.00    -0.075 A 
ATOM      2  C2  N4B d   1      -2.120  -0.391   0.536  0.00  0.00     0.002 A 
ATOM      3  C3  N4B d   1      -2.462   0.462  -0.485  0.00  0.00     0.002 A 
ATOM      4  C4  N4B d   1      -1.499   0.852  -1.404  0.00  0.00    -0.004 A 
ATOM      5  C5  N4B d   1      -0.232   0.354  -1.316  0.00  0.00     0.002 A 
ATOM      6  C6  N4B d   1       0.124  -0.507  -0.298  0.00  0.00     0.002 A 
ENDROOT
BRANCH   1   7
ATOM      7  C1' N4B d   1      -0.358  -1.748   1.782  0.00  0.00     0.057 C 
BRANCH   7   8
ATOM      8  C2' N4B d   1      -0.557  -0.988   3.089  0.00  0.00     0.009 C 
BRANCH   8   9
ATOM      9  C3' N4B d   1       0.142   0.361   3.075  0.00  0.00     0.004 C 
ATOM     10  C4' N4B d   1      -0.756   1.486   3.496  0.00  0.00     0.003 C 
ENDBRANCH   8   9
ENDBRANCH   7   8
ENDBRANCH   1   7
TORSDOF 3
ENDMDL
