MODEL 1
REMARK minimizedAffinity -3.51900649
REMARK minimizedRMSD -1
REMARK  3 active torsions:
REMARK  status: ('A' for Active; 'I' for Inactive)
REMARK    1  A    between atoms: C3'_2  and  C2'_3 
REMARK    2  A    between atoms: C2'_3  and  C1'_4 
REMARK    3  A    between atoms: C1'_4  and  C1_5 
ROOT
ATOM      1  C1  N4B d   1      -1.109   0.579   0.954  0.00  0.00    -0.075 A 
ATOM      2  C2  N4B d   1      -2.336   0.801   0.291  0.00  0.00     0.002 A 
ATOM      3  C3  N4B d   1      -3.453   1.143   1.012  0.00  0.00     0.002 A 
ATOM      4  C4  N4B d   1      -3.373   1.250   2.392  0.00  0.00    -0.004 A 
ATOM      5  C5  N4B d   1      -2.178   1.058   3.023  0.00  0.00     0.002 A 
ATOM      6  C6  N4B d   1      -1.046   0.718   2.311  0.00  0.00     0.002 A 
ENDROOT
BRANCH   1   7
ATOM      7  C1' N4B d   1       0.120   0.119   0.218  0.00  0.00     0.057 C 
BRANCH   7   8
ATOM      8  C2' N4B d   1       1.128  -0.432   1.222  0.00  0.00     0.009 C 
BRANCH   8   9
ATOM      9  C3' N4B d   1       2.323   0.490   1.392  0.00  0.00     0.004 C 
ATOM     10  C4' N4B d   1       2.263   1.690   0.495  0.00  0.00     0.003 C 
ENDBRANCH   8   9
ENDBRANCH   7   8
ENDBRANCH   1   7
TORSDOF 3
ENDMDL
