MODEL 1
REMARK minimizedAffinity -4.5587678
REMARK minimizedRMSD -1
REMARK  3 active torsions:
REMARK  status: ('A' for Active; 'I' for Inactive)
REMARK    1  A    between atoms: C3'_2  and  C2'_3 
REMARK    2  A    between atoms: C2'_3  and  C1'_4 
REMARK    3  A    between atoms: C1'_4  and  C1_5 
ROOT
ATOM      1  C1  N4B d   1      -0.376   0.356   1.588  0.00  0.00    -0.075 A 
ATOM      2  C2  N4B d   1      -0.186   1.309   0.563  0.00  0.00     0.002 A 
ATOM      3  C3  N4B d   1       0.254   0.907  -0.674  0.00  0.00     0.002 A 
ATOM      4  C4  N4B d   1       0.528  -0.433  -0.903  0.00  0.00    -0.004 A 
ATOM      5  C5  N4B d   1       0.318  -1.350   0.085  0.00  0.00     0.002 A 
ATOM      6  C6  N4B d   1      -0.128  -0.961   1.332  0.00  0.00     0.002 A 
ENDROOT
BRANCH   1   7
ATOM      7  C1' N4B d   1      -0.773   0.758   2.982  0.00  0.00     0.057 C 
BRANCH   7   8
ATOM      8  C2' N4B d   1      -2.107   0.105   3.331  0.00  0.00     0.009 C 
BRANCH   8   9
ATOM      9  C3' N4B d   1      -3.259   0.714   2.549  0.00  0.00     0.004 C 
ATOM     10  C4' N4B d   1      -3.413   2.185   2.793  0.00  0.00     0.003 C 
ENDBRANCH   8   9
ENDBRANCH   7   8
ENDBRANCH   1   7
TORSDOF 3
ENDMDL
