MODEL 1
REMARK minimizedAffinity -4.1454339
REMARK minimizedRMSD -1
REMARK  3 active torsions:
REMARK  status: ('A' for Active; 'I' for Inactive)
REMARK    1  A    between atoms: C3'_2  and  C2'_3 
REMARK    2  A    between atoms: C2'_3  and  C1'_4 
REMARK    3  A    between atoms: C1'_4  and  C1_5 
ROOT
ATOM      1  C1  N4B d   1       0.600  -0.024  -2.180  0.00  0.00    -0.075 A 
ATOM      2  C2  N4B d   1       1.871   0.249  -2.732  0.00  0.00     0.002 A 
ATOM      3  C3  N4B d   1       2.437  -0.630  -3.622  0.00  0.00     0.002 A 
ATOM      4  C4  N4B d   1       1.761  -1.794  -3.959  0.00  0.00    -0.004 A 
ATOM      5  C5  N4B d   1       0.523  -2.037  -3.442  0.00  0.00     0.002 A 
ATOM      6  C6  N4B d   1      -0.059  -1.160  -2.549  0.00  0.00     0.002 A 
ENDROOT
BRANCH   1   7
ATOM      7  C1' N4B d   1      -0.021   0.865  -1.138  0.00  0.00     0.057 C 
BRANCH   7   8
ATOM      8  C2' N4B d   1       0.927   0.979   0.052  0.00  0.00     0.009 C 
BRANCH   8   9
ATOM      9  C3' N4B d   1       0.410   0.224   1.265  0.00  0.00     0.004 C 
ATOM     10  C4' N4B d   1       1.512  -0.265   2.158  0.00  0.00     0.003 C 
ENDBRANCH   8   9
ENDBRANCH   7   8
ENDBRANCH   1   7
TORSDOF 3
ENDMDL
