MODEL 1
REMARK minimizedAffinity -3.45000219
REMARK minimizedRMSD -1
REMARK  3 active torsions:
REMARK  status: ('A' for Active; 'I' for Inactive)
REMARK    1  A    between atoms: C3'_2  and  C2'_3 
REMARK    2  A    between atoms: C2'_3  and  C1'_4 
REMARK    3  A    between atoms: C1'_4  and  C1_5 
ROOT
ATOM      1  C1  N4B d   1      -0.006   0.489  -0.084  0.00  0.00    -0.075 A 
ATOM      2  C2  N4B d   1      -1.389   0.604   0.179  0.00  0.00     0.002 A 
ATOM      3  C3  N4B d   1      -1.846   0.583   1.474  0.00  0.00     0.002 A 
ATOM      4  C4  N4B d   1      -0.944   0.429   2.517  0.00  0.00    -0.004 A 
ATOM      5  C5  N4B d   1       0.392   0.345   2.256  0.00  0.00     0.002 A 
ATOM      6  C6  N4B d   1       0.866   0.368   0.959  0.00  0.00     0.002 A 
ENDROOT
BRANCH   1   7
ATOM      7  C1' N4B d   1       0.532   0.420  -1.487  0.00  0.00     0.057 C 
BRANCH   7   8
ATOM      8  C2' N4B d   1       0.670  -1.042  -1.900  0.00  0.00     0.009 C 
BRANCH   8   9
ATOM      9  C3' N4B d   1       1.469  -1.198  -3.182  0.00  0.00     0.004 C 
ATOM     10  C4' N4B d   1       1.415  -2.591  -3.735  0.00  0.00     0.003 C 
ENDBRANCH   8   9
ENDBRANCH   7   8
ENDBRANCH   1   7
TORSDOF 3
ENDMDL
