MODEL 1
REMARK minimizedAffinity -2.54006791
REMARK minimizedRMSD -1
REMARK  3 active torsions:
REMARK  status: ('A' for Active; 'I' for Inactive)
REMARK    1  A    between atoms: C3'_2  and  C2'_3 
REMARK    2  A    between atoms: C2'_3  and  C1'_4 
REMARK    3  A    between atoms: C1'_4  and  C1_5 
ROOT
ATOM      1  C1  N4B d   1       0.210  -0.099   0.865  0.00  0.00    -0.075 A 
ATOM      2  C2  N4B d   1      -0.914  -0.546   0.135  0.00  0.00     0.002 A 
ATOM      3  C3  N4B d   1      -2.048  -0.946   0.798  0.00  0.00     0.002 A 
ATOM      4  C4  N4B d   1      -2.075  -0.925   2.184  0.00  0.00    -0.004 A 
ATOM      5  C5  N4B d   1      -0.995  -0.468   2.881  0.00  0.00     0.002 A 
ATOM      6  C6  N4B d   1       0.150  -0.059   2.228  0.00  0.00     0.002 A 
ENDROOT
BRANCH   1   7
ATOM      7  C1' N4B d   1       1.502   0.267   0.187  0.00  0.00     0.057 C 
BRANCH   7   8
ATOM      8  C2' N4B d   1       2.232   1.308   1.031  0.00  0.00     0.009 C 
BRANCH   8   9
ATOM      9  C3' N4B d   1       3.656   0.885   1.348  0.00  0.00     0.004 C 
ATOM     10  C4' N4B d   1       4.662   1.955   1.043  0.00  0.00     0.003 C 
ENDBRANCH   8   9
ENDBRANCH   7   8
ENDBRANCH   1   7
TORSDOF 3
ENDMDL
