MODEL 1
REMARK minimizedAffinity 0.813619792
REMARK minimizedRMSD -1
REMARK  3 active torsions:
REMARK  status: ('A' for Active; 'I' for Inactive)
REMARK    1  A    between atoms: C3'_2  and  C2'_3 
REMARK    2  A    between atoms: C2'_3  and  C1'_4 
REMARK    3  A    between atoms: C1'_4  and  C1_5 
ROOT
ATOM      1  C1  N4B d   1      -0.041  -0.170  -1.019  0.00  0.00    -0.075 A 
ATOM      2  C2  N4B d   1       0.213  -1.171  -0.056  0.00  0.00     0.002 A 
ATOM      3  C3  N4B d   1      -0.675  -1.378   0.970  0.00  0.00     0.002 A 
ATOM      4  C4  N4B d   1      -1.810  -0.588   1.065  0.00  0.00    -0.004 A 
ATOM      5  C5  N4B d   1      -2.062   0.361   0.117  0.00  0.00     0.002 A 
ATOM      6  C6  N4B d   1      -1.180   0.577  -0.922  0.00  0.00     0.002 A 
ENDROOT
BRANCH   1   7
ATOM      7  C1' N4B d   1       0.943   0.152  -2.110  0.00  0.00     0.057 C 
BRANCH   7   8
ATOM      8  C2' N4B d   1       1.135  -1.080  -2.990  0.00  0.00     0.009 C 
BRANCH   8   9
ATOM      9  C3' N4B d   1       2.383  -0.975  -3.850  0.00  0.00     0.004 C 
ATOM     10  C4' N4B d   1       2.819   0.442  -4.070  0.00  0.00     0.003 C 
ENDBRANCH   8   9
ENDBRANCH   7   8
ENDBRANCH   1   7
TORSDOF 3
ENDMDL
