MODEL 1
REMARK minimizedAffinity -3.16643357
REMARK minimizedRMSD -1
REMARK  3 active torsions:
REMARK  status: ('A' for Active; 'I' for Inactive)
REMARK    1  A    between atoms: C3'_2  and  C2'_3 
REMARK    2  A    between atoms: C2'_3  and  C1'_4 
REMARK    3  A    between atoms: C1'_4  and  C1_5 
ROOT
ATOM      1  C1  N4B d   1       0.351  -1.975  -0.138  0.00  0.00    -0.075 A 
ATOM      2  C2  N4B d   1      -0.593  -2.680   0.641  0.00  0.00     0.002 A 
ATOM      3  C3  N4B d   1      -1.210  -2.060   1.700  0.00  0.00     0.002 A 
ATOM      4  C4  N4B d   1      -0.885  -0.748   2.010  0.00  0.00    -0.004 A 
ATOM      5  C5  N4B d   1       0.009  -0.066   1.238  0.00  0.00     0.002 A 
ATOM      6  C6  N4B d   1       0.633  -0.675   0.168  0.00  0.00     0.002 A 
ENDROOT
BRANCH   1   7
ATOM      7  C1' N4B d   1       1.114  -2.636  -1.253  0.00  0.00     0.057 C 
BRANCH   7   8
ATOM      8  C2' N4B d   1       0.878  -1.865  -2.548  0.00  0.00     0.009 C 
BRANCH   8   9
ATOM      9  C3' N4B d   1       0.295  -2.749  -3.637  0.00  0.00     0.004 C 
ATOM     10  C4' N4B d   1      -0.928  -2.158  -4.273  0.00  0.00     0.003 C 
ENDBRANCH   8   9
ENDBRANCH   7   8
ENDBRANCH   1   7
TORSDOF 3
ENDMDL
