MODEL 1
REMARK minimizedAffinity -3.85193801
REMARK minimizedRMSD -1
REMARK  3 active torsions:
REMARK  status: ('A' for Active; 'I' for Inactive)
REMARK    1  A    between atoms: C3'_2  and  C2'_3 
REMARK    2  A    between atoms: C2'_3  and  C1'_4 
REMARK    3  A    between atoms: C1'_4  and  C1_5 
ROOT
ATOM      1  C1  N4B d   1       0.359   0.059  -0.529  0.00  0.00    -0.075 A 
ATOM      2  C2  N4B d   1      -0.949   0.569  -0.375  0.00  0.00     0.002 A 
ATOM      3  C3  N4B d   1      -1.488   0.709   0.881  0.00  0.00     0.002 A 
ATOM      4  C4  N4B d   1      -0.748   0.329   1.991  0.00  0.00    -0.004 A 
ATOM      5  C5  N4B d   1       0.523  -0.140   1.835  0.00  0.00     0.002 A 
ATOM      6  C6  N4B d   1       1.079  -0.282   0.579  0.00  0.00     0.002 A 
ENDROOT
BRANCH   1   7
ATOM      7  C1' N4B d   1       0.958  -0.192  -1.885  0.00  0.00     0.057 C 
BRANCH   7   8
ATOM      8  C2' N4B d   1       0.659  -1.628  -2.307  0.00  0.00     0.009 C 
BRANCH   8   9
ATOM      9  C3' N4B d   1       1.440  -2.031  -3.546  0.00  0.00     0.004 C 
ATOM     10  C4' N4B d   1       2.308  -0.925  -4.071  0.00  0.00     0.003 C 
ENDBRANCH   8   9
ENDBRANCH   7   8
ENDBRANCH   1   7
TORSDOF 3
ENDMDL
