MODEL 1
REMARK minimizedAffinity -0.741310954
REMARK minimizedRMSD -1
REMARK  3 active torsions:
REMARK  status: ('A' for Active; 'I' for Inactive)
REMARK    1  A    between atoms: C3'_2  and  C2'_3 
REMARK    2  A    between atoms: C2'_3  and  C1'_4 
REMARK    3  A    between atoms: C1'_4  and  C1_5 
ROOT
ATOM      1  C1  N4B d   1       0.066  -0.344  -0.276  0.00  0.00    -0.075 A 
ATOM      2  C2  N4B d   1      -1.107   0.325   0.138  0.00  0.00     0.002 A 
ATOM      3  C3  N4B d   1      -1.256   0.702   1.450  0.00  0.00     0.002 A 
ATOM      4  C4  N4B d   1      -0.258   0.407   2.366  0.00  0.00    -0.004 A 
ATOM      5  C5  N4B d   1       0.883  -0.217   1.954  0.00  0.00     0.002 A 
ATOM      6  C6  N4B d   1       1.048  -0.598   0.637  0.00  0.00     0.002 A 
ENDROOT
BRANCH   1   7
ATOM      7  C1' N4B d   1       0.237  -0.852  -1.681  0.00  0.00     0.057 C 
BRANCH   7   8
ATOM      8  C2' N4B d   1       1.496  -0.238  -2.286  0.00  0.00     0.009 C 
BRANCH   8   9
ATOM      9  C3' N4B d   1       2.247  -1.227  -3.161  0.00  0.00     0.004 C 
ATOM     10  C4' N4B d   1       1.373  -2.339  -3.662  0.00  0.00     0.003 C 
ENDBRANCH   8   9
ENDBRANCH   7   8
ENDBRANCH   1   7
TORSDOF 3
ENDMDL
