MODEL 1
REMARK minimizedAffinity -4.01477385
REMARK minimizedRMSD -1
REMARK  3 active torsions:
REMARK  status: ('A' for Active; 'I' for Inactive)
REMARK    1  A    between atoms: C3'_2  and  C2'_3 
REMARK    2  A    between atoms: C2'_3  and  C1'_4 
REMARK    3  A    between atoms: C1'_4  and  C1_5 
ROOT
ATOM      1  C1  N4B d   1       0.506   0.036  -0.301  0.00  0.00    -0.075 A 
ATOM      2  C2  N4B d   1       1.690   0.680   0.120  0.00  0.00     0.002 A 
ATOM      3  C3  N4B d   1       1.934   0.862   1.460  0.00  0.00     0.002 A 
ATOM      4  C4  N4B d   1       1.003   0.426   2.391  0.00  0.00    -0.004 A 
ATOM      5  C5  N4B d   1      -0.126  -0.218   1.977  0.00  0.00     0.002 A 
ATOM      6  C6  N4B d   1      -0.382  -0.411   0.635  0.00  0.00     0.002 A 
ENDROOT
BRANCH   1   7
ATOM      7  C1' N4B d   1       0.156  -0.109  -1.757  0.00  0.00     0.057 C 
BRANCH   7   8
ATOM      8  C2' N4B d   1       1.430  -0.368  -2.555  0.00  0.00     0.009 C 
BRANCH   8   9
ATOM      9  C3' N4B d   1       1.367  -1.681  -3.316  0.00  0.00     0.004 C 
ATOM     10  C4' N4B d   1      -0.035  -2.183  -3.493  0.00  0.00     0.003 C 
ENDBRANCH   8   9
ENDBRANCH   7   8
ENDBRANCH   1   7
TORSDOF 3
ENDMDL
