MODEL 1
REMARK minimizedAffinity -0.368948877
REMARK minimizedRMSD -1
REMARK  3 active torsions:
REMARK  status: ('A' for Active; 'I' for Inactive)
REMARK    1  A    between atoms: C3'_2  and  C2'_3 
REMARK    2  A    between atoms: C2'_3  and  C1'_4 
REMARK    3  A    between atoms: C1'_4  and  C1_5 
ROOT
ATOM      1  C1  N4B d   1       0.367   0.191  -0.126  0.00  0.00    -0.075 A 
ATOM      2  C2  N4B d   1      -1.042   0.289  -0.141  0.00  0.00     0.002 A 
ATOM      3  C3  N4B d   1      -1.737   0.361   1.040  0.00  0.00     0.002 A 
ATOM      4  C4  N4B d   1      -1.051   0.318   2.244  0.00  0.00    -0.004 A 
ATOM      5  C5  N4B d   1       0.312   0.250   2.250  0.00  0.00     0.002 A 
ATOM      6  C6  N4B d   1       1.024   0.181   1.070  0.00  0.00     0.002 A 
ENDROOT
BRANCH   1   7
ATOM      7  C1' N4B d   1       1.165   0.024  -1.390  0.00  0.00     0.057 C 
BRANCH   7   8
ATOM      8  C2' N4B d   1       0.682  -1.223  -2.126  0.00  0.00     0.009 C 
BRANCH   8   9
ATOM      9  C3' N4B d   1       1.576  -1.569  -3.304  0.00  0.00     0.004 C 
ATOM     10  C4' N4B d   1       0.852  -2.324  -4.380  0.00  0.00     0.003 C 
ENDBRANCH   8   9
ENDBRANCH   7   8
ENDBRANCH   1   7
TORSDOF 3
ENDMDL
