MODEL 1
REMARK minimizedAffinity -2.14637351
REMARK minimizedRMSD -1
REMARK  3 active torsions:
REMARK  status: ('A' for Active; 'I' for Inactive)
REMARK    1  A    between atoms: C3'_2  and  C2'_3 
REMARK    2  A    between atoms: C2'_3  and  C1'_4 
REMARK    3  A    between atoms: C1'_4  and  C1_5 
ROOT
ATOM      1  C1  N4B d   1       0.247   0.189  -0.346  0.00  0.00    -0.075 A 
ATOM      2  C2  N4B d   1      -1.141   0.353  -0.143  0.00  0.00     0.002 A 
ATOM      3  C3  N4B d   1      -1.646   0.411   1.133  0.00  0.00     0.002 A 
ATOM      4  C4  N4B d   1      -0.789   0.289   2.216  0.00  0.00    -0.004 A 
ATOM      5  C5  N4B d   1       0.553   0.156   2.012  0.00  0.00     0.002 A 
ATOM      6  C6  N4B d   1       1.075   0.100   0.735  0.00  0.00     0.002 A 
ENDROOT
BRANCH   1   7
ATOM      7  C1' N4B d   1       0.836   0.034  -1.721  0.00  0.00     0.057 C 
BRANCH   7   8
ATOM      8  C2' N4B d   1       0.220  -1.189  -2.395  0.00  0.00     0.009 C 
BRANCH   8   9
ATOM      9  C3' N4B d   1       1.267  -2.043  -3.088  0.00  0.00     0.004 C 
ATOM     10  C4' N4B d   1       2.650  -1.474  -2.974  0.00  0.00     0.003 C 
ENDBRANCH   8   9
ENDBRANCH   7   8
ENDBRANCH   1   7
TORSDOF 3
ENDMDL
