MODEL 1
REMARK minimizedAffinity 15.9796095
REMARK minimizedRMSD -1
REMARK  0 active torsions:
REMARK  status: ('A' for Active; 'I' for Inactive)
ROOT
ATOM      1  C   UNL d   1      -0.840  -2.502   1.347  0.00  0.00     0.124 A 
ATOM      2  C1  UNL d   1       0.417  -2.608   1.926  0.00  0.00     0.062 A 
ATOM      3  C2  UNL d   1       1.268  -1.508   1.957  0.00  0.00     0.162 A 
ATOM      4  C3  UNL d   1       0.865  -0.290   1.409  0.00  0.00    -0.034 A 
ATOM      5  C4  UNL d   1      -0.401  -0.191   0.827  0.00  0.00     0.162 A 
ATOM      6  C5  UNL d   1      -1.248  -1.294   0.799  0.00  0.00     0.062 A 
ATOM      7  F   UNL d   1      -2.462  -1.190   0.239  0.00  0.00    -0.097 F 
ATOM      8  F1  UNL d   1      -0.820   0.964   0.291  0.00  0.00    -0.096 F 
ATOM      9  I   UNL d   1       2.135   1.358   1.453  0.00  0.00    -0.060 I 
ATOM     10  F2  UNL d   1       2.477  -1.639   2.523  0.00  0.00    -0.096 F 
ATOM     11  F3  UNL d   1       0.813  -3.774   2.456  0.00  0.00    -0.097 F 
ATOM     12  F4  UNL d   1      -1.657  -3.563   1.318  0.00  0.00    -0.092 F 
ENDROOT
TORSDOF 0
ENDMDL
