MODEL 1
REMARK minimizedAffinity 4.52508974
REMARK minimizedRMSD -1
REMARK  0 active torsions:
REMARK  status: ('A' for Active; 'I' for Inactive)
ROOT
ATOM      1  C   UNL d   1       1.449   0.952   0.682  0.00  0.00     0.124 A 
ATOM      2  C1  UNL d   1       0.315   0.166   0.833  0.00  0.00     0.062 A 
ATOM      3  C2  UNL d   1       0.419  -1.115   1.368  0.00  0.00     0.162 A 
ATOM      4  C3  UNL d   1       1.661  -1.618   1.756  0.00  0.00    -0.034 A 
ATOM      5  C4  UNL d   1       2.796  -0.821   1.600  0.00  0.00     0.162 A 
ATOM      6  C5  UNL d   1       2.688   0.459   1.066  0.00  0.00     0.062 A 
ATOM      7  F   UNL d   1       3.784   1.218   0.920  0.00  0.00    -0.097 F 
ATOM      8  F1  UNL d   1       4.006  -1.272   1.964  0.00  0.00    -0.096 F 
ATOM      9  I   UNL d   1       1.820  -3.532   2.556  0.00  0.00    -0.060 I 
ATOM     10  F2  UNL d   1      -0.693  -1.854   1.503  0.00  0.00    -0.096 F 
ATOM     11  F3  UNL d   1      -0.883   0.640   0.463  0.00  0.00    -0.097 F 
ATOM     12  F4  UNL d   1       1.347   2.184   0.167  0.00  0.00    -0.092 F 
ENDROOT
TORSDOF 0
ENDMDL
