MODEL 1
REMARK minimizedAffinity 11.749609
REMARK minimizedRMSD -1
REMARK  0 active torsions:
REMARK  status: ('A' for Active; 'I' for Inactive)
ROOT
ATOM      1  C   UNL d   1       2.264  -4.512  -0.885  0.00  0.00     0.124 A 
ATOM      2  C1  UNL d   1       1.774  -3.237  -0.637  0.00  0.00     0.062 A 
ATOM      3  C2  UNL d   1       1.973  -2.218  -1.564  0.00  0.00     0.162 A 
ATOM      4  C3  UNL d   1       2.665  -2.469  -2.748  0.00  0.00    -0.034 A 
ATOM      5  C4  UNL d   1       3.156  -3.754  -2.990  0.00  0.00     0.162 A 
ATOM      6  C5  UNL d   1       2.954  -4.769  -2.061  0.00  0.00     0.062 A 
ATOM      7  F   UNL d   1       3.429  -6.000  -2.302  0.00  0.00    -0.097 F 
ATOM      8  F1  UNL d   1       3.826  -4.030  -4.119  0.00  0.00    -0.096 F 
ATOM      9  I   UNL d   1       2.965  -0.948  -4.137  0.00  0.00    -0.060 I 
ATOM     10  F2  UNL d   1       1.489  -0.996  -1.298  0.00  0.00    -0.096 F 
ATOM     11  F3  UNL d   1       1.108  -2.986   0.499  0.00  0.00    -0.097 F 
ATOM     12  F4  UNL d   1       2.072  -5.490   0.009  0.00  0.00    -0.092 F 
ENDROOT
TORSDOF 0
ENDMDL
