MODEL 1
REMARK minimizedAffinity 14.0862751
REMARK minimizedRMSD -1
REMARK  0 active torsions:
REMARK  status: ('A' for Active; 'I' for Inactive)
ROOT
ATOM      1  C   UNL d   1       1.250  -2.898  -0.741  0.00  0.00     0.124 A 
ATOM      2  C1  UNL d   1       0.791  -2.154  -1.819  0.00  0.00     0.062 A 
ATOM      3  C2  UNL d   1      -0.247  -1.243  -1.649  0.00  0.00     0.162 A 
ATOM      4  C3  UNL d   1      -0.834  -1.070  -0.396  0.00  0.00    -0.034 A 
ATOM      5  C4  UNL d   1      -0.368  -1.823   0.684  0.00  0.00     0.162 A 
ATOM      6  C5  UNL d   1       0.670  -2.732   0.509  0.00  0.00     0.062 A 
ATOM      7  F   UNL d   1       1.112  -3.450   1.552  0.00  0.00    -0.097 F 
ATOM      8  F1  UNL d   1      -0.910  -1.682   1.902  0.00  0.00    -0.096 F 
ATOM      9  I   UNL d   1      -2.388   0.291  -0.138  0.00  0.00    -0.060 I 
ATOM     10  F2  UNL d   1      -0.670  -0.538  -2.709  0.00  0.00    -0.096 F 
ATOM     11  F3  UNL d   1       1.349  -2.314  -3.027  0.00  0.00    -0.097 F 
ATOM     12  F4  UNL d   1       2.249  -3.775  -0.907  0.00  0.00    -0.092 F 
ENDROOT
TORSDOF 0
ENDMDL
