MODEL 1
REMARK minimizedAffinity 9.15126133
REMARK minimizedRMSD -1
REMARK  0 active torsions:
REMARK  status: ('A' for Active; 'I' for Inactive)
ROOT
ATOM      1  C   UNL d   1       2.368  -1.811   2.168  0.00  0.00     0.124 A 
ATOM      2  C1  UNL d   1       1.020  -2.073   2.370  0.00  0.00     0.062 A 
ATOM      3  C2  UNL d   1       0.163  -2.212   1.282  0.00  0.00     0.162 A 
ATOM      4  C3  UNL d   1       0.652  -2.091  -0.019  0.00  0.00    -0.034 A 
ATOM      5  C4  UNL d   1       2.009  -1.827  -0.214  0.00  0.00     0.162 A 
ATOM      6  C5  UNL d   1       2.861  -1.689   0.876  0.00  0.00     0.062 A 
ATOM      7  F   UNL d   1       4.163  -1.436   0.679  0.00  0.00    -0.097 F 
ATOM      8  F1  UNL d   1       2.512  -1.705  -1.452  0.00  0.00    -0.096 F 
ATOM      9  I   UNL d   1      -0.626  -2.298  -1.649  0.00  0.00    -0.060 I 
ATOM     10  F2  UNL d   1      -1.135  -2.465   1.507  0.00  0.00    -0.096 F 
ATOM     11  F3  UNL d   1       0.541  -2.191   3.616  0.00  0.00    -0.097 F 
ATOM     12  F4  UNL d   1       3.190  -1.677   3.216  0.00  0.00    -0.092 F 
ENDROOT
TORSDOF 0
ENDMDL
