MODEL 1
REMARK minimizedAffinity 17.0971603
REMARK minimizedRMSD -1
REMARK  0 active torsions:
REMARK  status: ('A' for Active; 'I' for Inactive)
ROOT
ATOM      1  C   UNL d   1      -0.176  -1.681   1.534  0.00  0.00     0.124 A 
ATOM      2  C1  UNL d   1      -0.526  -0.338   1.539  0.00  0.00     0.062 A 
ATOM      3  C2  UNL d   1       0.456   0.641   1.657  0.00  0.00     0.162 A 
ATOM      4  C3  UNL d   1       1.799   0.280   1.769  0.00  0.00    -0.034 A 
ATOM      5  C4  UNL d   1       2.143  -1.073   1.764  0.00  0.00     0.162 A 
ATOM      6  C5  UNL d   1       1.158  -2.047   1.646  0.00  0.00     0.062 A 
ATOM      7  F   UNL d   1       1.498  -3.344   1.641  0.00  0.00    -0.097 F 
ATOM      8  F1  UNL d   1       3.425  -1.454   1.870  0.00  0.00    -0.096 F 
ATOM      9  I   UNL d   1       3.271   1.741   1.945  0.00  0.00    -0.060 I 
ATOM     10  F2  UNL d   1       0.089   1.931   1.659  0.00  0.00    -0.096 F 
ATOM     11  F3  UNL d   1      -1.814   0.018   1.432  0.00  0.00    -0.097 F 
ATOM     12  F4  UNL d   1      -1.123  -2.621   1.421  0.00  0.00    -0.092 F 
ENDROOT
TORSDOF 0
ENDMDL
