MODEL 1
REMARK minimizedAffinity -2.04300594
REMARK minimizedRMSD -1
REMARK  0 active torsions:
REMARK  status: ('A' for Active; 'I' for Inactive)
ROOT
ATOM      1  C   UNL d   1       1.497  -1.454   1.300  0.00  0.00     0.124 A 
ATOM      2  C1  UNL d   1       0.595  -1.074   2.285  0.00  0.00     0.062 A 
ATOM      3  C2  UNL d   1      -0.576  -0.405   1.941  0.00  0.00     0.162 A 
ATOM      4  C3  UNL d   1      -0.854  -0.113   0.606  0.00  0.00    -0.034 A 
ATOM      5  C4  UNL d   1       0.058  -0.498  -0.379  0.00  0.00     0.162 A 
ATOM      6  C5  UNL d   1       1.227  -1.167  -0.030  0.00  0.00     0.062 A 
ATOM      7  F   UNL d   1       2.096  -1.533  -0.983  0.00  0.00    -0.097 F 
ATOM      8  F1  UNL d   1      -0.178  -0.234  -1.673  0.00  0.00    -0.096 F 
ATOM      9  I   UNL d   1      -2.604   0.886   0.088  0.00  0.00    -0.060 I 
ATOM     10  F2  UNL d   1      -1.429  -0.049   2.914  0.00  0.00    -0.096 F 
ATOM     11  F3  UNL d   1       0.854  -1.350   3.571  0.00  0.00    -0.097 F 
ATOM     12  F4  UNL d   1       2.623  -2.097   1.634  0.00  0.00    -0.092 F 
ENDROOT
TORSDOF 0
ENDMDL
