MODEL 1
REMARK minimizedAffinity -3.38984251
REMARK minimizedRMSD -1
REMARK  0 active torsions:
REMARK  status: ('A' for Active; 'I' for Inactive)
ROOT
ATOM      1  C   UNL d   1       1.984  -0.692   0.310  0.00  0.00     0.124 A 
ATOM      2  C1  UNL d   1       1.468   0.582   0.502  0.00  0.00     0.062 A 
ATOM      3  C2  UNL d   1       0.108   0.820   0.327  0.00  0.00     0.162 A 
ATOM      4  C3  UNL d   1      -0.747  -0.219  -0.041  0.00  0.00    -0.034 A 
ATOM      5  C4  UNL d   1      -0.220  -1.498  -0.233  0.00  0.00     0.162 A 
ATOM      6  C5  UNL d   1       1.140  -1.731  -0.057  0.00  0.00     0.062 A 
ATOM      7  F   UNL d   1       1.637  -2.962  -0.243  0.00  0.00    -0.097 F 
ATOM      8  F1  UNL d   1      -1.014  -2.520  -0.587  0.00  0.00    -0.096 F 
ATOM      9  I   UNL d   1      -2.781   0.132  -0.303  0.00  0.00    -0.060 I 
ATOM     10  F2  UNL d   1      -0.363   2.061   0.520  0.00  0.00    -0.096 F 
ATOM     11  F3  UNL d   1       2.282   1.587   0.856  0.00  0.00    -0.097 F 
ATOM     12  F4  UNL d   1       3.294  -0.918   0.478  0.00  0.00    -0.092 F 
ENDROOT
TORSDOF 0
ENDMDL
