MODEL 1
REMARK minimizedAffinity -0.0657081977
REMARK minimizedRMSD -1
REMARK  0 active torsions:
REMARK  status: ('A' for Active; 'I' for Inactive)
ROOT
ATOM      1  C   UNL d   1       2.427   0.126  -0.467  0.00  0.00     0.124 A 
ATOM      2  C1  UNL d   1       1.902   1.405  -0.348  0.00  0.00     0.062 A 
ATOM      3  C2  UNL d   1       0.533   1.587  -0.174  0.00  0.00     0.162 A 
ATOM      4  C3  UNL d   1      -0.321   0.486  -0.116  0.00  0.00    -0.034 A 
ATOM      5  C4  UNL d   1       0.214  -0.798  -0.237  0.00  0.00     0.162 A 
ATOM      6  C5  UNL d   1       1.583  -0.974  -0.411  0.00  0.00     0.062 A 
ATOM      7  F   UNL d   1       2.088  -2.211  -0.526  0.00  0.00    -0.097 F 
ATOM      8  F1  UNL d   1      -0.579  -1.879  -0.186  0.00  0.00    -0.096 F 
ATOM      9  I   UNL d   1      -2.369   0.753   0.144  0.00  0.00    -0.060 I 
ATOM     10  F2  UNL d   1       0.053   2.835  -0.062  0.00  0.00    -0.096 F 
ATOM     11  F3  UNL d   1       2.715   2.470  -0.402  0.00  0.00    -0.097 F 
ATOM     12  F4  UNL d   1       3.744  -0.046  -0.635  0.00  0.00    -0.092 F 
ENDROOT
TORSDOF 0
ENDMDL
