MODEL 1
REMARK minimizedAffinity -3.85703349
REMARK minimizedRMSD -1
REMARK  0 active torsions:
REMARK  status: ('A' for Active; 'I' for Inactive)
ROOT
ATOM      1  C   UNL d   1       3.120   1.330   0.388  0.00  0.00     0.124 A 
ATOM      2  C1  UNL d   1       1.911   1.884  -0.010  0.00  0.00     0.062 A 
ATOM      3  C2  UNL d   1       0.847   1.060  -0.365  0.00  0.00     0.162 A 
ATOM      4  C3  UNL d   1       0.986  -0.327  -0.321  0.00  0.00    -0.034 A 
ATOM      5  C4  UNL d   1       2.206  -0.877   0.080  0.00  0.00     0.162 A 
ATOM      6  C5  UNL d   1       3.266  -0.049   0.433  0.00  0.00     0.062 A 
ATOM      7  F   UNL d   1       4.433  -0.586   0.818  0.00  0.00    -0.097 F 
ATOM      8  F1  UNL d   1       2.374  -2.207   0.133  0.00  0.00    -0.096 F 
ATOM      9  I   UNL d   1      -0.602  -1.563  -0.851  0.00  0.00    -0.060 I 
ATOM     10  F2  UNL d   1      -0.309   1.622  -0.746  0.00  0.00    -0.096 F 
ATOM     11  F3  UNL d   1       1.768   3.216  -0.055  0.00  0.00    -0.097 F 
ATOM     12  F4  UNL d   1       4.143   2.125   0.728  0.00  0.00    -0.092 F 
ENDROOT
TORSDOF 0
ENDMDL
