MODEL 1
REMARK minimizedAffinity -5.21319532
REMARK minimizedRMSD -1
REMARK  0 active torsions:
REMARK  status: ('A' for Active; 'I' for Inactive)
ROOT
ATOM      1  C   UNL d   1       0.183  -1.640  -0.456  0.00  0.00     0.124 A 
ATOM      2  C1  UNL d   1      -0.386  -0.379  -0.349  0.00  0.00     0.062 A 
ATOM      3  C2  UNL d   1       0.407   0.723  -0.041  0.00  0.00     0.162 A 
ATOM      4  C3  UNL d   1       1.779   0.568   0.161  0.00  0.00    -0.034 A 
ATOM      5  C4  UNL d   1       2.344  -0.704   0.052  0.00  0.00     0.162 A 
ATOM      6  C5  UNL d   1       1.547  -1.802  -0.255  0.00  0.00     0.062 A 
ATOM      7  F   UNL d   1       2.098  -3.020  -0.358  0.00  0.00    -0.097 F 
ATOM      8  F1  UNL d   1       3.659  -0.888   0.240  0.00  0.00    -0.096 F 
ATOM      9  I   UNL d   1       2.968   2.213   0.620  0.00  0.00    -0.060 I 
ATOM     10  F2  UNL d   1      -0.169   1.930   0.056  0.00  0.00    -0.096 F 
ATOM     11  F3  UNL d   1      -1.703  -0.220  -0.541  0.00  0.00    -0.097 F 
ATOM     12  F4  UNL d   1      -0.583  -2.699  -0.750  0.00  0.00    -0.092 F 
ENDROOT
TORSDOF 0
ENDMDL
