MODEL 1
REMARK minimizedAffinity 2.5358398
REMARK minimizedRMSD -1
REMARK  0 active torsions:
REMARK  status: ('A' for Active; 'I' for Inactive)
ROOT
ATOM      1  C   UNL d   1       2.033  -5.993  -3.996  0.00  0.00     0.172 C 
ATOM      2  N   UNL d   1       2.935  -5.981  -2.869  0.00  0.00    -0.070 N 
ATOM      3  C1  UNL d   1       4.303  -5.973  -2.941  0.00  0.00    -0.004 A 
ATOM      4  C2  UNL d   1       4.794  -5.962  -1.653  0.00  0.00    -0.047 A 
ATOM      5  C3  UNL d   1       3.683  -5.964  -0.777  0.00  0.00    -0.047 A 
ATOM      6  C4  UNL d   1       2.545  -5.976  -1.556  0.00  0.00    -0.004 A 
ENDROOT
TORSDOF 0
ENDMDL
