MODEL 1
REMARK minimizedAffinity 2.90893674
REMARK minimizedRMSD -1
REMARK  0 active torsions:
REMARK  status: ('A' for Active; 'I' for Inactive)
ROOT
ATOM      1  C   UNL d   1       1.935  -0.959   2.797  0.00  0.00     0.172 C 
ATOM      2  N   UNL d   1       2.323  -2.218   3.388  0.00  0.00    -0.070 N 
ATOM      3  C1  UNL d   1       3.486  -2.453   4.073  0.00  0.00    -0.004 A 
ATOM      4  C2  UNL d   1       3.479  -3.772   4.475  0.00  0.00    -0.047 A 
ATOM      5  C3  UNL d   1       2.272  -4.349   4.014  0.00  0.00    -0.047 A 
ATOM      6  C4  UNL d   1       1.575  -3.365   3.345  0.00  0.00    -0.004 A 
ENDROOT
TORSDOF 0
ENDMDL
