MODEL 1
REMARK minimizedAffinity 2.01361036
REMARK minimizedRMSD -1
REMARK  0 active torsions:
REMARK  status: ('A' for Active; 'I' for Inactive)
ROOT
ATOM      1  C   UNL d   1       2.481   1.166   2.288  0.00  0.00     0.172 C 
ATOM      2  N   UNL d   1       2.024  -0.103   2.805  0.00  0.00    -0.070 N 
ATOM      3  C1  UNL d   1       1.836  -1.243   2.070  0.00  0.00    -0.004 A 
ATOM      4  C2  UNL d   1       1.397  -2.229   2.927  0.00  0.00    -0.047 A 
ATOM      5  C3  UNL d   1       1.317  -1.662   4.221  0.00  0.00    -0.047 A 
ATOM      6  C4  UNL d   1       1.711  -0.344   4.116  0.00  0.00    -0.004 A 
ENDROOT
TORSDOF 0
ENDMDL
