MODEL 1
REMARK minimizedAffinity 2.56893873
REMARK minimizedRMSD -1
REMARK  0 active torsions:
REMARK  status: ('A' for Active; 'I' for Inactive)
ROOT
ATOM      1  C   UNL d   1       1.970  -1.216   2.614  0.00  0.00     0.172 C 
ATOM      2  N   UNL d   1       2.532  -2.389   3.241  0.00  0.00    -0.070 N 
ATOM      3  C1  UNL d   1       2.134  -3.680   3.022  0.00  0.00    -0.004 A 
ATOM      4  C2  UNL d   1       2.914  -4.502   3.806  0.00  0.00    -0.047 A 
ATOM      5  C3  UNL d   1       3.812  -3.675   4.523  0.00  0.00    -0.047 A 
ATOM      6  C4  UNL d   1       3.554  -2.372   4.154  0.00  0.00    -0.004 A 
ENDROOT
TORSDOF 0
ENDMDL
