MODEL 1
REMARK minimizedAffinity -0.85008961
REMARK minimizedRMSD -1
REMARK  0 active torsions:
REMARK  status: ('A' for Active; 'I' for Inactive)
ROOT
ATOM      1  C   UNL d   1       2.613  -0.559   1.861  0.00  0.00     0.172 C 
ATOM      2  N   UNL d   1       2.256  -1.684   2.694  0.00  0.00    -0.070 N 
ATOM      3  C1  UNL d   1       2.888  -2.899   2.708  0.00  0.00    -0.004 A 
ATOM      4  C2  UNL d   1       2.250  -3.696   3.634  0.00  0.00    -0.047 A 
ATOM      5  C3  UNL d   1       1.197  -2.934   4.194  0.00  0.00    -0.047 A 
ATOM      6  C4  UNL d   1       1.224  -1.693   3.594  0.00  0.00    -0.004 A 
ENDROOT
TORSDOF 0
ENDMDL
