MODEL 1
REMARK minimizedAffinity 2.02442002
REMARK minimizedRMSD -1
REMARK  0 active torsions:
REMARK  status: ('A' for Active; 'I' for Inactive)
ROOT
ATOM      1  C   UNL d   1       5.356  -6.000  -4.235  0.00  0.00     0.172 C 
ATOM      2  N   UNL d   1       4.050  -6.000  -3.620  0.00  0.00    -0.070 N 
ATOM      3  C1  UNL d   1       3.802  -6.000  -2.273  0.00  0.00    -0.004 A 
ATOM      4  C2  UNL d   1       2.436  -5.999  -2.095  0.00  0.00    -0.047 A 
ATOM      5  C3  UNL d   1       1.841  -5.999  -3.380  0.00  0.00    -0.047 A 
ATOM      6  C4  UNL d   1       2.864  -6.000  -4.305  0.00  0.00    -0.004 A 
ENDROOT
TORSDOF 0
ENDMDL
