MODEL 1
REMARK minimizedAffinity 4.57369757
REMARK minimizedRMSD -1
REMARK  0 active torsions:
REMARK  status: ('A' for Active; 'I' for Inactive)
ROOT
ATOM      1  C   UNL d   1      -3.374   1.492  -3.360  0.00  0.00     0.172 C 
ATOM      2  N   UNL d   1      -4.437   2.469  -3.387  0.00  0.00    -0.070 N 
ATOM      3  C1  UNL d   1      -4.998   3.007  -4.514  0.00  0.00    -0.004 A 
ATOM      4  C2  UNL d   1      -5.974   3.895  -4.118  0.00  0.00    -0.047 A 
ATOM      5  C3  UNL d   1      -6.000   3.892  -2.703  0.00  0.00    -0.047 A 
ATOM      6  C4  UNL d   1      -5.038   3.000  -2.277  0.00  0.00    -0.004 A 
ENDROOT
TORSDOF 0
ENDMDL
