MODEL 1
REMARK minimizedAffinity -3.22650981
REMARK minimizedRMSD -1
REMARK  0 active torsions:
REMARK  status: ('A' for Active; 'I' for Inactive)
ROOT
ATOM      1  C1  DEN d   1      -3.076  -3.463  -3.572  0.00  0.00     0.130 A 
ATOM      2  C2  DEN d   1      -2.123  -2.469  -4.058  0.00  0.00    -0.031 A 
ATOM      3  C3  DEN d   1      -1.732  -1.616  -2.918  0.00  0.00     0.027 A 
ATOM      4  C4  DEN d   1      -2.501  -1.740  -0.459  0.00  0.00     0.027 A 
ATOM      5  C5  DEN d   1      -3.311  -2.410   0.431  0.00  0.00    -0.003 A 
ATOM      6  C6  DEN d   1      -4.118  -3.448   0.045  0.00  0.00     0.001 A 
ATOM      7  C7  DEN d   1      -4.099  -3.875  -1.256  0.00  0.00     0.017 A 
ATOM      8  C8  DEN d   1      -3.291  -3.200  -2.161  0.00  0.00    -0.094 A 
ATOM      9  C9  DEN d   1      -2.473  -2.161  -1.749  0.00  0.00    -0.072 A 
ENDROOT
TORSDOF 0
ENDMDL
