MODEL 1
REMARK minimizedAffinity -1.36561251
REMARK minimizedRMSD -1
REMARK  0 active torsions:
REMARK  status: ('A' for Active; 'I' for Inactive)
ROOT
ATOM      1  C1  DEN d   1      -2.389  -2.267  -4.143  0.00  0.00     0.130 A 
ATOM      2  C2  DEN d   1      -2.528  -3.712  -3.986  0.00  0.00    -0.031 A 
ATOM      3  C3  DEN d   1      -2.135  -4.062  -2.607  0.00  0.00     0.027 A 
ATOM      4  C4  DEN d   1      -1.332  -2.515  -0.706  0.00  0.00     0.027 A 
ATOM      5  C5  DEN d   1      -1.041  -1.212  -0.367  0.00  0.00    -0.003 A 
ATOM      6  C6  DEN d   1      -1.146  -0.182  -1.265  0.00  0.00     0.001 A 
ATOM      7  C7  DEN d   1      -1.595  -0.432  -2.534  0.00  0.00     0.017 A 
ATOM      8  C8  DEN d   1      -1.883  -1.745  -2.886  0.00  0.00    -0.094 A 
ATOM      9  C9  DEN d   1      -1.782  -2.769  -1.961  0.00  0.00    -0.072 A 
ENDROOT
TORSDOF 0
ENDMDL
