MODEL 1
REMARK minimizedAffinity -1.27015138
REMARK minimizedRMSD -1
REMARK  0 active torsions:
REMARK  status: ('A' for Active; 'I' for Inactive)
ROOT
ATOM      1  C1  DEN d   1      -1.857  -3.762  -1.371  0.00  0.00     0.130 A 
ATOM      2  C2  DEN d   1      -2.062  -3.884  -2.811  0.00  0.00    -0.031 A 
ATOM      3  C3  DEN d   1      -1.895  -2.545  -3.411  0.00  0.00     0.027 A 
ATOM      4  C4  DEN d   1      -1.338  -0.307  -2.256  0.00  0.00     0.027 A 
ATOM      5  C5  DEN d   1      -1.086   0.299  -1.045  0.00  0.00    -0.003 A 
ATOM      6  C6  DEN d   1      -1.107  -0.394   0.136  0.00  0.00     0.001 A 
ATOM      7  C7  DEN d   1      -1.341  -1.744   0.128  0.00  0.00     0.017 A 
ATOM      8  C8  DEN d   1      -1.603  -2.360  -1.089  0.00  0.00    -0.094 A 
ATOM      9  C9  DEN d   1      -1.565  -1.645  -2.274  0.00  0.00    -0.072 A 
ENDROOT
TORSDOF 0
ENDMDL
