MODEL 1
REMARK minimizedAffinity 7.12046385
REMARK minimizedRMSD -1
REMARK  0 active torsions:
REMARK  status: ('A' for Active; 'I' for Inactive)
ROOT
ATOM      1  C1  DEN d   1      -1.558  -0.932   2.755  0.00  0.00     0.130 A 
ATOM      2  C2  DEN d   1      -2.479   0.054   3.313  0.00  0.00    -0.031 A 
ATOM      3  C3  DEN d   1      -2.693   1.105   2.298  0.00  0.00     0.027 A 
ATOM      4  C4  DEN d   1      -1.696   1.297  -0.073  0.00  0.00     0.027 A 
ATOM      5  C5  DEN d   1      -0.852   0.706  -0.988  0.00  0.00    -0.003 A 
ATOM      6  C6  DEN d   1      -0.165  -0.445  -0.709  0.00  0.00     0.001 A 
ATOM      7  C7  DEN d   1      -0.343  -1.067   0.499  0.00  0.00     0.017 A 
ATOM      8  C8  DEN d   1      -1.186  -0.472   1.429  0.00  0.00    -0.094 A 
ATOM      9  C9  DEN d   1      -1.882   0.685   1.123  0.00  0.00    -0.072 A 
ENDROOT
TORSDOF 0
ENDMDL
