MODEL 1
REMARK minimizedAffinity 4.45878458
REMARK minimizedRMSD -1
REMARK  0 active torsions:
REMARK  status: ('A' for Active; 'I' for Inactive)
ROOT
ATOM      1  C1  DEN d   1      -2.556  -1.164  -3.530  0.00  0.00     0.130 A 
ATOM      2  C2  DEN d   1      -2.806  -2.599  -3.634  0.00  0.00    -0.031 A 
ATOM      3  C3  DEN d   1      -2.362  -3.231  -2.375  0.00  0.00     0.027 A 
ATOM      4  C4  DEN d   1      -1.324  -2.133  -0.285  0.00  0.00     0.027 A 
ATOM      5  C5  DEN d   1      -0.907  -0.942   0.267  0.00  0.00    -0.003 A 
ATOM      6  C6  DEN d   1      -0.978   0.243  -0.415  0.00  0.00     0.001 A 
ATOM      7  C7  DEN d   1      -1.520   0.272  -1.673  0.00  0.00     0.017 A 
ATOM      8  C8  DEN d   1      -1.936  -0.926  -2.239  0.00  0.00    -0.094 A 
ATOM      9  C9  DEN d   1      -1.866  -2.113  -1.529  0.00  0.00    -0.072 A 
ENDROOT
TORSDOF 0
ENDMDL
