MODEL 1
REMARK minimizedAffinity 2.20391273
REMARK minimizedRMSD -1
REMARK  0 active torsions:
REMARK  status: ('A' for Active; 'I' for Inactive)
ROOT
ATOM      1  C1  DEN d   1      -4.959  -5.996  -1.509  0.00  0.00     0.130 A 
ATOM      2  C2  DEN d   1      -5.999  -5.630  -0.551  0.00  0.00    -0.031 A 
ATOM      3  C3  DEN d   1      -5.986  -4.161  -0.403  0.00  0.00     0.027 A 
ATOM      4  C4  DEN d   1      -4.468  -2.426  -1.561  0.00  0.00     0.027 A 
ATOM      5  C5  DEN d   1      -3.427  -2.260  -2.447  0.00  0.00    -0.003 A 
ATOM      6  C6  DEN d   1      -2.807  -3.321  -3.052  0.00  0.00     0.001 A 
ATOM      7  C7  DEN d   1      -3.251  -4.594  -2.813  0.00  0.00     0.017 A 
ATOM      8  C8  DEN d   1      -4.296  -4.770  -1.915  0.00  0.00    -0.094 A 
ATOM      9  C9  DEN d   1      -4.918  -3.684  -1.323  0.00  0.00    -0.072 A 
ENDROOT
TORSDOF 0
ENDMDL
