MODEL 1
REMARK minimizedAffinity 13.7307749
REMARK minimizedRMSD -1
REMARK  0 active torsions:
REMARK  status: ('A' for Active; 'I' for Inactive)
ROOT
ATOM      1  C1  DEN d   1      -1.295  -0.559   3.399  0.00  0.00     0.130 A 
ATOM      2  C2  DEN d   1      -2.643  -0.007   3.290  0.00  0.00    -0.031 A 
ATOM      3  C3  DEN d   1      -2.908   0.270   1.864  0.00  0.00     0.027 A 
ATOM      4  C4  DEN d   1      -1.374  -0.105  -0.175  0.00  0.00     0.027 A 
ATOM      5  C5  DEN d   1      -0.132  -0.542  -0.580  0.00  0.00    -0.003 A 
ATOM      6  C6  DEN d   1       0.814  -0.979   0.309  0.00  0.00     0.001 A 
ATOM      7  C7  DEN d   1       0.516  -1.032   1.645  0.00  0.00     0.017 A 
ATOM      8  C8  DEN d   1      -0.731  -0.587   2.062  0.00  0.00    -0.094 A 
ATOM      9  C9  DEN d   1      -1.678  -0.160   1.147  0.00  0.00    -0.072 A 
ENDROOT
TORSDOF 0
ENDMDL
