MODEL 1
REMARK minimizedAffinity 7.62755394
REMARK minimizedRMSD -1
REMARK  0 active torsions:
REMARK  status: ('A' for Active; 'I' for Inactive)
ROOT
ATOM      1  C1  DEN d   1      -0.277  -1.319   0.972  0.00  0.00     0.130 A 
ATOM      2  C2  DEN d   1      -0.386  -0.868  -0.412  0.00  0.00    -0.031 A 
ATOM      3  C3  DEN d   1      -1.455   0.149  -0.478  0.00  0.00     0.027 A 
ATOM      4  C4  DEN d   1      -2.940   1.066   1.421  0.00  0.00     0.027 A 
ATOM      5  C5  DEN d   1      -3.225   0.978   2.765  0.00  0.00    -0.003 A 
ATOM      6  C6  DEN d   1      -2.576   0.102   3.593  0.00  0.00     0.001 A 
ATOM      7  C7  DEN d   1      -1.577  -0.691   3.093  0.00  0.00     0.017 A 
ATOM      8  C8  DEN d   1      -1.289  -0.614   1.737  0.00  0.00    -0.094 A 
ATOM      9  C9  DEN d   1      -1.948   0.288   0.919  0.00  0.00    -0.072 A 
ENDROOT
TORSDOF 0
ENDMDL
