MODEL 1
REMARK minimizedAffinity -4.7823534
REMARK minimizedRMSD -1
REMARK  0 active torsions:
REMARK  status: ('A' for Active; 'I' for Inactive)
ROOT
ATOM      1  C1  DEN d   1      -5.125   2.401   5.947  0.00  0.00     0.130 A 
ATOM      2  C2  DEN d   1      -4.881   0.987   5.680  0.00  0.00    -0.031 A 
ATOM      3  C3  DEN d   1      -4.709   0.820   4.223  0.00  0.00     0.027 A 
ATOM      4  C4  DEN d   1      -4.791   2.607   2.365  0.00  0.00     0.027 A 
ATOM      5  C5  DEN d   1      -4.982   3.946   2.102  0.00  0.00    -0.003 A 
ATOM      6  C6  DEN d   1      -5.265   4.850   3.091  0.00  0.00     0.001 A 
ATOM      7  C7  DEN d   1      -5.321   4.435   4.395  0.00  0.00     0.017 A 
ATOM      8  C8  DEN d   1      -5.137   3.086   4.667  0.00  0.00    -0.094 A 
ATOM      9  C9  DEN d   1      -4.840   2.189   3.655  0.00  0.00    -0.072 A 
ENDROOT
TORSDOF 0
ENDMDL
