MODEL 1
REMARK minimizedAffinity -1.5017519
REMARK minimizedRMSD -1
REMARK  0 active torsions:
REMARK  status: ('A' for Active; 'I' for Inactive)
ROOT
ATOM      1  C1  DEN d   1      -4.863   3.891   2.076  0.00  0.00     0.130 A 
ATOM      2  C2  DEN d   1      -5.523   4.980   1.361  0.00  0.00    -0.031 A 
ATOM      3  C3  DEN d   1      -5.923   6.000   2.352  0.00  0.00     0.027 A 
ATOM      4  C4  DEN d   1      -5.582   6.000   4.909  0.00  0.00     0.027 A 
ATOM      5  C5  DEN d   1      -5.083   5.284   5.975  0.00  0.00    -0.003 A 
ATOM      6  C6  DEN d   1      -4.511   4.049   5.821  0.00  0.00     0.001 A 
ATOM      7  C7  DEN d   1      -4.383   3.512   4.568  0.00  0.00     0.017 A 
ATOM      8  C8  DEN d   1      -4.890   4.224   3.489  0.00  0.00    -0.094 A 
ATOM      9  C9  DEN d   1      -5.454   5.476   3.663  0.00  0.00    -0.072 A 
ENDROOT
TORSDOF 0
ENDMDL
