MODEL 1
REMARK minimizedAffinity 8.59967041
REMARK minimizedRMSD -1
REMARK  0 active torsions:
REMARK  status: ('A' for Active; 'I' for Inactive)
ROOT
ATOM      1  C1  DEN d   1      -3.762   4.505   0.248  0.00  0.00     0.130 A 
ATOM      2  C2  DEN d   1      -4.908   4.728  -0.629  0.00  0.00    -0.031 A 
ATOM      3  C3  DEN d   1      -5.982   5.349   0.171  0.00  0.00     0.027 A 
ATOM      4  C4  DEN d   1      -5.981   5.987   2.671  0.00  0.00     0.027 A 
ATOM      5  C5  DEN d   1      -5.238   5.980   3.831  0.00  0.00    -0.003 A 
ATOM      6  C6  DEN d   1      -3.975   5.454   3.885  0.00  0.00     0.001 A 
ATOM      7  C7  DEN d   1      -3.397   4.955   2.748  0.00  0.00     0.017 A 
ATOM      8  C8  DEN d   1      -4.143   4.951   1.576  0.00  0.00    -0.094 A 
ATOM      9  C9  DEN d   1      -5.414   5.498   1.538  0.00  0.00    -0.072 A 
ENDROOT
TORSDOF 0
ENDMDL
