MODEL 1
REMARK minimizedAffinity -0.00593472924
REMARK minimizedRMSD -1
REMARK  0 active torsions:
REMARK  status: ('A' for Active; 'I' for Inactive)
ROOT
ATOM      1  C1  DEN d   1      -6.000   6.000   1.750  0.00  0.00     0.130 A 
ATOM      2  C2  DEN d   1      -5.832   5.011   0.688  0.00  0.00    -0.031 A 
ATOM      3  C3  DEN d   1      -5.156   3.832   1.265  0.00  0.00     0.027 A 
ATOM      4  C4  DEN d   1      -4.361   3.440   3.687  0.00  0.00     0.027 A 
ATOM      5  C5  DEN d   1      -4.274   3.998   4.943  0.00  0.00    -0.003 A 
ATOM      6  C6  DEN d   1      -4.721   5.264   5.214  0.00  0.00     0.001 A 
ATOM      7  C7  DEN d   1      -5.318   5.998   4.223  0.00  0.00     0.017 A 
ATOM      8  C8  DEN d   1      -5.403   5.446   2.952  0.00  0.00    -0.094 A 
ATOM      9  C9  DEN d   1      -4.956   4.160   2.702  0.00  0.00    -0.072 A 
ENDROOT
TORSDOF 0
ENDMDL
