MODEL 1
REMARK minimizedAffinity -4.09411097
REMARK minimizedRMSD -1
REMARK  0 active torsions:
REMARK  status: ('A' for Active; 'I' for Inactive)
ROOT
ATOM      1  C1  DEN d   1      -4.337   1.878   4.697  0.00  0.00     0.130 A 
ATOM      2  C2  DEN d   1      -3.818   1.683   3.347  0.00  0.00    -0.031 A 
ATOM      3  C3  DEN d   1      -3.828   2.990   2.660  0.00  0.00     0.027 A 
ATOM      4  C4  DEN d   1      -4.587   5.287   3.555  0.00  0.00     0.027 A 
ATOM      5  C5  DEN d   1      -5.114   5.950   4.641  0.00  0.00    -0.003 A 
ATOM      6  C6  DEN d   1      -5.448   5.302   5.801  0.00  0.00     0.001 A 
ATOM      7  C7  DEN d   1      -5.217   3.957   5.918  0.00  0.00     0.017 A 
ATOM      8  C8  DEN d   1      -4.692   3.280   4.824  0.00  0.00    -0.094 A 
ATOM      9  C9  DEN d   1      -4.349   3.956   3.665  0.00  0.00    -0.072 A 
ENDROOT
TORSDOF 0
ENDMDL
