MODEL 1
REMARK minimizedAffinity 1.20623612
REMARK minimizedRMSD -1
REMARK  0 active torsions:
REMARK  status: ('A' for Active; 'I' for Inactive)
ROOT
ATOM      1  C1  DEN d   1      -3.093   4.907   4.809  0.00  0.00     0.130 A 
ATOM      2  C2  DEN d   1      -4.012   5.093   5.929  0.00  0.00    -0.031 A 
ATOM      3  C3  DEN d   1      -5.304   5.557   5.386  0.00  0.00     0.027 A 
ATOM      4  C4  DEN d   1      -5.969   6.000   2.933  0.00  0.00     0.027 A 
ATOM      5  C5  DEN d   1      -5.522   5.994   1.630  0.00  0.00    -0.003 A 
ATOM      6  C6  DEN d   1      -4.234   5.660   1.302  0.00  0.00     0.001 A 
ATOM      7  C7  DEN d   1      -3.361   5.276   2.284  0.00  0.00     0.017 A 
ATOM      8  C8  DEN d   1      -3.802   5.286   3.601  0.00  0.00    -0.094 A 
ATOM      9  C9  DEN d   1      -5.111   5.614   3.912  0.00  0.00    -0.072 A 
ENDROOT
TORSDOF 0
ENDMDL
