MODEL 1
REMARK minimizedAffinity 3.58722115
REMARK minimizedRMSD -1
REMARK  0 active torsions:
REMARK  status: ('A' for Active; 'I' for Inactive)
ROOT
ATOM      1  C2' OXE d   1       0.181   5.610  -5.522  0.00  0.00     0.078 C 
ATOM      2  C1' OXE d   1      -0.355   5.999  -2.793  0.00  0.00     0.078 C 
ATOM      3  C1  OXE d   1      -1.530   5.912  -3.736  0.00  0.00    -0.078 A 
ATOM      4  C2  OXE d   1      -1.257   5.769  -5.075  0.00  0.00    -0.078 A 
ATOM      5  C3  OXE d   1      -2.304   5.629  -5.981  0.00  0.00     0.003 A 
ATOM      6  C4  OXE d   1      -3.631   5.786  -5.560  0.00  0.00    -0.002 A 
ATOM      7  C5  OXE d   1      -3.929   5.973  -4.207  0.00  0.00    -0.002 A 
ATOM      8  C6  OXE d   1      -2.895   5.996  -3.278  0.00  0.00     0.003 A 
ENDROOT
TORSDOF 0
ENDMDL
