MODEL 1
REMARK minimizedAffinity 5.74547577
REMARK minimizedRMSD -1
REMARK  0 active torsions:
REMARK  status: ('A' for Active; 'I' for Inactive)
ROOT
ATOM      1  C2' OXE d   1      -5.994   5.978  -3.154  0.00  0.00     0.078 C 
ATOM      2  C1' OXE d   1      -5.971   5.993  -0.347  0.00  0.00     0.078 C 
ATOM      3  C1  OXE d   1      -5.796   4.667  -1.045  0.00  0.00    -0.078 A 
ATOM      4  C2  OXE d   1      -5.855   4.663  -2.418  0.00  0.00    -0.078 A 
ATOM      5  C3  OXE d   1      -5.645   3.476  -3.114  0.00  0.00     0.003 A 
ATOM      6  C4  OXE d   1      -5.527   2.262  -2.426  0.00  0.00    -0.002 A 
ATOM      7  C5  OXE d   1      -5.504   2.239  -1.027  0.00  0.00    -0.002 A 
ATOM      8  C6  OXE d   1      -5.594   3.435  -0.324  0.00  0.00     0.003 A 
ENDROOT
TORSDOF 0
ENDMDL
