MODEL 1
REMARK minimizedAffinity 4.23445559
REMARK minimizedRMSD -1
REMARK  0 active torsions:
REMARK  status: ('A' for Active; 'I' for Inactive)
ROOT
ATOM      1  C2' OXE d   1       5.335   5.396  -1.694  0.00  0.00     0.078 C 
ATOM      2  C1' OXE d   1       5.894   4.018  -4.075  0.00  0.00     0.078 C 
ATOM      3  C1  OXE d   1       4.536   3.820  -3.450  0.00  0.00    -0.078 A 
ATOM      4  C2  OXE d   1       4.288   4.462  -2.260  0.00  0.00    -0.078 A 
ATOM      5  C3  OXE d   1       3.032   4.357  -1.669  0.00  0.00     0.003 A 
ATOM      6  C4  OXE d   1       2.073   3.482  -2.193  0.00  0.00    -0.002 A 
ATOM      7  C5  OXE d   1       2.319   2.789  -3.383  0.00  0.00    -0.002 A 
ATOM      8  C6  OXE d   1       3.527   2.979  -4.045  0.00  0.00     0.003 A 
ENDROOT
TORSDOF 0
ENDMDL
