MODEL 1
REMARK minimizedAffinity 2.51236057
REMARK minimizedRMSD -1
REMARK  0 active torsions:
REMARK  status: ('A' for Active; 'I' for Inactive)
ROOT
ATOM      1  C2' OXE d   1      -1.299   0.111   2.868  0.00  0.00     0.078 C 
ATOM      2  C1' OXE d   1      -2.511   0.942   5.259  0.00  0.00     0.078 C 
ATOM      3  C1  OXE d   1      -3.389   0.312   4.207  0.00  0.00    -0.078 A 
ATOM      4  C2  OXE d   1      -2.796  -0.050   3.022  0.00  0.00    -0.078 A 
ATOM      5  C3  OXE d   1      -3.549  -0.685   2.039  0.00  0.00     0.003 A 
ATOM      6  C4  OXE d   1      -4.935  -0.820   2.185  0.00  0.00    -0.002 A 
ATOM      7  C5  OXE d   1      -5.566  -0.423   3.369  0.00  0.00    -0.002 A 
ATOM      8  C6  OXE d   1      -4.803   0.105   4.404  0.00  0.00     0.003 A 
ENDROOT
TORSDOF 0
ENDMDL
