MODEL 1
REMARK minimizedAffinity 15.8427124
REMARK minimizedRMSD -1
REMARK  0 active torsions:
REMARK  status: ('A' for Active; 'I' for Inactive)
ROOT
ATOM      1  C2' OXE d   1      -4.595  -1.310   0.275  0.00  0.00     0.078 C 
ATOM      2  C1' OXE d   1      -4.803   1.036   1.803  0.00  0.00     0.078 C 
ATOM      3  C1  OXE d   1      -5.204   1.105   0.350  0.00  0.00    -0.078 A 
ATOM      4  C2  OXE d   1      -5.054  -0.036  -0.401  0.00  0.00    -0.078 A 
ATOM      5  C3  OXE d   1      -5.461  -0.043  -1.733  0.00  0.00     0.003 A 
ATOM      6  C4  OXE d   1      -5.875   1.142  -2.353  0.00  0.00    -0.002 A 
ATOM      7  C5  OXE d   1      -5.997   2.325  -1.616  0.00  0.00    -0.002 A 
ATOM      8  C6  OXE d   1      -5.706   2.313  -0.256  0.00  0.00     0.003 A 
ENDROOT
TORSDOF 0
ENDMDL
