MODEL 1
REMARK minimizedAffinity 21.0777645
REMARK minimizedRMSD -1
REMARK  0 active torsions:
REMARK  status: ('A' for Active; 'I' for Inactive)
ROOT
ATOM      1  C2' OXE d   1       0.764  -4.066   1.832  0.00  0.00     0.078 C 
ATOM      2  C1' OXE d   1       2.565  -1.919   1.996  0.00  0.00     0.078 C 
ATOM      3  C1  OXE d   1       2.868  -3.018   1.007  0.00  0.00    -0.078 A 
ATOM      4  C2  OXE d   1       2.005  -4.087   0.967  0.00  0.00    -0.078 A 
ATOM      5  C3  OXE d   1       2.208  -5.101   0.035  0.00  0.00     0.003 A 
ATOM      6  C4  OXE d   1       3.364  -5.118  -0.755  0.00  0.00    -0.002 A 
ATOM      7  C5  OXE d   1       4.276  -4.058  -0.701  0.00  0.00    -0.002 A 
ATOM      8  C6  OXE d   1       4.021  -2.982   0.142  0.00  0.00     0.003 A 
ENDROOT
TORSDOF 0
ENDMDL
