MODEL 1
REMARK minimizedAffinity 15.8258343
REMARK minimizedRMSD -1
REMARK  0 active torsions:
REMARK  status: ('A' for Active; 'I' for Inactive)
ROOT
ATOM      1  C2' OXE d   1       4.872   5.453  -1.697  0.00  0.00     0.078 C 
ATOM      2  C1' OXE d   1       5.995   5.220  -4.259  0.00  0.00     0.078 C 
ATOM      3  C1  OXE d   1       4.875   4.278  -3.894  0.00  0.00    -0.078 A 
ATOM      4  C2  OXE d   1       4.363   4.368  -2.622  0.00  0.00    -0.078 A 
ATOM      5  C3  OXE d   1       3.292   3.560  -2.251  0.00  0.00     0.003 A 
ATOM      6  C4  OXE d   1       2.834   2.552  -3.108  0.00  0.00    -0.002 A 
ATOM      7  C5  OXE d   1       3.369   2.417  -4.394  0.00  0.00    -0.002 A 
ATOM      8  C6  OXE d   1       4.358   3.298  -4.817  0.00  0.00     0.003 A 
ENDROOT
TORSDOF 0
ENDMDL
