MODEL 1
REMARK minimizedAffinity 23.2685013
REMARK minimizedRMSD -1
REMARK  0 active torsions:
REMARK  status: ('A' for Active; 'I' for Inactive)
ROOT
ATOM      1  C2' OXE d   1       4.125   2.634  -5.486  0.00  0.00     0.078 C 
ATOM      2  C1' OXE d   1       5.996   4.615  -4.812  0.00  0.00     0.078 C 
ATOM      3  C1  OXE d   1       4.786   4.461  -3.926  0.00  0.00    -0.078 A 
ATOM      4  C2  OXE d   1       3.852   3.520  -4.290  0.00  0.00    -0.078 A 
ATOM      5  C3  OXE d   1       2.743   3.300  -3.477  0.00  0.00     0.003 A 
ATOM      6  C4  OXE d   1       2.493   4.131  -2.378  0.00  0.00    -0.002 A 
ATOM      7  C5  OXE d   1       3.412   5.121  -2.013  0.00  0.00    -0.002 A 
ATOM      8  C6  OXE d   1       4.581   5.270  -2.750  0.00  0.00     0.003 A 
ENDROOT
TORSDOF 0
ENDMDL
