MODEL 1
REMARK minimizedAffinity 14.8436241
REMARK minimizedRMSD -1
REMARK  0 active torsions:
REMARK  status: ('A' for Active; 'I' for Inactive)
ROOT
ATOM      1  C2' OXE d   1       2.481   2.758  -3.336  0.00  0.00     0.078 C 
ATOM      2  C1' OXE d   1       3.700   2.973  -5.855  0.00  0.00     0.078 C 
ATOM      3  C1  OXE d   1       4.289   3.769  -4.719  0.00  0.00    -0.078 A 
ATOM      4  C2  OXE d   1       3.658   3.695  -3.500  0.00  0.00    -0.078 A 
ATOM      5  C3  OXE d   1       4.193   4.367  -2.405  0.00  0.00     0.003 A 
ATOM      6  C4  OXE d   1       5.276   5.239  -2.567  0.00  0.00    -0.002 A 
ATOM      7  C5  OXE d   1       5.909   5.360  -3.809  0.00  0.00    -0.002 A 
ATOM      8  C6  OXE d   1       5.456   4.602  -4.882  0.00  0.00     0.003 A 
ENDROOT
TORSDOF 0
ENDMDL
