MODEL 1
REMARK minimizedAffinity 14.51474
REMARK minimizedRMSD -1
REMARK  0 active torsions:
REMARK  status: ('A' for Active; 'I' for Inactive)
ROOT
ATOM      1  C2' OXE d   1       2.006   2.984  -3.020  0.00  0.00     0.078 C 
ATOM      2  C1' OXE d   1       3.357   2.570  -5.445  0.00  0.00     0.078 C 
ATOM      3  C1  OXE d   1       4.075   3.337  -4.362  0.00  0.00    -0.078 A 
ATOM      4  C2  OXE d   1       3.388   3.575  -3.196  0.00  0.00    -0.078 A 
ATOM      5  C3  OXE d   1       4.023   4.229  -2.144  0.00  0.00     0.003 A 
ATOM      6  C4  OXE d   1       5.298   4.781  -2.318  0.00  0.00    -0.002 A 
ATOM      7  C5  OXE d   1       5.999   4.584  -3.512  0.00  0.00    -0.002 A 
ATOM      8  C6  OXE d   1       5.420   3.829  -4.526  0.00  0.00     0.003 A 
ENDROOT
TORSDOF 0
ENDMDL
