MODEL 1
REMARK minimizedAffinity 15.1557322
REMARK minimizedRMSD -1
REMARK  0 active torsions:
REMARK  status: ('A' for Active; 'I' for Inactive)
ROOT
ATOM      1  C2' OXE d   1      -1.374   0.408   2.710  0.00  0.00     0.078 C 
ATOM      2  C1' OXE d   1      -1.443  -1.730   0.892  0.00  0.00     0.078 C 
ATOM      3  C1  OXE d   1      -0.429  -1.788   2.007  0.00  0.00    -0.078 A 
ATOM      4  C2  OXE d   1      -0.371  -0.716   2.865  0.00  0.00    -0.078 A 
ATOM      5  C3  OXE d   1       0.509  -0.742   3.943  0.00  0.00     0.003 A 
ATOM      6  C4  OXE d   1       1.440  -1.780   4.073  0.00  0.00    -0.002 A 
ATOM      7  C5  OXE d   1       1.424  -2.863   3.187  0.00  0.00    -0.002 A 
ATOM      8  C6  OXE d   1       0.470  -2.902   2.177  0.00  0.00     0.003 A 
ENDROOT
TORSDOF 0
ENDMDL
