MODEL 1
REMARK minimizedAffinity 17.0876942
REMARK minimizedRMSD -1
REMARK  0 active torsions:
REMARK  status: ('A' for Active; 'I' for Inactive)
ROOT
ATOM      1  C2' OXE d   1       6.000   2.542  -0.385  0.00  0.00     0.078 C 
ATOM      2  C1' OXE d   1       4.887   2.940   2.161  0.00  0.00     0.078 C 
ATOM      3  C1  OXE d   1       4.166   2.013   1.215  0.00  0.00    -0.078 A 
ATOM      4  C2  OXE d   1       4.692   1.861  -0.045  0.00  0.00    -0.078 A 
ATOM      5  C3  OXE d   1       4.096   0.975  -0.939  0.00  0.00     0.003 A 
ATOM      6  C4  OXE d   1       2.881   0.357  -0.620  0.00  0.00    -0.002 A 
ATOM      7  C5  OXE d   1       2.307   0.529   0.644  0.00  0.00    -0.002 A 
ATOM      8  C6  OXE d   1       2.957   1.319   1.586  0.00  0.00     0.003 A 
ENDROOT
TORSDOF 0
ENDMDL
