MODEL 1
REMARK minimizedAffinity 10.5401468
REMARK minimizedRMSD -1
REMARK  0 active torsions:
REMARK  status: ('A' for Active; 'I' for Inactive)
ROOT
ATOM      1  C2' OXE d   1      -1.304  -2.906   1.064  0.00  0.00     0.078 C 
ATOM      2  C1' OXE d   1       0.468  -2.006   3.047  0.00  0.00     0.078 C 
ATOM      3  C1  OXE d   1      -0.736  -1.152   2.739  0.00  0.00    -0.078 A 
ATOM      4  C2  OXE d   1      -1.573  -1.576   1.736  0.00  0.00    -0.078 A 
ATOM      5  C3  OXE d   1      -2.728  -0.854   1.449  0.00  0.00     0.003 A 
ATOM      6  C4  OXE d   1      -2.964   0.380   2.068  0.00  0.00    -0.002 A 
ATOM      7  C5  OXE d   1      -2.103   0.850   3.065  0.00  0.00    -0.002 A 
ATOM      8  C6  OXE d   1      -1.010   0.078   3.442  0.00  0.00     0.003 A 
ENDROOT
TORSDOF 0
ENDMDL
