MODEL 1
REMARK minimizedAffinity 15.2077484
REMARK minimizedRMSD -1
REMARK  0 active torsions:
REMARK  status: ('A' for Active; 'I' for Inactive)
ROOT
ATOM      1  C2' OXE d   1      -1.351  -2.357   0.626  0.00  0.00     0.078 C 
ATOM      2  C1' OXE d   1       0.781  -1.029   1.878  0.00  0.00     0.078 C 
ATOM      3  C1  OXE d   1      -0.615  -0.530   2.151  0.00  0.00    -0.078 A 
ATOM      4  C2  OXE d   1      -1.649  -1.156   1.497  0.00  0.00    -0.078 A 
ATOM      5  C3  OXE d   1      -2.962  -0.771   1.755  0.00  0.00     0.003 A 
ATOM      6  C4  OXE d   1      -3.228   0.347   2.554  0.00  0.00    -0.002 A 
ATOM      7  C5  OXE d   1      -2.187   1.024   3.198  0.00  0.00    -0.002 A 
ATOM      8  C6  OXE d   1      -0.881   0.573   3.041  0.00  0.00     0.003 A 
ENDROOT
TORSDOF 0
ENDMDL
