MODEL 1
REMARK minimizedAffinity 12.6642189
REMARK minimizedRMSD -1
REMARK  0 active torsions:
REMARK  status: ('A' for Active; 'I' for Inactive)
ROOT
ATOM      1  C2' OXE d   1       5.732   4.148  -4.069  0.00  0.00     0.078 C 
ATOM      2  C1' OXE d   1       3.577   3.269  -5.639  0.00  0.00     0.078 C 
ATOM      3  C1  OXE d   1       3.561   2.931  -4.170  0.00  0.00    -0.078 A 
ATOM      4  C2  OXE d   1       4.641   3.325  -3.418  0.00  0.00    -0.078 A 
ATOM      5  C3  OXE d   1       4.651   3.086  -2.047  0.00  0.00     0.003 A 
ATOM      6  C4  OXE d   1       3.644   2.315  -1.454  0.00  0.00    -0.002 A 
ATOM      7  C5  OXE d   1       2.554   1.870  -2.209  0.00  0.00    -0.002 A 
ATOM      8  C6  OXE d   1       2.476   2.205  -3.556  0.00  0.00     0.003 A 
ENDROOT
TORSDOF 0
ENDMDL
