MODEL 1
REMARK minimizedAffinity 18.6715755
REMARK minimizedRMSD -1
REMARK  0 active torsions:
REMARK  status: ('A' for Active; 'I' for Inactive)
ROOT
ATOM      1  C2' OXE d   1       3.005   1.127  -1.014  0.00  0.00     0.078 C 
ATOM      2  C1' OXE d   1       2.265   2.884  -3.074  0.00  0.00     0.078 C 
ATOM      3  C1  OXE d   1       3.591   3.116  -2.394  0.00  0.00    -0.078 A 
ATOM      4  C2  OXE d   1       3.924   2.280  -1.355  0.00  0.00    -0.078 A 
ATOM      5  C3  OXE d   1       5.160   2.416  -0.730  0.00  0.00     0.003 A 
ATOM      6  C4  OXE d   1       5.999   3.491  -1.045  0.00  0.00    -0.002 A 
ATOM      7  C5  OXE d   1       5.661   4.378  -2.072  0.00  0.00    -0.002 A 
ATOM      8  C6  OXE d   1       4.483   4.180  -2.784  0.00  0.00     0.003 A 
ENDROOT
TORSDOF 0
ENDMDL
