MODEL 1
REMARK minimizedAffinity 14.4561348
REMARK minimizedRMSD -1
REMARK  0 active torsions:
REMARK  status: ('A' for Active; 'I' for Inactive)
ROOT
ATOM      1  C2' OXE d   1      -2.498   0.933   4.491  0.00  0.00     0.078 C 
ATOM      2  C1' OXE d   1      -2.670   0.823   1.692  0.00  0.00     0.078 C 
ATOM      3  C1  OXE d   1      -1.637  -0.044   2.368  0.00  0.00    -0.078 A 
ATOM      4  C2  OXE d   1      -1.529   0.052   3.734  0.00  0.00    -0.078 A 
ATOM      5  C3  OXE d   1      -0.630  -0.766   4.413  0.00  0.00     0.003 A 
ATOM      6  C4  OXE d   1       0.270  -1.572   3.704  0.00  0.00    -0.002 A 
ATOM      7  C5  OXE d   1       0.203  -1.653   2.309  0.00  0.00    -0.002 A 
ATOM      8  C6  OXE d   1      -0.771  -0.930   1.630  0.00  0.00     0.003 A 
ENDROOT
TORSDOF 0
ENDMDL
