MODEL 1
REMARK minimizedAffinity 9.43626213
REMARK minimizedRMSD -1
REMARK  0 active torsions:
REMARK  status: ('A' for Active; 'I' for Inactive)
ROOT
ATOM      1  C2' OXE d   1      -2.915   1.414   3.290  0.00  0.00     0.078 C 
ATOM      2  C1' OXE d   1      -4.358   0.405   1.103  0.00  0.00     0.078 C 
ATOM      3  C1  OXE d   1      -3.021  -0.221   1.413  0.00  0.00    -0.078 A 
ATOM      4  C2  OXE d   1      -2.301   0.310   2.456  0.00  0.00    -0.078 A 
ATOM      5  C3  OXE d   1      -1.086  -0.265   2.818  0.00  0.00     0.003 A 
ATOM      6  C4  OXE d   1      -0.521  -1.279   2.035  0.00  0.00    -0.002 A 
ATOM      7  C5  OXE d   1      -1.220  -1.807   0.944  0.00  0.00    -0.002 A 
ATOM      8  C6  OXE d   1      -2.487  -1.319   0.646  0.00  0.00     0.003 A 
ENDROOT
TORSDOF 0
ENDMDL
