MODEL 1
REMARK minimizedAffinity 9.28046227
REMARK minimizedRMSD -1
REMARK  0 active torsions:
REMARK  status: ('A' for Active; 'I' for Inactive)
ROOT
ATOM      1  C2' OXE d   1       2.965   3.029  -2.996  0.00  0.00     0.078 C 
ATOM      2  C1' OXE d   1       4.255   2.998  -5.489  0.00  0.00     0.078 C 
ATOM      3  C1  OXE d   1       4.670   4.054  -4.495  0.00  0.00    -0.078 A 
ATOM      4  C2  OXE d   1       4.001   4.091  -3.296  0.00  0.00    -0.078 A 
ATOM      5  C3  OXE d   1       4.381   5.010  -2.322  0.00  0.00     0.003 A 
ATOM      6  C4  OXE d   1       5.334   5.995  -2.611  0.00  0.00    -0.002 A 
ATOM      7  C5  OXE d   1       5.999   6.000  -3.841  0.00  0.00    -0.002 A 
ATOM      8  C6  OXE d   1       5.710   5.012  -4.776  0.00  0.00     0.003 A 
ENDROOT
TORSDOF 0
ENDMDL
