MODEL 1
REMARK minimizedAffinity 11.0530424
REMARK minimizedRMSD -1
REMARK  0 active torsions:
REMARK  status: ('A' for Active; 'I' for Inactive)
ROOT
ATOM      1  C2' OXE d   1       4.555   2.548  -5.212  0.00  0.00     0.078 C 
ATOM      2  C1' OXE d   1       5.936   4.465  -3.697  0.00  0.00     0.078 C 
ATOM      3  C1  OXE d   1       4.461   4.292  -3.436  0.00  0.00    -0.078 A 
ATOM      4  C2  OXE d   1       3.783   3.384  -4.214  0.00  0.00    -0.078 A 
ATOM      5  C3  OXE d   1       2.433   3.146  -3.978  0.00  0.00     0.003 A 
ATOM      6  C4  OXE d   1       1.724   3.931  -3.060  0.00  0.00    -0.002 A 
ATOM      7  C5  OXE d   1       2.387   4.888  -2.284  0.00  0.00    -0.002 A 
ATOM      8  C6  OXE d   1       3.760   5.051  -2.430  0.00  0.00     0.003 A 
ENDROOT
TORSDOF 0
ENDMDL
