MODEL 1
REMARK minimizedAffinity -3.70579195
REMARK minimizedRMSD -1
REMARK  3 active torsions:
REMARK  status: ('A' for Active; 'I' for Inactive)
REMARK    1  A    between atoms: C3'_2  and  C2'_3 
REMARK    2  A    between atoms: C2'_3  and  C1'_4 
REMARK    3  A    between atoms: C1'_4  and  C1_5 
ROOT
ATOM      1  C1  N4B d   1       0.476  -0.223  -0.127  0.00  0.00    -0.075 A 
ATOM      2  C2  N4B d   1       1.410  -1.268  -0.304  0.00  0.00     0.002 A 
ATOM      3  C3  N4B d   1       2.756  -0.995  -0.295  0.00  0.00     0.002 A 
ATOM      4  C4  N4B d   1       3.189   0.312  -0.129  0.00  0.00    -0.004 A 
ATOM      5  C5  N4B d   1       2.281   1.312   0.068  0.00  0.00     0.002 A 
ATOM      6  C6  N4B d   1       0.926   1.051   0.065  0.00  0.00     0.002 A 
ENDROOT
BRANCH   1   7
ATOM      7  C1' N4B d   1      -1.007  -0.460  -0.215  0.00  0.00     0.057 C 
BRANCH   7   8
ATOM      8  C2' N4B d   1      -1.740   0.702   0.448  0.00  0.00     0.009 C 
BRANCH   8   9
ATOM      9  C3' N4B d   1      -3.248   0.527   0.394  0.00  0.00     0.004 C 
ATOM     10  C4' N4B d   1      -3.900   0.687   1.735  0.00  0.00     0.003 C 
ENDBRANCH   8   9
ENDBRANCH   7   8
ENDBRANCH   1   7
TORSDOF 3
ENDMDL
