MODEL 1
REMARK minimizedAffinity -2.5152905
REMARK minimizedRMSD -1
REMARK  3 active torsions:
REMARK  status: ('A' for Active; 'I' for Inactive)
REMARK    1  A    between atoms: C3'_2  and  C2'_3 
REMARK    2  A    between atoms: C2'_3  and  C1'_4 
REMARK    3  A    between atoms: C1'_4  and  C1_5 
ROOT
ATOM      1  C1  N4B d   1      -0.199  -0.336  -0.303  0.00  0.00    -0.075 A 
ATOM      2  C2  N4B d   1       1.003   0.324   0.034  0.00  0.00     0.002 A 
ATOM      3  C3  N4B d   1       2.193  -0.361   0.009  0.00  0.00     0.002 A 
ATOM      4  C4  N4B d   1       2.203  -1.706  -0.330  0.00  0.00    -0.004 A 
ATOM      5  C5  N4B d   1       1.041  -2.330  -0.678  0.00  0.00     0.002 A 
ATOM      6  C6  N4B d   1      -0.161  -1.653  -0.661  0.00  0.00     0.002 A 
ENDROOT
BRANCH   1   7
ATOM      7  C1' N4B d   1      -1.535   0.349  -0.207  0.00  0.00     0.057 C 
BRANCH   7   8
ATOM      8  C2' N4B d   1      -1.401   1.586   0.676  0.00  0.00     0.009 C 
BRANCH   8   9
ATOM      9  C3' N4B d   1      -2.650   1.829   1.506  0.00  0.00     0.004 C 
ATOM     10  C4' N4B d   1      -3.769   0.892   1.160  0.00  0.00     0.003 C 
ENDBRANCH   8   9
ENDBRANCH   7   8
ENDBRANCH   1   7
TORSDOF 3
ENDMDL
