MODEL 1
REMARK minimizedAffinity 8.079916
REMARK minimizedRMSD -1
REMARK  1 active torsions:
REMARK  status: ('A' for Active; 'I' for Inactive)
REMARK    1  A    between atoms: C1_2  and  C2_3 
ROOT
ATOM      1  C2  UNL d   1      -4.087   2.621  -1.585  0.00  0.00    -0.076 A 
ATOM      2  C3  UNL d   1      -5.303   3.287  -1.819  0.00  0.00     0.004 A 
ATOM      3  C4  UNL d   1      -6.000   3.896  -0.777  0.00  0.00    -0.003 A 
ATOM      4  C5  UNL d   1      -5.491   3.850   0.517  0.00  0.00     0.000 A 
ATOM      5  C6  UNL d   1      -4.278   3.209   0.764  0.00  0.00     0.000 A 
ATOM      6  C7  UNL d   1      -3.555   2.604  -0.278  0.00  0.00    -0.073 A 
ATOM      7  C8  UNL d   1      -2.254   1.922   0.047  0.00  0.00     0.078 C 
ENDROOT
BRANCH   1   8
ATOM      8  C1  UNL d   1      -3.390   1.956  -2.750  0.00  0.00     0.053 C 
ATOM      9  C   UNL d   1      -4.085   2.224  -4.075  0.00  0.00     0.018 C 
ENDBRANCH   1   8
TORSDOF 1
ENDMDL
