MODEL 1
REMARK minimizedAffinity 7.15220976
REMARK minimizedRMSD -1
REMARK  1 active torsions:
REMARK  status: ('A' for Active; 'I' for Inactive)
REMARK    1  A    between atoms: C1_2  and  C2_3 
ROOT
ATOM      1  C2  UNL d   1       2.329  -2.681   3.642  0.00  0.00    -0.076 A 
ATOM      2  C3  UNL d   1       2.777  -3.266   4.839  0.00  0.00     0.004 A 
ATOM      3  C4  UNL d   1       4.137  -3.444   5.086  0.00  0.00    -0.003 A 
ATOM      4  C5  UNL d   1       5.072  -3.037   4.140  0.00  0.00     0.000 A 
ATOM      5  C6  UNL d   1       4.646  -2.439   2.955  0.00  0.00     0.000 A 
ATOM      6  C7  UNL d   1       3.279  -2.238   2.698  0.00  0.00    -0.073 A 
ATOM      7  C8  UNL d   1       2.876  -1.593   1.400  0.00  0.00     0.078 C 
ENDROOT
BRANCH   1   8
ATOM      8  C1  UNL d   1       0.840  -2.539   3.418  0.00  0.00     0.053 C 
ATOM      9  C   UNL d   1       0.113  -3.874   3.475  0.00  0.00     0.018 C 
ENDBRANCH   1   8
TORSDOF 1
ENDMDL
