MODEL 1
REMARK minimizedAffinity 11.0062475
REMARK minimizedRMSD -1
REMARK  1 active torsions:
REMARK  status: ('A' for Active; 'I' for Inactive)
REMARK    1  A    between atoms: C1_2  and  C2_3 
ROOT
ATOM      1  C2  UNL d   1      -2.659   0.711  -2.626  0.00  0.00    -0.076 A 
ATOM      2  C3  UNL d   1      -2.096   0.398  -1.377  0.00  0.00     0.004 A 
ATOM      3  C4  UNL d   1      -1.983   1.364  -0.379  0.00  0.00    -0.003 A 
ATOM      4  C5  UNL d   1      -2.431   2.659  -0.613  0.00  0.00     0.000 A 
ATOM      5  C6  UNL d   1      -3.008   2.983  -1.841  0.00  0.00     0.000 A 
ATOM      6  C7  UNL d   1      -3.145   2.016  -2.852  0.00  0.00    -0.073 A 
ATOM      7  C8  UNL d   1      -3.769   2.422  -4.159  0.00  0.00     0.078 C 
ENDROOT
BRANCH   1   8
ATOM      8  C1  UNL d   1      -2.730  -0.371  -3.680  0.00  0.00     0.053 C 
ATOM      9  C   UNL d   1      -3.459  -1.613  -3.191  0.00  0.00     0.018 C 
ENDBRANCH   1   8
TORSDOF 1
ENDMDL
