MODEL 1
REMARK minimizedAffinity -3.79859304
REMARK minimizedRMSD -1
REMARK  1 active torsions:
REMARK  status: ('A' for Active; 'I' for Inactive)
REMARK    1  A    between atoms: C1_2  and  C2_3 
ROOT
ATOM      1  C2  UNL d   1       1.209  -1.161   0.768  0.00  0.00    -0.076 A 
ATOM      2  C3  UNL d   1       1.626  -0.470  -0.382  0.00  0.00     0.004 A 
ATOM      3  C4  UNL d   1       2.566   0.557  -0.301  0.00  0.00    -0.003 A 
ATOM      4  C5  UNL d   1       3.103   0.908   0.933  0.00  0.00     0.000 A 
ATOM      5  C6  UNL d   1       2.714   0.221   2.082  0.00  0.00     0.000 A 
ATOM      6  C7  UNL d   1       1.780  -0.828   2.015  0.00  0.00    -0.073 A 
ATOM      7  C8  UNL d   1       1.391  -1.531   3.286  0.00  0.00     0.078 C 
ENDROOT
BRANCH   1   8
ATOM      8  C1  UNL d   1       0.167  -2.248   0.622  0.00  0.00     0.053 C 
ATOM      9  C   UNL d   1      -1.223  -1.690   0.355  0.00  0.00     0.018 C 
ENDBRANCH   1   8
TORSDOF 1
ENDMDL
