MODEL 1
REMARK minimizedAffinity 8.81700325
REMARK minimizedRMSD -1
REMARK  1 active torsions:
REMARK  status: ('A' for Active; 'I' for Inactive)
REMARK    1  A    between atoms: C1_2  and  C2_3 
ROOT
ATOM      1  C2  UNL d   1       3.953  -5.962  -3.698  0.00  0.00    -0.076 A 
ATOM      2  C3  UNL d   1       2.980  -5.977  -4.712  0.00  0.00     0.004 A 
ATOM      3  C4  UNL d   1       1.621  -5.984  -4.403  0.00  0.00    -0.003 A 
ATOM      4  C5  UNL d   1       1.213  -5.974  -3.074  0.00  0.00     0.000 A 
ATOM      5  C6  UNL d   1       2.164  -5.941  -2.055  0.00  0.00     0.000 A 
ATOM      6  C7  UNL d   1       3.538  -5.918  -2.350  0.00  0.00    -0.073 A 
ATOM      7  C8  UNL d   1       4.520  -5.888  -1.211  0.00  0.00     0.078 C 
ENDROOT
BRANCH   1   8
ATOM      8  C1  UNL d   1       5.412  -5.983  -4.094  0.00  0.00     0.053 C 
ATOM      9  C   UNL d   1       5.607  -5.972  -5.602  0.00  0.00     0.018 C 
ENDBRANCH   1   8
TORSDOF 1
ENDMDL
