MODEL 1
REMARK minimizedAffinity 15.8701363
REMARK minimizedRMSD -1
REMARK  0 active torsions:
REMARK  status: ('A' for Active; 'I' for Inactive)
ROOT
ATOM      1  C   UNL d   1      -0.785  -1.546  -1.326  0.00  0.00     0.124 A 
ATOM      2  C1  UNL d   1       0.436  -2.125  -1.011  0.00  0.00     0.062 A 
ATOM      3  C2  UNL d   1       0.992  -1.945   0.253  0.00  0.00     0.162 A 
ATOM      4  C3  UNL d   1       0.326  -1.182   1.212  0.00  0.00    -0.034 A 
ATOM      5  C4  UNL d   1      -0.902  -0.602   0.888  0.00  0.00     0.162 A 
ATOM      6  C5  UNL d   1      -1.453  -0.785  -0.376  0.00  0.00     0.062 A 
ATOM      7  F   UNL d   1      -2.633  -0.224  -0.679  0.00  0.00    -0.097 F 
ATOM      8  F1  UNL d   1      -1.569   0.138   1.786  0.00  0.00    -0.096 F 
ATOM      9  I   UNL d   1       1.153  -0.911   3.102  0.00  0.00    -0.060 I 
ATOM     10  F2  UNL d   1       2.173  -2.517   0.529  0.00  0.00    -0.096 F 
ATOM     11  F3  UNL d   1       1.084  -2.860  -1.927  0.00  0.00    -0.097 F 
ATOM     12  F4  UNL d   1      -1.317  -1.720  -2.542  0.00  0.00    -0.092 F 
ENDROOT
TORSDOF 0
ENDMDL
