MODEL 1
REMARK minimizedAffinity 2.05131888
REMARK minimizedRMSD -1
REMARK  0 active torsions:
REMARK  status: ('A' for Active; 'I' for Inactive)
ROOT
ATOM      1  C   UNL d   1       2.036  -2.641   4.339  0.00  0.00     0.124 A 
ATOM      2  C1  UNL d   1       2.141  -3.674   3.418  0.00  0.00     0.062 A 
ATOM      3  C2  UNL d   1       1.900  -3.434   2.068  0.00  0.00     0.162 A 
ATOM      4  C3  UNL d   1       1.554  -2.156   1.631  0.00  0.00    -0.034 A 
ATOM      5  C4  UNL d   1       1.450  -1.122   2.564  0.00  0.00     0.162 A 
ATOM      6  C5  UNL d   1       1.691  -1.367   3.912  0.00  0.00     0.062 A 
ATOM      7  F   UNL d   1       1.590  -0.368   4.801  0.00  0.00    -0.097 F 
ATOM      8  F1  UNL d   1       1.119   0.119   2.178  0.00  0.00    -0.096 F 
ATOM      9  I   UNL d   1       1.193  -1.794  -0.387  0.00  0.00    -0.060 I 
ATOM     10  F2  UNL d   1       2.008  -4.451   1.200  0.00  0.00    -0.096 F 
ATOM     11  F3  UNL d   1       2.473  -4.906   3.829  0.00  0.00    -0.097 F 
ATOM     12  F4  UNL d   1       2.267  -2.875   5.638  0.00  0.00    -0.092 F 
ENDROOT
TORSDOF 0
ENDMDL
