MODEL 1
REMARK minimizedAffinity 15.2983179
REMARK minimizedRMSD -1
REMARK  0 active torsions:
REMARK  status: ('A' for Active; 'I' for Inactive)
ROOT
ATOM      1  C   UNL d   1       2.037  -3.321   3.863  0.00  0.00     0.124 A 
ATOM      2  C1  UNL d   1       2.261  -4.308   2.914  0.00  0.00     0.062 A 
ATOM      3  C2  UNL d   1       2.250  -3.991   1.558  0.00  0.00     0.162 A 
ATOM      4  C3  UNL d   1       2.015  -2.680   1.145  0.00  0.00    -0.034 A 
ATOM      5  C4  UNL d   1       1.789  -1.693   2.106  0.00  0.00     0.162 A 
ATOM      6  C5  UNL d   1       1.801  -2.015   3.459  0.00  0.00     0.062 A 
ATOM      7  F   UNL d   1       1.584  -1.060   4.375  0.00  0.00    -0.097 F 
ATOM      8  F1  UNL d   1       1.560  -0.422   1.742  0.00  0.00    -0.096 F 
ATOM      9  I   UNL d   1       1.998  -2.201  -0.881  0.00  0.00    -0.060 I 
ATOM     10  F2  UNL d   1       2.470  -4.964   0.663  0.00  0.00    -0.096 F 
ATOM     11  F3  UNL d   1       2.488  -5.571   3.302  0.00  0.00    -0.097 F 
ATOM     12  F4  UNL d   1       2.047  -3.629   5.167  0.00  0.00    -0.092 F 
ENDROOT
TORSDOF 0
ENDMDL
