MODEL 1
REMARK minimizedAffinity 19.5519733
REMARK minimizedRMSD -1
REMARK  0 active torsions:
REMARK  status: ('A' for Active; 'I' for Inactive)
ROOT
ATOM      1  C   UNL d   1       3.132  -2.672   3.244  0.00  0.00     0.124 A 
ATOM      2  C1  UNL d   1       4.378  -2.240   2.809  0.00  0.00     0.062 A 
ATOM      3  C2  UNL d   1       4.513  -0.999   2.193  0.00  0.00     0.162 A 
ATOM      4  C3  UNL d   1       3.399  -0.180   2.009  0.00  0.00    -0.034 A 
ATOM      5  C4  UNL d   1       2.149  -0.622   2.447  0.00  0.00     0.162 A 
ATOM      6  C5  UNL d   1       2.019  -1.862   3.062  0.00  0.00     0.062 A 
ATOM      7  F   UNL d   1       0.815  -2.278   3.481  0.00  0.00    -0.097 F 
ATOM      8  F1  UNL d   1       1.058   0.141   2.286  0.00  0.00    -0.096 F 
ATOM      9  I   UNL d   1       3.597   1.676   1.088  0.00  0.00    -0.060 I 
ATOM     10  F2  UNL d   1       5.729  -0.608   1.784  0.00  0.00    -0.096 F 
ATOM     11  F3  UNL d   1       5.454  -3.021   2.982  0.00  0.00    -0.097 F 
ATOM     12  F4  UNL d   1       3.004  -3.867   3.835  0.00  0.00    -0.092 F 
ENDROOT
TORSDOF 0
ENDMDL
