MODEL 1
REMARK minimizedAffinity 20.286108
REMARK minimizedRMSD -1
REMARK  0 active torsions:
REMARK  status: ('A' for Active; 'I' for Inactive)
ROOT
ATOM      1  C   UNL d   1       2.134  -1.164   2.402  0.00  0.00     0.124 A 
ATOM      2  C1  UNL d   1       1.867  -1.655   1.131  0.00  0.00     0.062 A 
ATOM      3  C2  UNL d   1       2.011  -3.013   0.860  0.00  0.00     0.162 A 
ATOM      4  C3  UNL d   1       2.424  -3.890   1.863  0.00  0.00    -0.034 A 
ATOM      5  C4  UNL d   1       2.692  -3.389   3.138  0.00  0.00     0.162 A 
ATOM      6  C5  UNL d   1       2.546  -2.032   3.404  0.00  0.00     0.062 A 
ATOM      7  F   UNL d   1       2.805  -1.560   4.632  0.00  0.00    -0.097 F 
ATOM      8  F1  UNL d   1       3.090  -4.205   4.125  0.00  0.00    -0.096 F 
ATOM      9  I   UNL d   1       2.640  -5.921   1.462  0.00  0.00    -0.060 I 
ATOM     10  F2  UNL d   1       1.745  -3.459  -0.377  0.00  0.00    -0.096 F 
ATOM     11  F3  UNL d   1       1.469  -0.819   0.161  0.00  0.00    -0.097 F 
ATOM     12  F4  UNL d   1       1.996   0.142   2.659  0.00  0.00    -0.092 F 
ENDROOT
TORSDOF 0
ENDMDL
