MODEL 1
REMARK minimizedAffinity 16.41399
REMARK minimizedRMSD -1
REMARK  0 active torsions:
REMARK  status: ('A' for Active; 'I' for Inactive)
ROOT
ATOM      1  C   UNL d   1       2.273  -1.489   2.993  0.00  0.00     0.124 A 
ATOM      2  C1  UNL d   1       1.301  -0.532   2.738  0.00  0.00     0.062 A 
ATOM      3  C2  UNL d   1       0.457  -0.667   1.638  0.00  0.00     0.162 A 
ATOM      4  C3  UNL d   1       0.582  -1.764   0.786  0.00  0.00    -0.034 A 
ATOM      5  C4  UNL d   1       1.563  -2.722   1.049  0.00  0.00     0.162 A 
ATOM      6  C5  UNL d   1       2.404  -2.583   2.149  0.00  0.00     0.062 A 
ATOM      7  F   UNL d   1       3.343  -3.508   2.394  0.00  0.00    -0.097 F 
ATOM      8  F1  UNL d   1       1.711  -3.789   0.250  0.00  0.00    -0.096 F 
ATOM      9  I   UNL d   1      -0.677  -1.970  -0.858  0.00  0.00    -0.060 I 
ATOM     10  F2  UNL d   1      -0.473   0.273   1.416  0.00  0.00    -0.096 F 
ATOM     11  F3  UNL d   1       1.173   0.526   3.551  0.00  0.00    -0.097 F 
ATOM     12  F4  UNL d   1       3.084  -1.356   4.051  0.00  0.00    -0.092 F 
ENDROOT
TORSDOF 0
ENDMDL
