MODEL 1
REMARK minimizedAffinity 14.414032
REMARK minimizedRMSD -1
REMARK  0 active torsions:
REMARK  status: ('A' for Active; 'I' for Inactive)
ROOT
ATOM      1  C4' PXY d   1       0.008  -1.311   1.412  0.00  0.00     0.077 C 
ATOM      2  C1' PXY d   1       5.091  -2.721  -0.953  0.00  0.00     0.077 C 
ATOM      3  C1  PXY d   1       3.755  -2.364  -0.332  0.00  0.00    -0.082 A 
ATOM      4  C2  PXY d   1       3.232  -1.168  -0.549  0.00  0.00     0.003 A 
ATOM      5  C3  PXY d   1       2.040  -0.817   0.031  0.00  0.00     0.003 A 
ATOM      6  C4  PXY d   1       1.350  -1.718   0.798  0.00  0.00    -0.082 A 
ATOM      7  C5  PXY d   1       1.873  -2.944   1.015  0.00  0.00     0.003 A 
ATOM      8  C6  PXY d   1       3.104  -3.266   0.451  0.00  0.00     0.003 A 
ENDROOT
TORSDOF 0
ENDMDL
