MODEL 1
REMARK minimizedAffinity 1.07231688
REMARK minimizedRMSD -1
REMARK  0 active torsions:
REMARK  status: ('A' for Active; 'I' for Inactive)
ROOT
ATOM      1  C4' PXY d   1       4.503  -5.319   6.000  0.00  0.00     0.077 C 
ATOM      2  C1' PXY d   1       5.106  -3.290   0.621  0.00  0.00     0.077 C 
ATOM      3  C1  PXY d   1       4.958  -3.815   2.035  0.00  0.00    -0.082 A 
ATOM      4  C2  PXY d   1       4.326  -4.958   2.246  0.00  0.00     0.003 A 
ATOM      5  C3  PXY d   1       4.155  -5.432   3.521  0.00  0.00     0.003 A 
ATOM      6  C4  PXY d   1       4.684  -4.755   4.588  0.00  0.00    -0.082 A 
ATOM      7  C5  PXY d   1       5.339  -3.594   4.380  0.00  0.00     0.003 A 
ATOM      8  C6  PXY d   1       5.466  -3.109   3.082  0.00  0.00     0.003 A 
ENDROOT
TORSDOF 0
ENDMDL
