MODEL 1
REMARK minimizedAffinity -1.16625249
REMARK minimizedRMSD -1
REMARK  0 active torsions:
REMARK  status: ('A' for Active; 'I' for Inactive)
ROOT
ATOM      1  C4' PXY d   1       3.821   5.902   5.568  0.00  0.00     0.077 C 
ATOM      2  C1' PXY d   1      -1.709   5.418   3.956  0.00  0.00     0.077 C 
ATOM      3  C1  PXY d   1      -0.255   5.537   4.369  0.00  0.00    -0.082 A 
ATOM      4  C2  PXY d   1       0.046   5.857   5.617  0.00  0.00     0.003 A 
ATOM      5  C3  PXY d   1       1.355   6.000   6.000  0.00  0.00     0.003 A 
ATOM      6  C4  PXY d   1       2.367   5.761   5.109  0.00  0.00    -0.082 A 
ATOM      7  C5  PXY d   1       2.068   5.424   3.837  0.00  0.00     0.003 A 
ATOM      8  C6  PXY d   1       0.733   5.324   3.458  0.00  0.00     0.003 A 
ENDROOT
TORSDOF 0
ENDMDL
