MODEL 1
REMARK minimizedAffinity -2.79880595
REMARK minimizedRMSD -1
REMARK  0 active torsions:
REMARK  status: ('A' for Active; 'I' for Inactive)
ROOT
ATOM      1  C4' PXY d   1       4.308   5.976  -5.965  0.00  0.00     0.077 C 
ATOM      2  C1' PXY d   1       0.575   1.562  -6.000  0.00  0.00     0.077 C 
ATOM      3  C1  PXY d   1       1.544   2.727  -5.996  0.00  0.00    -0.082 A 
ATOM      4  C2  PXY d   1       2.847   2.494  -5.992  0.00  0.00     0.003 A 
ATOM      5  C3  PXY d   1       3.738   3.536  -5.956  0.00  0.00     0.003 A 
ATOM      6  C4  PXY d   1       3.292   4.830  -5.978  0.00  0.00    -0.082 A 
ATOM      7  C5  PXY d   1       1.964   5.076  -5.994  0.00  0.00     0.003 A 
ATOM      8  C6  PXY d   1       1.076   4.005  -5.988  0.00  0.00     0.003 A 
ENDROOT
TORSDOF 0
ENDMDL
