MODEL 1
REMARK minimizedAffinity -2.70150113
REMARK minimizedRMSD -1
REMARK  0 active torsions:
REMARK  status: ('A' for Active; 'I' for Inactive)
ROOT
ATOM      1  C4' PXY d   1       1.169   1.945  -5.952  0.00  0.00     0.077 C 
ATOM      2  C1' PXY d   1       5.291   5.997  -6.000  0.00  0.00     0.077 C 
ATOM      3  C1  PXY d   1       4.201   4.943  -5.982  0.00  0.00    -0.082 A 
ATOM      4  C2  PXY d   1       4.531   3.662  -5.967  0.00  0.00     0.003 A 
ATOM      5  C3  PXY d   1       3.559   2.695  -5.983  0.00  0.00     0.003 A 
ATOM      6  C4  PXY d   1       2.235   3.043  -5.961  0.00  0.00    -0.082 A 
ATOM      7  C5  PXY d   1       1.890   4.349  -5.965  0.00  0.00     0.003 A 
ATOM      8  C6  PXY d   1       2.892   5.314  -5.991  0.00  0.00     0.003 A 
ENDROOT
TORSDOF 0
ENDMDL
