MODEL 1
REMARK minimizedAffinity 7.96091747
REMARK minimizedRMSD -1
REMARK  0 active torsions:
REMARK  status: ('A' for Active; 'I' for Inactive)
ROOT
ATOM      1  C4' PXY d   1       2.436  -2.263   1.734  0.00  0.00     0.077 C 
ATOM      2  C1' PXY d   1       6.000  -3.865   5.994  0.00  0.00     0.077 C 
ATOM      3  C1  PXY d   1       5.072  -3.453   4.868  0.00  0.00    -0.082 A 
ATOM      4  C2  PXY d   1       4.459  -2.282   4.922  0.00  0.00     0.003 A 
ATOM      5  C3  PXY d   1       3.591  -1.907   3.928  0.00  0.00     0.003 A 
ATOM      6  C4  PXY d   1       3.389  -2.716   2.843  0.00  0.00    -0.082 A 
ATOM      7  C5  PXY d   1       4.019  -3.908   2.775  0.00  0.00     0.003 A 
ATOM      8  C6  PXY d   1       4.864  -4.288   3.814  0.00  0.00     0.003 A 
ENDROOT
TORSDOF 0
ENDMDL
