MODEL 1
REMARK minimizedAffinity 11.4910021
REMARK minimizedRMSD -1
REMARK  0 active torsions:
REMARK  status: ('A' for Active; 'I' for Inactive)
ROOT
ATOM      1  C4' PXY d   1      -2.642  -0.439  -0.596  0.00  0.00     0.077 C 
ATOM      2  C1' PXY d   1       0.881  -0.319   3.985  0.00  0.00     0.077 C 
ATOM      3  C1  PXY d   1      -0.053  -0.353   2.791  0.00  0.00    -0.082 A 
ATOM      4  C2  PXY d   1       0.433  -0.611   1.588  0.00  0.00     0.003 A 
ATOM      5  C3  PXY d   1      -0.393  -0.614   0.493  0.00  0.00     0.003 A 
ATOM      6  C4  PXY d   1      -1.738  -0.403   0.639  0.00  0.00    -0.082 A 
ATOM      7  C5  PXY d   1      -2.243  -0.150   1.865  0.00  0.00     0.003 A 
ATOM      8  C6  PXY d   1      -1.382  -0.111   2.958  0.00  0.00     0.003 A 
ENDROOT
TORSDOF 0
ENDMDL
