MODEL 1
REMARK minimizedAffinity 4.41298008
REMARK minimizedRMSD -1
REMARK  0 active torsions:
REMARK  status: ('A' for Active; 'I' for Inactive)
ROOT
ATOM      1  C4' PXY d   1       5.069  -5.803   6.000  0.00  0.00     0.077 C 
ATOM      2  C1' PXY d   1       4.283  -3.054   0.976  0.00  0.00     0.077 C 
ATOM      3  C1  PXY d   1       4.497  -3.765   2.298  0.00  0.00    -0.082 A 
ATOM      4  C2  PXY d   1       4.344  -5.077   2.366  0.00  0.00     0.003 A 
ATOM      5  C3  PXY d   1       4.502  -5.733   3.560  0.00  0.00     0.003 A 
ATOM      6  C4  PXY d   1       4.872  -5.044   4.685  0.00  0.00    -0.082 A 
ATOM      7  C5  PXY d   1       5.041  -3.707   4.621  0.00  0.00     0.003 A 
ATOM      8  C6  PXY d   1       4.835  -3.055   3.408  0.00  0.00     0.003 A 
ENDROOT
TORSDOF 0
ENDMDL
