MODEL 1
REMARK minimizedAffinity 3.6827538
REMARK minimizedRMSD -1
REMARK  0 active torsions:
REMARK  status: ('A' for Active; 'I' for Inactive)
ROOT
ATOM      1  C4' PXY d   1       5.123   5.366  -5.968  0.00  0.00     0.077 C 
ATOM      2  C1' PXY d   1       1.125   1.191  -5.997  0.00  0.00     0.077 C 
ATOM      3  C1  PXY d   1       2.183   2.278  -5.984  0.00  0.00    -0.082 A 
ATOM      4  C2  PXY d   1       1.814   3.548  -5.967  0.00  0.00     0.003 A 
ATOM      5  C3  PXY d   1       2.757   4.544  -5.987  0.00  0.00     0.003 A 
ATOM      6  C4  PXY d   1       4.091   4.236  -5.972  0.00  0.00    -0.082 A 
ATOM      7  C5  PXY d   1       4.475   2.941  -5.979  0.00  0.00     0.003 A 
ATOM      8  C6  PXY d   1       3.502   1.946  -6.000  0.00  0.00     0.003 A 
ENDROOT
TORSDOF 0
ENDMDL
