MODEL 1
REMARK minimizedAffinity 0.698310256
REMARK minimizedRMSD -1
REMARK  0 active torsions:
REMARK  status: ('A' for Active; 'I' for Inactive)
ROOT
ATOM      1  C4' PXY d   1       3.441  -3.814   0.397  0.00  0.00     0.077 C 
ATOM      2  C1' PXY d   1       4.868  -3.844   5.999  0.00  0.00     0.077 C 
ATOM      3  C1  PXY d   1       4.501  -3.847   4.528  0.00  0.00    -0.082 A 
ATOM      4  C2  PXY d   1       4.080  -2.730   3.957  0.00  0.00     0.003 A 
ATOM      5  C3  PXY d   1       3.714  -2.722   2.635  0.00  0.00     0.003 A 
ATOM      6  C4  PXY d   1       3.831  -3.856   1.877  0.00  0.00    -0.082 A 
ATOM      7  C5  PXY d   1       4.270  -4.997   2.450  0.00  0.00     0.003 A 
ATOM      8  C6  PXY d   1       4.597  -4.994   3.803  0.00  0.00     0.003 A 
ENDROOT
TORSDOF 0
ENDMDL
