MODEL 1
REMARK minimizedAffinity -1.85987496
REMARK minimizedRMSD -1
REMARK  0 active torsions:
REMARK  status: ('A' for Active; 'I' for Inactive)
ROOT
ATOM      1  C4' PXY d   1       4.696  -4.081   4.322  0.00  0.00     0.077 C 
ATOM      2  C1' PXY d   1       3.209  -2.874  -1.132  0.00  0.00     0.077 C 
ATOM      3  C1  PXY d   1       3.598  -3.178   0.302  0.00  0.00    -0.082 A 
ATOM      4  C2  PXY d   1       4.322  -4.253   0.569  0.00  0.00     0.003 A 
ATOM      5  C3  PXY d   1       4.655  -4.560   1.863  0.00  0.00     0.003 A 
ATOM      6  C4  PXY d   1       4.289  -3.730   2.889  0.00  0.00    -0.082 A 
ATOM      7  C5  PXY d   1       3.559  -2.626   2.623  0.00  0.00     0.003 A 
ATOM      8  C6  PXY d   1       3.196  -2.354   1.307  0.00  0.00     0.003 A 
ENDROOT
TORSDOF 0
ENDMDL
