MODEL 1
REMARK minimizedAffinity -0.876414359
REMARK minimizedRMSD -1
REMARK  0 active torsions:
REMARK  status: ('A' for Active; 'I' for Inactive)
ROOT
ATOM      1  C4' PXY d   1      -1.871   2.259  -2.999  0.00  0.00     0.077 C 
ATOM      2  C1' PXY d   1      -5.661  -2.098  -3.265  0.00  0.00     0.077 C 
ATOM      3  C1  PXY d   1      -4.670  -0.953  -3.183  0.00  0.00    -0.082 A 
ATOM      4  C2  PXY d   1      -4.312  -0.318  -4.287  0.00  0.00     0.003 A 
ATOM      5  C3  PXY d   1      -3.393   0.699  -4.235  0.00  0.00     0.003 A 
ATOM      6  C4  PXY d   1      -2.876   1.104  -3.033  0.00  0.00    -0.082 A 
ATOM      7  C5  PXY d   1      -3.244   0.467  -1.902  0.00  0.00     0.003 A 
ATOM      8  C6  PXY d   1      -4.147  -0.589  -1.981  0.00  0.00     0.003 A 
ENDROOT
TORSDOF 0
ENDMDL
