MODEL 1
REMARK minimizedAffinity -2.73093653
REMARK minimizedRMSD -1
REMARK  1 active torsions:
REMARK  status: ('A' for Active; 'I' for Inactive)
REMARK    1  A    between atoms: C1_2  and  C2_3 
ROOT
ATOM      1  C2  UNL d   1       0.808   0.671  -0.150  0.00  0.00    -0.073 A 
ATOM      2  C3  UNL d   1       1.280  -0.645  -0.074  0.00  0.00    -0.002 A 
ATOM      3  C4  UNL d   1       0.477  -1.706  -0.493  0.00  0.00     0.004 A 
ATOM      4  C5  UNL d   1      -0.800  -1.464  -0.999  0.00  0.00    -0.004 A 
ATOM      5  C6  UNL d   1      -1.284  -0.155  -1.094  0.00  0.00    -0.075 A 
ATOM      6  C7  UNL d   1      -2.657   0.123  -1.633  0.00  0.00     0.076 C 
ATOM      7  C8  UNL d   1      -0.473   0.906  -0.668  0.00  0.00     0.001 A 
ENDROOT
BRANCH   1   8
ATOM      8  C1  UNL d   1       1.674   1.821   0.296  0.00  0.00     0.053 C 
ATOM      9  C   UNL d   1       1.147   3.158  -0.201  0.00  0.00     0.018 C 
ENDBRANCH   1   8
TORSDOF 1
ENDMDL
