MODEL 1
REMARK minimizedAffinity -0.572901785
REMARK minimizedRMSD -1
REMARK  1 active torsions:
REMARK  status: ('A' for Active; 'I' for Inactive)
REMARK    1  A    between atoms: C1_2  and  C2_3 
ROOT
ATOM      1  C2  UNL d   1      -0.692  -0.597  -0.184  0.00  0.00    -0.073 A 
ATOM      2  C3  UNL d   1       0.097  -1.745  -0.310  0.00  0.00    -0.002 A 
ATOM      3  C4  UNL d   1       1.483  -1.667  -0.166  0.00  0.00     0.004 A 
ATOM      4  C5  UNL d   1       2.092  -0.443   0.112  0.00  0.00    -0.004 A 
ATOM      5  C6  UNL d   1       1.319   0.714   0.253  0.00  0.00    -0.075 A 
ATOM      6  C7  UNL d   1       1.959   2.038   0.549  0.00  0.00     0.076 C 
ATOM      7  C8  UNL d   1      -0.072   0.627   0.104  0.00  0.00     0.001 A 
ENDROOT
BRANCH   1   8
ATOM      8  C1  UNL d   1      -2.190  -0.677  -0.333  0.00  0.00     0.053 C 
ATOM      9  C   UNL d   1      -2.906   0.325   0.559  0.00  0.00     0.018 C 
ENDBRANCH   1   8
TORSDOF 1
ENDMDL
