MODEL 1
REMARK minimizedAffinity -0.956379116
REMARK minimizedRMSD -1
REMARK  1 active torsions:
REMARK  status: ('A' for Active; 'I' for Inactive)
REMARK    1  A    between atoms: C1_2  and  C2_3 
ROOT
ATOM      1  C2  UNL d   1       0.128  -0.080  -0.474  0.00  0.00    -0.073 A 
ATOM      2  C3  UNL d   1      -0.119  -1.436  -0.714  0.00  0.00    -0.002 A 
ATOM      3  C4  UNL d   1       0.931  -2.355  -0.712  0.00  0.00     0.004 A 
ATOM      4  C5  UNL d   1       2.236  -1.929  -0.464  0.00  0.00    -0.004 A 
ATOM      5  C6  UNL d   1       2.501  -0.579  -0.210  0.00  0.00    -0.075 A 
ATOM      6  C7  UNL d   1       3.899  -0.105   0.056  0.00  0.00     0.076 C 
ATOM      7  C8  UNL d   1       1.441   0.338  -0.216  0.00  0.00     0.001 A 
ENDROOT
BRANCH   1   8
ATOM      8  C1  UNL d   1      -1.004   0.915  -0.468  0.00  0.00     0.053 C 
ATOM      9  C   UNL d   1      -2.363   0.233  -0.469  0.00  0.00     0.018 C 
ENDBRANCH   1   8
TORSDOF 1
ENDMDL
