MODEL 1
REMARK minimizedAffinity -0.449479073
REMARK minimizedRMSD -1
REMARK  1 active torsions:
REMARK  status: ('A' for Active; 'I' for Inactive)
REMARK    1  A    between atoms: C1_2  and  C2_3 
ROOT
ATOM      1  C2  UNL d   1      -0.833   0.244  -0.193  0.00  0.00    -0.073 A 
ATOM      2  C3  UNL d   1      -0.738   1.583  -0.587  0.00  0.00    -0.002 A 
ATOM      3  C4  UNL d   1      -1.722   2.499  -0.212  0.00  0.00     0.004 A 
ATOM      4  C5  UNL d   1      -2.804   2.088   0.566  0.00  0.00    -0.004 A 
ATOM      5  C6  UNL d   1      -2.910   0.756   0.979  0.00  0.00    -0.075 A 
ATOM      6  C7  UNL d   1      -4.069   0.297   1.814  0.00  0.00     0.076 C 
ATOM      7  C8  UNL d   1      -1.920  -0.159   0.596  0.00  0.00     0.001 A 
ENDROOT
BRANCH   1   8
ATOM      8  C1  UNL d   1       0.230  -0.748  -0.591  0.00  0.00     0.053 C 
ATOM      9  C   UNL d   1      -0.057  -2.139  -0.050  0.00  0.00     0.018 C 
ENDBRANCH   1   8
TORSDOF 1
ENDMDL
