MODEL 1
REMARK minimizedAffinity -3.27117777
REMARK minimizedRMSD -1
REMARK  1 active torsions:
REMARK  status: ('A' for Active; 'I' for Inactive)
REMARK    1  A    between atoms: C1_2  and  C2_3 
ROOT
ATOM      1  C2  UNL d   1      -1.723  -0.027  -0.512  0.00  0.00    -0.073 A 
ATOM      2  C3  UNL d   1      -1.257  -1.302  -0.853  0.00  0.00    -0.002 A 
ATOM      3  C4  UNL d   1       0.107  -1.528  -1.037  0.00  0.00     0.004 A 
ATOM      4  C5  UNL d   1       1.020  -0.486  -0.876  0.00  0.00    -0.004 A 
ATOM      5  C6  UNL d   1       0.575   0.793  -0.525  0.00  0.00    -0.075 A 
ATOM      6  C7  UNL d   1       1.544   1.926  -0.351  0.00  0.00     0.076 C 
ATOM      7  C8  UNL d   1      -0.797   1.013  -0.344  0.00  0.00     0.001 A 
ENDROOT
BRANCH   1   8
ATOM      8  C1  UNL d   1      -3.195   0.221  -0.306  0.00  0.00     0.053 C 
ATOM      9  C   UNL d   1      -3.508   0.635   1.123  0.00  0.00     0.018 C 
ENDBRANCH   1   8
TORSDOF 1
ENDMDL
