MODEL 1
REMARK minimizedAffinity -2.18175983
REMARK minimizedRMSD -1
REMARK  1 active torsions:
REMARK  status: ('A' for Active; 'I' for Inactive)
REMARK    1  A    between atoms: C1_2  and  C2_3 
ROOT
ATOM      1  C2  UNL d   1       0.529  -1.801  -1.157  0.00  0.00    -0.073 A 
ATOM      2  C3  UNL d   1      -0.020  -0.537  -0.916  0.00  0.00    -0.002 A 
ATOM      3  C4  UNL d   1       0.744   0.459  -0.306  0.00  0.00     0.004 A 
ATOM      4  C5  UNL d   1       2.065   0.204   0.062  0.00  0.00    -0.004 A 
ATOM      5  C6  UNL d   1       2.635  -1.050  -0.181  0.00  0.00    -0.075 A 
ATOM      6  C7  UNL d   1       4.054  -1.341   0.211  0.00  0.00     0.076 C 
ATOM      7  C8  UNL d   1       1.861  -2.046  -0.791  0.00  0.00     0.001 A 
ENDROOT
BRANCH   1   8
ATOM      8  C1  UNL d   1      -0.290  -2.878  -1.821  0.00  0.00     0.053 C 
ATOM      9  C   UNL d   1      -0.700  -2.492  -3.234  0.00  0.00     0.018 C 
ENDBRANCH   1   8
TORSDOF 1
ENDMDL
