MODEL 1
REMARK minimizedAffinity 23.1693783
REMARK minimizedRMSD -1
REMARK  0 active torsions:
REMARK  status: ('A' for Active; 'I' for Inactive)
ROOT
ATOM      1  C   UNL d   1      -4.824  -2.988  -4.707  0.00  0.00    -0.002 A 
ATOM      2  C1  UNL d   1      -5.961  -2.725  -3.956  0.00  0.00     0.010 A 
ATOM      3  C2  UNL d   1      -6.000  -1.637  -3.083  0.00  0.00     0.041 A 
ATOM      4  C3  UNL d   1      -4.866  -0.807  -2.977  0.00  0.00    -0.075 A 
ATOM      5  S   UNL d   1      -4.684   0.583  -1.974  0.00  0.00     0.015 SA
ATOM      6  C4  UNL d   1      -3.094   0.861  -2.519  0.00  0.00     0.022 A 
ATOM      7  C5  UNL d   1      -2.694  -0.075  -3.444  0.00  0.00     0.026 A 
ATOM      8  C6  UNL d   1      -3.709  -1.051  -3.724  0.00  0.00    -0.082 A 
ATOM      9  C7  UNL d   1      -3.701  -2.164  -4.600  0.00  0.00     0.045 A 
ENDROOT
TORSDOF 0
ENDMDL
