MODEL 1
REMARK minimizedAffinity -1.61507225
REMARK minimizedRMSD -1
REMARK  0 active torsions:
REMARK  status: ('A' for Active; 'I' for Inactive)
ROOT
ATOM      1  C   UNL d   1       1.137  -1.285   1.727  0.00  0.00    -0.002 A 
ATOM      2  C1  UNL d   1       0.458  -1.381   2.934  0.00  0.00     0.010 A 
ATOM      3  C2  UNL d   1       0.281  -2.620   3.552  0.00  0.00     0.041 A 
ATOM      4  C3  UNL d   1       0.803  -3.772   2.932  0.00  0.00    -0.075 A 
ATOM      5  S   UNL d   1       0.707  -5.395   3.505  0.00  0.00     0.015 SA
ATOM      6  C4  UNL d   1       1.566  -5.999   2.162  0.00  0.00     0.022 A 
ATOM      7  C5  UNL d   1       1.924  -5.001   1.288  0.00  0.00     0.026 A 
ATOM      8  C6  UNL d   1       1.491  -3.701   1.717  0.00  0.00    -0.082 A 
ATOM      9  C7  UNL d   1       1.654  -2.430   1.115  0.00  0.00     0.045 A 
ENDROOT
TORSDOF 0
ENDMDL
