MODEL 1
REMARK minimizedAffinity 14.0985556
REMARK minimizedRMSD -1
REMARK  0 active torsions:
REMARK  status: ('A' for Active; 'I' for Inactive)
ROOT
ATOM      1  C   UNL d   1       5.992  -4.426   1.504  0.00  0.00    -0.002 A 
ATOM      2  C1  UNL d   1       5.999  -3.195   2.145  0.00  0.00     0.010 A 
ATOM      3  C2  UNL d   1       4.889  -2.771   2.879  0.00  0.00     0.041 A 
ATOM      4  C3  UNL d   1       3.763  -3.613   2.961  0.00  0.00    -0.075 A 
ATOM      5  S   UNL d   1       2.292  -3.302   3.804  0.00  0.00     0.015 SA
ATOM      6  C4  UNL d   1       1.620  -4.796   3.334  0.00  0.00     0.022 A 
ATOM      7  C5  UNL d   1       2.483  -5.527   2.552  0.00  0.00     0.026 A 
ATOM      8  C6  UNL d   1       3.733  -4.857   2.324  0.00  0.00    -0.082 A 
ATOM      9  C7  UNL d   1       4.872  -5.258   1.587  0.00  0.00     0.045 A 
ENDROOT
TORSDOF 0
ENDMDL
