MODEL 1
REMARK minimizedAffinity 12.0115709
REMARK minimizedRMSD -1
REMARK  0 active torsions:
REMARK  status: ('A' for Active; 'I' for Inactive)
ROOT
ATOM      1  C   UNL d   1      -1.573   2.841   1.326  0.00  0.00    -0.002 A 
ATOM      2  C1  UNL d   1      -1.975   2.651   0.012  0.00  0.00     0.010 A 
ATOM      3  C2  UNL d   1      -3.270   2.984  -0.390  0.00  0.00     0.041 A 
ATOM      4  C3  UNL d   1      -4.162   3.519   0.560  0.00  0.00    -0.075 A 
ATOM      5  S   UNL d   1      -5.796   4.002   0.295  0.00  0.00     0.015 SA
ATOM      6  C4  UNL d   1      -5.999   4.473   1.920  0.00  0.00     0.022 A 
ATOM      7  C5  UNL d   1      -4.858   4.274   2.661  0.00  0.00     0.026 A 
ATOM      8  C6  UNL d   1      -3.781   3.722   1.889  0.00  0.00    -0.082 A 
ATOM      9  C7  UNL d   1      -2.461   3.373   2.266  0.00  0.00     0.045 A 
ENDROOT
TORSDOF 0
ENDMDL
