MODEL 1
REMARK minimizedAffinity 9.44568157
REMARK minimizedRMSD -1
REMARK  0 active torsions:
REMARK  status: ('A' for Active; 'I' for Inactive)
ROOT
ATOM      1  C   UNL d   1       5.288   0.257  -5.112  0.00  0.00    -0.002 A 
ATOM      2  C1  UNL d   1       4.091   0.460  -4.441  0.00  0.00     0.010 A 
ATOM      3  C2  UNL d   1       3.565   1.745  -4.300  0.00  0.00     0.041 A 
ATOM      4  C3  UNL d   1       4.268   2.834  -4.852  0.00  0.00    -0.075 A 
ATOM      5  S   UNL d   1       3.815   4.497  -4.803  0.00  0.00     0.015 SA
ATOM      6  C4  UNL d   1       5.200   4.977  -5.672  0.00  0.00     0.022 A 
ATOM      7  C5  UNL d   1       6.000   3.907  -6.000  0.00  0.00     0.026 A 
ATOM      8  C6  UNL d   1       5.476   2.655  -5.533  0.00  0.00    -0.082 A 
ATOM      9  C7  UNL d   1       5.984   1.339  -5.658  0.00  0.00     0.045 A 
ENDROOT
TORSDOF 0
ENDMDL
