MODEL 1
REMARK minimizedAffinity -4.59602976
REMARK minimizedRMSD -1
REMARK  1 active torsions:
REMARK  status: ('A' for Active; 'I' for Inactive)
REMARK    1  A    between atoms: C3_4  and  O_7 
ROOT
ATOM      1  C   UNL d   1       0.678   0.486  -0.013  0.00  0.00    -0.033 A 
ATOM      2  C1  UNL d   1      -0.371  -0.387   0.282  0.00  0.00     0.039 A 
ATOM      3  C2  UNL d   1      -0.103  -1.718   0.607  0.00  0.00    -0.080 A 
ATOM      4  C3  UNL d   1       1.215  -2.163   0.635  0.00  0.00     0.150 A 
ATOM      5  C4  UNL d   1       2.266  -1.298   0.345  0.00  0.00    -0.007 A 
ATOM      6  C5  UNL d   1       1.996   0.031   0.020  0.00  0.00     0.039 A 
ENDROOT
BRANCH   4   7
ATOM      7  O   UNL d   1       1.526  -3.455   0.942  0.00  0.00    -0.526 OA
ATOM      8  H5  UNL d   1       0.699  -3.943   1.090  0.00  0.00     0.418 HD
ENDBRANCH   4   7
TORSDOF 1
ENDMDL
