MODEL 1
REMARK minimizedAffinity -5.52622414
REMARK minimizedRMSD -1
REMARK  1 active torsions:
REMARK  status: ('A' for Active; 'I' for Inactive)
REMARK    1  A    between atoms: C3_4  and  O_7 
ROOT
ATOM      1  C   UNL d   1       0.210   0.381   0.217  0.00  0.00    -0.033 A 
ATOM      2  C1  UNL d   1       1.566   0.068   0.113  0.00  0.00     0.039 A 
ATOM      3  C2  UNL d   1       2.014  -1.216   0.430  0.00  0.00    -0.080 A 
ATOM      4  C3  UNL d   1       1.097  -2.176   0.847  0.00  0.00     0.150 A 
ATOM      5  C4  UNL d   1      -0.257  -1.872   0.950  0.00  0.00    -0.007 A 
ATOM      6  C5  UNL d   1      -0.702  -0.589   0.634  0.00  0.00     0.039 A 
ENDROOT
BRANCH   4   7
ATOM      7  O   UNL d   1       1.487  -3.442   1.172  0.00  0.00    -0.526 OA
ATOM      8  H5  UNL d   1       2.453  -3.498   1.081  0.00  0.00     0.418 HD
ENDBRANCH   4   7
TORSDOF 1
ENDMDL
