MODEL 1
REMARK minimizedAffinity -4.9124341
REMARK minimizedRMSD -1
REMARK  1 active torsions:
REMARK  status: ('A' for Active; 'I' for Inactive)
REMARK    1  A    between atoms: C3_4  and  O_7 
ROOT
ATOM      1  C   UNL d   1       0.594   0.421  -0.336  0.00  0.00    -0.033 A 
ATOM      2  C1  UNL d   1      -0.359  -0.600  -0.371  0.00  0.00     0.039 A 
ATOM      3  C2  UNL d   1      -0.018  -1.889   0.042  0.00  0.00    -0.080 A 
ATOM      4  C3  UNL d   1       1.276  -2.144   0.489  0.00  0.00     0.150 A 
ATOM      5  C4  UNL d   1       2.228  -1.131   0.530  0.00  0.00    -0.007 A 
ATOM      6  C5  UNL d   1       1.886   0.156   0.117  0.00  0.00     0.039 A 
ENDROOT
BRANCH   4   7
ATOM      7  O   UNL d   1       1.656  -3.388   0.898  0.00  0.00    -0.526 OA
ATOM      8  H5  UNL d   1       0.903  -3.992   0.786  0.00  0.00     0.418 HD
ENDBRANCH   4   7
TORSDOF 1
ENDMDL
