MODEL 1
REMARK minimizedAffinity -2.7732873
REMARK minimizedRMSD -1
REMARK  1 active torsions:
REMARK  status: ('A' for Active; 'I' for Inactive)
REMARK    1  A    between atoms: C3_4  and  O_7 
ROOT
ATOM      1  C   UNL d   1       1.472  -2.010   1.010  0.00  0.00    -0.033 A 
ATOM      2  C1  UNL d   1       0.079  -1.926   0.993  0.00  0.00     0.039 A 
ATOM      3  C2  UNL d   1      -0.555  -0.947   0.225  0.00  0.00    -0.080 A 
ATOM      4  C3  UNL d   1       0.216  -0.060  -0.521  0.00  0.00     0.150 A 
ATOM      5  C4  UNL d   1       1.604  -0.140  -0.512  0.00  0.00    -0.007 A 
ATOM      6  C5  UNL d   1       2.235  -1.117   0.256  0.00  0.00     0.039 A 
ENDROOT
BRANCH   4   7
ATOM      7  O   UNL d   1      -0.358   0.915  -1.282  0.00  0.00    -0.526 OA
ATOM      8  H5  UNL d   1      -1.322   0.868  -1.168  0.00  0.00     0.418 HD
ENDBRANCH   4   7
TORSDOF 1
ENDMDL
