MODEL 1
REMARK minimizedAffinity -4.35728741
REMARK minimizedRMSD -1
REMARK  1 active torsions:
REMARK  status: ('A' for Active; 'I' for Inactive)
REMARK    1  A    between atoms: C3_4  and  O_7 
ROOT
ATOM      1  C   UNL d   1       0.879   1.146  -0.785  0.00  0.00    -0.033 A 
ATOM      2  C1  UNL d   1      -0.025   0.465   0.033  0.00  0.00     0.039 A 
ATOM      3  C2  UNL d   1       0.284  -0.811   0.509  0.00  0.00    -0.080 A 
ATOM      4  C3  UNL d   1       1.500  -1.393   0.160  0.00  0.00     0.150 A 
ATOM      5  C4  UNL d   1       2.407  -0.719  -0.651  0.00  0.00    -0.007 A 
ATOM      6  C5  UNL d   1       2.095   0.555  -1.126  0.00  0.00     0.039 A 
ENDROOT
BRANCH   4   7
ATOM      7  O   UNL d   1       1.844  -2.638   0.596  0.00  0.00    -0.526 OA
ATOM      8  H5  UNL d   1       1.110  -2.994   1.123  0.00  0.00     0.418 HD
ENDBRANCH   4   7
TORSDOF 1
ENDMDL
