MODEL 1
REMARK minimizedAffinity -4.85232115
REMARK minimizedRMSD -1
REMARK  1 active torsions:
REMARK  status: ('A' for Active; 'I' for Inactive)
REMARK    1  A    between atoms: C3_4  and  O_7 
ROOT
ATOM      1  C   UNL d   1      -0.170   0.145  -0.081  0.00  0.00    -0.033 A 
ATOM      2  C1  UNL d   1       1.177   0.113  -0.446  0.00  0.00     0.039 A 
ATOM      3  C2  UNL d   1       1.913  -1.065  -0.306  0.00  0.00    -0.080 A 
ATOM      4  C3  UNL d   1       1.290  -2.203   0.199  0.00  0.00     0.150 A 
ATOM      5  C4  UNL d   1      -0.053  -2.180   0.561  0.00  0.00    -0.007 A 
ATOM      6  C5  UNL d   1      -0.785  -1.001   0.422  0.00  0.00     0.039 A 
ENDROOT
BRANCH   4   7
ATOM      7  O   UNL d   1       1.968  -3.375   0.358  0.00  0.00    -0.526 OA
ATOM      8  H5  UNL d   1       2.892  -3.234   0.093  0.00  0.00     0.418 HD
ENDBRANCH   4   7
TORSDOF 1
ENDMDL
