MODEL 1
REMARK minimizedAffinity -4.05729914
REMARK minimizedRMSD -1
REMARK  1 active torsions:
REMARK  status: ('A' for Active; 'I' for Inactive)
REMARK    1  A    between atoms: C3_4  and  O_7 
ROOT
ATOM      1  C   UNL d   1       0.778   0.798   0.351  0.00  0.00    -0.033 A 
ATOM      2  C1  UNL d   1       1.992   0.259  -0.080  0.00  0.00     0.039 A 
ATOM      3  C2  UNL d   1       2.241  -1.107   0.061  0.00  0.00    -0.080 A 
ATOM      4  C3  UNL d   1       1.268  -1.923   0.632  0.00  0.00     0.150 A 
ATOM      5  C4  UNL d   1       0.055  -1.394   1.060  0.00  0.00    -0.007 A 
ATOM      6  C5  UNL d   1      -0.191  -0.029   0.919  0.00  0.00     0.039 A 
ENDROOT
BRANCH   4   7
ATOM      7  O   UNL d   1       1.467  -3.262   0.794  0.00  0.00    -0.526 OA
ATOM      8  H5  UNL d   1       2.361  -3.481   0.480  0.00  0.00     0.418 HD
ENDBRANCH   4   7
TORSDOF 1
ENDMDL
