MODEL 1
REMARK minimizedAffinity -4.82275248
REMARK minimizedRMSD -1
REMARK  1 active torsions:
REMARK  status: ('A' for Active; 'I' for Inactive)
REMARK    1  A    between atoms: C3_4  and  O_7 
ROOT
ATOM      1  C   UNL d   1       1.496  -2.753   1.047  0.00  0.00    -0.033 A 
ATOM      2  C1  UNL d   1       2.237  -1.889   0.239  0.00  0.00     0.039 A 
ATOM      3  C2  UNL d   1       1.679  -0.684  -0.193  0.00  0.00    -0.080 A 
ATOM      4  C3  UNL d   1       0.382  -0.356   0.189  0.00  0.00     0.150 A 
ATOM      5  C4  UNL d   1      -0.361  -1.211   0.997  0.00  0.00    -0.007 A 
ATOM      6  C5  UNL d   1       0.197  -2.414   1.427  0.00  0.00     0.039 A 
ENDROOT
BRANCH   4   7
ATOM      7  O   UNL d   1      -0.207   0.806  -0.212  0.00  0.00    -0.526 OA
ATOM      8  H5  UNL d   1       0.413   1.283  -0.788  0.00  0.00     0.418 HD
ENDBRANCH   4   7
TORSDOF 1
ENDMDL
