MODEL 1
REMARK minimizedAffinity -3.54170609
REMARK minimizedRMSD -1
REMARK  1 active torsions:
REMARK  status: ('A' for Active; 'I' for Inactive)
REMARK    1  A    between atoms: C3_4  and  O_7 
ROOT
ATOM      1  C   UNL d   1       0.594   0.327  -0.109  0.00  0.00    -0.033 A 
ATOM      2  C1  UNL d   1      -0.204  -0.210   0.902  0.00  0.00     0.039 A 
ATOM      3  C2  UNL d   1       0.161  -1.407   1.521  0.00  0.00    -0.080 A 
ATOM      4  C3  UNL d   1       1.326  -2.056   1.120  0.00  0.00     0.150 A 
ATOM      5  C4  UNL d   1       2.128  -1.524   0.116  0.00  0.00    -0.007 A 
ATOM      6  C5  UNL d   1       1.761  -0.329  -0.501  0.00  0.00     0.039 A 
ENDROOT
BRANCH   4   7
ATOM      7  O   UNL d   1       1.720  -3.229   1.691  0.00  0.00    -0.526 OA
ATOM      8  H5  UNL d   1       1.054  -3.490   2.349  0.00  0.00     0.418 HD
ENDBRANCH   4   7
TORSDOF 1
ENDMDL
