MODEL 1
REMARK minimizedAffinity -2.97487998
REMARK minimizedRMSD -1
REMARK  1 active torsions:
REMARK  status: ('A' for Active; 'I' for Inactive)
REMARK    1  A    between atoms: C3_4  and  O_7 
ROOT
ATOM      1  C   UNL d   1       0.272   0.840  -0.493  0.00  0.00    -0.033 A 
ATOM      2  C1  UNL d   1       1.564   0.563  -0.945  0.00  0.00     0.039 A 
ATOM      3  C2  UNL d   1       2.163  -0.662  -0.646  0.00  0.00    -0.080 A 
ATOM      4  C3  UNL d   1       1.461  -1.601   0.104  0.00  0.00     0.150 A 
ATOM      5  C4  UNL d   1       0.172  -1.334   0.555  0.00  0.00    -0.007 A 
ATOM      6  C5  UNL d   1      -0.425  -0.110   0.256  0.00  0.00     0.039 A 
ENDROOT
BRANCH   4   7
ATOM      7  O   UNL d   1       2.006  -2.808   0.425  0.00  0.00    -0.526 OA
ATOM      8  H5  UNL d   1       2.910  -2.841   0.072  0.00  0.00     0.418 HD
ENDBRANCH   4   7
TORSDOF 1
ENDMDL
