MODEL 1
REMARK minimizedAffinity -4.83514118
REMARK minimizedRMSD -1
REMARK  1 active torsions:
REMARK  status: ('A' for Active; 'I' for Inactive)
REMARK    1  A    between atoms: C3_4  and  O_7 
ROOT
ATOM      1  C   UNL d   1       0.594   0.123  -0.382  0.00  0.00    -0.033 A 
ATOM      2  C1  UNL d   1       1.935  -0.176  -0.136  0.00  0.00     0.039 A 
ATOM      3  C2  UNL d   1       2.288  -1.409   0.416  0.00  0.00    -0.080 A 
ATOM      4  C3  UNL d   1       1.291  -2.333   0.715  0.00  0.00     0.150 A 
ATOM      5  C4  UNL d   1      -0.047  -2.044   0.469  0.00  0.00    -0.007 A 
ATOM      6  C5  UNL d   1      -0.397  -0.812  -0.081  0.00  0.00     0.039 A 
ENDROOT
BRANCH   4   7
ATOM      7  O   UNL d   1       1.586  -3.548   1.259  0.00  0.00    -0.526 OA
ATOM      8  H5  UNL d   1       2.546  -3.597   1.401  0.00  0.00     0.418 HD
ENDBRANCH   4   7
TORSDOF 1
ENDMDL
