MODEL 1
REMARK minimizedAffinity -2.67977858
REMARK minimizedRMSD -1
REMARK  1 active torsions:
REMARK  status: ('A' for Active; 'I' for Inactive)
REMARK    1  A    between atoms: C3_4  and  O_7 
ROOT
ATOM      1  C   UNL d   1      -2.591   1.434  -1.072  0.00  0.00    -0.033 A 
ATOM      2  C1  UNL d   1      -3.271   1.631  -2.275  0.00  0.00     0.039 A 
ATOM      3  C2  UNL d   1      -2.570   2.014  -3.421  0.00  0.00    -0.080 A 
ATOM      4  C3  UNL d   1      -1.191   2.196  -3.349  0.00  0.00     0.150 A 
ATOM      5  C4  UNL d   1      -0.507   1.998  -2.154  0.00  0.00    -0.007 A 
ATOM      6  C5  UNL d   1      -1.209   1.616  -1.012  0.00  0.00     0.039 A 
ENDROOT
BRANCH   4   7
ATOM      7  O   UNL d   1      -0.465   2.574  -4.439  0.00  0.00    -0.526 OA
ATOM      8  H5  UNL d   1      -1.074   2.702  -5.185  0.00  0.00     0.418 HD
ENDBRANCH   4   7
TORSDOF 1
ENDMDL
