MODEL 1
REMARK minimizedAffinity -3.40432072
REMARK minimizedRMSD -1
REMARK  1 active torsions:
REMARK  status: ('A' for Active; 'I' for Inactive)
REMARK    1  A    between atoms: C3_4  and  O_7 
ROOT
ATOM      1  C   UNL d   1       0.145   0.212   0.183  0.00  0.00    -0.033 A 
ATOM      2  C1  UNL d   1      -0.719  -0.835   0.509  0.00  0.00     0.039 A 
ATOM      3  C2  UNL d   1      -0.233  -2.141   0.599  0.00  0.00    -0.080 A 
ATOM      4  C3  UNL d   1       1.117  -2.386   0.361  0.00  0.00     0.150 A 
ATOM      5  C4  UNL d   1       1.984  -1.346   0.039  0.00  0.00    -0.007 A 
ATOM      6  C5  UNL d   1       1.496  -0.043  -0.051  0.00  0.00     0.039 A 
ENDROOT
BRANCH   4   7
ATOM      7  O   UNL d   1       1.637  -3.644   0.431  0.00  0.00    -0.526 OA
ATOM      8  H5  UNL d   1       0.916  -4.263   0.634  0.00  0.00     0.418 HD
ENDBRANCH   4   7
TORSDOF 1
ENDMDL
