MODEL 1
REMARK minimizedAffinity -2.38408136
REMARK minimizedRMSD -1
REMARK  1 active torsions:
REMARK  status: ('A' for Active; 'I' for Inactive)
REMARK    1  A    between atoms: C3_4  and  O_7 
ROOT
ATOM      1  C   UNL d   1       1.199  -2.166  -0.009  0.00  0.00    -0.033 A 
ATOM      2  C1  UNL d   1       1.762  -0.893  -0.119  0.00  0.00     0.039 A 
ATOM      3  C2  UNL d   1       0.964   0.242   0.041  0.00  0.00    -0.080 A 
ATOM      4  C3  UNL d   1      -0.393   0.090   0.311  0.00  0.00     0.150 A 
ATOM      5  C4  UNL d   1      -0.960  -1.175   0.425  0.00  0.00    -0.007 A 
ATOM      6  C5  UNL d   1      -0.161  -2.307   0.264  0.00  0.00     0.039 A 
ENDROOT
BRANCH   4   7
ATOM      7  O   UNL d   1      -1.213   1.167   0.470  0.00  0.00    -0.526 OA
ATOM      8  H5  UNL d   1      -0.689   1.975   0.336  0.00  0.00     0.418 HD
ENDBRANCH   4   7
TORSDOF 1
ENDMDL
