MODEL 1
REMARK minimizedAffinity -4.60265446
REMARK minimizedRMSD -1
REMARK  1 active torsions:
REMARK  status: ('A' for Active; 'I' for Inactive)
REMARK    1  A    between atoms: C3_4  and  O_7 
ROOT
ATOM      1  C   UNL d   1       1.540  -2.204   0.487  0.00  0.00    -0.033 A 
ATOM      2  C1  UNL d   1       1.510  -0.892   0.009  0.00  0.00     0.039 A 
ATOM      3  C2  UNL d   1       0.410  -0.075   0.278  0.00  0.00    -0.080 A 
ATOM      4  C3  UNL d   1      -0.650  -0.580   1.026  0.00  0.00     0.150 A 
ATOM      5  C4  UNL d   1      -0.624  -1.885   1.508  0.00  0.00    -0.007 A 
ATOM      6  C5  UNL d   1       0.474  -2.700   1.238  0.00  0.00     0.039 A 
ENDROOT
BRANCH   4   7
ATOM      7  O   UNL d   1      -1.747   0.178   1.310  0.00  0.00    -0.526 OA
ATOM      8  H5  UNL d   1      -1.638   1.047   0.888  0.00  0.00     0.418 HD
ENDBRANCH   4   7
TORSDOF 1
ENDMDL
