MODEL 1
REMARK minimizedAffinity -4.68373871
REMARK minimizedRMSD -1
REMARK  1 active torsions:
REMARK  status: ('A' for Active; 'I' for Inactive)
REMARK    1  A    between atoms: C3_4  and  O_7 
ROOT
ATOM      1  C   UNL d   1      -0.033   0.419   0.193  0.00  0.00    -0.033 A 
ATOM      2  C1  UNL d   1       1.334   0.233  -0.018  0.00  0.00     0.039 A 
ATOM      3  C2  UNL d   1       1.888  -1.046   0.064  0.00  0.00    -0.080 A 
ATOM      4  C3  UNL d   1       1.065  -2.129   0.357  0.00  0.00     0.150 A 
ATOM      5  C4  UNL d   1      -0.299  -1.952   0.566  0.00  0.00    -0.007 A 
ATOM      6  C5  UNL d   1      -0.850  -0.674   0.484  0.00  0.00     0.039 A 
ENDROOT
BRANCH   4   7
ATOM      7  O   UNL d   1       1.561  -3.395   0.453  0.00  0.00    -0.526 OA
ATOM      8  H5  UNL d   1       2.522  -3.361   0.314  0.00  0.00     0.418 HD
ENDBRANCH   4   7
TORSDOF 1
ENDMDL
