MODEL 1
REMARK minimizedAffinity -5.33050728
REMARK minimizedRMSD -1
REMARK  1 active torsions:
REMARK  status: ('A' for Active; 'I' for Inactive)
REMARK    1  A    between atoms: C3_4  and  O_7 
ROOT
ATOM      1  C   UNL d   1      -0.642   0.545   0.428  0.00  0.00    -0.033 A 
ATOM      2  C1  UNL d   1       0.604   0.494  -0.200  0.00  0.00     0.039 A 
ATOM      3  C2  UNL d   1       1.350  -0.686  -0.180  0.00  0.00    -0.080 A 
ATOM      4  C3  UNL d   1       0.839  -1.807   0.469  0.00  0.00     0.150 A 
ATOM      5  C4  UNL d   1      -0.403  -1.764   1.093  0.00  0.00    -0.007 A 
ATOM      6  C5  UNL d   1      -1.147  -0.585   1.073  0.00  0.00     0.039 A 
ENDROOT
BRANCH   4   7
ATOM      7  O   UNL d   1       1.533  -2.979   0.519  0.00  0.00    -0.526 OA
ATOM      8  H5  UNL d   1       2.386  -2.851   0.071  0.00  0.00     0.418 HD
ENDBRANCH   4   7
TORSDOF 1
ENDMDL
