MODEL 1
REMARK minimizedAffinity -4.3269825
REMARK minimizedRMSD -1
REMARK  1 active torsions:
REMARK  status: ('A' for Active; 'I' for Inactive)
REMARK    1  A    between atoms: C3_4  and  O_7 
ROOT
ATOM      1  C   UNL d   1       0.457   0.539  -0.347  0.00  0.00    -0.033 A 
ATOM      2  C1  UNL d   1       1.811   0.203  -0.290  0.00  0.00     0.039 A 
ATOM      3  C2  UNL d   1       2.196  -1.108  -0.004  0.00  0.00    -0.080 A 
ATOM      4  C3  UNL d   1       1.218  -2.073   0.222  0.00  0.00     0.150 A 
ATOM      5  C4  UNL d   1      -0.133  -1.746   0.163  0.00  0.00    -0.007 A 
ATOM      6  C5  UNL d   1      -0.515  -0.436  -0.122  0.00  0.00     0.039 A 
ENDROOT
BRANCH   4   7
ATOM      7  O   UNL d   1       1.545  -3.365   0.509  0.00  0.00    -0.526 OA
ATOM      8  H5  UNL d   1       2.513  -3.437   0.545  0.00  0.00     0.418 HD
ENDBRANCH   4   7
TORSDOF 1
ENDMDL
