MODEL 1
REMARK minimizedAffinity 2.61574197
REMARK minimizedRMSD -1
REMARK  1 active torsions:
REMARK  status: ('A' for Active; 'I' for Inactive)
REMARK    1  A    between atoms: C1_2  and  C2_3 
ROOT
ATOM      1  C2  UNL d   1      -0.507   2.864  -1.408  0.00  0.00    -0.076 A 
ATOM      2  C3  UNL d   1      -1.058   3.076  -2.683  0.00  0.00     0.004 A 
ATOM      3  C4  UNL d   1      -2.113   2.294  -3.148  0.00  0.00    -0.003 A 
ATOM      4  C5  UNL d   1      -2.635   1.286  -2.345  0.00  0.00     0.000 A 
ATOM      5  C6  UNL d   1      -2.113   1.073  -1.070  0.00  0.00     0.000 A 
ATOM      6  C7  UNL d   1      -1.059   1.864  -0.579  0.00  0.00    -0.073 A 
ATOM      7  C8  UNL d   1      -0.530   1.586   0.801  0.00  0.00     0.078 C 
ENDROOT
BRANCH   1   8
ATOM      8  C1  UNL d   1       0.655   3.726  -0.968  0.00  0.00     0.053 C 
ATOM      9  C   UNL d   1       0.280   4.680   0.155  0.00  0.00     0.018 C 
ENDBRANCH   1   8
TORSDOF 1
ENDMDL
