MODEL 1
REMARK minimizedAffinity -0.559933722
REMARK minimizedRMSD -1
REMARK  1 active torsions:
REMARK  status: ('A' for Active; 'I' for Inactive)
REMARK    1  A    between atoms: C1_2  and  C2_3 
ROOT
ATOM      1  C2  UNL d   1      -1.425   2.408  -1.623  0.00  0.00    -0.076 A 
ATOM      2  C3  UNL d   1      -0.899   3.135  -2.705  0.00  0.00     0.004 A 
ATOM      3  C4  UNL d   1       0.127   4.059  -2.518  0.00  0.00    -0.003 A 
ATOM      4  C5  UNL d   1       0.645   4.270  -1.245  0.00  0.00     0.000 A 
ATOM      5  C6  UNL d   1       0.148   3.546  -0.163  0.00  0.00     0.000 A 
ATOM      6  C7  UNL d   1      -0.876   2.599  -0.337  0.00  0.00    -0.073 A 
ATOM      7  C8  UNL d   1      -1.379   1.850   0.867  0.00  0.00     0.078 C 
ENDROOT
BRANCH   1   8
ATOM      8  C1  UNL d   1      -2.557   1.440  -1.882  0.00  0.00     0.053 C 
ATOM      9  C   UNL d   1      -3.322   1.765  -3.156  0.00  0.00     0.018 C 
ENDBRANCH   1   8
TORSDOF 1
ENDMDL
