MODEL 1
REMARK minimizedAffinity 3.94726133
REMARK minimizedRMSD -1
REMARK  1 active torsions:
REMARK  status: ('A' for Active; 'I' for Inactive)
REMARK    1  A    between atoms: C1_2  and  C2_3 
ROOT
ATOM      1  C2  UNL d   1      -2.139   4.479   0.801  0.00  0.00    -0.076 A 
ATOM      2  C3  UNL d   1      -1.409   5.560   0.277  0.00  0.00     0.004 A 
ATOM      3  C4  UNL d   1      -0.090   5.398  -0.144  0.00  0.00    -0.003 A 
ATOM      4  C5  UNL d   1       0.520   4.152  -0.050  0.00  0.00     0.000 A 
ATOM      5  C6  UNL d   1      -0.195   3.065   0.451  0.00  0.00     0.000 A 
ATOM      6  C7  UNL d   1      -1.531   3.207   0.865  0.00  0.00    -0.073 A 
ATOM      7  C8  UNL d   1      -2.253   2.002   1.402  0.00  0.00     0.078 C 
ENDROOT
BRANCH   1   8
ATOM      8  C1  UNL d   1      -3.557   4.721   1.267  0.00  0.00     0.053 C 
ATOM      9  C   UNL d   1      -4.302   5.707   0.380  0.00  0.00     0.018 C 
ENDBRANCH   1   8
TORSDOF 1
ENDMDL
