MODEL 1
REMARK minimizedAffinity 25.9501629
REMARK minimizedRMSD -1
REMARK  1 active torsions:
REMARK  status: ('A' for Active; 'I' for Inactive)
REMARK    1  A    between atoms: C1_2  and  C2_3 
ROOT
ATOM      1  C2  UNL d   1      -2.951   5.258  -0.051  0.00  0.00    -0.076 A 
ATOM      2  C3  UNL d   1      -3.205   5.585   1.292  0.00  0.00     0.004 A 
ATOM      3  C4  UNL d   1      -4.483   5.949   1.713  0.00  0.00    -0.003 A 
ATOM      4  C5  UNL d   1      -5.528   5.990   0.797  0.00  0.00     0.000 A 
ATOM      5  C6  UNL d   1      -5.299   5.652  -0.536  0.00  0.00     0.000 A 
ATOM      6  C7  UNL d   1      -4.020   5.268  -0.974  0.00  0.00    -0.073 A 
ATOM      7  C8  UNL d   1      -3.827   4.919  -2.424  0.00  0.00     0.078 C 
ENDROOT
BRANCH   1   8
ATOM      8  C1  UNL d   1      -1.539   4.898  -0.455  0.00  0.00     0.053 C 
ATOM      9  C   UNL d   1      -1.486   4.130  -1.767  0.00  0.00     0.018 C 
ENDBRANCH   1   8
TORSDOF 1
ENDMDL
