MODEL 1
REMARK minimizedAffinity 15.2994766
REMARK minimizedRMSD -1
REMARK  1 active torsions:
REMARK  status: ('A' for Active; 'I' for Inactive)
REMARK    1  A    between atoms: C1_2  and  C2_3 
ROOT
ATOM      1  C2  UNL d   1       0.269   2.528   1.345  0.00  0.00    -0.076 A 
ATOM      2  C3  UNL d   1       1.242   3.529   1.178  0.00  0.00     0.004 A 
ATOM      3  C4  UNL d   1       1.382   4.197  -0.037  0.00  0.00    -0.003 A 
ATOM      4  C5  UNL d   1       0.551   3.877  -1.105  0.00  0.00     0.000 A 
ATOM      5  C6  UNL d   1      -0.431   2.899  -0.952  0.00  0.00     0.000 A 
ATOM      6  C7  UNL d   1      -0.597   2.227   0.271  0.00  0.00    -0.073 A 
ATOM      7  C8  UNL d   1      -1.668   1.177   0.379  0.00  0.00     0.078 C 
ENDROOT
BRANCH   1   8
ATOM      8  C1  UNL d   1       0.182   1.818   2.677  0.00  0.00     0.053 C 
ATOM      9  C   UNL d   1       0.959   2.533   3.770  0.00  0.00     0.018 C 
ENDBRANCH   1   8
TORSDOF 1
ENDMDL
