MODEL 1
REMARK minimizedAffinity 13.3960714
REMARK minimizedRMSD -1
REMARK  1 active torsions:
REMARK  status: ('A' for Active; 'I' for Inactive)
REMARK    1  A    between atoms: C1_2  and  C2_3 
ROOT
ATOM      1  C2  UNL d   1      -0.513   3.132  -0.737  0.00  0.00    -0.076 A 
ATOM      2  C3  UNL d   1      -1.282   2.059  -0.255  0.00  0.00     0.004 A 
ATOM      3  C4  UNL d   1      -0.866   1.317   0.849  0.00  0.00    -0.003 A 
ATOM      4  C5  UNL d   1       0.327   1.637   1.489  0.00  0.00     0.000 A 
ATOM      5  C6  UNL d   1       1.094   2.709   1.034  0.00  0.00     0.000 A 
ATOM      6  C7  UNL d   1       0.680   3.477  -0.067  0.00  0.00    -0.073 A 
ATOM      7  C8  UNL d   1       1.549   4.619  -0.518  0.00  0.00     0.078 C 
ENDROOT
BRANCH   1   8
ATOM      8  C1  UNL d   1      -1.002   3.884  -1.955  0.00  0.00     0.053 C 
ATOM      9  C   UNL d   1      -0.808   3.097  -3.242  0.00  0.00     0.018 C 
ENDBRANCH   1   8
TORSDOF 1
ENDMDL
