MODEL 1
REMARK minimizedAffinity -0.706546903
REMARK minimizedRMSD -1
REMARK  1 active torsions:
REMARK  status: ('A' for Active; 'I' for Inactive)
REMARK    1  A    between atoms: C1_2  and  C2_3 
ROOT
ATOM      1  C2  UNL d   1      -0.440   2.568   1.117  0.00  0.00    -0.076 A 
ATOM      2  C3  UNL d   1      -1.205   2.264  -0.023  0.00  0.00     0.004 A 
ATOM      3  C4  UNL d   1      -0.886   2.807  -1.266  0.00  0.00    -0.003 A 
ATOM      4  C5  UNL d   1       0.203   3.663  -1.390  0.00  0.00     0.000 A 
ATOM      5  C6  UNL d   1       0.983   3.961  -0.274  0.00  0.00     0.000 A 
ATOM      6  C7  UNL d   1       0.685   3.409   0.984  0.00  0.00    -0.073 A 
ATOM      7  C8  UNL d   1       1.557   3.770   2.156  0.00  0.00     0.078 C 
ENDROOT
BRANCH   1   8
ATOM      8  C1  UNL d   1      -0.850   1.971   2.444  0.00  0.00     0.053 C 
ATOM      9  C   UNL d   1      -2.323   1.595   2.484  0.00  0.00     0.018 C 
ENDBRANCH   1   8
TORSDOF 1
ENDMDL
