MODEL 1
REMARK minimizedAffinity -0.624151826
REMARK minimizedRMSD -1
REMARK  1 active torsions:
REMARK  status: ('A' for Active; 'I' for Inactive)
REMARK    1  A    between atoms: C1_2  and  C2_3 
ROOT
ATOM      1  C2  UNL d   1      -0.059   3.083   0.493  0.00  0.00    -0.076 A 
ATOM      2  C3  UNL d   1      -1.035   2.072   0.542  0.00  0.00     0.004 A 
ATOM      3  C4  UNL d   1      -1.428   1.514   1.757  0.00  0.00    -0.003 A 
ATOM      4  C5  UNL d   1      -0.853   1.957   2.943  0.00  0.00     0.000 A 
ATOM      5  C6  UNL d   1       0.104   2.971   2.914  0.00  0.00     0.000 A 
ATOM      6  C7  UNL d   1       0.500   3.556   1.699  0.00  0.00    -0.073 A 
ATOM      7  C8  UNL d   1       1.541   4.642   1.726  0.00  0.00     0.078 C 
ENDROOT
BRANCH   1   8
ATOM      8  C1  UNL d   1       0.347   3.631  -0.856  0.00  0.00     0.053 C 
ATOM      9  C   UNL d   1      -0.778   3.563  -1.877  0.00  0.00     0.018 C 
ENDBRANCH   1   8
TORSDOF 1
ENDMDL
