MODEL 1
REMARK minimizedAffinity -0.869525492
REMARK minimizedRMSD -1
REMARK  1 active torsions:
REMARK  status: ('A' for Active; 'I' for Inactive)
REMARK    1  A    between atoms: C1_2  and  C2_3 
ROOT
ATOM      1  C2  UNL d   1      -0.849   1.303   2.097  0.00  0.00    -0.076 A 
ATOM      2  C3  UNL d   1      -1.013   1.245   0.702  0.00  0.00     0.004 A 
ATOM      3  C4  UNL d   1      -0.509   2.250  -0.122  0.00  0.00    -0.003 A 
ATOM      4  C5  UNL d   1       0.167   3.329   0.436  0.00  0.00     0.000 A 
ATOM      5  C6  UNL d   1       0.355   3.394   1.816  0.00  0.00     0.000 A 
ATOM      6  C7  UNL d   1      -0.133   2.381   2.660  0.00  0.00    -0.073 A 
ATOM      7  C8  UNL d   1       0.093   2.505   4.142  0.00  0.00     0.078 C 
ENDROOT
BRANCH   1   8
ATOM      8  C1  UNL d   1      -1.440   0.197   2.943  0.00  0.00     0.053 C 
ATOM      9  C   UNL d   1      -0.552  -1.036   2.994  0.00  0.00     0.018 C 
ENDBRANCH   1   8
TORSDOF 1
ENDMDL
