MODEL 1
REMARK minimizedAffinity 4.72819757
REMARK minimizedRMSD -1
REMARK  1 active torsions:
REMARK  status: ('A' for Active; 'I' for Inactive)
REMARK    1  A    between atoms: C1_2  and  C2_3 
ROOT
ATOM      1  C2  UNL d   1      -1.917   0.153   3.311  0.00  0.00    -0.076 A 
ATOM      2  C3  UNL d   1      -0.638   0.565   3.726  0.00  0.00     0.004 A 
ATOM      3  C4  UNL d   1       0.084   1.507   2.995  0.00  0.00    -0.003 A 
ATOM      4  C5  UNL d   1      -0.461   2.052   1.838  0.00  0.00     0.000 A 
ATOM      5  C6  UNL d   1      -1.735   1.669   1.421  0.00  0.00     0.000 A 
ATOM      6  C7  UNL d   1      -2.483   0.733   2.156  0.00  0.00    -0.073 A 
ATOM      7  C8  UNL d   1      -3.850   0.350   1.657  0.00  0.00     0.078 C 
ENDROOT
BRANCH   1   8
ATOM      8  C1  UNL d   1      -2.642  -0.891   4.129  0.00  0.00     0.053 C 
ATOM      9  C   UNL d   1      -1.756  -2.078   4.477  0.00  0.00     0.018 C 
ENDBRANCH   1   8
TORSDOF 1
ENDMDL
