MODEL 1
REMARK minimizedAffinity -4.05105782
REMARK minimizedRMSD -1
REMARK  1 active torsions:
REMARK  status: ('A' for Active; 'I' for Inactive)
REMARK    1  A    between atoms: C1_2  and  C2_3 
ROOT
ATOM      1  C2  UNL d   1      -0.169   2.868   0.995  0.00  0.00    -0.076 A 
ATOM      2  C3  UNL d   1      -1.227   1.963   0.800  0.00  0.00     0.004 A 
ATOM      3  C4  UNL d   1      -1.719   1.196   1.854  0.00  0.00    -0.003 A 
ATOM      4  C5  UNL d   1      -1.163   1.323   3.122  0.00  0.00     0.000 A 
ATOM      5  C6  UNL d   1      -0.125   2.229   3.338  0.00  0.00     0.000 A 
ATOM      6  C7  UNL d   1       0.372   3.021   2.290  0.00  0.00    -0.073 A 
ATOM      7  C8  UNL d   1       1.497   3.978   2.578  0.00  0.00     0.078 C 
ENDROOT
BRANCH   1   8
ATOM      8  C1  UNL d   1       0.341   3.653  -0.192  0.00  0.00     0.053 C 
ATOM      9  C   UNL d   1      -0.222   5.065  -0.243  0.00  0.00     0.018 C 
ENDBRANCH   1   8
TORSDOF 1
ENDMDL
