MODEL 1
REMARK minimizedAffinity 5.54170895
REMARK minimizedRMSD -1
REMARK  1 active torsions:
REMARK  status: ('A' for Active; 'I' for Inactive)
REMARK    1  A    between atoms: C1_2  and  C2_3 
ROOT
ATOM      1  C2  UNL d   1      -1.113  -0.949   3.107  0.00  0.00    -0.076 A 
ATOM      2  C3  UNL d   1      -2.252  -0.127   3.062  0.00  0.00     0.004 A 
ATOM      3  C4  UNL d   1      -2.229   1.096   2.392  0.00  0.00    -0.003 A 
ATOM      4  C5  UNL d   1      -1.066   1.515   1.756  0.00  0.00     0.000 A 
ATOM      5  C6  UNL d   1       0.069   0.704   1.776  0.00  0.00     0.000 A 
ATOM      6  C7  UNL d   1       0.057  -0.539   2.432  0.00  0.00    -0.073 A 
ATOM      7  C8  UNL d   1       1.310  -1.370   2.427  0.00  0.00     0.078 C 
ENDROOT
BRANCH   1   8
ATOM      8  C1  UNL d   1      -1.190  -2.251   3.872  0.00  0.00     0.053 C 
ATOM      9  C   UNL d   1      -2.315  -2.260   4.895  0.00  0.00     0.018 C 
ENDBRANCH   1   8
TORSDOF 1
ENDMDL
