MODEL 1
REMARK minimizedAffinity 1.42080438
REMARK minimizedRMSD -1
REMARK  1 active torsions:
REMARK  status: ('A' for Active; 'I' for Inactive)
REMARK    1  A    between atoms: C1_2  and  C2_3 
ROOT
ATOM      1  C2  UNL d   1       0.065   2.302   1.310  0.00  0.00    -0.076 A 
ATOM      2  C3  UNL d   1      -0.514   1.036   1.119  0.00  0.00     0.004 A 
ATOM      3  C4  UNL d   1      -1.085   0.340   2.184  0.00  0.00    -0.003 A 
ATOM      4  C5  UNL d   1      -1.085   0.900   3.456  0.00  0.00     0.000 A 
ATOM      5  C6  UNL d   1      -0.530   2.163   3.660  0.00  0.00     0.000 A 
ATOM      6  C7  UNL d   1       0.034   2.884   2.595  0.00  0.00    -0.073 A 
ATOM      7  C8  UNL d   1       0.624   4.240   2.873  0.00  0.00     0.078 C 
ENDROOT
BRANCH   1   8
ATOM      8  C1  UNL d   1       0.693   2.997   0.123  0.00  0.00     0.053 C 
ATOM      9  C   UNL d   1       0.045   2.601  -1.195  0.00  0.00     0.018 C 
ENDBRANCH   1   8
TORSDOF 1
ENDMDL
