MODEL 1
REMARK minimizedAffinity 0.62074405
REMARK minimizedRMSD -1
REMARK  1 active torsions:
REMARK  status: ('A' for Active; 'I' for Inactive)
REMARK    1  A    between atoms: C1_2  and  C2_3 
ROOT
ATOM      1  C2  UNL d   1      -0.334   2.438   1.193  0.00  0.00    -0.076 A 
ATOM      2  C3  UNL d   1      -0.954   1.720   0.155  0.00  0.00     0.004 A 
ATOM      3  C4  UNL d   1      -0.913   2.181  -1.160  0.00  0.00    -0.003 A 
ATOM      4  C5  UNL d   1      -0.252   3.367  -1.459  0.00  0.00     0.000 A 
ATOM      5  C6  UNL d   1       0.384   4.083  -0.445  0.00  0.00     0.000 A 
ATOM      6  C7  UNL d   1       0.367   3.624   0.883  0.00  0.00    -0.073 A 
ATOM      7  C8  UNL d   1       1.064   4.439   1.938  0.00  0.00     0.078 C 
ENDROOT
BRANCH   1   8
ATOM      8  C1  UNL d   1      -0.434   1.904   2.603  0.00  0.00     0.053 C 
ATOM      9  C   UNL d   1      -1.658   1.024   2.808  0.00  0.00     0.018 C 
ENDBRANCH   1   8
TORSDOF 1
ENDMDL
