MODEL 1
REMARK minimizedAffinity 5.98997402
REMARK minimizedRMSD -1
REMARK  1 active torsions:
REMARK  status: ('A' for Active; 'I' for Inactive)
REMARK    1  A    between atoms: C1_2  and  C2_3 
ROOT
ATOM      1  C2  UNL d   1      -0.948  -1.161   2.790  0.00  0.00    -0.076 A 
ATOM      2  C3  UNL d   1      -1.894  -1.341   3.814  0.00  0.00     0.004 A 
ATOM      3  C4  UNL d   1      -2.108  -2.597   4.380  0.00  0.00    -0.003 A 
ATOM      4  C5  UNL d   1      -1.379  -3.693   3.932  0.00  0.00     0.000 A 
ATOM      5  C6  UNL d   1      -0.424  -3.529   2.930  0.00  0.00     0.000 A 
ATOM      6  C7  UNL d   1      -0.184  -2.267   2.359  0.00  0.00    -0.073 A 
ATOM      7  C8  UNL d   1       0.853  -2.150   1.277  0.00  0.00     0.078 C 
ENDROOT
BRANCH   1   8
ATOM      8  C1  UNL d   1      -0.778   0.218   2.195  0.00  0.00     0.053 C 
ATOM      9  C   UNL d   1      -1.603   1.271   2.919  0.00  0.00     0.018 C 
ENDBRANCH   1   8
TORSDOF 1
ENDMDL
