MODEL 1
REMARK minimizedAffinity 3.64684439
REMARK minimizedRMSD -1
REMARK  2 active torsions:
REMARK  status: ('A' for Active; 'I' for Inactive)
REMARK    1  A    between atoms: C1_2  and  C2_3 
REMARK    2  A    between atoms: C2_3  and  C3_4 
ROOT
ATOM      1  C3  UNL d   1       2.895   2.705   0.938  0.00  0.00    -0.075 A 
ATOM      2  C4  UNL d   1       1.999   1.716   1.372  0.00  0.00     0.002 A 
ATOM      3  C5  UNL d   1       2.330   0.365   1.266  0.00  0.00     0.002 A 
ATOM      4  C6  UNL d   1       3.553  -0.015   0.719  0.00  0.00    -0.004 A 
ATOM      5  C7  UNL d   1       4.444   0.958   0.270  0.00  0.00     0.002 A 
ATOM      6  C8  UNL d   1       4.117   2.311   0.378  0.00  0.00     0.002 A 
ENDROOT
BRANCH   1   7
ATOM      7  C2  UNL d   1       2.555   4.170   1.077  0.00  0.00     0.056 C 
BRANCH   7   8
ATOM      8  C1  UNL d   1       3.777   5.094   1.103  0.00  0.00     0.007 C 
ATOM      9  C   UNL d   1       4.075   5.656   2.486  0.00  0.00     0.009 C 
ENDBRANCH   7   8
ENDBRANCH   1   7
TORSDOF 2
ENDMDL
