MODEL 1
REMARK minimizedAffinity 7.3337183
REMARK minimizedRMSD -1
REMARK  2 active torsions:
REMARK  status: ('A' for Active; 'I' for Inactive)
REMARK    1  A    between atoms: C1_2  and  C2_3 
REMARK    2  A    between atoms: C2_3  and  C3_4 
ROOT
ATOM      1  C3  UNL d   1       3.159   3.947  -3.799  0.00  0.00    -0.075 A 
ATOM      2  C4  UNL d   1       3.187   3.760  -2.409  0.00  0.00     0.002 A 
ATOM      3  C5  UNL d   1       3.681   2.574  -1.864  0.00  0.00     0.002 A 
ATOM      4  C6  UNL d   1       4.142   1.559  -2.699  0.00  0.00    -0.004 A 
ATOM      5  C7  UNL d   1       4.103   1.727  -4.082  0.00  0.00     0.002 A 
ATOM      6  C8  UNL d   1       3.614   2.914  -4.630  0.00  0.00     0.002 A 
ENDROOT
BRANCH   1   7
ATOM      7  C2  UNL d   1       2.654   5.239  -4.394  0.00  0.00     0.056 C 
BRANCH   7   8
ATOM      8  C1  UNL d   1       3.088   5.469  -5.846  0.00  0.00     0.007 C 
ATOM      9  C   UNL d   1       4.509   6.000  -5.971  0.00  0.00     0.009 C 
ENDBRANCH   7   8
ENDBRANCH   1   7
TORSDOF 2
ENDMDL
