MODEL 1
REMARK minimizedAffinity 3.94051719
REMARK minimizedRMSD -1
REMARK  2 active torsions:
REMARK  status: ('A' for Active; 'I' for Inactive)
REMARK    1  A    between atoms: C1_2  and  C2_3 
REMARK    2  A    between atoms: C2_3  and  C3_4 
ROOT
ATOM      1  C3  UNL d   1       3.351   3.957  -4.608  0.00  0.00    -0.075 A 
ATOM      2  C4  UNL d   1       2.397   2.985  -4.943  0.00  0.00     0.002 A 
ATOM      3  C5  UNL d   1       2.624   1.640  -4.651  0.00  0.00     0.002 A 
ATOM      4  C6  UNL d   1       3.809   1.249  -4.031  0.00  0.00    -0.004 A 
ATOM      5  C7  UNL d   1       4.771   2.203  -3.710  0.00  0.00     0.002 A 
ATOM      6  C8  UNL d   1       4.545   3.551  -3.997  0.00  0.00     0.002 A 
ENDROOT
BRANCH   1   7
ATOM      7  C2  UNL d   1       3.099   5.418  -4.895  0.00  0.00     0.056 C 
BRANCH   7   8
ATOM      8  C1  UNL d   1       3.989   6.000  -5.999  0.00  0.00     0.007 C 
ATOM      9  C   UNL d   1       5.469   6.000  -5.640  0.00  0.00     0.009 C 
ENDBRANCH   7   8
ENDBRANCH   1   7
TORSDOF 2
ENDMDL
