MODEL 1
REMARK minimizedAffinity 4.07687378
REMARK minimizedRMSD -1
REMARK  2 active torsions:
REMARK  status: ('A' for Active; 'I' for Inactive)
REMARK    1  A    between atoms: C1_2  and  C2_3 
REMARK    2  A    between atoms: C2_3  and  C3_4 
ROOT
ATOM      1  C3  UNL d   1       3.472   3.768  -4.721  0.00  0.00    -0.075 A 
ATOM      2  C4  UNL d   1       2.662   4.830  -5.149  0.00  0.00     0.002 A 
ATOM      3  C5  UNL d   1       3.223   5.936  -5.789  0.00  0.00     0.002 A 
ATOM      4  C6  UNL d   1       4.599   5.999  -6.000  0.00  0.00    -0.004 A 
ATOM      5  C7  UNL d   1       5.415   4.957  -5.564  0.00  0.00     0.002 A 
ATOM      6  C8  UNL d   1       4.856   3.847  -4.927  0.00  0.00     0.002 A 
ENDROOT
BRANCH   1   7
ATOM      7  C2  UNL d   1       2.868   2.556  -4.055  0.00  0.00     0.056 C 
BRANCH   7   8
ATOM      8  C1  UNL d   1       3.901   1.557  -3.521  0.00  0.00     0.007 C 
ATOM      9  C   UNL d   1       5.093   2.228  -2.851  0.00  0.00     0.009 C 
ENDBRANCH   7   8
ENDBRANCH   1   7
TORSDOF 2
ENDMDL
