MODEL 1
REMARK minimizedAffinity 0.311409682
REMARK minimizedRMSD -1
REMARK  2 active torsions:
REMARK  status: ('A' for Active; 'I' for Inactive)
REMARK    1  A    between atoms: C1_2  and  C2_3 
REMARK    2  A    between atoms: C2_3  and  C3_4 
ROOT
ATOM      1  C3  UNL d   1       4.885   4.045  -4.091  0.00  0.00    -0.075 A 
ATOM      2  C4  UNL d   1       3.622   4.655  -4.090  0.00  0.00     0.002 A 
ATOM      3  C5  UNL d   1       3.303   5.623  -5.043  0.00  0.00     0.002 A 
ATOM      4  C6  UNL d   1       4.242   6.000  -6.000  0.00  0.00    -0.004 A 
ATOM      5  C7  UNL d   1       5.505   5.413  -6.000  0.00  0.00     0.002 A 
ATOM      6  C8  UNL d   1       5.827   4.441  -5.051  0.00  0.00     0.002 A 
ENDROOT
BRANCH   1   7
ATOM      7  C2  UNL d   1       5.228   2.976  -3.081  0.00  0.00     0.056 C 
BRANCH   7   8
ATOM      8  C1  UNL d   1       4.155   1.892  -2.932  0.00  0.00     0.007 C 
ATOM      9  C   UNL d   1       3.731   1.661  -1.488  0.00  0.00     0.009 C 
ENDBRANCH   7   8
ENDBRANCH   1   7
TORSDOF 2
ENDMDL
