MODEL 1
REMARK minimizedAffinity 4.98415518
REMARK minimizedRMSD -1
REMARK  2 active torsions:
REMARK  status: ('A' for Active; 'I' for Inactive)
REMARK    1  A    between atoms: C1_2  and  C2_3 
REMARK    2  A    between atoms: C2_3  and  C3_4 
ROOT
ATOM      1  C3  UNL d   1       2.042   3.793   1.156  0.00  0.00    -0.075 A 
ATOM      2  C4  UNL d   1       3.335   3.269   1.009  0.00  0.00     0.002 A 
ATOM      3  C5  UNL d   1       4.451   4.101   1.103  0.00  0.00     0.002 A 
ATOM      4  C6  UNL d   1       4.289   5.465   1.335  0.00  0.00    -0.004 A 
ATOM      5  C7  UNL d   1       3.009   5.999   1.466  0.00  0.00     0.002 A 
ATOM      6  C8  UNL d   1       1.891   5.168   1.377  0.00  0.00     0.002 A 
ENDROOT
BRANCH   1   7
ATOM      7  C2  UNL d   1       0.831   2.893   1.085  0.00  0.00     0.056 C 
BRANCH   7   8
ATOM      8  C1  UNL d   1      -0.330   3.338   1.981  0.00  0.00     0.007 C 
ATOM      9  C   UNL d   1      -0.749   2.277   2.990  0.00  0.00     0.009 C 
ENDBRANCH   7   8
ENDBRANCH   1   7
TORSDOF 2
ENDMDL
