MODEL 1
REMARK minimizedAffinity -4.8913312
REMARK minimizedRMSD -1
REMARK  2 active torsions:
REMARK  status: ('A' for Active; 'I' for Inactive)
REMARK    1  A    between atoms: C1_2  and  C2_3 
REMARK    2  A    between atoms: C2_3  and  C3_4 
ROOT
ATOM      1  C3  UNL d   1      -0.561   1.059   1.715  0.00  0.00    -0.075 A 
ATOM      2  C4  UNL d   1      -0.979  -0.269   1.545  0.00  0.00     0.002 A 
ATOM      3  C5  UNL d   1      -2.195  -0.702   2.074  0.00  0.00     0.002 A 
ATOM      4  C6  UNL d   1      -3.003   0.182   2.786  0.00  0.00    -0.004 A 
ATOM      5  C7  UNL d   1      -2.590   1.499   2.975  0.00  0.00     0.002 A 
ATOM      6  C8  UNL d   1      -1.376   1.936   2.443  0.00  0.00     0.002 A 
ENDROOT
BRANCH   1   7
ATOM      7  C2  UNL d   1       0.740   1.542   1.120  0.00  0.00     0.056 C 
BRANCH   7   8
ATOM      8  C1  UNL d   1       1.728   0.419   0.787  0.00  0.00     0.007 C 
ATOM      9  C   UNL d   1       2.292   0.514  -0.625  0.00  0.00     0.009 C 
ENDBRANCH   7   8
ENDBRANCH   1   7
TORSDOF 2
ENDMDL
