MODEL 1
REMARK minimizedAffinity 4.00282574
REMARK minimizedRMSD -1
REMARK  2 active torsions:
REMARK  status: ('A' for Active; 'I' for Inactive)
REMARK    1  A    between atoms: C1_2  and  C2_3 
REMARK    2  A    between atoms: C2_3  and  C3_4 
ROOT
ATOM      1  C3  UNL d   1      -3.672   1.572   4.014  0.00  0.00    -0.075 A 
ATOM      2  C4  UNL d   1      -3.296   0.357   3.424  0.00  0.00     0.002 A 
ATOM      3  C5  UNL d   1      -2.148   0.277   2.635  0.00  0.00     0.002 A 
ATOM      4  C6  UNL d   1      -1.369   1.411   2.418  0.00  0.00    -0.004 A 
ATOM      5  C7  UNL d   1      -1.742   2.628   2.986  0.00  0.00     0.002 A 
ATOM      6  C8  UNL d   1      -2.887   2.709   3.779  0.00  0.00     0.002 A 
ENDROOT
BRANCH   1   7
ATOM      7  C2  UNL d   1      -4.897   1.658   4.893  0.00  0.00     0.056 C 
BRANCH   7   8
ATOM      8  C1  UNL d   1      -4.798   2.713   5.999  0.00  0.00     0.007 C 
ATOM      9  C   UNL d   1      -5.964   3.694   5.999  0.00  0.00     0.009 C 
ENDBRANCH   7   8
ENDBRANCH   1   7
TORSDOF 2
ENDMDL
