MODEL 1
REMARK minimizedAffinity 2.99254799
REMARK minimizedRMSD -1
REMARK  2 active torsions:
REMARK  status: ('A' for Active; 'I' for Inactive)
REMARK    1  A    between atoms: C1_2  and  C2_3 
REMARK    2  A    between atoms: C2_3  and  C3_4 
ROOT
ATOM      1  C3  UNL d   1      -2.225  -1.877   1.952  0.00  0.00    -0.075 A 
ATOM      2  C4  UNL d   1      -1.062  -2.033   2.719  0.00  0.00     0.002 A 
ATOM      3  C5  UNL d   1      -1.145  -2.369   4.071  0.00  0.00     0.002 A 
ATOM      4  C6  UNL d   1      -2.389  -2.543   4.673  0.00  0.00    -0.004 A 
ATOM      5  C7  UNL d   1      -3.552  -2.374   3.924  0.00  0.00     0.002 A 
ATOM      6  C8  UNL d   1      -3.471  -2.042   2.570  0.00  0.00     0.002 A 
ENDROOT
BRANCH   1   7
ATOM      7  C2  UNL d   1      -2.141  -1.541   0.482  0.00  0.00     0.056 C 
BRANCH   7   8
ATOM      8  C1  UNL d   1      -2.865  -2.540  -0.428  0.00  0.00     0.007 C 
ATOM      9  C   UNL d   1      -3.121  -2.000  -1.829  0.00  0.00     0.009 C 
ENDBRANCH   7   8
ENDBRANCH   1   7
TORSDOF 2
ENDMDL
