MODEL 1
REMARK minimizedAffinity 1.13296127
REMARK minimizedRMSD -1
REMARK  2 active torsions:
REMARK  status: ('A' for Active; 'I' for Inactive)
REMARK    1  A    between atoms: C1_2  and  C2_3 
REMARK    2  A    between atoms: C2_3  and  C3_4 
ROOT
ATOM      1  C3  UNL d   1      -2.775   1.211   3.436  0.00  0.00    -0.075 A 
ATOM      2  C4  UNL d   1      -2.360  -0.096   3.143  0.00  0.00     0.002 A 
ATOM      3  C5  UNL d   1      -1.085  -0.336   2.630  0.00  0.00     0.002 A 
ATOM      4  C6  UNL d   1      -0.214   0.726   2.394  0.00  0.00    -0.004 A 
ATOM      5  C7  UNL d   1      -0.623   2.030   2.665  0.00  0.00     0.002 A 
ATOM      6  C8  UNL d   1      -1.896   2.272   3.183  0.00  0.00     0.002 A 
ENDROOT
BRANCH   1   7
ATOM      7  C2  UNL d   1      -4.143   1.474   4.019  0.00  0.00     0.056 C 
BRANCH   7   8
ATOM      8  C1  UNL d   1      -4.127   1.827   5.510  0.00  0.00     0.007 C 
ATOM      9  C   UNL d   1      -5.439   2.427   5.999  0.00  0.00     0.009 C 
ENDBRANCH   7   8
ENDBRANCH   1   7
TORSDOF 2
ENDMDL
