MODEL 1
REMARK minimizedAffinity 0.793881655
REMARK minimizedRMSD -1
REMARK  2 active torsions:
REMARK  status: ('A' for Active; 'I' for Inactive)
REMARK    1  A    between atoms: C1_2  and  C2_3 
REMARK    2  A    between atoms: C2_3  and  C3_4 
ROOT
ATOM      1  C3  UNL d   1      -3.256   2.332   3.281  0.00  0.00    -0.075 A 
ATOM      2  C4  UNL d   1      -1.984   1.755   3.414  0.00  0.00     0.002 A 
ATOM      3  C5  UNL d   1      -0.943   2.131   2.565  0.00  0.00     0.002 A 
ATOM      4  C6  UNL d   1      -1.162   3.080   1.568  0.00  0.00    -0.004 A 
ATOM      5  C7  UNL d   1      -2.425   3.648   1.417  0.00  0.00     0.002 A 
ATOM      6  C8  UNL d   1      -3.467   3.276   2.268  0.00  0.00     0.002 A 
ENDROOT
BRANCH   1   7
ATOM      7  C2  UNL d   1      -4.379   1.950   4.216  0.00  0.00     0.056 C 
BRANCH   7   8
ATOM      8  C1  UNL d   1      -4.434   2.786   5.499  0.00  0.00     0.007 C 
ATOM      9  C   UNL d   1      -5.854   3.119   5.938  0.00  0.00     0.009 C 
ENDBRANCH   7   8
ENDBRANCH   1   7
TORSDOF 2
ENDMDL
