MODEL 1
REMARK minimizedAffinity 6.65712166
REMARK minimizedRMSD -1
REMARK  2 active torsions:
REMARK  status: ('A' for Active; 'I' for Inactive)
REMARK    1  A    between atoms: C1_2  and  C2_3 
REMARK    2  A    between atoms: C2_3  and  C3_4 
ROOT
ATOM      1  C3  UNL d   1      -2.211   2.427   3.227  0.00  0.00    -0.075 A 
ATOM      2  C4  UNL d   1      -2.567   3.471   2.360  0.00  0.00     0.002 A 
ATOM      3  C5  UNL d   1      -1.605   4.087   1.561  0.00  0.00     0.002 A 
ATOM      4  C6  UNL d   1      -0.275   3.677   1.624  0.00  0.00    -0.004 A 
ATOM      5  C7  UNL d   1       0.093   2.652   2.493  0.00  0.00     0.002 A 
ATOM      6  C8  UNL d   1      -0.869   2.031   3.292  0.00  0.00     0.002 A 
ENDROOT
BRANCH   1   7
ATOM      7  C2  UNL d   1      -3.253   1.736   4.073  0.00  0.00     0.056 C 
BRANCH   7   8
ATOM      8  C1  UNL d   1      -4.453   2.620   4.431  0.00  0.00     0.007 C 
ATOM      9  C   UNL d   1      -5.180   2.164   5.689  0.00  0.00     0.009 C 
ENDBRANCH   7   8
ENDBRANCH   1   7
TORSDOF 2
ENDMDL
