MODEL 1
REMARK minimizedAffinity 4.11019707
REMARK minimizedRMSD -1
REMARK  2 active torsions:
REMARK  status: ('A' for Active; 'I' for Inactive)
REMARK    1  A    between atoms: C1_2  and  C2_3 
REMARK    2  A    between atoms: C2_3  and  C3_4 
ROOT
ATOM      1  C3  UNL d   1      -3.667   1.875   3.714  0.00  0.00    -0.075 A 
ATOM      2  C4  UNL d   1      -3.064   0.674   3.312  0.00  0.00     0.002 A 
ATOM      3  C5  UNL d   1      -1.867   0.688   2.597  0.00  0.00     0.002 A 
ATOM      4  C6  UNL d   1      -1.263   1.899   2.265  0.00  0.00    -0.004 A 
ATOM      5  C7  UNL d   1      -1.861   3.098   2.645  0.00  0.00     0.002 A 
ATOM      6  C8  UNL d   1      -3.057   3.088   3.365  0.00  0.00     0.002 A 
ENDROOT
BRANCH   1   7
ATOM      7  C2  UNL d   1      -4.948   1.867   4.514  0.00  0.00     0.056 C 
BRANCH   7   8
ATOM      8  C1  UNL d   1      -4.867   2.651   5.828  0.00  0.00     0.007 C 
ATOM      9  C   UNL d   1      -6.000   3.654   6.000  0.00  0.00     0.009 C 
ENDBRANCH   7   8
ENDBRANCH   1   7
TORSDOF 2
ENDMDL
