MODEL 1
REMARK minimizedAffinity 1.92136014
REMARK minimizedRMSD -1
REMARK  2 active torsions:
REMARK  status: ('A' for Active; 'I' for Inactive)
REMARK    1  A    between atoms: C1_2  and  C2_3 
REMARK    2  A    between atoms: C2_3  and  C3_4 
ROOT
ATOM      1  C3  UNL d   1       2.967  -0.665  -1.254  0.00  0.00    -0.075 A 
ATOM      2  C4  UNL d   1       4.039  -1.173  -0.506  0.00  0.00     0.002 A 
ATOM      3  C5  UNL d   1       4.583  -0.433   0.545  0.00  0.00     0.002 A 
ATOM      4  C6  UNL d   1       4.071   0.825   0.852  0.00  0.00    -0.004 A 
ATOM      5  C7  UNL d   1       3.017   1.347   0.105  0.00  0.00     0.002 A 
ATOM      6  C8  UNL d   1       2.468   0.607  -0.944  0.00  0.00     0.002 A 
ENDROOT
BRANCH   1   7
ATOM      7  C2  UNL d   1       2.355  -1.474  -2.373  0.00  0.00     0.056 C 
BRANCH   7   8
ATOM      8  C1  UNL d   1       1.307  -2.489  -1.907  0.00  0.00     0.007 C 
ATOM      9  C   UNL d   1       1.748  -3.935  -2.092  0.00  0.00     0.009 C 
ENDBRANCH   7   8
ENDBRANCH   1   7
TORSDOF 2
ENDMDL
