MODEL 1
REMARK minimizedAffinity -6.11743212
REMARK minimizedRMSD -1
REMARK  1 active torsions:
REMARK  status: ('A' for Active; 'I' for Inactive)
REMARK    1  A    between atoms: C1_2  and  C2_3 
ROOT
ATOM      1  C2  UNL d   1       0.153   0.535   1.982  0.00  0.00    -0.077 A 
ATOM      2  C3  UNL d   1      -1.178   0.641   2.407  0.00  0.00     0.002 A 
ATOM      3  C4  UNL d   1      -2.223   0.273   1.556  0.00  0.00     0.002 A 
ATOM      4  C5  UNL d   1      -1.946  -0.207   0.278  0.00  0.00    -0.004 A 
ATOM      5  C6  UNL d   1      -0.625  -0.315  -0.155  0.00  0.00     0.002 A 
ATOM      6  C7  UNL d   1       0.420   0.054   0.693  0.00  0.00     0.002 A 
ENDROOT
BRANCH   1   7
ATOM      7  C1  UNL d   1       1.283   0.885   2.915  0.00  0.00     0.055 C 
ATOM      8  C   UNL d   1       2.271  -0.265   3.044  0.00  0.00     0.019 C 
ENDBRANCH   1   7
TORSDOF 1
ENDMDL
