MODEL 1
REMARK minimizedAffinity -4.24195337
REMARK minimizedRMSD -1
REMARK  1 active torsions:
REMARK  status: ('A' for Active; 'I' for Inactive)
REMARK    1  A    between atoms: C1_2  and  C2_3 
ROOT
ATOM      1  C2  UNL d   1      -0.327   0.255   0.603  0.00  0.00    -0.077 A 
ATOM      2  C3  UNL d   1      -1.509  -0.059   1.288  0.00  0.00     0.002 A 
ATOM      3  C4  UNL d   1      -1.652   0.268   2.638  0.00  0.00     0.002 A 
ATOM      4  C5  UNL d   1      -0.618   0.915   3.312  0.00  0.00    -0.004 A 
ATOM      5  C6  UNL d   1       0.562   1.229   2.641  0.00  0.00     0.002 A 
ATOM      6  C7  UNL d   1       0.707   0.902   1.292  0.00  0.00     0.002 A 
ENDROOT
BRANCH   1   7
ATOM      7  C1  UNL d   1      -0.190  -0.053  -0.865  0.00  0.00     0.055 C 
ATOM      8  C   UNL d   1       1.011  -0.947  -1.134  0.00  0.00     0.019 C 
ENDBRANCH   1   7
TORSDOF 1
ENDMDL
