MODEL 1
REMARK minimizedAffinity -5.8997817
REMARK minimizedRMSD -1
REMARK  1 active torsions:
REMARK  status: ('A' for Active; 'I' for Inactive)
REMARK    1  A    between atoms: C1_2  and  C2_3 
ROOT
ATOM      1  C2  UNL d   1      -0.486   0.408   1.032  0.00  0.00    -0.077 A 
ATOM      2  C3  UNL d   1       0.818  -0.014   1.329  0.00  0.00     0.002 A 
ATOM      3  C4  UNL d   1       1.309   0.077   2.633  0.00  0.00     0.002 A 
ATOM      4  C5  UNL d   1       0.503   0.583   3.650  0.00  0.00    -0.004 A 
ATOM      5  C6  UNL d   1      -0.795   1.007   3.364  0.00  0.00     0.002 A 
ATOM      6  C7  UNL d   1      -1.287   0.918   2.062  0.00  0.00     0.002 A 
ENDROOT
BRANCH   1   7
ATOM      7  C1  UNL d   1      -1.035   0.265  -0.363  0.00  0.00     0.055 C 
ATOM      8  C   UNL d   1       0.019  -0.271  -1.321  0.00  0.00     0.019 C 
ENDBRANCH   1   7
TORSDOF 1
ENDMDL
