MODEL 1
REMARK minimizedAffinity -5.33632708
REMARK minimizedRMSD -1
REMARK  1 active torsions:
REMARK  status: ('A' for Active; 'I' for Inactive)
REMARK    1  A    between atoms: C1_2  and  C2_3 
ROOT
ATOM      1  C2  UNL d   1      -0.111   0.522   2.530  0.00  0.00    -0.077 A 
ATOM      2  C3  UNL d   1      -1.453   0.896   2.365  0.00  0.00     0.002 A 
ATOM      3  C4  UNL d   1      -2.046   0.859   1.102  0.00  0.00     0.002 A 
ATOM      4  C5  UNL d   1      -1.307   0.446  -0.005  0.00  0.00    -0.004 A 
ATOM      5  C6  UNL d   1       0.028   0.074   0.148  0.00  0.00     0.002 A 
ATOM      6  C7  UNL d   1       0.623   0.112   1.410  0.00  0.00     0.002 A 
ENDROOT
BRANCH   1   7
ATOM      7  C1  UNL d   1       0.516   0.514   3.899  0.00  0.00     0.055 C 
ATOM      8  C   UNL d   1       1.762  -0.359   3.932  0.00  0.00     0.019 C 
ENDBRANCH   1   7
TORSDOF 1
ENDMDL
