MODEL 1
REMARK minimizedAffinity -4.83880377
REMARK minimizedRMSD -1
REMARK  1 active torsions:
REMARK  status: ('A' for Active; 'I' for Inactive)
REMARK    1  A    between atoms: C1_2  and  C2_3 
ROOT
ATOM      1  C2  UNL d   1       0.293   0.495   2.334  0.00  0.00    -0.077 A 
ATOM      2  C3  UNL d   1      -0.888   1.170   2.675  0.00  0.00     0.002 A 
ATOM      3  C4  UNL d   1      -1.887   1.372   1.721  0.00  0.00     0.002 A 
ATOM      4  C5  UNL d   1      -1.718   0.898   0.422  0.00  0.00    -0.004 A 
ATOM      5  C6  UNL d   1      -0.547   0.227   0.072  0.00  0.00     0.002 A 
ATOM      6  C7  UNL d   1       0.453   0.025   1.024  0.00  0.00     0.002 A 
ENDROOT
BRANCH   1   7
ATOM      7  C1  UNL d   1       1.350   0.232   3.374  0.00  0.00     0.055 C 
ATOM      8  C   UNL d   1       2.512  -0.562   2.794  0.00  0.00     0.019 C 
ENDBRANCH   1   7
TORSDOF 1
ENDMDL
