MODEL 1
REMARK minimizedAffinity 3.64867902
REMARK minimizedRMSD -1
REMARK  0 active torsions:
REMARK  status: ('A' for Active; 'I' for Inactive)
ROOT
ATOM      1  C4' PXY d   1       0.314  -4.469  -0.052  0.00  0.00     0.077 C 
ATOM      2  C1' PXY d   1       4.002  -0.035   0.347  0.00  0.00     0.077 C 
ATOM      3  C1  PXY d   1       3.038  -1.201   0.255  0.00  0.00    -0.082 A 
ATOM      4  C2  PXY d   1       2.770  -1.737  -0.925  0.00  0.00     0.003 A 
ATOM      5  C3  PXY d   1       1.876  -2.771  -1.030  0.00  0.00     0.003 A 
ATOM      6  C4  PXY d   1       1.289  -3.297   0.090  0.00  0.00    -0.082 A 
ATOM      7  C5  PXY d   1       1.565  -2.762   1.298  0.00  0.00     0.003 A 
ATOM      8  C6  PXY d   1       2.444  -1.686   1.379  0.00  0.00     0.003 A 
ENDROOT
TORSDOF 0
ENDMDL
