MODEL 1
REMARK minimizedAffinity 6.76529789
REMARK minimizedRMSD -1
REMARK  0 active torsions:
REMARK  status: ('A' for Active; 'I' for Inactive)
ROOT
ATOM      1  C4' PXY d   1      -1.089   3.245  -2.998  0.00  0.00     0.077 C 
ATOM      2  C1' PXY d   1      -6.000   2.707  -6.000  0.00  0.00     0.077 C 
ATOM      3  C1  PXY d   1      -4.706   2.840  -5.221  0.00  0.00    -0.082 A 
ATOM      4  C2  PXY d   1      -4.744   3.186  -3.944  0.00  0.00     0.003 A 
ATOM      5  C3  PXY d   1      -3.582   3.342  -3.234  0.00  0.00     0.003 A 
ATOM      6  C4  PXY d   1      -2.371   3.089  -3.821  0.00  0.00    -0.082 A 
ATOM      7  C5  PXY d   1      -2.325   2.726  -5.120  0.00  0.00     0.003 A 
ATOM      8  C6  PXY d   1      -3.514   2.613  -5.836  0.00  0.00     0.003 A 
ENDROOT
TORSDOF 0
ENDMDL
