MODEL 1
REMARK minimizedAffinity 1.40504467
REMARK minimizedRMSD -1
REMARK  0 active torsions:
REMARK  status: ('A' for Active; 'I' for Inactive)
ROOT
ATOM      1  C4' PXY d   1      -1.138   3.379  -2.872  0.00  0.00     0.077 C 
ATOM      2  C1' PXY d   1      -5.999   3.436  -5.999  0.00  0.00     0.077 C 
ATOM      3  C1  PXY d   1      -4.721   3.409  -5.183  0.00  0.00    -0.082 A 
ATOM      4  C2  PXY d   1      -4.611   4.182  -4.115  0.00  0.00     0.003 A 
ATOM      5  C3  PXY d   1      -3.451   4.194  -3.384  0.00  0.00     0.003 A 
ATOM      6  C4  PXY d   1      -2.413   3.367  -3.720  0.00  0.00    -0.082 A 
ATOM      7  C5  PXY d   1      -2.521   2.568  -4.802  0.00  0.00     0.003 A 
ATOM      8  C6  PXY d   1      -3.692   2.601  -5.555  0.00  0.00     0.003 A 
ENDROOT
TORSDOF 0
ENDMDL
