MODEL 1
REMARK minimizedAffinity 0.855704308
REMARK minimizedRMSD -1
REMARK  0 active torsions:
REMARK  status: ('A' for Active; 'I' for Inactive)
ROOT
ATOM      1  C4' PXY d   1      -6.000   1.552  -0.806  0.00  0.00     0.077 C 
ATOM      2  C1' PXY d   1      -2.645   0.232  -5.324  0.00  0.00     0.077 C 
ATOM      3  C1  PXY d   1      -3.523   0.591  -4.141  0.00  0.00    -0.082 A 
ATOM      4  C2  PXY d   1      -3.688  -0.282  -3.161  0.00  0.00     0.003 A 
ATOM      5  C3  PXY d   1      -4.504   0.014  -2.099  0.00  0.00     0.003 A 
ATOM      6  C4  PXY d   1      -5.115   1.236  -2.015  0.00  0.00    -0.082 A 
ATOM      7  C5  PXY d   1      -4.943   2.136  -3.006  0.00  0.00     0.003 A 
ATOM      8  C6  PXY d   1      -4.143   1.801  -4.095  0.00  0.00     0.003 A 
ENDROOT
TORSDOF 0
ENDMDL
