MODEL 1
REMARK minimizedAffinity 3.91903615
REMARK minimizedRMSD -1
REMARK  0 active torsions:
REMARK  status: ('A' for Active; 'I' for Inactive)
ROOT
ATOM      1  C4' PXY d   1       5.999   3.460  -0.024  0.00  0.00     0.077 C 
ATOM      2  C1' PXY d   1       2.226  -0.918   0.041  0.00  0.00     0.077 C 
ATOM      3  C1  PXY d   1       3.223   0.224   0.033  0.00  0.00    -0.082 A 
ATOM      4  C2  PXY d   1       2.832   1.431  -0.343  0.00  0.00     0.003 A 
ATOM      5  C3  PXY d   1       3.728   2.468  -0.386  0.00  0.00     0.003 A 
ATOM      6  C4  PXY d   1       5.025   2.280   0.009  0.00  0.00    -0.082 A 
ATOM      7  C5  PXY d   1       5.429   1.054   0.404  0.00  0.00     0.003 A 
ATOM      8  C6  PXY d   1       4.514   0.005   0.402  0.00  0.00     0.003 A 
ENDROOT
TORSDOF 0
ENDMDL
