MODEL 1
REMARK minimizedAffinity 1.41253912
REMARK minimizedRMSD -1
REMARK  0 active torsions:
REMARK  status: ('A' for Active; 'I' for Inactive)
ROOT
ATOM      1  C4' PXY d   1      -5.998  -0.294  -5.181  0.00  0.00     0.077 C 
ATOM      2  C1' PXY d   1      -2.796   3.595  -2.347  0.00  0.00     0.077 C 
ATOM      3  C1  PXY d   1      -3.646   2.577  -3.082  0.00  0.00    -0.082 A 
ATOM      4  C2  PXY d   1      -3.060   1.610  -3.768  0.00  0.00     0.003 A 
ATOM      5  C3  PXY d   1      -3.813   0.700  -4.465  0.00  0.00     0.003 A 
ATOM      6  C4  PXY d   1      -5.180   0.749  -4.416  0.00  0.00    -0.082 A 
ATOM      7  C5  PXY d   1      -5.785   1.727  -3.709  0.00  0.00     0.003 A 
ATOM      8  C6  PXY d   1      -5.003   2.666  -3.042  0.00  0.00     0.003 A 
ENDROOT
TORSDOF 0
ENDMDL
