MODEL 1
REMARK minimizedAffinity 2.40113735
REMARK minimizedRMSD -1
REMARK  0 active torsions:
REMARK  status: ('A' for Active; 'I' for Inactive)
ROOT
ATOM      1  C4' PXY d   1      -6.000   2.363   0.891  0.00  0.00     0.077 C 
ATOM      2  C1' PXY d   1      -4.054   0.025  -4.024  0.00  0.00     0.077 C 
ATOM      3  C1  PXY d   1      -4.569   0.626  -2.731  0.00  0.00    -0.082 A 
ATOM      4  C2  PXY d   1      -4.840   1.920  -2.674  0.00  0.00     0.003 A 
ATOM      5  C3  PXY d   1      -5.276   2.486  -1.504  0.00  0.00     0.003 A 
ATOM      6  C4  PXY d   1      -5.487   1.711  -0.396  0.00  0.00    -0.082 A 
ATOM      7  C5  PXY d   1      -5.222   0.388  -0.449  0.00  0.00     0.003 A 
ATOM      8  C6  PXY d   1      -4.741  -0.160  -1.634  0.00  0.00     0.003 A 
ENDROOT
TORSDOF 0
ENDMDL
