MODEL 1
REMARK minimizedAffinity 6.04610586
REMARK minimizedRMSD -1
REMARK  0 active torsions:
REMARK  status: ('A' for Active; 'I' for Inactive)
ROOT
ATOM      1  C4' PXY d   1      -2.996   0.478  -5.042  0.00  0.00     0.077 C 
ATOM      2  C1' PXY d   1      -6.000   1.180  -0.153  0.00  0.00     0.077 C 
ATOM      3  C1  PXY d   1      -5.217   1.008  -1.439  0.00  0.00    -0.082 A 
ATOM      4  C2  PXY d   1      -4.853  -0.204  -1.826  0.00  0.00     0.003 A 
ATOM      5  C3  PXY d   1      -4.117  -0.376  -2.970  0.00  0.00     0.003 A 
ATOM      6  C4  PXY d   1      -3.796   0.699  -3.755  0.00  0.00    -0.082 A 
ATOM      7  C5  PXY d   1      -4.173   1.938  -3.373  0.00  0.00     0.003 A 
ATOM      8  C6  PXY d   1      -4.884   2.095  -2.187  0.00  0.00     0.003 A 
ENDROOT
TORSDOF 0
ENDMDL
