MODEL 1
REMARK minimizedAffinity 4.90702295
REMARK minimizedRMSD -1
REMARK  0 active torsions:
REMARK  status: ('A' for Active; 'I' for Inactive)
ROOT
ATOM      1  C4' PXY d   1      -5.999   1.096  -0.078  0.00  0.00     0.077 C 
ATOM      2  C1' PXY d   1      -3.380   0.940  -5.229  0.00  0.00     0.077 C 
ATOM      3  C1  PXY d   1      -4.065   0.994  -3.877  0.00  0.00    -0.082 A 
ATOM      4  C2  PXY d   1      -4.109  -0.092  -3.123  0.00  0.00     0.003 A 
ATOM      5  C3  PXY d   1      -4.753  -0.070  -1.912  0.00  0.00     0.003 A 
ATOM      6  C4  PXY d   1      -5.310   1.090  -1.445  0.00  0.00    -0.082 A 
ATOM      7  C5  PXY d   1      -5.260   2.205  -2.204  0.00  0.00     0.003 A 
ATOM      8  C6  PXY d   1      -4.638   2.151  -3.448  0.00  0.00     0.003 A 
ENDROOT
TORSDOF 0
ENDMDL
