MODEL 1
REMARK minimizedAffinity 17.5667648
REMARK minimizedRMSD -1
REMARK  1 active torsions:
REMARK  status: ('A' for Active; 'I' for Inactive)
REMARK    1  A    between atoms: C1_2  and  C2_3 
ROOT
ATOM      1  C2  UNL d   1      -3.542  -5.198  -4.876  0.00  0.00    -0.077 A 
ATOM      2  C3  UNL d   1      -2.679  -4.171  -5.283  0.00  0.00     0.002 A 
ATOM      3  C4  UNL d   1      -1.477  -3.950  -4.608  0.00  0.00     0.002 A 
ATOM      4  C5  UNL d   1      -1.125  -4.753  -3.526  0.00  0.00    -0.004 A 
ATOM      5  C6  UNL d   1      -1.978  -5.776  -3.112  0.00  0.00     0.002 A 
ATOM      6  C7  UNL d   1      -3.181  -5.998  -3.784  0.00  0.00     0.002 A 
ENDROOT
BRANCH   1   7
ATOM      7  C1  UNL d   1      -4.816  -5.470  -5.633  0.00  0.00     0.055 C 
ATOM      8  C   UNL d   1      -6.000  -4.754  -5.000  0.00  0.00     0.019 C 
ENDBRANCH   1   7
TORSDOF 1
ENDMDL
