MODEL 1
REMARK minimizedAffinity 1.85010588
REMARK minimizedRMSD -1
REMARK  1 active torsions:
REMARK  status: ('A' for Active; 'I' for Inactive)
REMARK    1  A    between atoms: C1_2  and  C2_3 
ROOT
ATOM      1  C2  UNL d   1      -0.106  -4.914  -4.421  0.00  0.00    -0.077 A 
ATOM      2  C3  UNL d   1      -0.977  -3.819  -4.326  0.00  0.00     0.002 A 
ATOM      3  C4  UNL d   1      -2.183  -3.813  -5.029  0.00  0.00     0.002 A 
ATOM      4  C5  UNL d   1      -2.531  -4.899  -5.829  0.00  0.00    -0.004 A 
ATOM      5  C6  UNL d   1      -1.671  -5.992  -5.932  0.00  0.00     0.002 A 
ATOM      6  C7  UNL d   1      -0.465  -6.000  -5.231  0.00  0.00     0.002 A 
ENDROOT
BRANCH   1   7
ATOM      7  C1  UNL d   1       1.172  -4.945  -3.625  0.00  0.00     0.055 C 
ATOM      8  C   UNL d   1       2.131  -5.999  -4.158  0.00  0.00     0.019 C 
ENDBRANCH   1   7
TORSDOF 1
ENDMDL
