MODEL 1
REMARK minimizedAffinity 4.65819788
REMARK minimizedRMSD -1
REMARK  1 active torsions:
REMARK  status: ('A' for Active; 'I' for Inactive)
REMARK    1  A    between atoms: C1_2  and  C2_3 
ROOT
ATOM      1  C2  UNL d   1      -0.199   4.057  -3.773  0.00  0.00    -0.077 A 
ATOM      2  C3  UNL d   1       0.651   2.947  -3.875  0.00  0.00     0.002 A 
ATOM      3  C4  UNL d   1       1.826   2.886  -3.125  0.00  0.00     0.002 A 
ATOM      4  C5  UNL d   1       2.160   3.929  -2.264  0.00  0.00    -0.004 A 
ATOM      5  C6  UNL d   1       1.323   5.039  -2.157  0.00  0.00     0.002 A 
ATOM      6  C7  UNL d   1       0.148   5.102  -2.907  0.00  0.00     0.002 A 
ENDROOT
BRANCH   1   7
ATOM      7  C1  UNL d   1      -1.492   4.103  -4.545  0.00  0.00     0.055 C 
ATOM      8  C   UNL d   1      -1.422   5.109  -5.684  0.00  0.00     0.019 C 
ENDBRANCH   1   7
TORSDOF 1
ENDMDL
