MODEL 1
REMARK minimizedAffinity 17.2475624
REMARK minimizedRMSD -1
REMARK  1 active torsions:
REMARK  status: ('A' for Active; 'I' for Inactive)
REMARK    1  A    between atoms: C1_2  and  C2_3 
ROOT
ATOM      1  C2  UNL d   1      -3.275  -2.483   0.251  0.00  0.00    -0.077 A 
ATOM      2  C3  UNL d   1      -2.164  -3.002  -0.429  0.00  0.00     0.002 A 
ATOM      3  C4  UNL d   1      -1.819  -4.348  -0.294  0.00  0.00     0.002 A 
ATOM      4  C5  UNL d   1      -2.581  -5.186   0.517  0.00  0.00    -0.004 A 
ATOM      5  C6  UNL d   1      -3.686  -4.679   1.199  0.00  0.00     0.002 A 
ATOM      6  C7  UNL d   1      -4.032  -3.334   1.066  0.00  0.00     0.002 A 
ENDROOT
BRANCH   1   7
ATOM      7  C1  UNL d   1      -3.679  -1.043   0.067  0.00  0.00     0.055 C 
ATOM      8  C   UNL d   1      -4.024  -0.746  -1.385  0.00  0.00     0.019 C 
ENDBRANCH   1   7
TORSDOF 1
ENDMDL
