MODEL 1
REMARK minimizedAffinity 16.5122375
REMARK minimizedRMSD -1
REMARK  1 active torsions:
REMARK  status: ('A' for Active; 'I' for Inactive)
REMARK    1  A    between atoms: C1_2  and  C2_3 
ROOT
ATOM      1  C2  UNL d   1      -4.502   0.097  -0.416  0.00  0.00    -0.077 A 
ATOM      2  C3  UNL d   1      -5.003   1.397  -0.252  0.00  0.00     0.002 A 
ATOM      3  C4  UNL d   1      -5.689   2.026  -1.293  0.00  0.00     0.002 A 
ATOM      4  C5  UNL d   1      -5.884   1.362  -2.502  0.00  0.00    -0.004 A 
ATOM      5  C6  UNL d   1      -5.389   0.071  -2.676  0.00  0.00     0.002 A 
ATOM      6  C7  UNL d   1      -4.702  -0.559  -1.637  0.00  0.00     0.002 A 
ENDROOT
BRANCH   1   7
ATOM      7  C1  UNL d   1      -3.805  -0.602   0.722  0.00  0.00     0.055 C 
ATOM      8  C   UNL d   1      -2.339  -0.202   0.801  0.00  0.00     0.019 C 
ENDBRANCH   1   7
TORSDOF 1
ENDMDL
