MODEL 1
REMARK minimizedAffinity 13.5631905
REMARK minimizedRMSD -1
REMARK  1 active torsions:
REMARK  status: ('A' for Active; 'I' for Inactive)
REMARK    1  A    between atoms: C1_2  and  C2_3 
ROOT
ATOM      1  C2  UNL d   1       3.906   2.244   1.245  0.00  0.00    -0.077 A 
ATOM      2  C3  UNL d   1       3.850   0.917   1.695  0.00  0.00     0.002 A 
ATOM      3  C4  UNL d   1       2.995  -0.001   1.082  0.00  0.00     0.002 A 
ATOM      4  C5  UNL d   1       2.194   0.395   0.014  0.00  0.00    -0.004 A 
ATOM      5  C6  UNL d   1       2.241   1.713  -0.440  0.00  0.00     0.002 A 
ATOM      6  C7  UNL d   1       3.094   2.633   0.172  0.00  0.00     0.002 A 
ENDROOT
BRANCH   1   7
ATOM      7  C1  UNL d   1       4.862   3.224   1.873  0.00  0.00     0.055 C 
ATOM      8  C   UNL d   1       6.000   3.572   0.924  0.00  0.00     0.019 C 
ENDBRANCH   1   7
TORSDOF 1
ENDMDL
