MODEL 1
REMARK minimizedAffinity 13.7755165
REMARK minimizedRMSD -1
REMARK  1 active torsions:
REMARK  status: ('A' for Active; 'I' for Inactive)
REMARK    1  A    between atoms: C1_2  and  C2_3 
ROOT
ATOM      1  C2  UNL d   1       4.639   4.522  -3.391  0.00  0.00    -0.077 A 
ATOM      2  C3  UNL d   1       3.469   4.164  -2.705  0.00  0.00     0.002 A 
ATOM      3  C4  UNL d   1       2.455   3.460  -3.358  0.00  0.00     0.002 A 
ATOM      4  C5  UNL d   1       2.602   3.107  -4.698  0.00  0.00    -0.004 A 
ATOM      5  C6  UNL d   1       3.760   3.460  -5.389  0.00  0.00     0.002 A 
ATOM      6  C7  UNL d   1       4.774   4.164  -4.738  0.00  0.00     0.002 A 
ENDROOT
BRANCH   1   7
ATOM      7  C1  UNL d   1       5.755   5.237  -2.675  0.00  0.00     0.055 C 
ATOM      8  C   UNL d   1       5.236   6.000  -1.464  0.00  0.00     0.019 C 
ENDBRANCH   1   7
TORSDOF 1
ENDMDL
