MODEL 1
REMARK minimizedAffinity 17.0188198
REMARK minimizedRMSD -1
REMARK  1 active torsions:
REMARK  status: ('A' for Active; 'I' for Inactive)
REMARK    1  A    between atoms: C1_2  and  C2_3 
ROOT
ATOM      1  C2  UNL d   1       4.663   4.373  -3.837  0.00  0.00    -0.077 A 
ATOM      2  C3  UNL d   1       3.798   3.407  -4.369  0.00  0.00     0.002 A 
ATOM      3  C4  UNL d   1       2.546   3.186  -3.793  0.00  0.00     0.002 A 
ATOM      4  C5  UNL d   1       2.147   3.929  -2.684  0.00  0.00    -0.004 A 
ATOM      5  C6  UNL d   1       3.001   4.891  -2.146  0.00  0.00     0.002 A 
ATOM      6  C7  UNL d   1       4.253   5.112  -2.721  0.00  0.00     0.002 A 
ENDROOT
BRANCH   1   7
ATOM      7  C1  UNL d   1       5.994   4.647  -4.488  0.00  0.00     0.055 C 
ATOM      8  C   UNL d   1       5.999   5.997  -5.189  0.00  0.00     0.019 C 
ENDBRANCH   1   7
TORSDOF 1
ENDMDL
