MODEL 1
REMARK minimizedAffinity 7.42268801
REMARK minimizedRMSD -1
REMARK  1 active torsions:
REMARK  status: ('A' for Active; 'I' for Inactive)
REMARK    1  A    between atoms: C1_2  and  C2_3 
ROOT
ATOM      1  C2  UNL d   1       4.217   4.534  -2.607  0.00  0.00    -0.077 A 
ATOM      2  C3  UNL d   1       3.925   3.306  -3.216  0.00  0.00     0.002 A 
ATOM      3  C4  UNL d   1       2.607   2.850  -3.291  0.00  0.00     0.002 A 
ATOM      4  C5  UNL d   1       1.572   3.619  -2.764  0.00  0.00    -0.004 A 
ATOM      5  C6  UNL d   1       1.852   4.842  -2.155  0.00  0.00     0.002 A 
ATOM      6  C7  UNL d   1       3.169   5.298  -2.078  0.00  0.00     0.002 A 
ENDROOT
BRANCH   1   7
ATOM      7  C1  UNL d   1       5.632   5.050  -2.569  0.00  0.00     0.055 C 
ATOM      8  C   UNL d   1       5.998   5.560  -1.183  0.00  0.00     0.019 C 
ENDBRANCH   1   7
TORSDOF 1
ENDMDL
