MODEL 1
REMARK minimizedAffinity -5.70274353
REMARK minimizedRMSD -1
REMARK  3 active torsions:
REMARK  status: ('A' for Active; 'I' for Inactive)
REMARK    1  A    between atoms: C3'_2  and  C2'_3 
REMARK    2  A    between atoms: C2'_3  and  C1'_4 
REMARK    3  A    between atoms: C1'_4  and  C1_5 
ROOT
ATOM      1  C1  N4B d   1       1.392  -1.438  -0.670  0.00  0.00    -0.075 A 
ATOM      2  C2  N4B d   1       0.033  -1.084  -0.525  0.00  0.00     0.002 A 
ATOM      3  C3  N4B d   1      -0.855  -1.977   0.024  0.00  0.00     0.002 A 
ATOM      4  C4  N4B d   1      -0.411  -3.232   0.415  0.00  0.00    -0.004 A 
ATOM      5  C5  N4B d   1       0.908  -3.556   0.295  0.00  0.00     0.002 A 
ATOM      6  C6  N4B d   1       1.812  -2.667  -0.251  0.00  0.00     0.002 A 
ENDROOT
BRANCH   1   7
ATOM      7  C1' N4B d   1       2.382  -0.527  -1.343  0.00  0.00     0.057 C 
BRANCH   7   8
ATOM      8  C2' N4B d   1       2.427  -0.850  -2.833  0.00  0.00     0.009 C 
BRANCH   8   9
ATOM      9  C3' N4B d   1       1.194  -0.345  -3.562  0.00  0.00     0.004 C 
ATOM     10  C4' N4B d   1       0.567  -1.390  -4.436  0.00  0.00     0.003 C 
ENDBRANCH   8   9
ENDBRANCH   7   8
ENDBRANCH   1   7
TORSDOF 3
ENDMDL
