MODEL 1
REMARK minimizedAffinity -1.49144673
REMARK minimizedRMSD -1
REMARK  3 active torsions:
REMARK  status: ('A' for Active; 'I' for Inactive)
REMARK    1  A    between atoms: C3'_2  and  C2'_3 
REMARK    2  A    between atoms: C2'_3  and  C1'_4 
REMARK    3  A    between atoms: C1'_4  and  C1_5 
ROOT
ATOM      1  C1  N4B d   1       0.851  -2.097  -0.773  0.00  0.00    -0.075 A 
ATOM      2  C2  N4B d   1      -0.381  -2.672  -0.391  0.00  0.00     0.002 A 
ATOM      3  C3  N4B d   1      -0.402  -3.866   0.286  0.00  0.00     0.002 A 
ATOM      4  C4  N4B d   1       0.791  -4.511   0.576  0.00  0.00    -0.004 A 
ATOM      5  C5  N4B d   1       1.978  -3.937   0.227  0.00  0.00     0.002 A 
ATOM      6  C6  N4B d   1       2.014  -2.735  -0.451  0.00  0.00     0.002 A 
ENDROOT
BRANCH   1   7
ATOM      7  C1' N4B d   1       0.921  -0.837  -1.590  0.00  0.00     0.057 C 
BRANCH   7   8
ATOM      8  C2' N4B d   1       2.126  -0.015  -1.142  0.00  0.00     0.009 C 
BRANCH   8   9
ATOM      9  C3' N4B d   1       2.949   0.476  -2.321  0.00  0.00     0.004 C 
ATOM     10  C4' N4B d   1       4.424   0.434  -2.057  0.00  0.00     0.003 C 
ENDBRANCH   8   9
ENDBRANCH   7   8
ENDBRANCH   1   7
TORSDOF 3
ENDMDL
