MODEL 1
REMARK minimizedAffinity 2.81005168
REMARK minimizedRMSD -1
REMARK  3 active torsions:
REMARK  status: ('A' for Active; 'I' for Inactive)
REMARK    1  A    between atoms: C3'_2  and  C2'_3 
REMARK    2  A    between atoms: C2'_3  and  C1'_4 
REMARK    3  A    between atoms: C1'_4  and  C1_5 
ROOT
ATOM      1  C1  N4B d   1      -0.608  -1.459   0.092  0.00  0.00    -0.075 A 
ATOM      2  C2  N4B d   1       0.646  -0.880   0.389  0.00  0.00     0.002 A 
ATOM      3  C3  N4B d   1       1.543  -0.629  -0.620  0.00  0.00     0.002 A 
ATOM      4  C4  N4B d   1       1.217  -0.963  -1.926  0.00  0.00    -0.004 A 
ATOM      5  C5  N4B d   1      -0.006  -1.499  -2.208  0.00  0.00     0.002 A 
ATOM      6  C6  N4B d   1      -0.918  -1.753  -1.204  0.00  0.00     0.002 A 
ENDROOT
BRANCH   1   7
ATOM      7  C1' N4B d   1      -1.587  -1.831   1.171  0.00  0.00     0.057 C 
BRANCH   7   8
ATOM      8  C2' N4B d   1      -1.154  -1.185   2.484  0.00  0.00     0.009 C 
BRANCH   8   9
ATOM      9  C3' N4B d   1      -2.282  -1.152   3.501  0.00  0.00     0.004 C 
ATOM     10  C4' N4B d   1      -2.396  -2.426   4.283  0.00  0.00     0.003 C 
ENDBRANCH   8   9
ENDBRANCH   7   8
ENDBRANCH   1   7
TORSDOF 3
ENDMDL
