MODEL 1
REMARK minimizedAffinity -3.02957273
REMARK minimizedRMSD -1
REMARK  3 active torsions:
REMARK  status: ('A' for Active; 'I' for Inactive)
REMARK    1  A    between atoms: C3'_2  and  C2'_3 
REMARK    2  A    between atoms: C2'_3  and  C1'_4 
REMARK    3  A    between atoms: C1'_4  and  C1_5 
ROOT
ATOM      1  C1  N4B d   1       1.319  -2.479  -0.001  0.00  0.00    -0.075 A 
ATOM      2  C2  N4B d   1      -0.093  -2.512   0.032  0.00  0.00     0.002 A 
ATOM      3  C3  N4B d   1      -0.815  -1.421  -0.387  0.00  0.00     0.002 A 
ATOM      4  C4  N4B d   1      -0.150  -0.285  -0.824  0.00  0.00    -0.004 A 
ATOM      5  C5  N4B d   1       1.214  -0.271  -0.876  0.00  0.00     0.002 A 
ATOM      6  C6  N4B d   1       1.952  -1.361  -0.462  0.00  0.00     0.002 A 
ENDROOT
BRANCH   1   7
ATOM      7  C1' N4B d   1       2.152  -3.614   0.528  0.00  0.00     0.057 C 
BRANCH   7   8
ATOM      8  C2' N4B d   1       1.697  -4.916  -0.126  0.00  0.00     0.009 C 
BRANCH   8   9
ATOM      9  C3' N4B d   1       1.416  -6.000   0.900  0.00  0.00     0.004 C 
ATOM     10  C4' N4B d   1      -0.008  -5.999   1.370  0.00  0.00     0.003 C 
ENDBRANCH   8   9
ENDBRANCH   7   8
ENDBRANCH   1   7
TORSDOF 3
ENDMDL
