MODEL 1
REMARK minimizedAffinity -1.28035593
REMARK minimizedRMSD -1
REMARK  3 active torsions:
REMARK  status: ('A' for Active; 'I' for Inactive)
REMARK    1  A    between atoms: C3'_2  and  C2'_3 
REMARK    2  A    between atoms: C2'_3  and  C1'_4 
REMARK    3  A    between atoms: C1'_4  and  C1_5 
ROOT
ATOM      1  C1  N4B d   1       1.012   1.459  -1.736  0.00  0.00    -0.075 A 
ATOM      2  C2  N4B d   1      -0.206   2.110  -2.027  0.00  0.00     0.002 A 
ATOM      3  C3  N4B d   1      -0.391   3.420  -1.655  0.00  0.00     0.002 A 
ATOM      4  C4  N4B d   1       0.618   4.089  -0.978  0.00  0.00    -0.004 A 
ATOM      5  C5  N4B d   1       1.801   3.460  -0.723  0.00  0.00     0.002 A 
ATOM      6  C6  N4B d   1       2.002   2.146  -1.095  0.00  0.00     0.002 A 
ENDROOT
BRANCH   1   7
ATOM      7  C1' N4B d   1       1.228   0.003  -2.047  0.00  0.00     0.057 C 
BRANCH   7   8
ATOM      8  C2' N4B d   1       1.829  -0.686  -0.825  0.00  0.00     0.009 C 
BRANCH   8   9
ATOM      9  C3' N4B d   1       1.524  -2.174  -0.804  0.00  0.00     0.004 C 
ATOM     10  C4' N4B d   1       1.769  -2.799   0.537  0.00  0.00     0.003 C 
ENDBRANCH   8   9
ENDBRANCH   7   8
ENDBRANCH   1   7
TORSDOF 3
ENDMDL
