MODEL 1
REMARK minimizedAffinity -0.315185606
REMARK minimizedRMSD -1
REMARK  3 active torsions:
REMARK  status: ('A' for Active; 'I' for Inactive)
REMARK    1  A    between atoms: C3'_2  and  C2'_3 
REMARK    2  A    between atoms: C2'_3  and  C1'_4 
REMARK    3  A    between atoms: C1'_4  and  C1_5 
ROOT
ATOM      1  C1  N4B d   1       0.798  -2.275  -0.051  0.00  0.00    -0.075 A 
ATOM      2  C2  N4B d   1      -0.503  -2.006  -0.530  0.00  0.00     0.002 A 
ATOM      3  C3  N4B d   1      -0.785  -0.792  -1.107  0.00  0.00     0.002 A 
ATOM      4  C4  N4B d   1       0.209   0.172  -1.198  0.00  0.00    -0.004 A 
ATOM      5  C5  N4B d   1       1.469  -0.105  -0.756  0.00  0.00     0.002 A 
ATOM      6  C6  N4B d   1       1.768  -1.323  -0.178  0.00  0.00     0.002 A 
ENDROOT
BRANCH   1   7
ATOM      7  C1' N4B d   1       1.132  -3.555   0.664  0.00  0.00     0.057 C 
BRANCH   7   8
ATOM      8  C2' N4B d   1       0.067  -4.600   0.345  0.00  0.00     0.009 C 
BRANCH   8   9
ATOM      9  C3' N4B d   1       0.510  -6.000   0.733  0.00  0.00     0.004 C 
ATOM     10  C4' N4B d   1       1.664  -5.999   1.691  0.00  0.00     0.003 C 
ENDBRANCH   8   9
ENDBRANCH   7   8
ENDBRANCH   1   7
TORSDOF 3
ENDMDL
