MODEL 1
REMARK minimizedAffinity 6.16057777
REMARK minimizedRMSD -1
REMARK  3 active torsions:
REMARK  status: ('A' for Active; 'I' for Inactive)
REMARK    1  A    between atoms: C3'_2  and  C2'_3 
REMARK    2  A    between atoms: C2'_3  and  C1'_4 
REMARK    3  A    between atoms: C1'_4  and  C1_5 
ROOT
ATOM      1  C1  N4B d   1       1.613  -0.328  -1.324  0.00  0.00    -0.075 A 
ATOM      2  C2  N4B d   1       0.216  -0.263  -1.125  0.00  0.00     0.002 A 
ATOM      3  C3  N4B d   1      -0.454  -1.340  -0.599  0.00  0.00     0.002 A 
ATOM      4  C4  N4B d   1       0.246  -2.496  -0.285  0.00  0.00    -0.004 A 
ATOM      5  C5  N4B d   1       1.598  -2.542  -0.457  0.00  0.00     0.002 A 
ATOM      6  C6  N4B d   1       2.285  -1.465  -0.981  0.00  0.00     0.002 A 
ENDROOT
BRANCH   1   7
ATOM      7  C1' N4B d   1       2.375   0.793  -1.976  0.00  0.00     0.057 C 
BRANCH   7   8
ATOM      8  C2' N4B d   1       3.792   0.320  -2.287  0.00  0.00     0.009 C 
BRANCH   8   9
ATOM      9  C3' N4B d   1       4.510   1.263  -3.238  0.00  0.00     0.004 C 
ATOM     10  C4' N4B d   1       5.997   1.261  -3.045  0.00  0.00     0.003 C 
ENDBRANCH   8   9
ENDBRANCH   7   8
ENDBRANCH   1   7
TORSDOF 3
ENDMDL
