MODEL 1
REMARK minimizedAffinity -1.30771899
REMARK minimizedRMSD -1
REMARK  3 active torsions:
REMARK  status: ('A' for Active; 'I' for Inactive)
REMARK    1  A    between atoms: C3'_2  and  C2'_3 
REMARK    2  A    between atoms: C2'_3  and  C1'_4 
REMARK    3  A    between atoms: C1'_4  and  C1_5 
ROOT
ATOM      1  C1  N4B d   1       0.817  -1.940  -0.201  0.00  0.00    -0.075 A 
ATOM      2  C2  N4B d   1      -0.293  -2.689   0.246  0.00  0.00     0.002 A 
ATOM      3  C3  N4B d   1      -0.111  -3.956   0.745  0.00  0.00     0.002 A 
ATOM      4  C4  N4B d   1       1.164  -4.499   0.788  0.00  0.00    -0.004 A 
ATOM      5  C5  N4B d   1       2.234  -3.760   0.378  0.00  0.00     0.002 A 
ATOM      6  C6  N4B d   1       2.067  -2.484  -0.121  0.00  0.00     0.002 A 
ENDROOT
BRANCH   1   7
ATOM      7  C1' N4B d   1       0.658  -0.584  -0.833  0.00  0.00     0.057 C 
BRANCH   7   8
ATOM      8  C2' N4B d   1       1.245  -0.617  -2.241  0.00  0.00     0.009 C 
BRANCH   8   9
ATOM      9  C3' N4B d   1       0.234  -1.100  -3.267  0.00  0.00     0.004 C 
ATOM     10  C4' N4B d   1       0.392  -0.430  -4.599  0.00  0.00     0.003 C 
ENDBRANCH   8   9
ENDBRANCH   7   8
ENDBRANCH   1   7
TORSDOF 3
ENDMDL
