MODEL 1
REMARK minimizedAffinity -4.37427092
REMARK minimizedRMSD -1
REMARK  3 active torsions:
REMARK  status: ('A' for Active; 'I' for Inactive)
REMARK    1  A    between atoms: C3'_2  and  C2'_3 
REMARK    2  A    between atoms: C2'_3  and  C1'_4 
REMARK    3  A    between atoms: C1'_4  and  C1_5 
ROOT
ATOM      1  C1  N4B d   1       0.911  -1.748  -0.013  0.00  0.00    -0.075 A 
ATOM      2  C2  N4B d   1      -0.313  -1.712  -0.716  0.00  0.00     0.002 A 
ATOM      3  C3  N4B d   1      -0.583  -0.673  -1.572  0.00  0.00     0.002 A 
ATOM      4  C4  N4B d   1       0.344   0.347  -1.727  0.00  0.00    -0.004 A 
ATOM      5  C5  N4B d   1       1.535   0.291  -1.064  0.00  0.00     0.002 A 
ATOM      6  C6  N4B d   1       1.821  -0.749  -0.204  0.00  0.00     0.002 A 
ENDROOT
BRANCH   1   7
ATOM      7  C1' N4B d   1       1.215  -2.819   0.999  0.00  0.00     0.057 C 
BRANCH   7   8
ATOM      8  C2' N4B d   1       0.040  -3.789   1.070  0.00  0.00     0.009 C 
BRANCH   8   9
ATOM      9  C3' N4B d   1       0.446  -5.132   1.651  0.00  0.00     0.004 C 
ATOM     10  C4' N4B d   1       1.248  -5.961   0.693  0.00  0.00     0.003 C 
ENDBRANCH   8   9
ENDBRANCH   7   8
ENDBRANCH   1   7
TORSDOF 3
ENDMDL
