MODEL 1
REMARK minimizedAffinity -1.42538381
REMARK minimizedRMSD -1
REMARK  3 active torsions:
REMARK  status: ('A' for Active; 'I' for Inactive)
REMARK    1  A    between atoms: C3'_2  and  C2'_3 
REMARK    2  A    between atoms: C2'_3  and  C1'_4 
REMARK    3  A    between atoms: C1'_4  and  C1_5 
ROOT
ATOM      1  C1  N4B d   1      -4.132   1.072   1.315  0.00  0.00    -0.075 A 
ATOM      2  C2  N4B d   1      -4.462  -0.300   1.354  0.00  0.00     0.002 A 
ATOM      3  C3  N4B d   1      -4.182  -1.043   2.475  0.00  0.00     0.002 A 
ATOM      4  C4  N4B d   1      -3.557  -0.441   3.557  0.00  0.00    -0.004 A 
ATOM      5  C5  N4B d   1      -3.265   0.891   3.522  0.00  0.00     0.002 A 
ATOM      6  C6  N4B d   1      -3.544   1.650   2.403  0.00  0.00     0.002 A 
ENDROOT
BRANCH   1   7
ATOM      7  C1' N4B d   1      -4.341   1.904   0.080  0.00  0.00     0.057 C 
BRANCH   7   8
ATOM      8  C2' N4B d   1      -2.983   2.289  -0.500  0.00  0.00     0.009 C 
BRANCH   8   9
ATOM      9  C3' N4B d   1      -2.739   3.787  -0.430  0.00  0.00     0.004 C 
ATOM     10  C4' N4B d   1      -3.974   4.561  -0.081  0.00  0.00     0.003 C 
ENDBRANCH   8   9
ENDBRANCH   7   8
ENDBRANCH   1   7
TORSDOF 3
ENDMDL
