MODEL 1
REMARK minimizedAffinity -3.11943674
REMARK minimizedRMSD -1
REMARK  3 active torsions:
REMARK  status: ('A' for Active; 'I' for Inactive)
REMARK    1  A    between atoms: C3'_2  and  C2'_3 
REMARK    2  A    between atoms: C2'_3  and  C1'_4 
REMARK    3  A    between atoms: C1'_4  and  C1_5 
ROOT
ATOM      1  C1  N4B d   1       1.478  -2.451   0.166  0.00  0.00    -0.075 A 
ATOM      2  C2  N4B d   1       2.033  -1.304  -0.445  0.00  0.00     0.002 A 
ATOM      3  C3  N4B d   1       1.212  -0.294  -0.882  0.00  0.00     0.002 A 
ATOM      4  C4  N4B d   1      -0.162  -0.416  -0.737  0.00  0.00    -0.004 A 
ATOM      5  C5  N4B d   1      -0.688  -1.515  -0.123  0.00  0.00     0.002 A 
ATOM      6  C6  N4B d   1       0.125  -2.536   0.325  0.00  0.00     0.002 A 
ENDROOT
BRANCH   1   7
ATOM      7  C1' N4B d   1       2.329  -3.619   0.582  0.00  0.00     0.057 C 
BRANCH   7   8
ATOM      8  C2' N4B d   1       1.794  -4.888  -0.075  0.00  0.00     0.009 C 
BRANCH   8   9
ATOM      9  C3' N4B d   1       1.563  -5.997   0.937  0.00  0.00     0.004 C 
ATOM     10  C4' N4B d   1       0.203  -5.937   1.566  0.00  0.00     0.003 C 
ENDBRANCH   8   9
ENDBRANCH   7   8
ENDBRANCH   1   7
TORSDOF 3
ENDMDL
