MODEL 1
REMARK minimizedAffinity -3.59385061
REMARK minimizedRMSD -1
REMARK  0 active torsions:
REMARK  status: ('A' for Active; 'I' for Inactive)
ROOT
ATOM      1  C1  BNZ d   1       1.780   0.403  -2.102  0.00  0.00     0.000 A 
ATOM      2  C2  BNZ d   1       1.656  -0.616  -3.009  0.00  0.00     0.000 A 
ATOM      3  C3  BNZ d   1       0.451  -1.227  -3.215  0.00  0.00     0.000 A 
ATOM      4  C4  BNZ d   1      -0.619  -0.847  -2.487  0.00  0.00     0.000 A 
ATOM      5  C5  BNZ d   1      -0.508   0.172  -1.562  0.00  0.00     0.000 A 
ATOM      6  C6  BNZ d   1       0.698   0.812  -1.385  0.00  0.00     0.000 A 
ENDROOT
TORSDOF 0
ENDMDL
