MODEL 1
REMARK minimizedAffinity -4.28622103
REMARK minimizedRMSD -1
REMARK  0 active torsions:
REMARK  status: ('A' for Active; 'I' for Inactive)
ROOT
ATOM      1  C1  BNZ d   1      -1.149  -0.212   0.606  0.00  0.00     0.000 A 
ATOM      2  C2  BNZ d   1      -2.413   0.254   0.852  0.00  0.00     0.000 A 
ATOM      3  C3  BNZ d   1      -2.841   0.475   2.131  0.00  0.00     0.000 A 
ATOM      4  C4  BNZ d   1      -2.020   0.192   3.163  0.00  0.00     0.000 A 
ATOM      5  C5  BNZ d   1      -0.746  -0.287   2.932  0.00  0.00     0.000 A 
ATOM      6  C6  BNZ d   1      -0.305  -0.472   1.642  0.00  0.00     0.000 A 
ENDROOT
TORSDOF 0
ENDMDL
