MODEL 1
REMARK minimizedAffinity -5.61985016
REMARK minimizedRMSD -1
REMARK  0 active torsions:
REMARK  status: ('A' for Active; 'I' for Inactive)
ROOT
ATOM      1  C1  BNZ d   1      -2.277   0.141   0.990  0.00  0.00     0.000 A 
ATOM      2  C2  BNZ d   1      -2.529   0.485   2.291  0.00  0.00     0.000 A 
ATOM      3  C3  BNZ d   1      -1.609   0.237   3.271  0.00  0.00     0.000 A 
ATOM      4  C4  BNZ d   1      -0.457  -0.390   2.956  0.00  0.00     0.000 A 
ATOM      5  C5  BNZ d   1      -0.192  -0.751   1.650  0.00  0.00     0.000 A 
ATOM      6  C6  BNZ d   1      -1.104  -0.465   0.660  0.00  0.00     0.000 A 
ENDROOT
TORSDOF 0
ENDMDL
