MODEL 1
REMARK minimizedAffinity -3.53881431
REMARK minimizedRMSD -1
REMARK  0 active torsions:
REMARK  status: ('A' for Active; 'I' for Inactive)
ROOT
ATOM      1  C1  BNZ d   1       0.135  -0.808  -2.558  0.00  0.00     0.000 A 
ATOM      2  C2  BNZ d   1       1.087   0.101  -2.179  0.00  0.00     0.000 A 
ATOM      3  C3  BNZ d   1       2.403  -0.093  -2.494  0.00  0.00     0.000 A 
ATOM      4  C4  BNZ d   1       2.771  -1.212  -3.150  0.00  0.00     0.000 A 
ATOM      5  C5  BNZ d   1       1.824  -2.142  -3.530  0.00  0.00     0.000 A 
ATOM      6  C6  BNZ d   1       0.495  -1.925  -3.247  0.00  0.00     0.000 A 
ENDROOT
TORSDOF 0
ENDMDL
