MODEL 1
REMARK minimizedAffinity -4.25579691
REMARK minimizedRMSD -1
REMARK  0 active torsions:
REMARK  status: ('A' for Active; 'I' for Inactive)
ROOT
ATOM      1  C1  BNZ d   1       0.938   0.617   1.352  0.00  0.00     0.000 A 
ATOM      2  C2  BNZ d   1       0.594  -0.064   2.489  0.00  0.00     0.000 A 
ATOM      3  C3  BNZ d   1      -0.624  -0.677   2.597  0.00  0.00     0.000 A 
ATOM      4  C4  BNZ d   1      -1.510  -0.573   1.585  0.00  0.00     0.000 A 
ATOM      5  C5  BNZ d   1      -1.181   0.119   0.436  0.00  0.00     0.000 A 
ATOM      6  C6  BNZ d   1       0.060   0.701   0.316  0.00  0.00     0.000 A 
ENDROOT
TORSDOF 0
ENDMDL
