MODEL 1
REMARK minimizedAffinity -3.70378304
REMARK minimizedRMSD -1
REMARK  0 active torsions:
REMARK  status: ('A' for Active; 'I' for Inactive)
ROOT
ATOM      1  C1  BNZ d   1       0.327   0.082   2.460  0.00  0.00     0.000 A 
ATOM      2  C2  BNZ d   1       0.974  -0.011   1.256  0.00  0.00     0.000 A 
ATOM      3  C3  BNZ d   1       0.272  -0.033   0.084  0.00  0.00     0.000 A 
ATOM      4  C4  BNZ d   1      -1.076  -0.003   0.118  0.00  0.00     0.000 A 
ATOM      5  C5  BNZ d   1      -1.743   0.081   1.323  0.00  0.00     0.000 A 
ATOM      6  C6  BNZ d   1      -1.032   0.143   2.499  0.00  0.00     0.000 A 
ENDROOT
TORSDOF 0
ENDMDL
