MODEL 1
REMARK minimizedAffinity -3.93884516
REMARK minimizedRMSD -1
REMARK  0 active torsions:
REMARK  status: ('A' for Active; 'I' for Inactive)
ROOT
ATOM      1  C1  BNZ d   1      -1.649  -0.792   2.202  0.00  0.00     0.000 A 
ATOM      2  C2  BNZ d   1      -1.423  -0.505   0.882  0.00  0.00     0.000 A 
ATOM      3  C3  BNZ d   1      -0.235   0.036   0.477  0.00  0.00     0.000 A 
ATOM      4  C4  BNZ d   1       0.709   0.326   1.395  0.00  0.00     0.000 A 
ATOM      5  C5  BNZ d   1       0.492   0.052   2.731  0.00  0.00     0.000 A 
ATOM      6  C6  BNZ d   1      -0.690  -0.529   3.130  0.00  0.00     0.000 A 
ENDROOT
TORSDOF 0
ENDMDL
