MODEL 1
REMARK minimizedAffinity -3.96300125
REMARK minimizedRMSD -1
REMARK  0 active torsions:
REMARK  status: ('A' for Active; 'I' for Inactive)
ROOT
ATOM      1  C1  BNZ d   1       1.064   0.649   1.208  0.00  0.00     0.000 A 
ATOM      2  C2  BNZ d   1       0.527   0.471  -0.039  0.00  0.00     0.000 A 
ATOM      3  C3  BNZ d   1      -0.672  -0.166  -0.201  0.00  0.00     0.000 A 
ATOM      4  C4  BNZ d   1      -1.312  -0.658   0.879  0.00  0.00     0.000 A 
ATOM      5  C5  BNZ d   1      -0.779  -0.495   2.143  0.00  0.00     0.000 A 
ATOM      6  C6  BNZ d   1       0.409   0.181   2.305  0.00  0.00     0.000 A 
ENDROOT
TORSDOF 0
ENDMDL
