MODEL 1
REMARK minimizedAffinity -3.6286819
REMARK minimizedRMSD -1
REMARK  0 active torsions:
REMARK  status: ('A' for Active; 'I' for Inactive)
ROOT
ATOM      1  C1  BNZ d   1      -0.774  -0.329   2.780  0.00  0.00     0.000 A 
ATOM      2  C2  BNZ d   1      -1.166  -0.784   1.549  0.00  0.00     0.000 A 
ATOM      3  C3  BNZ d   1      -0.453  -0.468   0.426  0.00  0.00     0.000 A 
ATOM      4  C4  BNZ d   1       0.626   0.335   0.530  0.00  0.00     0.000 A 
ATOM      5  C5  BNZ d   1       1.028   0.809   1.762  0.00  0.00     0.000 A 
ATOM      6  C6  BNZ d   1       0.331   0.457   2.895  0.00  0.00     0.000 A 
ENDROOT
TORSDOF 0
ENDMDL
