MODEL 1
REMARK minimizedAffinity -3.96500063
REMARK minimizedRMSD -1
REMARK  0 active torsions:
REMARK  status: ('A' for Active; 'I' for Inactive)
ROOT
ATOM      1  C1  BNZ d   1       0.138   0.052   2.599  0.00  0.00     0.000 A 
ATOM      2  C2  BNZ d   1      -1.080  -0.315   3.106  0.00  0.00     0.000 A 
ATOM      3  C3  BNZ d   1      -2.130  -0.591   2.275  0.00  0.00     0.000 A 
ATOM      4  C4  BNZ d   1      -1.972  -0.462   0.942  0.00  0.00     0.000 A 
ATOM      5  C5  BNZ d   1      -0.753  -0.084   0.416  0.00  0.00     0.000 A 
ATOM      6  C6  BNZ d   1       0.313   0.156   1.253  0.00  0.00     0.000 A 
ENDROOT
TORSDOF 0
ENDMDL
