MODEL 1
REMARK minimizedAffinity -3.63933659
REMARK minimizedRMSD -1
REMARK  0 active torsions:
REMARK  status: ('A' for Active; 'I' for Inactive)
ROOT
ATOM      1  C1  BNZ d   1       0.811  -0.093  -0.070  0.00  0.00     0.000 A 
ATOM      2  C2  BNZ d   1       1.301  -0.067   1.208  0.00  0.00     0.000 A 
ATOM      3  C3  BNZ d   1       0.500  -0.377   2.271  0.00  0.00     0.000 A 
ATOM      4  C4  BNZ d   1      -0.798  -0.673   2.059  0.00  0.00     0.000 A 
ATOM      5  C5  BNZ d   1      -1.310  -0.695   0.777  0.00  0.00     0.000 A 
ATOM      6  C6  BNZ d   1      -0.491  -0.420  -0.294  0.00  0.00     0.000 A 
ENDROOT
TORSDOF 0
ENDMDL
