MODEL 1
REMARK minimizedAffinity -4.11255503
REMARK minimizedRMSD -1
REMARK  0 active torsions:
REMARK  status: ('A' for Active; 'I' for Inactive)
ROOT
ATOM      1  C1  BNZ d   1      -0.561  -0.806  -1.961  0.00  0.00     0.000 A 
ATOM      2  C2  BNZ d   1      -0.221  -1.643  -2.990  0.00  0.00     0.000 A 
ATOM      3  C3  BNZ d   1       1.005  -1.554  -3.588  0.00  0.00     0.000 A 
ATOM      4  C4  BNZ d   1       1.872  -0.603  -3.185  0.00  0.00     0.000 A 
ATOM      5  C5  BNZ d   1       1.540   0.254  -2.155  0.00  0.00     0.000 A 
ATOM      6  C6  BNZ d   1       0.320   0.136  -1.529  0.00  0.00     0.000 A 
ENDROOT
TORSDOF 0
ENDMDL
