MODEL 1
REMARK minimizedAffinity -3.41214061
REMARK minimizedRMSD -1
REMARK  0 active torsions:
REMARK  status: ('A' for Active; 'I' for Inactive)
ROOT
ATOM      1  C1  BNZ d   1      -0.807   0.116   0.643  0.00  0.00     0.000 A 
ATOM      2  C2  BNZ d   1      -0.947   0.571   1.927  0.00  0.00     0.000 A 
ATOM      3  C3  BNZ d   1      -0.096   0.158   2.914  0.00  0.00     0.000 A 
ATOM      4  C4  BNZ d   1       0.869  -0.739   2.624  0.00  0.00     0.000 A 
ATOM      5  C5  BNZ d   1       1.017  -1.215   1.336  0.00  0.00     0.000 A 
ATOM      6  C6  BNZ d   1       0.183  -0.767   0.338  0.00  0.00     0.000 A 
ENDROOT
TORSDOF 0
ENDMDL
