MODEL 1
REMARK minimizedAffinity -3.12416601
REMARK minimizedRMSD -1
REMARK  0 active torsions:
REMARK  status: ('A' for Active; 'I' for Inactive)
ROOT
ATOM      1  C1  BNZ d   1      -0.024  -0.024   2.775  0.00  0.00     0.000 A 
ATOM      2  C2  BNZ d   1      -0.756  -1.158   2.542  0.00  0.00     0.000 A 
ATOM      3  C3  BNZ d   1      -1.019  -1.572   1.266  0.00  0.00     0.000 A 
ATOM      4  C4  BNZ d   1      -0.584  -0.832   0.226  0.00  0.00     0.000 A 
ATOM      5  C5  BNZ d   1       0.148   0.318   0.444  0.00  0.00     0.000 A 
ATOM      6  C6  BNZ d   1       0.444   0.711   1.730  0.00  0.00     0.000 A 
ENDROOT
TORSDOF 0
ENDMDL
