MODEL 1
REMARK minimizedAffinity -3.62468219
REMARK minimizedRMSD -1
REMARK  0 active torsions:
REMARK  status: ('A' for Active; 'I' for Inactive)
ROOT
ATOM      1  C1  BNZ d   1       0.612  -0.391   1.162  0.00  0.00     0.000 A 
ATOM      2  C2  BNZ d   1      -0.099  -0.139   0.019  0.00  0.00     0.000 A 
ATOM      3  C3  BNZ d   1      -1.466  -0.136   0.031  0.00  0.00     0.000 A 
ATOM      4  C4  BNZ d   1      -2.119  -0.426   1.175  0.00  0.00     0.000 A 
ATOM      5  C5  BNZ d   1      -1.417  -0.692   2.333  0.00  0.00     0.000 A 
ATOM      6  C6  BNZ d   1      -0.042  -0.655   2.326  0.00  0.00     0.000 A 
ENDROOT
TORSDOF 0
ENDMDL
