MODEL 1
REMARK minimizedAffinity -4.94523144
REMARK minimizedRMSD -1
REMARK  0 active torsions:
REMARK  status: ('A' for Active; 'I' for Inactive)
ROOT
ATOM      1  C1  BNZ d   1      -1.902  -0.389   1.202  0.00  0.00     0.000 A 
ATOM      2  C2  BNZ d   1      -1.229  -0.499   2.390  0.00  0.00     0.000 A 
ATOM      3  C3  BNZ d   1       0.096  -0.172   2.476  0.00  0.00     0.000 A 
ATOM      4  C4  BNZ d   1       0.755   0.224   1.368  0.00  0.00     0.000 A 
ATOM      5  C5  BNZ d   1       0.093   0.330   0.162  0.00  0.00     0.000 A 
ATOM      6  C6  BNZ d   1      -1.250   0.038   0.086  0.00  0.00     0.000 A 
ENDROOT
TORSDOF 0
ENDMDL
