MODEL 1
REMARK minimizedAffinity -4.15808773
REMARK minimizedRMSD -1
REMARK  0 active torsions:
REMARK  status: ('A' for Active; 'I' for Inactive)
ROOT
ATOM      1  C1  BNZ d   1       0.808   0.875   1.334  0.00  0.00     0.000 A 
ATOM      2  C2  BNZ d   1      -0.005   0.631   0.260  0.00  0.00     0.000 A 
ATOM      3  C3  BNZ d   1      -1.074  -0.215   0.369  0.00  0.00     0.000 A 
ATOM      4  C4  BNZ d   1      -1.304  -0.845   1.539  0.00  0.00     0.000 A 
ATOM      5  C5  BNZ d   1      -0.487  -0.616   2.629  0.00  0.00     0.000 A 
ATOM      6  C6  BNZ d   1       0.564   0.266   2.526  0.00  0.00     0.000 A 
ENDROOT
TORSDOF 0
ENDMDL
