MODEL 1
REMARK minimizedAffinity -2.07290959
REMARK minimizedRMSD -1
REMARK  0 active torsions:
REMARK  status: ('A' for Active; 'I' for Inactive)
ROOT
ATOM      1  C1  BNZ d   1       0.016   0.642   2.645  0.00  0.00     0.000 A 
ATOM      2  C2  BNZ d   1       0.539   0.827   1.393  0.00  0.00     0.000 A 
ATOM      3  C3  BNZ d   1       0.210  -0.013   0.365  0.00  0.00     0.000 A 
ATOM      4  C4  BNZ d   1      -0.608  -1.059   0.600  0.00  0.00     0.000 A 
ATOM      5  C5  BNZ d   1      -1.136  -1.265   1.859  0.00  0.00     0.000 A 
ATOM      6  C6  BNZ d   1      -0.834  -0.395   2.881  0.00  0.00     0.000 A 
ENDROOT
TORSDOF 0
ENDMDL
