MODEL 1
REMARK minimizedAffinity -3.64410281
REMARK minimizedRMSD -1
REMARK  0 active torsions:
REMARK  status: ('A' for Active; 'I' for Inactive)
ROOT
ATOM      1  C   UNL d   1       1.093   2.411   0.698  0.00  0.00     0.172 C 
ATOM      2  N   UNL d   1       0.894   1.035   0.310  0.00  0.00    -0.070 N 
ATOM      3  C1  UNL d   1       1.810   0.245  -0.331  0.00  0.00    -0.004 A 
ATOM      4  C2  UNL d   1       1.240  -0.995  -0.521  0.00  0.00    -0.047 A 
ATOM      5  C3  UNL d   1      -0.065  -0.949   0.024  0.00  0.00    -0.047 A 
ATOM      6  C4  UNL d   1      -0.253   0.319   0.532  0.00  0.00    -0.004 A 
ENDROOT
TORSDOF 0
ENDMDL
