MODEL 1
REMARK minimizedAffinity -3.14195251
REMARK minimizedRMSD -1
REMARK  0 active torsions:
REMARK  status: ('A' for Active; 'I' for Inactive)
ROOT
ATOM      1  C   UNL d   1      -0.296  -0.887  -0.508  0.00  0.00     0.172 C 
ATOM      2  N   UNL d   1      -0.039   0.090   0.524  0.00  0.00    -0.070 N 
ATOM      3  C1  UNL d   1      -0.642   0.132   1.752  0.00  0.00    -0.004 A 
ATOM      4  C2  UNL d   1      -0.125   1.208   2.440  0.00  0.00    -0.047 A 
ATOM      5  C3  UNL d   1       0.822   1.835   1.596  0.00  0.00    -0.047 A 
ATOM      6  C4  UNL d   1       0.855   1.122   0.416  0.00  0.00    -0.004 A 
ENDROOT
TORSDOF 0
ENDMDL
