MODEL 1
REMARK minimizedAffinity -1.26336777
REMARK minimizedRMSD -1
REMARK  0 active torsions:
REMARK  status: ('A' for Active; 'I' for Inactive)
ROOT
ATOM      1  C   UNL d   1       1.132   2.075   0.491  0.00  0.00     0.172 C 
ATOM      2  N   UNL d   1       0.865   0.755  -0.031  0.00  0.00    -0.070 N 
ATOM      3  C1  UNL d   1      -0.307   0.061   0.113  0.00  0.00    -0.004 A 
ATOM      4  C2  UNL d   1      -0.161  -1.151  -0.526  0.00  0.00    -0.047 A 
ATOM      5  C3  UNL d   1       1.144  -1.187  -1.073  0.00  0.00    -0.047 A 
ATOM      6  C4  UNL d   1       1.757   0.006  -0.752  0.00  0.00    -0.004 A 
ENDROOT
TORSDOF 0
ENDMDL
