MODEL 1
REMARK minimizedAffinity -2.81702995
REMARK minimizedRMSD -1
REMARK  0 active torsions:
REMARK  status: ('A' for Active; 'I' for Inactive)
ROOT
ATOM      1  C   UNL d   1      -1.126  -2.202  -0.340  0.00  0.00     0.172 C 
ATOM      2  N   UNL d   1      -0.150  -1.146  -0.210  0.00  0.00    -0.070 N 
ATOM      3  C1  UNL d   1       1.145  -1.197  -0.651  0.00  0.00    -0.004 A 
ATOM      4  C2  UNL d   1       1.745   0.004  -0.338  0.00  0.00    -0.047 A 
ATOM      5  C3  UNL d   1       0.777   0.804   0.314  0.00  0.00    -0.047 A 
ATOM      6  C4  UNL d   1      -0.387   0.067   0.381  0.00  0.00    -0.004 A 
ENDROOT
TORSDOF 0
ENDMDL
