MODEL 1
REMARK minimizedAffinity -2.51919603
REMARK minimizedRMSD -1
REMARK  0 active torsions:
REMARK  status: ('A' for Active; 'I' for Inactive)
ROOT
ATOM      1  C   UNL d   1       0.368   1.061   2.738  0.00  0.00     0.172 C 
ATOM      2  N   UNL d   1       0.369   0.838   1.312  0.00  0.00    -0.070 N 
ATOM      3  C1  UNL d   1       0.985   1.631   0.380  0.00  0.00    -0.004 A 
ATOM      4  C2  UNL d   1       0.753   1.081  -0.862  0.00  0.00    -0.047 A 
ATOM      5  C3  UNL d   1      -0.031  -0.082  -0.670  0.00  0.00    -0.047 A 
ATOM      6  C4  UNL d   1      -0.254  -0.208   0.684  0.00  0.00    -0.004 A 
ENDROOT
TORSDOF 0
ENDMDL
