MODEL 1
REMARK minimizedAffinity -3.84498978
REMARK minimizedRMSD -1
REMARK  0 active torsions:
REMARK  status: ('A' for Active; 'I' for Inactive)
ROOT
ATOM      1  C   UNL d   1       0.016  -0.692  -0.569  0.00  0.00     0.172 C 
ATOM      2  N   UNL d   1       0.690   0.372   0.138  0.00  0.00    -0.070 N 
ATOM      3  C1  UNL d   1       1.993   0.752  -0.044  0.00  0.00    -0.004 A 
ATOM      4  C2  UNL d   1       2.252   1.798   0.815  0.00  0.00    -0.047 A 
ATOM      5  C3  UNL d   1       1.063   2.056   1.538  0.00  0.00    -0.047 A 
ATOM      6  C4  UNL d   1       0.113   1.159   1.099  0.00  0.00    -0.004 A 
ENDROOT
TORSDOF 0
ENDMDL
