MODEL 1
REMARK minimizedAffinity -0.645509601
REMARK minimizedRMSD -1
REMARK  0 active torsions:
REMARK  status: ('A' for Active; 'I' for Inactive)
ROOT
ATOM      1  C   UNL d   1      -0.347  -1.511  -1.289  0.00  0.00     0.172 C 
ATOM      2  N   UNL d   1      -1.522  -1.567  -2.126  0.00  0.00    -0.070 N 
ATOM      3  C1  UNL d   1      -1.577  -1.221  -3.450  0.00  0.00    -0.004 A 
ATOM      4  C2  UNL d   1      -2.870  -1.416  -3.884  0.00  0.00    -0.047 A 
ATOM      5  C3  UNL d   1      -3.619  -1.895  -2.782  0.00  0.00    -0.047 A 
ATOM      6  C4  UNL d   1      -2.760  -1.979  -1.707  0.00  0.00    -0.004 A 
ENDROOT
TORSDOF 0
ENDMDL
