MODEL 1
REMARK minimizedAffinity -4.20559216
REMARK minimizedRMSD -1
REMARK  0 active torsions:
REMARK  status: ('A' for Active; 'I' for Inactive)
ROOT
ATOM      1  C   UNL d   1      -0.100  -0.590  -0.388  0.00  0.00     0.172 C 
ATOM      2  N   UNL d   1       0.261   0.610   0.328  0.00  0.00    -0.070 N 
ATOM      3  C1  UNL d   1       1.429   1.310   0.178  0.00  0.00    -0.004 A 
ATOM      4  C2  UNL d   1       1.389   2.388   1.036  0.00  0.00    -0.047 A 
ATOM      5  C3  UNL d   1       0.155   2.334   1.726  0.00  0.00    -0.047 A 
ATOM      6  C4  UNL d   1      -0.524   1.224   1.269  0.00  0.00    -0.004 A 
ENDROOT
TORSDOF 0
ENDMDL
