MODEL 1
REMARK minimizedAffinity -4.03275108
REMARK minimizedRMSD -1
REMARK  0 active torsions:
REMARK  status: ('A' for Active; 'I' for Inactive)
ROOT
ATOM      1  C   UNL d   1      -0.026  -1.059  -0.311  0.00  0.00     0.172 C 
ATOM      2  N   UNL d   1       0.535   0.096   0.350  0.00  0.00    -0.070 N 
ATOM      3  C1  UNL d   1       1.818   0.552   0.209  0.00  0.00    -0.004 A 
ATOM      4  C2  UNL d   1       1.958   1.671   1.001  0.00  0.00    -0.047 A 
ATOM      5  C3  UNL d   1       0.716   1.895   1.641  0.00  0.00    -0.047 A 
ATOM      6  C4  UNL d   1      -0.147   0.905   1.220  0.00  0.00    -0.004 A 
ENDROOT
TORSDOF 0
ENDMDL
