MODEL 1
REMARK minimizedAffinity -2.59828281
REMARK minimizedRMSD -1
REMARK  0 active torsions:
REMARK  status: ('A' for Active; 'I' for Inactive)
ROOT
ATOM      1  C   UNL d   1      -0.088  -0.967  -0.610  0.00  0.00     0.172 C 
ATOM      2  N   UNL d   1       0.374   0.313  -0.127  0.00  0.00    -0.070 N 
ATOM      3  C1  UNL d   1      -0.109   0.973   0.972  0.00  0.00    -0.004 A 
ATOM      4  C2  UNL d   1       0.591   2.154   1.096  0.00  0.00    -0.047 A 
ATOM      5  C3  UNL d   1       1.526   2.206   0.036  0.00  0.00    -0.047 A 
ATOM      6  C4  UNL d   1       1.370   1.054  -0.706  0.00  0.00    -0.004 A 
ENDROOT
TORSDOF 0
ENDMDL
