MODEL 1
REMARK minimizedAffinity -3.18783951
REMARK minimizedRMSD -1
REMARK  0 active torsions:
REMARK  status: ('A' for Active; 'I' for Inactive)
ROOT
ATOM      1  C   UNL d   1      -0.239  -0.195  -0.444  0.00  0.00     0.172 C 
ATOM      2  N   UNL d   1       0.003   0.828   0.545  0.00  0.00    -0.070 N 
ATOM      3  C1  UNL d   1      -0.404   0.787   1.852  0.00  0.00    -0.004 A 
ATOM      4  C2  UNL d   1       0.022   1.947   2.463  0.00  0.00    -0.047 A 
ATOM      5  C3  UNL d   1       0.708   2.711   1.490  0.00  0.00    -0.047 A 
ATOM      6  C4  UNL d   1       0.681   1.995   0.312  0.00  0.00    -0.004 A 
ENDROOT
TORSDOF 0
ENDMDL
