MODEL 1
REMARK minimizedAffinity -2.28487372
REMARK minimizedRMSD -1
REMARK  0 active torsions:
REMARK  status: ('A' for Active; 'I' for Inactive)
ROOT
ATOM      1  C   UNL d   1      -0.303  -1.632  -0.403  0.00  0.00     0.172 C 
ATOM      2  N   UNL d   1      -0.431  -0.266   0.049  0.00  0.00    -0.070 N 
ATOM      3  C1  UNL d   1      -0.137   0.189   1.307  0.00  0.00    -0.004 A 
ATOM      4  C2  UNL d   1      -0.391   1.543   1.336  0.00  0.00    -0.047 A 
ATOM      5  C3  UNL d   1      -0.855   1.914   0.051  0.00  0.00    -0.047 A 
ATOM      6  C4  UNL d   1      -0.870   0.775  -0.725  0.00  0.00    -0.004 A 
ENDROOT
TORSDOF 0
ENDMDL
