MODEL 1
REMARK minimizedAffinity -3.37733102
REMARK minimizedRMSD -1
REMARK  0 active torsions:
REMARK  status: ('A' for Active; 'I' for Inactive)
ROOT
ATOM      1  C   UNL d   1      -0.383  -0.857  -0.387  0.00  0.00     0.172 C 
ATOM      2  N   UNL d   1       0.098   0.281   0.361  0.00  0.00    -0.070 N 
ATOM      3  C1  UNL d   1      -0.493   0.811   1.477  0.00  0.00    -0.004 A 
ATOM      4  C2  UNL d   1       0.270   1.882   1.890  0.00  0.00    -0.047 A 
ATOM      5  C3  UNL d   1       1.356   2.000   0.991  0.00  0.00    -0.047 A 
ATOM      6  C4  UNL d   1       1.225   0.996   0.054  0.00  0.00    -0.004 A 
ENDROOT
TORSDOF 0
ENDMDL
