MODEL 1
REMARK minimizedAffinity 19.3796711
REMARK minimizedRMSD -1
REMARK  0 active torsions:
REMARK  status: ('A' for Active; 'I' for Inactive)
ROOT
ATOM      1  N1  IND d   1      -4.130   2.356   0.753  0.00  0.00    -0.196 N 
ATOM      2  C2  IND d   1      -4.294   1.034   0.448  0.00  0.00     0.054 A 
ATOM      3  C3  IND d   1      -4.990   0.899  -0.704  0.00  0.00    -0.031 A 
ATOM      4  C4  IND d   1      -5.868   2.714  -2.305  0.00  0.00     0.051 A 
ATOM      5  C5  IND d   1      -5.993   4.069  -2.433  0.00  0.00    -0.031 A 
ATOM      6  C6  IND d   1      -5.490   4.940  -1.488  0.00  0.00     0.015 A 
ATOM      7  C7  IND d   1      -4.831   4.487  -0.381  0.00  0.00    -0.016 A 
ATOM      8  C8  IND d   1      -4.709   3.111  -0.244  0.00  0.00    -0.047 A 
ATOM      9  C9  IND d   1      -5.254   2.221  -1.178  0.00  0.00    -0.096 A 
ATOM     10  HN1 IND d   1      -3.731   2.665   1.449  0.00  0.00     0.298 HD
ENDROOT
TORSDOF 0
ENDMDL
