MODEL 1
REMARK minimizedAffinity 12.6723213
REMARK minimizedRMSD -1
REMARK  0 active torsions:
REMARK  status: ('A' for Active; 'I' for Inactive)
ROOT
ATOM      1  N1  IND d   1       4.442  -2.218   1.473  0.00  0.00    -0.196 N 
ATOM      2  C2  IND d   1       5.717  -1.850   1.804  0.00  0.00     0.054 A 
ATOM      3  C3  IND d   1       6.000  -0.628   1.299  0.00  0.00    -0.031 A 
ATOM      4  C4  IND d   1       4.487   0.990  -0.012  0.00  0.00     0.051 A 
ATOM      5  C5  IND d   1       3.250   1.082  -0.587  0.00  0.00    -0.031 A 
ATOM      6  C6  IND d   1       2.328   0.059  -0.501  0.00  0.00     0.015 A 
ATOM      7  C7  IND d   1       2.606  -1.094   0.177  0.00  0.00    -0.016 A 
ATOM      8  C8  IND d   1       3.863  -1.194   0.756  0.00  0.00    -0.047 A 
ATOM      9  C9  IND d   1       4.818  -0.177   0.635  0.00  0.00    -0.096 A 
ATOM     10  HN1 IND d   1       4.066  -2.963   1.678  0.00  0.00     0.298 HD
ENDROOT
TORSDOF 0
ENDMDL
