MODEL 1
REMARK minimizedAffinity 6.92457008
REMARK minimizedRMSD -1
REMARK  0 active torsions:
REMARK  status: ('A' for Active; 'I' for Inactive)
ROOT
ATOM      1  N1  IND d   1       4.665  -1.836   1.924  0.00  0.00    -0.196 N 
ATOM      2  C2  IND d   1       5.892  -1.289   2.176  0.00  0.00     0.054 A 
ATOM      3  C3  IND d   1       5.995  -0.075   1.590  0.00  0.00    -0.031 A 
ATOM      4  C4  IND d   1       4.237   1.251   0.256  0.00  0.00     0.051 A 
ATOM      5  C5  IND d   1       2.979   1.148  -0.267  0.00  0.00    -0.031 A 
ATOM      6  C6  IND d   1       2.202   0.024  -0.081  0.00  0.00     0.015 A 
ATOM      7  C7  IND d   1       2.651  -1.040   0.649  0.00  0.00    -0.016 A 
ATOM      8  C8  IND d   1       3.931  -0.942   1.176  0.00  0.00    -0.047 A 
ATOM      9  C9  IND d   1       4.741   0.179   0.954  0.00  0.00    -0.096 A 
ATOM     10  HN1 IND d   1       4.397  -2.609   2.188  0.00  0.00     0.298 HD
ENDROOT
TORSDOF 0
ENDMDL
