MODEL 1
REMARK minimizedAffinity 8.37816906
REMARK minimizedRMSD -1
REMARK  0 active torsions:
REMARK  status: ('A' for Active; 'I' for Inactive)
ROOT
ATOM      1  N1  IND d   1       2.470  -1.514  -0.144  0.00  0.00    -0.196 N 
ATOM      2  C2  IND d   1       2.981  -1.880   1.070  0.00  0.00     0.054 A 
ATOM      3  C3  IND d   1       3.941  -1.011   1.459  0.00  0.00    -0.031 A 
ATOM      4  C4  IND d   1       4.763   1.139   0.306  0.00  0.00     0.051 A 
ATOM      5  C5  IND d   1       4.622   1.868  -0.841  0.00  0.00    -0.031 A 
ATOM      6  C6  IND d   1       3.736   1.501  -1.834  0.00  0.00     0.015 A 
ATOM      7  C7  IND d   1       2.947   0.393  -1.710  0.00  0.00    -0.016 A 
ATOM      8  C8  IND d   1       3.093  -0.354  -0.549  0.00  0.00    -0.047 A 
ATOM      9  C9  IND d   1       4.021  -0.010   0.442  0.00  0.00    -0.096 A 
ATOM     10  HN1 IND d   1       1.862  -1.937  -0.580  0.00  0.00     0.298 HD
ENDROOT
TORSDOF 0
ENDMDL
