MODEL 1
REMARK minimizedAffinity 13.4618149
REMARK minimizedRMSD -1
REMARK  0 active torsions:
REMARK  status: ('A' for Active; 'I' for Inactive)
ROOT
ATOM      1  N1  IND d   1      -5.863   3.728   3.065  0.00  0.00    -0.196 N 
ATOM      2  C2  IND d   1      -4.834   3.381   2.235  0.00  0.00     0.054 A 
ATOM      3  C3  IND d   1      -3.676   3.931   2.666  0.00  0.00    -0.031 A 
ATOM      4  C4  IND d   1      -3.222   5.352   4.764  0.00  0.00     0.051 A 
ATOM      5  C5  IND d   1      -3.856   5.962   5.810  0.00  0.00    -0.031 A 
ATOM      6  C6  IND d   1      -5.219   5.854   6.000  0.00  0.00     0.015 A 
ATOM      7  C7  IND d   1      -6.000   5.119   5.153  0.00  0.00    -0.016 A 
ATOM      8  C8  IND d   1      -5.360   4.504   4.086  0.00  0.00    -0.047 A 
ATOM      9  C9  IND d   1      -3.985   4.645   3.864  0.00  0.00    -0.096 A 
ATOM     10  HN1 IND d   1      -6.686   3.500   2.966  0.00  0.00     0.298 HD
ENDROOT
TORSDOF 0
ENDMDL
