MODEL 1
REMARK minimizedAffinity 16.2502651
REMARK minimizedRMSD -1
REMARK  0 active torsions:
REMARK  status: ('A' for Active; 'I' for Inactive)
ROOT
ATOM      1  N1  IND d   1      -4.469   1.682   0.874  0.00  0.00    -0.196 N 
ATOM      2  C2  IND d   1      -3.139   1.477   1.115  0.00  0.00     0.054 A 
ATOM      3  C3  IND d   1      -2.582   0.770   0.107  0.00  0.00    -0.031 A 
ATOM      4  C4  IND d   1      -3.643  -0.068  -2.085  0.00  0.00     0.051 A 
ATOM      5  C5  IND d   1      -4.840  -0.155  -2.738  0.00  0.00    -0.031 A 
ATOM      6  C6  IND d   1      -5.998   0.380  -2.211  0.00  0.00     0.015 A 
ATOM      7  C7  IND d   1      -5.999   1.033  -1.011  0.00  0.00    -0.016 A 
ATOM      8  C8  IND d   1      -4.787   1.117  -0.342  0.00  0.00    -0.047 A 
ATOM      9  C9  IND d   1      -3.617   0.539  -0.852  0.00  0.00    -0.096 A 
ATOM     10  HN1 IND d   1      -5.016   2.094   1.394  0.00  0.00     0.298 HD
ENDROOT
TORSDOF 0
ENDMDL
