MODEL 1
REMARK minimizedAffinity 20.5809193
REMARK minimizedRMSD -1
REMARK  0 active torsions:
REMARK  status: ('A' for Active; 'I' for Inactive)
ROOT
ATOM      1  N1  IND d   1       1.840   3.299   4.804  0.00  0.00    -0.196 N 
ATOM      2  C2  IND d   1       1.133   4.335   4.260  0.00  0.00     0.054 A 
ATOM      3  C3  IND d   1       1.944   5.117   3.513  0.00  0.00    -0.031 A 
ATOM      4  C4  IND d   1       4.442   4.827   2.962  0.00  0.00     0.051 A 
ATOM      5  C5  IND d   1       5.527   4.052   3.258  0.00  0.00    -0.031 A 
ATOM      6  C6  IND d   1       5.437   2.961   4.099  0.00  0.00     0.015 A 
ATOM      7  C7  IND d   1       4.250   2.598   4.669  0.00  0.00    -0.016 A 
ATOM      8  C8  IND d   1       3.147   3.388   4.377  0.00  0.00    -0.047 A 
ATOM      9  C9  IND d   1       3.241   4.521   3.558  0.00  0.00    -0.096 A 
ATOM     10  HN1 IND d   1       1.522   2.693   5.325  0.00  0.00     0.298 HD
ENDROOT
TORSDOF 0
ENDMDL
