MODEL 1
REMARK minimizedAffinity 15.3853273
REMARK minimizedRMSD -1
REMARK  0 active torsions:
REMARK  status: ('A' for Active; 'I' for Inactive)
ROOT
ATOM      1  N1  IND d   1      -5.565   0.507  -1.855  0.00  0.00    -0.196 N 
ATOM      2  C2  IND d   1      -4.882   0.108  -0.740  0.00  0.00     0.054 A 
ATOM      3  C3  IND d   1      -4.343   1.176  -0.111  0.00  0.00    -0.031 A 
ATOM      4  C4  IND d   1      -4.539   3.680  -0.679  0.00  0.00     0.051 A 
ATOM      5  C5  IND d   1      -5.030   4.534  -1.626  0.00  0.00    -0.031 A 
ATOM      6  C6  IND d   1      -5.741   4.081  -2.719  0.00  0.00     0.015 A 
ATOM      7  C7  IND d   1      -5.999   2.751  -2.899  0.00  0.00    -0.016 A 
ATOM      8  C8  IND d   1      -5.495   1.880  -1.944  0.00  0.00    -0.047 A 
ATOM      9  C9  IND d   1      -4.737   2.330  -0.856  0.00  0.00    -0.096 A 
ATOM     10  HN1 IND d   1      -5.969  -0.012  -2.409  0.00  0.00     0.298 HD
ENDROOT
TORSDOF 0
ENDMDL
