MODEL 1
REMARK minimizedAffinity -2.5435853
REMARK minimizedRMSD -1
REMARK  0 active torsions:
REMARK  status: ('A' for Active; 'I' for Inactive)
ROOT
ATOM      1  C   UNL d   1      -4.438   5.990  -6.000  0.00  0.00     0.172 C 
ATOM      2  N   UNL d   1      -3.144   5.964  -5.358  0.00  0.00    -0.070 N 
ATOM      3  C1  UNL d   1      -1.935   5.917  -5.999  0.00  0.00    -0.004 A 
ATOM      4  C2  UNL d   1      -0.948   5.905  -5.038  0.00  0.00    -0.047 A 
ATOM      5  C3  UNL d   1      -1.585   5.945  -3.775  0.00  0.00    -0.047 A 
ATOM      6  C4  UNL d   1      -2.945   5.980  -4.003  0.00  0.00    -0.004 A 
ENDROOT
TORSDOF 0
ENDMDL
