MODEL 1
REMARK minimizedAffinity 0.313901335
REMARK minimizedRMSD -1
REMARK  0 active torsions:
REMARK  status: ('A' for Active; 'I' for Inactive)
ROOT
ATOM      1  C   UNL d   1      -2.728   0.960   5.254  0.00  0.00     0.172 C 
ATOM      2  N   UNL d   1      -3.399   0.297   4.161  0.00  0.00    -0.070 N 
ATOM      3  C1  UNL d   1      -4.725  -0.045   4.127  0.00  0.00    -0.004 A 
ATOM      4  C2  UNL d   1      -4.972  -0.656   2.917  0.00  0.00    -0.047 A 
ATOM      5  C3  UNL d   1      -3.754  -0.682   2.199  0.00  0.00    -0.047 A 
ATOM      6  C4  UNL d   1      -2.796  -0.086   2.992  0.00  0.00    -0.004 A 
ENDROOT
TORSDOF 0
ENDMDL
