MODEL 1
REMARK minimizedAffinity 0.768845022
REMARK minimizedRMSD -1
REMARK  0 active torsions:
REMARK  status: ('A' for Active; 'I' for Inactive)
ROOT
ATOM      1  C   UNL d   1       5.273   4.947  -1.929  0.00  0.00     0.172 C 
ATOM      2  N   UNL d   1       4.121   4.195  -2.367  0.00  0.00    -0.070 N 
ATOM      3  C1  UNL d   1       2.837   4.371  -1.924  0.00  0.00    -0.004 A 
ATOM      4  C2  UNL d   1       2.035   3.464  -2.582  0.00  0.00    -0.047 A 
ATOM      5  C3  UNL d   1       2.866   2.715  -3.449  0.00  0.00    -0.047 A 
ATOM      6  C4  UNL d   1       4.152   3.188  -3.296  0.00  0.00    -0.004 A 
ENDROOT
TORSDOF 0
ENDMDL
