MODEL 1
REMARK minimizedAffinity 0.40585041
REMARK minimizedRMSD -1
REMARK  0 active torsions:
REMARK  status: ('A' for Active; 'I' for Inactive)
ROOT
ATOM      1  C   UNL d   1      -3.793   5.615  -4.588  0.00  0.00     0.172 C 
ATOM      2  N   UNL d   1      -4.437   5.440  -3.308  0.00  0.00    -0.070 N 
ATOM      3  C1  UNL d   1      -3.836   4.974  -2.169  0.00  0.00    -0.004 A 
ATOM      4  C2  UNL d   1      -4.784   4.956  -1.169  0.00  0.00    -0.047 A 
ATOM      5  C3  UNL d   1      -5.997   5.426  -1.726  0.00  0.00    -0.047 A 
ATOM      6  C4  UNL d   1      -5.754   5.719  -3.051  0.00  0.00    -0.004 A 
ENDROOT
TORSDOF 0
ENDMDL
