MODEL 1
REMARK minimizedAffinity 9.61099148
REMARK minimizedRMSD -1
REMARK  0 active torsions:
REMARK  status: ('A' for Active; 'I' for Inactive)
ROOT
ATOM      1  C   UNL d   1      -4.191  -4.601   1.480  0.00  0.00     0.172 C 
ATOM      2  N   UNL d   1      -3.531  -3.387   1.061  0.00  0.00    -0.070 N 
ATOM      3  C1  UNL d   1      -2.178  -3.219   0.928  0.00  0.00    -0.004 A 
ATOM      4  C2  UNL d   1      -1.953  -1.926   0.510  0.00  0.00    -0.047 A 
ATOM      5  C3  UNL d   1      -3.213  -1.294   0.388  0.00  0.00    -0.047 A 
ATOM      6  C4  UNL d   1      -4.172  -2.222   0.735  0.00  0.00    -0.004 A 
ENDROOT
TORSDOF 0
ENDMDL
