MODEL 1
REMARK minimizedAffinity 12.2466154
REMARK minimizedRMSD -1
REMARK  0 active torsions:
REMARK  status: ('A' for Active; 'I' for Inactive)
ROOT
ATOM      1  C   UNL d   1       1.291  -4.198   1.549  0.00  0.00     0.172 C 
ATOM      2  N   UNL d   1       2.389  -4.210   0.611  0.00  0.00    -0.070 N 
ATOM      3  C1  UNL d   1       2.628  -5.178  -0.327  0.00  0.00    -0.004 A 
ATOM      4  C2  UNL d   1       3.765  -4.824  -1.020  0.00  0.00    -0.047 A 
ATOM      5  C3  UNL d   1       4.227  -3.601  -0.478  0.00  0.00    -0.047 A 
ATOM      6  C4  UNL d   1       3.357  -3.243   0.530  0.00  0.00    -0.004 A 
ENDROOT
TORSDOF 0
ENDMDL
