MODEL 1
REMARK minimizedAffinity 9.42380142
REMARK minimizedRMSD -1
REMARK  0 active torsions:
REMARK  status: ('A' for Active; 'I' for Inactive)
ROOT
ATOM      1  C   UNL d   1       2.334   2.793  -2.987  0.00  0.00     0.172 C 
ATOM      2  N   UNL d   1       3.663   3.307  -3.222  0.00  0.00    -0.070 N 
ATOM      3  C1  UNL d   1       4.380   3.168  -4.380  0.00  0.00    -0.004 A 
ATOM      4  C2  UNL d   1       5.594   3.795  -4.204  0.00  0.00    -0.047 A 
ATOM      5  C3  UNL d   1       5.608   4.329  -2.893  0.00  0.00    -0.047 A 
ATOM      6  C4  UNL d   1       4.400   4.012  -2.308  0.00  0.00    -0.004 A 
ENDROOT
TORSDOF 0
ENDMDL
