MODEL 1
REMARK minimizedAffinity 13.1266623
REMARK minimizedRMSD -1
REMARK  0 active torsions:
REMARK  status: ('A' for Active; 'I' for Inactive)
ROOT
ATOM      1  C   UNL d   1      -0.630  -5.583  -5.289  0.00  0.00     0.172 C 
ATOM      2  N   UNL d   1      -1.155  -4.889  -4.136  0.00  0.00    -0.070 N 
ATOM      3  C1  UNL d   1      -2.286  -5.234  -3.444  0.00  0.00    -0.004 A 
ATOM      4  C2  UNL d   1      -2.444  -4.328  -2.417  0.00  0.00    -0.047 A 
ATOM      5  C3  UNL d   1      -1.372  -3.408  -2.496  0.00  0.00    -0.047 A 
ATOM      6  C4  UNL d   1      -0.590  -3.778  -3.569  0.00  0.00    -0.004 A 
ENDROOT
TORSDOF 0
ENDMDL
