MODEL 1
REMARK minimizedAffinity 5.29442739
REMARK minimizedRMSD -1
REMARK  0 active torsions:
REMARK  status: ('A' for Active; 'I' for Inactive)
ROOT
ATOM      1  C   UNL d   1      -3.289  -6.000  -5.209  0.00  0.00     0.172 C 
ATOM      2  N   UNL d   1      -2.257  -5.364  -4.423  0.00  0.00    -0.070 N 
ATOM      3  C1  UNL d   1      -2.466  -4.477  -3.400  0.00  0.00    -0.004 A 
ATOM      4  C2  UNL d   1      -1.234  -4.103  -2.909  0.00  0.00    -0.047 A 
ATOM      5  C3  UNL d   1      -0.251  -4.787  -3.663  0.00  0.00    -0.047 A 
ATOM      6  C4  UNL d   1      -0.913  -5.561  -4.593  0.00  0.00    -0.004 A 
ENDROOT
TORSDOF 0
ENDMDL
