MODEL 1
REMARK minimizedAffinity 9.97589779
REMARK minimizedRMSD -1
REMARK  0 active torsions:
REMARK  status: ('A' for Active; 'I' for Inactive)
ROOT
ATOM      1  C   UNL d   1       5.744   2.242  -0.184  0.00  0.00     0.172 C 
ATOM      2  N   UNL d   1       4.449   1.660   0.081  0.00  0.00    -0.070 N 
ATOM      3  C1  UNL d   1       3.776   0.800  -0.745  0.00  0.00    -0.004 A 
ATOM      4  C2  UNL d   1       2.584   0.474  -0.134  0.00  0.00    -0.047 A 
ATOM      5  C3  UNL d   1       2.539   1.164   1.101  0.00  0.00    -0.047 A 
ATOM      6  C4  UNL d   1       3.706   1.890   1.209  0.00  0.00    -0.004 A 
ENDROOT
TORSDOF 0
ENDMDL
