MODEL 1
REMARK minimizedAffinity 9.11709404
REMARK minimizedRMSD -1
REMARK  0 active torsions:
REMARK  status: ('A' for Active; 'I' for Inactive)
ROOT
ATOM      1  C   UNL d   1       2.673   3.287  -3.011  0.00  0.00     0.172 C 
ATOM      2  N   UNL d   1       4.021   3.754  -3.231  0.00  0.00    -0.070 N 
ATOM      3  C1  UNL d   1       4.778   4.461  -2.335  0.00  0.00    -0.004 A 
ATOM      4  C2  UNL d   1       5.999   4.714  -2.921  0.00  0.00    -0.047 A 
ATOM      5  C3  UNL d   1       5.976   4.140  -4.215  0.00  0.00    -0.047 A 
ATOM      6  C4  UNL d   1       4.739   3.552  -4.380  0.00  0.00    -0.004 A 
ENDROOT
TORSDOF 0
ENDMDL
