MODEL 1
REMARK minimizedAffinity 5.99832487
REMARK minimizedRMSD -1
REMARK  0 active torsions:
REMARK  status: ('A' for Active; 'I' for Inactive)
ROOT
ATOM      1  C   UNL d   1       3.324   1.319  -0.534  0.00  0.00     0.172 C 
ATOM      2  N   UNL d   1       3.293   1.945  -1.834  0.00  0.00    -0.070 N 
ATOM      3  C1  UNL d   1       4.348   2.567  -2.447  0.00  0.00    -0.004 A 
ATOM      4  C2  UNL d   1       3.914   3.031  -3.669  0.00  0.00    -0.047 A 
ATOM      5  C3  UNL d   1       2.549   2.676  -3.796  0.00  0.00    -0.047 A 
ATOM      6  C4  UNL d   1       2.191   2.005  -2.646  0.00  0.00    -0.004 A 
ENDROOT
TORSDOF 0
ENDMDL
