MODEL 1
REMARK minimizedAffinity 9.87760258
REMARK minimizedRMSD -1
REMARK  0 active torsions:
REMARK  status: ('A' for Active; 'I' for Inactive)
ROOT
ATOM      1  C   UNL d   1      -1.877   1.330   4.159  0.00  0.00     0.172 C 
ATOM      2  N   UNL d   1      -1.705   0.396   3.071  0.00  0.00    -0.070 N 
ATOM      3  C1  UNL d   1      -2.715  -0.194   2.359  0.00  0.00    -0.004 A 
ATOM      4  C2  UNL d   1      -2.140  -1.014   1.412  0.00  0.00    -0.047 A 
ATOM      5  C3  UNL d   1      -0.737  -0.914   1.561  0.00  0.00    -0.047 A 
ATOM      6  C4  UNL d   1      -0.495  -0.035   2.595  0.00  0.00    -0.004 A 
ENDROOT
TORSDOF 0
ENDMDL
