MODEL 1
REMARK minimizedAffinity 10.2491779
REMARK minimizedRMSD -1
REMARK  0 active torsions:
REMARK  status: ('A' for Active; 'I' for Inactive)
ROOT
ATOM      1  C   UNL d   1      -5.610  -0.768  -2.971  0.00  0.00     0.172 C 
ATOM      2  N   UNL d   1      -5.708   0.021  -1.766  0.00  0.00    -0.070 N 
ATOM      3  C1  UNL d   1      -6.000   1.358  -1.708  0.00  0.00    -0.004 A 
ATOM      4  C2  UNL d   1      -6.000   1.733  -0.382  0.00  0.00    -0.047 A 
ATOM      5  C3  UNL d   1      -5.697   0.582   0.384  0.00  0.00    -0.047 A 
ATOM      6  C4  UNL d   1      -5.521  -0.463  -0.498  0.00  0.00    -0.004 A 
ENDROOT
TORSDOF 0
ENDMDL
