MODEL 1
REMARK minimizedAffinity 8.63052464
REMARK minimizedRMSD -1
REMARK  0 active torsions:
REMARK  status: ('A' for Active; 'I' for Inactive)
ROOT
ATOM      1  C   UNL d   1      -1.906   0.465   4.200  0.00  0.00     0.172 C 
ATOM      2  N   UNL d   1      -1.285  -0.378   3.206  0.00  0.00    -0.070 N 
ATOM      3  C1  UNL d   1      -0.049  -0.959   3.311  0.00  0.00    -0.004 A 
ATOM      4  C2  UNL d   1       0.177  -1.682   2.160  0.00  0.00    -0.047 A 
ATOM      5  C3  UNL d   1      -0.963  -1.531   1.334  0.00  0.00    -0.047 A 
ATOM      6  C4  UNL d   1      -1.852  -0.719   2.006  0.00  0.00    -0.004 A 
ENDROOT
TORSDOF 0
ENDMDL
