MODEL 1
REMARK minimizedAffinity 3.94118166
REMARK minimizedRMSD -1
REMARK  0 active torsions:
REMARK  status: ('A' for Active; 'I' for Inactive)
ROOT
ATOM      1  C   UNL d   1       4.156   3.103  -4.883  0.00  0.00     0.172 C 
ATOM      2  N   UNL d   1       4.759   4.214  -4.185  0.00  0.00    -0.070 N 
ATOM      3  C1  UNL d   1       5.671   5.088  -4.713  0.00  0.00    -0.004 A 
ATOM      4  C2  UNL d   1       5.999   6.000  -3.733  0.00  0.00    -0.047 A 
ATOM      5  C3  UNL d   1       5.259   5.661  -2.575  0.00  0.00    -0.047 A 
ATOM      6  C4  UNL d   1       4.499   4.552  -2.883  0.00  0.00    -0.004 A 
ENDROOT
TORSDOF 0
ENDMDL
