MODEL 1
REMARK minimizedAffinity 6.18278408
REMARK minimizedRMSD -1
REMARK  1 active torsions:
REMARK  status: ('A' for Active; 'I' for Inactive)
REMARK    1  A    between atoms: C1_2  and  C2_3 
ROOT
ATOM      1  C2  UNL d   1      -1.318   1.473  -1.835  0.00  0.00    -0.076 A 
ATOM      2  C3  UNL d   1      -2.723   1.504  -1.852  0.00  0.00     0.004 A 
ATOM      3  C4  UNL d   1      -3.466   0.330  -1.957  0.00  0.00    -0.003 A 
ATOM      4  C5  UNL d   1      -2.816  -0.896  -2.046  0.00  0.00     0.000 A 
ATOM      5  C6  UNL d   1      -1.423  -0.948  -2.013  0.00  0.00     0.000 A 
ATOM      6  C7  UNL d   1      -0.659   0.226  -1.891  0.00  0.00    -0.073 A 
ATOM      7  C8  UNL d   1       0.841   0.112  -1.866  0.00  0.00     0.078 C 
ENDROOT
BRANCH   1   8
ATOM      8  C1  UNL d   1      -0.565   2.781  -1.746  0.00  0.00     0.053 C 
ATOM      9  C   UNL d   1      -0.394   3.259  -0.313  0.00  0.00     0.018 C 
ENDBRANCH   1   8
TORSDOF 1
ENDMDL
