MODEL 1
REMARK minimizedAffinity -4.04088402
REMARK minimizedRMSD -1
REMARK  1 active torsions:
REMARK  status: ('A' for Active; 'I' for Inactive)
REMARK    1  A    between atoms: C1_2  and  C2_3 
ROOT
ATOM      1  C2  UNL d   1       1.862  -3.150  -1.187  0.00  0.00    -0.076 A 
ATOM      2  C3  UNL d   1       0.535  -3.324  -1.616  0.00  0.00     0.004 A 
ATOM      3  C4  UNL d   1       0.054  -2.665  -2.746  0.00  0.00    -0.003 A 
ATOM      4  C5  UNL d   1       0.892  -1.821  -3.466  0.00  0.00     0.000 A 
ATOM      5  C6  UNL d   1       2.217  -1.650  -3.065  0.00  0.00     0.000 A 
ATOM      6  C7  UNL d   1       2.723  -2.320  -1.937  0.00  0.00    -0.073 A 
ATOM      7  C8  UNL d   1       4.157  -2.094  -1.547  0.00  0.00     0.078 C 
ENDROOT
BRANCH   1   8
ATOM      8  C1  UNL d   1       2.321  -3.869   0.062  0.00  0.00     0.053 C 
ATOM      9  C   UNL d   1       2.321  -5.381  -0.104  0.00  0.00     0.018 C 
ENDBRANCH   1   8
TORSDOF 1
ENDMDL
