MODEL 1
REMARK minimizedAffinity 3.34597969
REMARK minimizedRMSD -1
REMARK  1 active torsions:
REMARK  status: ('A' for Active; 'I' for Inactive)
REMARK    1  A    between atoms: C1_2  and  C2_3 
ROOT
ATOM      1  C2  UNL d   1       3.673  -4.965  -1.892  0.00  0.00    -0.076 A 
ATOM      2  C3  UNL d   1       3.004  -3.976  -2.634  0.00  0.00     0.004 A 
ATOM      3  C4  UNL d   1       3.713  -2.985  -3.311  0.00  0.00    -0.003 A 
ATOM      4  C5  UNL d   1       5.103  -2.967  -3.257  0.00  0.00     0.000 A 
ATOM      5  C6  UNL d   1       5.783  -3.951  -2.540  0.00  0.00     0.000 A 
ATOM      6  C7  UNL d   1       5.084  -4.967  -1.865  0.00  0.00    -0.073 A 
ATOM      7  C8  UNL d   1       5.868  -5.999  -1.102  0.00  0.00     0.078 C 
ENDROOT
BRANCH   1   8
ATOM      8  C1  UNL d   1       2.850  -5.998  -1.156  0.00  0.00     0.053 C 
ATOM      9  C   UNL d   1       1.470  -5.483  -0.778  0.00  0.00     0.018 C 
ENDBRANCH   1   8
TORSDOF 1
ENDMDL
