MODEL 1
REMARK minimizedAffinity 8.73648548
REMARK minimizedRMSD -1
REMARK  1 active torsions:
REMARK  status: ('A' for Active; 'I' for Inactive)
REMARK    1  A    between atoms: C1_2  and  C2_3 
ROOT
ATOM      1  C2  UNL d   1       4.223  -2.119  -1.535  0.00  0.00    -0.076 A 
ATOM      2  C3  UNL d   1       3.756  -1.416  -2.659  0.00  0.00     0.004 A 
ATOM      3  C4  UNL d   1       4.107  -1.810  -3.949  0.00  0.00    -0.003 A 
ATOM      4  C5  UNL d   1       4.931  -2.915  -4.136  0.00  0.00     0.000 A 
ATOM      5  C6  UNL d   1       5.390  -3.634  -3.033  0.00  0.00     0.000 A 
ATOM      6  C7  UNL d   1       5.031  -3.259  -1.726  0.00  0.00    -0.073 A 
ATOM      7  C8  UNL d   1       5.559  -4.068  -0.573  0.00  0.00     0.078 C 
ENDROOT
BRANCH   1   8
ATOM      8  C1  UNL d   1       3.831  -1.628  -0.160  0.00  0.00     0.053 C 
ATOM      9  C   UNL d   1       2.418  -2.039   0.225  0.00  0.00     0.018 C 
ENDBRANCH   1   8
TORSDOF 1
ENDMDL
