MODEL 1
REMARK minimizedAffinity -1.33408308
REMARK minimizedRMSD -1
REMARK  1 active torsions:
REMARK  status: ('A' for Active; 'I' for Inactive)
REMARK    1  A    between atoms: C1_2  and  C2_3 
ROOT
ATOM      1  C2  UNL d   1       4.719  -3.333  -1.794  0.00  0.00    -0.076 A 
ATOM      2  C3  UNL d   1       4.164  -2.813  -2.976  0.00  0.00     0.004 A 
ATOM      3  C4  UNL d   1       3.858  -3.645  -4.052  0.00  0.00    -0.003 A 
ATOM      4  C5  UNL d   1       4.101  -5.011  -3.963  0.00  0.00     0.000 A 
ATOM      5  C6  UNL d   1       4.635  -5.547  -2.791  0.00  0.00     0.000 A 
ATOM      6  C7  UNL d   1       4.934  -4.724  -1.692  0.00  0.00    -0.073 A 
ATOM      7  C8  UNL d   1       5.514  -5.355  -0.455  0.00  0.00     0.078 C 
ENDROOT
BRANCH   1   8
ATOM      8  C1  UNL d   1       5.055  -2.379  -0.671  0.00  0.00     0.053 C 
ATOM      9  C   UNL d   1       3.816  -1.839   0.026  0.00  0.00     0.018 C 
ENDBRANCH   1   8
TORSDOF 1
ENDMDL
