MODEL 1
REMARK minimizedAffinity 5.38095188
REMARK minimizedRMSD -1
REMARK  1 active torsions:
REMARK  status: ('A' for Active; 'I' for Inactive)
REMARK    1  A    between atoms: C1_2  and  C2_3 
ROOT
ATOM      1  C2  UNL d   1       3.265  -3.980  -2.070  0.00  0.00    -0.076 A 
ATOM      2  C3  UNL d   1       3.824  -5.268  -2.149  0.00  0.00     0.004 A 
ATOM      3  C4  UNL d   1       4.891  -5.535  -3.005  0.00  0.00    -0.003 A 
ATOM      4  C5  UNL d   1       5.417  -4.519  -3.796  0.00  0.00     0.000 A 
ATOM      5  C6  UNL d   1       4.886  -3.232  -3.717  0.00  0.00     0.000 A 
ATOM      6  C7  UNL d   1       3.821  -2.942  -2.848  0.00  0.00    -0.073 A 
ATOM      7  C8  UNL d   1       3.284  -1.538  -2.808  0.00  0.00     0.078 C 
ENDROOT
BRANCH   1   8
ATOM      8  C1  UNL d   1       2.091  -3.756  -1.144  0.00  0.00     0.053 C 
ATOM      9  C   UNL d   1       1.109  -4.917  -1.157  0.00  0.00     0.018 C 
ENDBRANCH   1   8
TORSDOF 1
ENDMDL
