MODEL 1
REMARK minimizedAffinity 8.97351551
REMARK minimizedRMSD -1
REMARK  1 active torsions:
REMARK  status: ('A' for Active; 'I' for Inactive)
REMARK    1  A    between atoms: C1_2  and  C2_3 
ROOT
ATOM      1  C2  UNL d   1      -2.344   2.479  -1.958  0.00  0.00    -0.076 A 
ATOM      2  C3  UNL d   1      -1.272   2.022  -1.172  0.00  0.00     0.004 A 
ATOM      3  C4  UNL d   1      -0.228   2.875  -0.817  0.00  0.00    -0.003 A 
ATOM      4  C5  UNL d   1      -0.240   4.199  -1.241  0.00  0.00     0.000 A 
ATOM      5  C6  UNL d   1      -1.305   4.675  -2.005  0.00  0.00     0.000 A 
ATOM      6  C7  UNL d   1      -2.373   3.832  -2.359  0.00  0.00    -0.073 A 
ATOM      7  C8  UNL d   1      -3.493   4.396  -3.190  0.00  0.00     0.078 C 
ENDROOT
BRANCH   1   8
ATOM      8  C1  UNL d   1      -3.434   1.502  -2.335  0.00  0.00     0.053 C 
ATOM      9  C   UNL d   1      -3.858   0.623  -1.168  0.00  0.00     0.018 C 
ENDBRANCH   1   8
TORSDOF 1
ENDMDL
