MODEL 1
REMARK minimizedAffinity -6.34305525
REMARK minimizedRMSD -1
REMARK  0 active torsions:
REMARK  status: ('A' for Active; 'I' for Inactive)
ROOT
ATOM      1  C1  DEN d   1       1.185   3.116   0.323  0.00  0.00     0.130 A 
ATOM      2  C2  DEN d   1       2.582   2.946  -0.066  0.00  0.00    -0.031 A 
ATOM      3  C3  DEN d   1       2.828   1.503  -0.265  0.00  0.00     0.027 A 
ATOM      4  C4  DEN d   1       1.189  -0.472  -0.015  0.00  0.00     0.027 A 
ATOM      5  C5  DEN d   1      -0.103  -0.825   0.308  0.00  0.00    -0.003 A 
ATOM      6  C6  DEN d   1      -1.039   0.100   0.689  0.00  0.00     0.001 A 
ATOM      7  C7  DEN d   1      -0.709   1.429   0.712  0.00  0.00     0.017 A 
ATOM      8  C8  DEN d   1       0.593   1.792   0.395  0.00  0.00    -0.094 A 
ATOM      9  C9  DEN d   1       1.521   0.843   0.000  0.00  0.00    -0.072 A 
ENDROOT
TORSDOF 0
ENDMDL
