MODEL 1
REMARK minimizedAffinity -4.61620426
REMARK minimizedRMSD -1
REMARK  0 active torsions:
REMARK  status: ('A' for Active; 'I' for Inactive)
ROOT
ATOM      1  C1  DEN d   1       0.914  -0.569   0.208  0.00  0.00     0.130 A 
ATOM      2  C2  DEN d   1      -0.404  -1.156   0.436  0.00  0.00    -0.031 A 
ATOM      3  C3  DEN d   1      -1.368  -0.053   0.621  0.00  0.00     0.027 A 
ATOM      4  C4  DEN d   1      -0.952   2.492   0.570  0.00  0.00     0.027 A 
ATOM      5  C5  DEN d   1       0.006   3.470   0.421  0.00  0.00    -0.003 A 
ATOM      6  C6  DEN d   1       1.329   3.173   0.226  0.00  0.00     0.001 A 
ATOM      7  C7  DEN d   1       1.723   1.864   0.129  0.00  0.00     0.017 A 
ATOM      8  C8  DEN d   1       0.764   0.873   0.286  0.00  0.00    -0.094 A 
ATOM      9  C9  DEN d   1      -0.570   1.194   0.470  0.00  0.00    -0.072 A 
ENDROOT
TORSDOF 0
ENDMDL
