MODEL 1
REMARK minimizedAffinity -6.21453762
REMARK minimizedRMSD -1
REMARK  0 active torsions:
REMARK  status: ('A' for Active; 'I' for Inactive)
ROOT
ATOM      1  C1  DEN d   1       0.873  -0.769  -0.009  0.00  0.00     0.130 A 
ATOM      2  C2  DEN d   1      -0.577  -0.942  -0.051  0.00  0.00    -0.031 A 
ATOM      3  C3  DEN d   1      -1.198   0.396   0.024  0.00  0.00     0.027 A 
ATOM      4  C4  DEN d   1      -0.062   2.705   0.194  0.00  0.00     0.027 A 
ATOM      5  C5  DEN d   1       1.149   3.358   0.273  0.00  0.00    -0.003 A 
ATOM      6  C6  DEN d   1       2.341   2.684   0.297  0.00  0.00     0.001 A 
ATOM      7  C7  DEN d   1       2.351   1.318   0.197  0.00  0.00     0.017 A 
ATOM      8  C8  DEN d   1       1.134   0.653   0.124  0.00  0.00    -0.094 A 
ATOM      9  C9  DEN d   1      -0.060   1.352   0.089  0.00  0.00    -0.072 A 
ENDROOT
TORSDOF 0
ENDMDL
