MODEL 1
REMARK minimizedAffinity -5.03374147
REMARK minimizedRMSD -1
REMARK  0 active torsions:
REMARK  status: ('A' for Active; 'I' for Inactive)
ROOT
ATOM      1  C1  DEN d   1      -1.233  -0.309   0.285  0.00  0.00     0.130 A 
ATOM      2  C2  DEN d   1      -0.451  -1.481  -0.099  0.00  0.00    -0.031 A 
ATOM      3  C3  DEN d   1       0.962  -1.069  -0.214  0.00  0.00     0.027 A 
ATOM      4  C4  DEN d   1       2.011   1.256   0.166  0.00  0.00     0.027 A 
ATOM      5  C5  DEN d   1       1.745   2.568   0.494  0.00  0.00    -0.003 A 
ATOM      6  C6  DEN d   1       0.475   3.016   0.739  0.00  0.00     0.001 A 
ATOM      7  C7  DEN d   1      -0.574   2.135   0.705  0.00  0.00     0.017 A 
ATOM      8  C8  DEN d   1      -0.315   0.813   0.368  0.00  0.00    -0.094 A 
ATOM      9  C9  DEN d   1       0.978   0.377   0.136  0.00  0.00    -0.072 A 
ENDROOT
TORSDOF 0
ENDMDL
