MODEL 1
REMARK minimizedAffinity -4.47604132
REMARK minimizedRMSD -1
REMARK  0 active torsions:
REMARK  status: ('A' for Active; 'I' for Inactive)
ROOT
ATOM      1  C1  DEN d   1       2.463   0.923   0.510  0.00  0.00     0.130 A 
ATOM      2  C2  DEN d   1       3.199   2.172   0.687  0.00  0.00    -0.031 A 
ATOM      3  C3  DEN d   1       2.222   3.279   0.699  0.00  0.00     0.027 A 
ATOM      4  C4  DEN d   1      -0.345   3.180   0.467  0.00  0.00     0.027 A 
ATOM      5  C5  DEN d   1      -1.425   2.344   0.285  0.00  0.00    -0.003 A 
ATOM      6  C6  DEN d   1      -1.282   0.991   0.133  0.00  0.00     0.001 A 
ATOM      7  C7  DEN d   1      -0.036   0.427   0.205  0.00  0.00     0.017 A 
ATOM      8  C8  DEN d   1       1.058   1.264   0.381  0.00  0.00    -0.094 A 
ATOM      9  C9  DEN d   1       0.892   2.629   0.545  0.00  0.00    -0.072 A 
ENDROOT
TORSDOF 0
ENDMDL
