MODEL 1
REMARK minimizedAffinity -5.67101669
REMARK minimizedRMSD -1
REMARK  0 active torsions:
REMARK  status: ('A' for Active; 'I' for Inactive)
ROOT
ATOM      1  C1  DEN d   1       0.400  -0.264   0.366  0.00  0.00     0.130 A 
ATOM      2  C2  DEN d   1      -1.029  -0.538   0.245  0.00  0.00    -0.031 A 
ATOM      3  C3  DEN d   1      -1.731   0.753   0.101  0.00  0.00     0.027 A 
ATOM      4  C4  DEN d   1      -0.748   3.137   0.048  0.00  0.00     0.027 A 
ATOM      5  C5  DEN d   1       0.413   3.875   0.127  0.00  0.00    -0.003 A 
ATOM      6  C6  DEN d   1       1.637   3.292   0.323  0.00  0.00     0.001 A 
ATOM      7  C7  DEN d   1       1.734   1.927   0.402  0.00  0.00     0.017 A 
ATOM      8  C8  DEN d   1       0.567   1.178   0.331  0.00  0.00    -0.094 A 
ATOM      9  C9  DEN d   1      -0.659   1.785   0.120  0.00  0.00    -0.072 A 
ENDROOT
TORSDOF 0
ENDMDL
