MODEL 1
REMARK minimizedAffinity -3.92186904
REMARK minimizedRMSD -1
REMARK  0 active torsions:
REMARK  status: ('A' for Active; 'I' for Inactive)
ROOT
ATOM      1  C1  DEN d   1      -0.597  -1.214   0.404  0.00  0.00     0.130 A 
ATOM      2  C2  DEN d   1       0.776  -1.469  -0.024  0.00  0.00    -0.031 A 
ATOM      3  C3  DEN d   1       1.454  -0.166  -0.182  0.00  0.00     0.027 A 
ATOM      4  C4  DEN d   1       0.518   2.207   0.197  0.00  0.00     0.027 A 
ATOM      5  C5  DEN d   1      -0.600   2.929   0.554  0.00  0.00    -0.003 A 
ATOM      6  C6  DEN d   1      -1.794   2.327   0.850  0.00  0.00     0.001 A 
ATOM      7  C7  DEN d   1      -1.887   0.961   0.839  0.00  0.00     0.017 A 
ATOM      8  C8  DEN d   1      -0.767   0.226   0.473  0.00  0.00    -0.094 A 
ATOM      9  C9  DEN d   1       0.435   0.852   0.189  0.00  0.00    -0.072 A 
ENDROOT
TORSDOF 0
ENDMDL
