MODEL 1
REMARK minimizedAffinity -3.50503612
REMARK minimizedRMSD -1
REMARK  0 active torsions:
REMARK  status: ('A' for Active; 'I' for Inactive)
ROOT
ATOM      1  C1  DEN d   1       0.697  -0.425  -0.261  0.00  0.00     0.130 A 
ATOM      2  C2  DEN d   1      -0.268  -0.976   0.686  0.00  0.00    -0.031 A 
ATOM      3  C3  DEN d   1      -1.028   0.148   1.269  0.00  0.00     0.027 A 
ATOM      4  C4  DEN d   1      -0.809   2.674   0.795  0.00  0.00     0.027 A 
ATOM      5  C5  DEN d   1      -0.121   3.625   0.075  0.00  0.00    -0.003 A 
ATOM      6  C6  DEN d   1       0.903   3.299  -0.774  0.00  0.00     0.001 A 
ATOM      7  C7  DEN d   1       1.238   1.984  -0.960  0.00  0.00     0.017 A 
ATOM      8  C8  DEN d   1       0.553   1.019  -0.232  0.00  0.00    -0.094 A 
ATOM      9  C9  DEN d   1      -0.487   1.368   0.612  0.00  0.00    -0.072 A 
ENDROOT
TORSDOF 0
ENDMDL
