MODEL 1
REMARK minimizedAffinity -3.21651793
REMARK minimizedRMSD -1
REMARK  0 active torsions:
REMARK  status: ('A' for Active; 'I' for Inactive)
ROOT
ATOM      1  C1  DEN d   1      -1.456   0.255   1.060  0.00  0.00     0.130 A 
ATOM      2  C2  DEN d   1      -0.973  -1.005   0.500  0.00  0.00    -0.031 A 
ATOM      3  C3  DEN d   1       0.308  -0.739  -0.184  0.00  0.00     0.027 A 
ATOM      4  C4  DEN d   1       1.587   1.488  -0.426  0.00  0.00     0.027 A 
ATOM      5  C5  DEN d   1       1.566   2.832  -0.128  0.00  0.00    -0.003 A 
ATOM      6  C6  DEN d   1       0.528   3.414   0.551  0.00  0.00     0.001 A 
ATOM      7  C7  DEN d   1      -0.511   2.639   0.995  0.00  0.00     0.017 A 
ATOM      8  C8  DEN d   1      -0.500   1.284   0.692  0.00  0.00    -0.094 A 
ATOM      9  C9  DEN d   1       0.564   0.713   0.015  0.00  0.00    -0.072 A 
ENDROOT
TORSDOF 0
ENDMDL
