MODEL 1
REMARK minimizedAffinity -6.92594099
REMARK minimizedRMSD -1
REMARK  0 active torsions:
REMARK  status: ('A' for Active; 'I' for Inactive)
ROOT
ATOM      1  C1  DEN d   1      -1.038   0.731   0.410  0.00  0.00     0.130 A 
ATOM      2  C2  DEN d   1      -0.370  -0.560   0.267  0.00  0.00    -0.031 A 
ATOM      3  C3  DEN d   1       1.074  -0.310   0.091  0.00  0.00     0.027 A 
ATOM      4  C4  DEN d   1       2.336   1.939   0.030  0.00  0.00     0.027 A 
ATOM      5  C5  DEN d   1       2.194   3.307   0.096  0.00  0.00    -0.003 A 
ATOM      6  C6  DEN d   1       0.972   3.909   0.237  0.00  0.00     0.001 A 
ATOM      7  C7  DEN d   1      -0.154   3.139   0.361  0.00  0.00     0.017 A 
ATOM      8  C8  DEN d   1      -0.020   1.758   0.287  0.00  0.00    -0.094 A 
ATOM      9  C9  DEN d   1       1.226   1.169   0.157  0.00  0.00    -0.072 A 
ENDROOT
TORSDOF 0
ENDMDL
