MODEL 1
REMARK minimizedAffinity -5.74622822
REMARK minimizedRMSD -1
REMARK  0 active torsions:
REMARK  status: ('A' for Active; 'I' for Inactive)
ROOT
ATOM      1  C1  DEN d   1      -1.379   0.363   0.279  0.00  0.00     0.130 A 
ATOM      2  C2  DEN d   1      -0.766  -0.899  -0.129  0.00  0.00    -0.031 A 
ATOM      3  C3  DEN d   1       0.679  -0.663  -0.322  0.00  0.00     0.027 A 
ATOM      4  C4  DEN d   1       2.020   1.520  -0.027  0.00  0.00     0.027 A 
ATOM      5  C5  DEN d   1       1.933   2.856   0.296  0.00  0.00    -0.003 A 
ATOM      6  C6  DEN d   1       0.741   3.458   0.600  0.00  0.00     0.001 A 
ATOM      7  C7  DEN d   1      -0.407   2.711   0.632  0.00  0.00     0.017 A 
ATOM      8  C8  DEN d   1      -0.329   1.365   0.300  0.00  0.00    -0.094 A 
ATOM      9  C9  DEN d   1       0.888   0.773   0.008  0.00  0.00    -0.072 A 
ENDROOT
TORSDOF 0
ENDMDL
