MODEL 1
REMARK minimizedAffinity -5.13580036
REMARK minimizedRMSD -1
REMARK  0 active torsions:
REMARK  status: ('A' for Active; 'I' for Inactive)
ROOT
ATOM      1  C1  DEN d   1       0.779  -0.439  -0.077  0.00  0.00     0.130 A 
ATOM      2  C2  DEN d   1      -0.679  -0.526  -0.065  0.00  0.00    -0.031 A 
ATOM      3  C3  DEN d   1      -1.218   0.847  -0.136  0.00  0.00     0.027 A 
ATOM      4  C4  DEN d   1       0.055   3.086  -0.266  0.00  0.00     0.027 A 
ATOM      5  C5  DEN d   1       1.303   3.668  -0.292  0.00  0.00    -0.003 A 
ATOM      6  C6  DEN d   1       2.455   2.930  -0.215  0.00  0.00     0.001 A 
ATOM      7  C7  DEN d   1       2.382   1.563  -0.153  0.00  0.00     0.017 A 
ATOM      8  C8  DEN d   1       1.127   0.970  -0.118  0.00  0.00    -0.094 A 
ATOM      9  C9  DEN d   1      -0.025   1.733  -0.210  0.00  0.00    -0.072 A 
ENDROOT
TORSDOF 0
ENDMDL
