MODEL 1
REMARK minimizedAffinity -6.16606998
REMARK minimizedRMSD -1
REMARK  0 active torsions:
REMARK  status: ('A' for Active; 'I' for Inactive)
ROOT
ATOM      1  C1  DEN d   1      -1.678   0.640  -0.053  0.00  0.00     0.130 A 
ATOM      2  C2  DEN d   1      -0.922  -0.600   0.097  0.00  0.00    -0.031 A 
ATOM      3  C3  DEN d   1       0.500  -0.248   0.282  0.00  0.00     0.027 A 
ATOM      4  C4  DEN d   1       1.598   2.085   0.357  0.00  0.00     0.027 A 
ATOM      5  C5  DEN d   1       1.363   3.439   0.265  0.00  0.00    -0.003 A 
ATOM      6  C6  DEN d   1       0.114   3.950   0.029  0.00  0.00     0.001 A 
ATOM      7  C7  DEN d   1      -0.956   3.102  -0.079  0.00  0.00     0.017 A 
ATOM      8  C8  DEN d   1      -0.727   1.735   0.005  0.00  0.00    -0.094 A 
ATOM      9  C9  DEN d   1       0.541   1.239   0.257  0.00  0.00    -0.072 A 
ENDROOT
TORSDOF 0
ENDMDL
