MODEL 1
REMARK minimizedAffinity -5.25419188
REMARK minimizedRMSD -1
REMARK  0 active torsions:
REMARK  status: ('A' for Active; 'I' for Inactive)
ROOT
ATOM      1  C1  DEN d   1      -1.704   0.602   0.386  0.00  0.00     0.130 A 
ATOM      2  C2  DEN d   1      -1.149  -0.735   0.194  0.00  0.00    -0.031 A 
ATOM      3  C3  DEN d   1       0.272  -0.589  -0.183  0.00  0.00     0.027 A 
ATOM      4  C4  DEN d   1       1.658   1.565  -0.481  0.00  0.00     0.027 A 
ATOM      5  C5  DEN d   1       1.618   2.941  -0.437  0.00  0.00    -0.003 A 
ATOM      6  C6  DEN d   1       0.468   3.629  -0.152  0.00  0.00     0.001 A 
ATOM      7  C7  DEN d   1      -0.678   2.941   0.146  0.00  0.00     0.017 A 
ATOM      8  C8  DEN d   1      -0.647   1.554   0.097  0.00  0.00    -0.094 A 
ATOM      9  C9  DEN d   1       0.528   0.877  -0.182  0.00  0.00    -0.072 A 
ENDROOT
TORSDOF 0
ENDMDL
