MODEL 1
REMARK minimizedAffinity 10.4789991
REMARK minimizedRMSD -1
REMARK  0 active torsions:
REMARK  status: ('A' for Active; 'I' for Inactive)
ROOT
ATOM      1  C   UNL d   1      -5.480  -2.364  -5.976  0.00  0.00     0.023 A 
ATOM      2  C1  UNL d   1      -4.889  -3.627  -5.993  0.00  0.00     0.003 A 
ATOM      3  C2  UNL d   1      -3.498  -3.749  -5.999  0.00  0.00     0.048 A 
ATOM      4  C3  UNL d   1      -2.704  -2.603  -5.988  0.00  0.00     0.023 A 
ATOM      5  C4  UNL d   1      -3.291  -1.336  -5.970  0.00  0.00     0.048 A 
ATOM      6  C5  UNL d   1      -4.682  -1.220  -5.965  0.00  0.00     0.003 A 
ATOM      7  I   UNL d   1      -0.633  -2.781  -5.997  0.00  0.00    -0.146 I 
ENDROOT
TORSDOF 0
ENDMDL
