MODEL 1
REMARK minimizedAffinity 10.5124264
REMARK minimizedRMSD -1
REMARK  0 active torsions:
REMARK  status: ('A' for Active; 'I' for Inactive)
ROOT
ATOM      1  C   UNL d   1      -5.400   1.031   1.664  0.00  0.00     0.023 A 
ATOM      2  C1  UNL d   1      -4.696   0.655   0.520  0.00  0.00     0.003 A 
ATOM      3  C2  UNL d   1      -3.314   0.467   0.579  0.00  0.00     0.048 A 
ATOM      4  C3  UNL d   1      -2.641   0.656   1.786  0.00  0.00     0.023 A 
ATOM      5  C4  UNL d   1      -3.341   1.032   2.933  0.00  0.00     0.048 A 
ATOM      6  C5  UNL d   1      -4.723   1.219   2.869  0.00  0.00     0.003 A 
ATOM      7  I   UNL d   1      -0.584   0.377   1.876  0.00  0.00    -0.146 I 
ENDROOT
TORSDOF 0
ENDMDL
