MODEL 1
REMARK minimizedAffinity 12.947484
REMARK minimizedRMSD -1
REMARK  0 active torsions:
REMARK  status: ('A' for Active; 'I' for Inactive)
ROOT
ATOM      1  C   UNL d   1       5.995  -3.557   4.797  0.00  0.00     0.023 A 
ATOM      2  C1  UNL d   1       6.000  -2.317   5.435  0.00  0.00     0.003 A 
ATOM      3  C2  UNL d   1       5.827  -1.147   4.692  0.00  0.00     0.048 A 
ATOM      4  C3  UNL d   1       5.648  -1.225   3.312  0.00  0.00     0.023 A 
ATOM      5  C4  UNL d   1       5.642  -2.464   2.669  0.00  0.00     0.048 A 
ATOM      6  C5  UNL d   1       5.816  -3.631   3.416  0.00  0.00     0.003 A 
ATOM      7  I   UNL d   1       5.391   0.514   2.204  0.00  0.00    -0.146 I 
ENDROOT
TORSDOF 0
ENDMDL
