MODEL 1
REMARK minimizedAffinity 7.35271406
REMARK minimizedRMSD -1
REMARK  0 active torsions:
REMARK  status: ('A' for Active; 'I' for Inactive)
ROOT
ATOM      1  C   UNL d   1      -5.693   0.494   1.961  0.00  0.00     0.023 A 
ATOM      2  C1  UNL d   1      -4.973   1.397   1.179  0.00  0.00     0.003 A 
ATOM      3  C2  UNL d   1      -3.641   1.682   1.488  0.00  0.00     0.048 A 
ATOM      4  C3  UNL d   1      -3.036   1.059   2.579  0.00  0.00     0.023 A 
ATOM      5  C4  UNL d   1      -3.753   0.154   3.363  0.00  0.00     0.048 A 
ATOM      6  C5  UNL d   1      -5.084  -0.127   3.051  0.00  0.00     0.003 A 
ATOM      7  I   UNL d   1      -1.054   1.481   3.040  0.00  0.00    -0.146 I 
ENDROOT
TORSDOF 0
ENDMDL
