MODEL 1
REMARK minimizedAffinity 9.83840466
REMARK minimizedRMSD -1
REMARK  0 active torsions:
REMARK  status: ('A' for Active; 'I' for Inactive)
ROOT
ATOM      1  C   UNL d   1      -3.016  -2.043  -6.000  0.00  0.00     0.023 A 
ATOM      2  C1  UNL d   1      -1.826  -2.772  -6.000  0.00  0.00     0.003 A 
ATOM      3  C2  UNL d   1      -0.662  -2.211  -5.470  0.00  0.00     0.048 A 
ATOM      4  C3  UNL d   1      -0.695  -0.921  -4.941  0.00  0.00     0.023 A 
ATOM      5  C4  UNL d   1      -1.884  -0.188  -4.939  0.00  0.00     0.048 A 
ATOM      6  C5  UNL d   1      -3.044  -0.753  -5.470  0.00  0.00     0.003 A 
ATOM      7  I   UNL d   1       1.035  -0.083  -4.152  0.00  0.00    -0.146 I 
ENDROOT
TORSDOF 0
ENDMDL
