MODEL 1
REMARK minimizedAffinity 1.50140822
REMARK minimizedRMSD -1
REMARK  0 active torsions:
REMARK  status: ('A' for Active; 'I' for Inactive)
ROOT
ATOM      1  C   UNL d   1      -2.948   0.809   1.494  0.00  0.00     0.023 A 
ATOM      2  C1  UNL d   1      -1.632   0.381   1.672  0.00  0.00     0.003 A 
ATOM      3  C2  UNL d   1      -1.284  -0.944   1.400  0.00  0.00     0.048 A 
ATOM      4  C3  UNL d   1      -2.257  -1.836   0.949  0.00  0.00     0.023 A 
ATOM      5  C4  UNL d   1      -3.575  -1.412   0.769  0.00  0.00     0.048 A 
ATOM      6  C5  UNL d   1      -3.918  -0.086   1.043  0.00  0.00     0.003 A 
ATOM      7  I   UNL d   1      -1.742  -3.808   0.544  0.00  0.00    -0.146 I 
ENDROOT
TORSDOF 0
ENDMDL
