MODEL 1
REMARK minimizedAffinity 0.233108416
REMARK minimizedRMSD -1
REMARK  0 active torsions:
REMARK  status: ('A' for Active; 'I' for Inactive)
ROOT
ATOM      1  C   UNL d   1      -4.737   1.122   1.654  0.00  0.00     0.023 A 
ATOM      2  C1  UNL d   1      -3.734   0.610   0.830  0.00  0.00     0.003 A 
ATOM      3  C2  UNL d   1      -2.398   0.679   1.229  0.00  0.00     0.048 A 
ATOM      4  C3  UNL d   1      -2.071   1.261   2.454  0.00  0.00     0.023 A 
ATOM      5  C4  UNL d   1      -3.071   1.773   3.282  0.00  0.00     0.048 A 
ATOM      6  C5  UNL d   1      -4.406   1.703   2.878  0.00  0.00     0.003 A 
ATOM      7  I   UNL d   1      -0.083   1.365   3.050  0.00  0.00    -0.146 I 
ENDROOT
TORSDOF 0
ENDMDL
