MODEL 1
REMARK minimizedAffinity 9.24133587
REMARK minimizedRMSD -1
REMARK  0 active torsions:
REMARK  status: ('A' for Active; 'I' for Inactive)
ROOT
ATOM      1  C   UNL d   1      -4.166   0.752   1.344  0.00  0.00     0.023 A 
ATOM      2  C1  UNL d   1      -3.933   1.469   2.517  0.00  0.00     0.003 A 
ATOM      3  C2  UNL d   1      -2.633   1.603   3.009  0.00  0.00     0.048 A 
ATOM      4  C3  UNL d   1      -1.570   1.018   2.321  0.00  0.00     0.023 A 
ATOM      5  C4  UNL d   1      -1.798   0.300   1.146  0.00  0.00     0.048 A 
ATOM      6  C5  UNL d   1      -3.100   0.168   0.659  0.00  0.00     0.003 A 
ATOM      7  I   UNL d   1       0.366   1.216   3.050  0.00  0.00    -0.146 I 
ENDROOT
TORSDOF 0
ENDMDL
