MODEL 1
REMARK minimizedAffinity 4.12450266
REMARK minimizedRMSD -1
REMARK  0 active torsions:
REMARK  status: ('A' for Active; 'I' for Inactive)
ROOT
ATOM      1  C   UNL d   1      -2.467   0.145   0.814  0.00  0.00     0.023 A 
ATOM      2  C1  UNL d   1      -3.849  -0.009   0.708  0.00  0.00     0.003 A 
ATOM      3  C2  UNL d   1      -4.668   0.239   1.811  0.00  0.00     0.048 A 
ATOM      4  C3  UNL d   1      -4.097   0.642   3.018  0.00  0.00     0.023 A 
ATOM      5  C4  UNL d   1      -2.715   0.798   3.129  0.00  0.00     0.048 A 
ATOM      6  C5  UNL d   1      -1.900   0.548   2.023  0.00  0.00     0.003 A 
ATOM      7  I   UNL d   1      -5.313   1.012   4.663  0.00  0.00    -0.146 I 
ENDROOT
TORSDOF 0
ENDMDL
