MODEL 1
REMARK minimizedAffinity 13.6371975
REMARK minimizedRMSD -1
REMARK  0 active torsions:
REMARK  status: ('A' for Active; 'I' for Inactive)
ROOT
ATOM      1  C   UNL d   1       5.524  -0.178   2.077  0.00  0.00     0.023 A 
ATOM      2  C1  UNL d   1       4.808   0.607   1.173  0.00  0.00     0.003 A 
ATOM      3  C2  UNL d   1       3.481   0.951   1.443  0.00  0.00     0.048 A 
ATOM      4  C3  UNL d   1       2.877   0.506   2.619  0.00  0.00     0.023 A 
ATOM      5  C4  UNL d   1       3.590  -0.279   3.526  0.00  0.00     0.048 A 
ATOM      6  C5  UNL d   1       4.916  -0.620   3.252  0.00  0.00     0.003 A 
ATOM      7  I   UNL d   1       0.903   1.017   3.022  0.00  0.00    -0.146 I 
ENDROOT
TORSDOF 0
ENDMDL
