MODEL 1
REMARK minimizedAffinity 10.3926172
REMARK minimizedRMSD -1
REMARK  0 active torsions:
REMARK  status: ('A' for Active; 'I' for Inactive)
ROOT
ATOM      1  C   UNL d   1      -1.875   0.121   1.047  0.00  0.00     0.023 A 
ATOM      2  C1  UNL d   1      -1.698  -0.034   2.422  0.00  0.00     0.003 A 
ATOM      3  C2  UNL d   1      -2.746   0.251   3.299  0.00  0.00     0.048 A 
ATOM      4  C3  UNL d   1      -3.970   0.689   2.794  0.00  0.00     0.023 A 
ATOM      5  C4  UNL d   1      -4.153   0.844   1.419  0.00  0.00     0.048 A 
ATOM      6  C5  UNL d   1      -3.101   0.559   0.546  0.00  0.00     0.003 A 
ATOM      7  I   UNL d   1      -5.533   1.113   4.097  0.00  0.00    -0.146 I 
ENDROOT
TORSDOF 0
ENDMDL
