MODEL 1
REMARK minimizedAffinity 0.304943889
REMARK minimizedRMSD -1
REMARK  0 active torsions:
REMARK  status: ('A' for Active; 'I' for Inactive)
ROOT
ATOM      1  C   UNL d   1      -2.885   0.381   1.497  0.00  0.00     0.023 A 
ATOM      2  C1  UNL d   1      -4.006   1.029   0.980  0.00  0.00     0.003 A 
ATOM      3  C2  UNL d   1      -4.902   1.670   1.839  0.00  0.00     0.048 A 
ATOM      4  C3  UNL d   1      -4.669   1.659   3.214  0.00  0.00     0.023 A 
ATOM      5  C4  UNL d   1      -3.548   1.011   3.736  0.00  0.00     0.048 A 
ATOM      6  C5  UNL d   1      -2.656   0.372   2.873  0.00  0.00     0.003 A 
ATOM      7  I   UNL d   1      -6.000   2.611   4.495  0.00  0.00    -0.146 I 
ENDROOT
TORSDOF 0
ENDMDL
