MODEL 1
REMARK minimizedAffinity 4.81208944
REMARK minimizedRMSD -1
REMARK  0 active torsions:
REMARK  status: ('A' for Active; 'I' for Inactive)
ROOT
ATOM      1  C   UNL d   1      -4.572   0.582   1.275  0.00  0.00     0.023 A 
ATOM      2  C1  UNL d   1      -4.632   0.796   2.652  0.00  0.00     0.003 A 
ATOM      3  C2  UNL d   1      -4.995  -0.247   3.507  0.00  0.00     0.048 A 
ATOM      4  C3  UNL d   1      -5.296  -1.501   2.978  0.00  0.00     0.023 A 
ATOM      5  C4  UNL d   1      -5.237  -1.720   1.601  0.00  0.00     0.048 A 
ATOM      6  C5  UNL d   1      -4.874  -0.675   0.750  0.00  0.00     0.003 A 
ATOM      7  I   UNL d   1      -5.837  -3.055   4.248  0.00  0.00    -0.146 I 
ENDROOT
TORSDOF 0
ENDMDL
