MODEL 1
REMARK minimizedAffinity 5.57505035
REMARK minimizedRMSD -1
REMARK  0 active torsions:
REMARK  status: ('A' for Active; 'I' for Inactive)
ROOT
ATOM      1  C   UNL d   1      -1.157   1.405   2.372  0.00  0.00     0.023 A 
ATOM      2  C1  UNL d   1      -0.914   0.057   2.108  0.00  0.00     0.003 A 
ATOM      3  C2  UNL d   1      -1.935  -0.753   1.607  0.00  0.00     0.048 A 
ATOM      4  C3  UNL d   1      -3.197  -0.208   1.372  0.00  0.00     0.023 A 
ATOM      5  C4  UNL d   1      -3.445   1.140   1.634  0.00  0.00     0.048 A 
ATOM      6  C5  UNL d   1      -2.421   1.946   2.135  0.00  0.00     0.003 A 
ATOM      7  I   UNL d   1      -4.719  -1.412   0.626  0.00  0.00    -0.146 I 
ENDROOT
TORSDOF 0
ENDMDL
