MODEL 1
REMARK minimizedAffinity 8.83564854
REMARK minimizedRMSD -1
REMARK  0 active torsions:
REMARK  status: ('A' for Active; 'I' for Inactive)
ROOT
ATOM      1  C   UNL d   1      -4.500  -2.003   0.046  0.00  0.00     0.023 A 
ATOM      2  C1  UNL d   1      -4.751  -0.692   0.452  0.00  0.00     0.003 A 
ATOM      3  C2  UNL d   1      -3.775   0.025   1.147  0.00  0.00     0.048 A 
ATOM      4  C3  UNL d   1      -2.549  -0.575   1.433  0.00  0.00     0.023 A 
ATOM      5  C4  UNL d   1      -2.293  -1.886   1.029  0.00  0.00     0.048 A 
ATOM      6  C5  UNL d   1      -3.272  -2.599   0.335  0.00  0.00     0.003 A 
ATOM      7  I   UNL d   1      -1.095   0.489   2.468  0.00  0.00    -0.146 I 
ENDROOT
TORSDOF 0
ENDMDL
