MODEL 1
REMARK minimizedAffinity 4.4511385
REMARK minimizedRMSD -1
REMARK  0 active torsions:
REMARK  status: ('A' for Active; 'I' for Inactive)
ROOT
ATOM      1  C   UNL d   1      -2.657   1.708   2.519  0.00  0.00     0.023 A 
ATOM      2  C1  UNL d   1      -1.676   0.740   2.301  0.00  0.00     0.003 A 
ATOM      3  C2  UNL d   1      -1.994  -0.436   1.618  0.00  0.00     0.048 A 
ATOM      4  C3  UNL d   1      -3.294  -0.637   1.155  0.00  0.00     0.023 A 
ATOM      5  C4  UNL d   1      -4.278   0.330   1.370  0.00  0.00     0.048 A 
ATOM      6  C5  UNL d   1      -3.956   1.503   2.054  0.00  0.00     0.003 A 
ATOM      7  I   UNL d   1      -3.769  -2.386   0.137  0.00  0.00    -0.146 I 
ENDROOT
TORSDOF 0
ENDMDL
