MODEL 1
REMARK minimizedAffinity 2.91403794
REMARK minimizedRMSD -1
REMARK  0 active torsions:
REMARK  status: ('A' for Active; 'I' for Inactive)
ROOT
ATOM      1  C   UNL d   1       3.727  -0.201  -0.409  0.00  0.00     0.023 A 
ATOM      2  C1  UNL d   1       4.380  -0.191  -1.641  0.00  0.00     0.003 A 
ATOM      3  C2  UNL d   1       3.817  -0.847  -2.737  0.00  0.00     0.048 A 
ATOM      4  C3  UNL d   1       2.599  -1.511  -2.594  0.00  0.00     0.023 A 
ATOM      5  C4  UNL d   1       1.941  -1.524  -1.363  0.00  0.00     0.048 A 
ATOM      6  C5  UNL d   1       2.509  -0.867  -0.270  0.00  0.00     0.003 A 
ATOM      7  I   UNL d   1       1.758  -2.488  -4.224  0.00  0.00    -0.146 I 
ENDROOT
TORSDOF 0
ENDMDL
