MODEL 1
REMARK minimizedAffinity -2.25478315
REMARK minimizedRMSD -1
REMARK  0 active torsions:
REMARK  status: ('A' for Active; 'I' for Inactive)
ROOT
ATOM      1  C   UNL d   1       1.157  -0.587  -1.583  0.00  0.00     0.023 A 
ATOM      2  C1  UNL d   1       0.396   0.582  -1.594  0.00  0.00     0.003 A 
ATOM      3  C2  UNL d   1      -0.312   0.966  -0.454  0.00  0.00     0.048 A 
ATOM      4  C3  UNL d   1      -0.254   0.178   0.695  0.00  0.00     0.023 A 
ATOM      5  C4  UNL d   1       0.507  -0.993   0.711  0.00  0.00     0.048 A 
ATOM      6  C5  UNL d   1       1.212  -1.373  -0.432  0.00  0.00     0.003 A 
ATOM      7  I   UNL d   1      -1.307   0.748   2.394  0.00  0.00    -0.146 I 
ENDROOT
TORSDOF 0
ENDMDL
