MODEL 1
REMARK minimizedAffinity 6.01583147
REMARK minimizedRMSD -1
REMARK  0 active torsions:
REMARK  status: ('A' for Active; 'I' for Inactive)
ROOT
ATOM      1  C   UNL d   1       2.172   1.807  -2.787  0.00  0.00     0.023 A 
ATOM      2  C1  UNL d   1       0.983   2.532  -2.709  0.00  0.00     0.003 A 
ATOM      3  C2  UNL d   1      -0.093   2.035  -1.972  0.00  0.00     0.048 A 
ATOM      4  C3  UNL d   1       0.026   0.812  -1.313  0.00  0.00     0.023 A 
ATOM      5  C4  UNL d   1       1.214   0.082  -1.388  0.00  0.00     0.048 A 
ATOM      6  C5  UNL d   1       2.287   0.583  -2.127  0.00  0.00     0.003 A 
ATOM      7  I   UNL d   1      -1.574   0.069  -0.215  0.00  0.00    -0.146 I 
ENDROOT
TORSDOF 0
ENDMDL
