MODEL 1
REMARK minimizedAffinity 5.96154404
REMARK minimizedRMSD -1
REMARK  0 active torsions:
REMARK  status: ('A' for Active; 'I' for Inactive)
ROOT
ATOM      1  C   UNL d   1       3.069   1.104  -2.952  0.00  0.00     0.023 A 
ATOM      2  C1  UNL d   1       2.741   0.205  -1.937  0.00  0.00     0.003 A 
ATOM      3  C2  UNL d   1       1.615   0.428  -1.141  0.00  0.00     0.048 A 
ATOM      4  C3  UNL d   1       0.821   1.552  -1.367  0.00  0.00     0.023 A 
ATOM      5  C4  UNL d   1       1.145   2.454  -2.382  0.00  0.00     0.048 A 
ATOM      6  C5  UNL d   1       2.272   2.227  -3.174  0.00  0.00     0.003 A 
ATOM      7  I   UNL d   1      -0.855   1.886  -0.184  0.00  0.00    -0.146 I 
ENDROOT
TORSDOF 0
ENDMDL
