MODEL 1
REMARK minimizedAffinity 4.88640022
REMARK minimizedRMSD -1
REMARK  0 active torsions:
REMARK  status: ('A' for Active; 'I' for Inactive)
ROOT
ATOM      1  C   UNL d   1      -5.996  -5.847  -0.731  0.00  0.00     0.023 A 
ATOM      2  C1  UNL d   1      -5.937  -4.774  -1.620  0.00  0.00     0.003 A 
ATOM      3  C2  UNL d   1      -4.894  -3.850  -1.532  0.00  0.00     0.048 A 
ATOM      4  C3  UNL d   1      -3.912  -4.006  -0.555  0.00  0.00     0.023 A 
ATOM      5  C4  UNL d   1      -3.966  -5.079   0.336  0.00  0.00     0.048 A 
ATOM      6  C5  UNL d   1      -5.011  -6.000   0.246  0.00  0.00     0.003 A 
ATOM      7  I   UNL d   1      -2.358  -2.632  -0.423  0.00  0.00    -0.146 I 
ENDROOT
TORSDOF 0
ENDMDL
