MODEL 1
REMARK minimizedAffinity 3.68130898
REMARK minimizedRMSD -1
REMARK  0 active torsions:
REMARK  status: ('A' for Active; 'I' for Inactive)
ROOT
ATOM      1  C   UNL d   1       2.930   1.172  -3.190  0.00  0.00     0.023 A 
ATOM      2  C1  UNL d   1       2.661   0.191  -2.235  0.00  0.00     0.003 A 
ATOM      3  C2  UNL d   1       1.542   0.308  -1.409  0.00  0.00     0.048 A 
ATOM      4  C3  UNL d   1       0.695   1.408  -1.543  0.00  0.00     0.023 A 
ATOM      5  C4  UNL d   1       0.960   2.391  -2.497  0.00  0.00     0.048 A 
ATOM      6  C5  UNL d   1       2.081   2.270  -3.321  0.00  0.00     0.003 A 
ATOM      7  I   UNL d   1      -0.971   1.585  -0.314  0.00  0.00    -0.146 I 
ENDROOT
TORSDOF 0
ENDMDL
