MODEL 1
REMARK minimizedAffinity 1.06373858
REMARK minimizedRMSD -1
REMARK  0 active torsions:
REMARK  status: ('A' for Active; 'I' for Inactive)
ROOT
ATOM      1  C   UNL d   1       2.718  -2.665  -2.232  0.00  0.00     0.023 A 
ATOM      2  C1  UNL d   1       2.284  -1.839  -1.195  0.00  0.00     0.003 A 
ATOM      3  C2  UNL d   1       0.943  -1.851  -0.806  0.00  0.00     0.048 A 
ATOM      4  C3  UNL d   1       0.042  -2.692  -1.457  0.00  0.00     0.023 A 
ATOM      5  C4  UNL d   1       0.472  -3.522  -2.494  0.00  0.00     0.048 A 
ATOM      6  C5  UNL d   1       1.813  -3.506  -2.880  0.00  0.00     0.003 A 
ATOM      7  I   UNL d   1      -1.955  -2.712  -0.879  0.00  0.00    -0.146 I 
ENDROOT
TORSDOF 0
ENDMDL
