MODEL 1
REMARK minimizedAffinity 5.07273912
REMARK minimizedRMSD -1
REMARK  0 active torsions:
REMARK  status: ('A' for Active; 'I' for Inactive)
ROOT
ATOM      1  C   UNL d   1       2.394   1.588  -0.205  0.00  0.00     0.023 A 
ATOM      2  C1  UNL d   1       1.841   0.899  -1.284  0.00  0.00     0.003 A 
ATOM      3  C2  UNL d   1       0.526   0.434  -1.218  0.00  0.00     0.048 A 
ATOM      4  C3  UNL d   1      -0.231   0.663  -0.070  0.00  0.00     0.023 A 
ATOM      5  C4  UNL d   1       0.317   1.353   1.013  0.00  0.00     0.048 A 
ATOM      6  C5  UNL d   1       1.633   1.815   0.942  0.00  0.00     0.003 A 
ATOM      7  I   UNL d   1      -2.189  -0.028   0.031  0.00  0.00    -0.146 I 
ENDROOT
TORSDOF 0
ENDMDL
