MODEL 1
REMARK minimizedAffinity 11.2079325
REMARK minimizedRMSD -1
REMARK  0 active torsions:
REMARK  status: ('A' for Active; 'I' for Inactive)
ROOT
ATOM      1  C   UNL d   1       1.122   1.845  -0.110  0.00  0.00     0.023 A 
ATOM      2  C1  UNL d   1       1.265   0.870  -1.098  0.00  0.00     0.003 A 
ATOM      3  C2  UNL d   1       0.260  -0.079  -1.295  0.00  0.00     0.048 A 
ATOM      4  C3  UNL d   1      -0.886  -0.046  -0.502  0.00  0.00     0.023 A 
ATOM      5  C4  UNL d   1      -1.035   0.928   0.487  0.00  0.00     0.048 A 
ATOM      6  C5  UNL d   1      -0.027   1.874   0.681  0.00  0.00     0.003 A 
ATOM      7  I   UNL d   1      -2.384  -1.458  -0.793  0.00  0.00    -0.146 I 
ENDROOT
TORSDOF 0
ENDMDL
