MODEL 1
REMARK minimizedAffinity 4.32705545
REMARK minimizedRMSD -1
REMARK  0 active torsions:
REMARK  status: ('A' for Active; 'I' for Inactive)
ROOT
ATOM      1  C   UNL d   1       2.722  -0.490  -1.202  0.00  0.00     0.023 A 
ATOM      2  C1  UNL d   1       2.541  -1.873  -1.199  0.00  0.00     0.003 A 
ATOM      3  C2  UNL d   1       1.257  -2.411  -1.084  0.00  0.00     0.048 A 
ATOM      4  C3  UNL d   1       0.159  -1.559  -0.972  0.00  0.00     0.023 A 
ATOM      5  C4  UNL d   1       0.335  -0.174  -0.975  0.00  0.00     0.048 A 
ATOM      6  C5  UNL d   1       1.620   0.358  -1.090  0.00  0.00     0.003 A 
ATOM      7  I   UNL d   1      -1.753  -2.357  -0.800  0.00  0.00    -0.146 I 
ENDROOT
TORSDOF 0
ENDMDL
