MODEL 1
REMARK minimizedAffinity 4.10916996
REMARK minimizedRMSD -1
REMARK  0 active torsions:
REMARK  status: ('A' for Active; 'I' for Inactive)
ROOT
ATOM      1  C   UNL d   1      -2.793  -1.927  -0.528  0.00  0.00     0.023 A 
ATOM      2  C1  UNL d   1      -1.891  -2.952  -0.811  0.00  0.00     0.003 A 
ATOM      3  C2  UNL d   1      -0.553  -2.652  -1.077  0.00  0.00     0.048 A 
ATOM      4  C3  UNL d   1      -0.124  -1.325  -1.056  0.00  0.00     0.023 A 
ATOM      5  C4  UNL d   1      -1.024  -0.296  -0.772  0.00  0.00     0.048 A 
ATOM      6  C5  UNL d   1      -2.360  -0.601  -0.508  0.00  0.00     0.003 A 
ATOM      7  I   UNL d   1       1.867  -0.877  -1.450  0.00  0.00    -0.146 I 
ENDROOT
TORSDOF 0
ENDMDL
