MODEL 1
REMARK minimizedAffinity 3.17208219
REMARK minimizedRMSD -1
REMARK  0 active torsions:
REMARK  status: ('A' for Active; 'I' for Inactive)
ROOT
ATOM      1  C   UNL d   1       2.915   0.926  -2.998  0.00  0.00     0.023 A 
ATOM      2  C1  UNL d   1       2.129   2.058  -3.211  0.00  0.00     0.003 A 
ATOM      3  C2  UNL d   1       0.970   2.257  -2.457  0.00  0.00     0.048 A 
ATOM      4  C3  UNL d   1       0.605   1.321  -1.491  0.00  0.00     0.023 A 
ATOM      5  C4  UNL d   1       1.389   0.186  -1.274  0.00  0.00     0.048 A 
ATOM      6  C5  UNL d   1       2.546  -0.009  -2.031  0.00  0.00     0.003 A 
ATOM      7  I   UNL d   1      -1.119   1.615  -0.367  0.00  0.00    -0.146 I 
ENDROOT
TORSDOF 0
ENDMDL
