MODEL 1
REMARK minimizedAffinity 4.29202461
REMARK minimizedRMSD -1
REMARK  0 active torsions:
REMARK  status: ('A' for Active; 'I' for Inactive)
ROOT
ATOM      1  C   UNL d   1       1.887  -1.607  -0.640  0.00  0.00     0.023 A 
ATOM      2  C1  UNL d   1       0.842  -0.683  -0.656  0.00  0.00     0.003 A 
ATOM      3  C2  UNL d   1       0.870   0.390  -1.549  0.00  0.00     0.048 A 
ATOM      4  C3  UNL d   1       1.946   0.532  -2.425  0.00  0.00     0.023 A 
ATOM      5  C4  UNL d   1       2.993  -0.391  -2.413  0.00  0.00     0.048 A 
ATOM      6  C5  UNL d   1       2.961  -1.462  -1.518  0.00  0.00     0.003 A 
ATOM      7  I   UNL d   1       1.990   2.127  -3.756  0.00  0.00    -0.146 I 
ENDROOT
TORSDOF 0
ENDMDL
