MODEL 1
REMARK minimizedAffinity 4.80875158
REMARK minimizedRMSD -1
REMARK  0 active torsions:
REMARK  status: ('A' for Active; 'I' for Inactive)
ROOT
ATOM      1  C   UNL d   1       2.141  -0.367  -1.630  0.00  0.00     0.023 A 
ATOM      2  C1  UNL d   1       3.168  -0.986  -0.918  0.00  0.00     0.003 A 
ATOM      3  C2  UNL d   1       2.888  -2.077  -0.092  0.00  0.00     0.048 A 
ATOM      4  C3  UNL d   1       1.579  -2.544   0.017  0.00  0.00     0.023 A 
ATOM      5  C4  UNL d   1       0.548  -1.928  -0.695  0.00  0.00     0.048 A 
ATOM      6  C5  UNL d   1       0.832  -0.837  -1.519  0.00  0.00     0.003 A 
ATOM      7  I   UNL d   1       1.159  -4.166   1.246  0.00  0.00    -0.146 I 
ENDROOT
TORSDOF 0
ENDMDL
