MODEL 1
REMARK minimizedAffinity -0.706780553
REMARK minimizedRMSD -1
REMARK  0 active torsions:
REMARK  status: ('A' for Active; 'I' for Inactive)
ROOT
ATOM      1  C   UNL d   1      -2.960   4.904  -2.617  0.00  0.00     0.077 C 
ATOM      2  C1  UNL d   1      -4.017   3.843  -2.529  0.00  0.00    -0.074 A 
ATOM      3  C2  UNL d   1      -4.714   3.619  -1.337  0.00  0.00    -0.005 A 
ATOM      4  C3  UNL d   1      -5.700   2.635  -1.273  0.00  0.00     0.006 A 
ATOM      5  C4  UNL d   1      -5.999   1.866  -2.399  0.00  0.00    -0.005 A 
ATOM      6  C5  UNL d   1      -5.313   2.076  -3.599  0.00  0.00    -0.074 A 
ATOM      7  C6  UNL d   1      -5.629   1.264  -4.820  0.00  0.00     0.077 C 
ATOM      8  C7  UNL d   1      -4.328   3.071  -3.657  0.00  0.00    -0.001 A 
ENDROOT
TORSDOF 0
ENDMDL
