MODEL 1
REMARK minimizedAffinity 3.84350419
REMARK minimizedRMSD -1
REMARK  0 active torsions:
REMARK  status: ('A' for Active; 'I' for Inactive)
ROOT
ATOM      1  C   UNL d   1      -5.997   5.034  -2.900  0.00  0.00     0.077 C 
ATOM      2  C1  UNL d   1      -5.990   3.541  -3.047  0.00  0.00    -0.074 A 
ATOM      3  C2  UNL d   1      -5.996   2.708  -1.924  0.00  0.00    -0.005 A 
ATOM      4  C3  UNL d   1      -6.000   1.321  -2.077  0.00  0.00     0.006 A 
ATOM      5  C4  UNL d   1      -5.997   0.755  -3.352  0.00  0.00    -0.005 A 
ATOM      6  C5  UNL d   1      -5.992   1.572  -4.487  0.00  0.00    -0.074 A 
ATOM      7  C6  UNL d   1      -6.000   0.980  -5.865  0.00  0.00     0.077 C 
ATOM      8  C7  UNL d   1      -5.996   2.965  -4.325  0.00  0.00    -0.001 A 
ENDROOT
TORSDOF 0
ENDMDL
