MODEL 1
REMARK minimizedAffinity 1.83130336
REMARK minimizedRMSD -1
REMARK  0 active torsions:
REMARK  status: ('A' for Active; 'I' for Inactive)
ROOT
ATOM      1  C   UNL d   1      -5.992   2.996  -1.445  0.00  0.00     0.077 C 
ATOM      2  C1  UNL d   1      -5.995   2.797  -2.931  0.00  0.00    -0.074 A 
ATOM      3  C2  UNL d   1      -5.980   3.891  -3.803  0.00  0.00    -0.005 A 
ATOM      4  C3  UNL d   1      -5.974   3.690  -5.183  0.00  0.00     0.006 A 
ATOM      5  C4  UNL d   1      -5.983   2.396  -5.705  0.00  0.00    -0.005 A 
ATOM      6  C5  UNL d   1      -5.998   1.290  -4.849  0.00  0.00    -0.074 A 
ATOM      7  C6  UNL d   1      -5.999  -0.107  -5.394  0.00  0.00     0.077 C 
ATOM      8  C7  UNL d   1      -5.997   1.500  -3.463  0.00  0.00    -0.001 A 
ENDROOT
TORSDOF 0
ENDMDL
