MODEL 1
REMARK minimizedAffinity 4.47296095
REMARK minimizedRMSD -1
REMARK  0 active torsions:
REMARK  status: ('A' for Active; 'I' for Inactive)
ROOT
ATOM      1  C   UNL d   1      -5.303  -1.036   3.759  0.00  0.00     0.077 C 
ATOM      2  C1  UNL d   1      -5.025   0.039   2.752  0.00  0.00    -0.074 A 
ATOM      3  C2  UNL d   1      -5.956   0.347   1.754  0.00  0.00    -0.005 A 
ATOM      4  C3  UNL d   1      -5.688   1.357   0.830  0.00  0.00     0.006 A 
ATOM      5  C4  UNL d   1      -4.489   2.068   0.893  0.00  0.00    -0.005 A 
ATOM      6  C5  UNL d   1      -3.547   1.774   1.884  0.00  0.00    -0.074 A 
ATOM      7  C6  UNL d   1      -2.257   2.535   1.973  0.00  0.00     0.077 C 
ATOM      8  C7  UNL d   1      -3.826   0.763   2.814  0.00  0.00    -0.001 A 
ENDROOT
TORSDOF 0
ENDMDL
