MODEL 1
REMARK minimizedAffinity 8.0799551
REMARK minimizedRMSD -1
REMARK  0 active torsions:
REMARK  status: ('A' for Active; 'I' for Inactive)
ROOT
ATOM      1  C   UNL d   1      -2.505   2.250   1.904  0.00  0.00     0.077 C 
ATOM      2  C1  UNL d   1      -3.720   1.853   1.119  0.00  0.00    -0.074 A 
ATOM      3  C2  UNL d   1      -4.524   0.785   1.530  0.00  0.00    -0.005 A 
ATOM      4  C3  UNL d   1      -5.656   0.434   0.794  0.00  0.00     0.006 A 
ATOM      5  C4  UNL d   1      -5.994   1.145  -0.358  0.00  0.00    -0.005 A 
ATOM      6  C5  UNL d   1      -5.202   2.216  -0.784  0.00  0.00    -0.074 A 
ATOM      7  C6  UNL d   1      -5.557   2.997  -2.014  0.00  0.00     0.077 C 
ATOM      8  C7  UNL d   1      -4.070   2.568  -0.035  0.00  0.00    -0.001 A 
ENDROOT
TORSDOF 0
ENDMDL
