MODEL 1
REMARK minimizedAffinity -0.516391993
REMARK minimizedRMSD -1
REMARK  0 active torsions:
REMARK  status: ('A' for Active; 'I' for Inactive)
ROOT
ATOM      1  C   UNL d   1      -5.992   2.268  -1.005  0.00  0.00     0.077 C 
ATOM      2  C1  UNL d   1      -5.995   2.483  -2.489  0.00  0.00    -0.074 A 
ATOM      3  C2  UNL d   1      -5.980   3.774  -3.029  0.00  0.00    -0.005 A 
ATOM      4  C3  UNL d   1      -5.974   3.958  -4.411  0.00  0.00     0.006 A 
ATOM      5  C4  UNL d   1      -5.984   2.855  -5.267  0.00  0.00    -0.005 A 
ATOM      6  C5  UNL d   1      -5.998   1.558  -4.746  0.00  0.00    -0.074 A 
ATOM      7  C6  UNL d   1      -5.999   0.362  -5.651  0.00  0.00     0.077 C 
ATOM      8  C7  UNL d   1      -5.997   1.381  -3.355  0.00  0.00    -0.001 A 
ENDROOT
TORSDOF 0
ENDMDL
