MODEL 1
REMARK minimizedAffinity 3.37293696
REMARK minimizedRMSD -1
REMARK  0 active torsions:
REMARK  status: ('A' for Active; 'I' for Inactive)
ROOT
ATOM      1  C   UNL d   1      -6.000   0.602  -4.594  0.00  0.00     0.077 C 
ATOM      2  C1  UNL d   1      -5.929   1.771  -3.656  0.00  0.00    -0.074 A 
ATOM      3  C2  UNL d   1      -6.000   3.083  -4.135  0.00  0.00    -0.005 A 
ATOM      4  C3  UNL d   1      -5.942   4.159  -3.250  0.00  0.00     0.006 A 
ATOM      5  C4  UNL d   1      -5.812   3.935  -1.879  0.00  0.00    -0.005 A 
ATOM      6  C5  UNL d   1      -5.741   2.630  -1.381  0.00  0.00    -0.074 A 
ATOM      7  C6  UNL d   1      -5.611   2.371   0.090  0.00  0.00     0.077 C 
ATOM      8  C7  UNL d   1      -5.807   1.554  -2.276  0.00  0.00    -0.001 A 
ENDROOT
TORSDOF 0
ENDMDL
