MODEL 1
REMARK minimizedAffinity 0.437688768
REMARK minimizedRMSD -1
REMARK  0 active torsions:
REMARK  status: ('A' for Active; 'I' for Inactive)
ROOT
ATOM      1  C   UNL d   1      -5.966   1.854  -0.634  0.00  0.00     0.077 C 
ATOM      2  C1  UNL d   1      -5.984   2.135  -2.107  0.00  0.00    -0.074 A 
ATOM      3  C2  UNL d   1      -5.985   3.448  -2.589  0.00  0.00    -0.005 A 
ATOM      4  C3  UNL d   1      -5.993   3.693  -3.962  0.00  0.00     0.006 A 
ATOM      5  C4  UNL d   1      -5.999   2.630  -4.866  0.00  0.00    -0.005 A 
ATOM      6  C5  UNL d   1      -5.997   1.311  -4.403  0.00  0.00    -0.074 A 
ATOM      7  C6  UNL d   1      -5.994   0.157  -5.361  0.00  0.00     0.077 C 
ATOM      8  C7  UNL d   1      -5.983   1.072  -3.022  0.00  0.00    -0.001 A 
ENDROOT
TORSDOF 0
ENDMDL
