MODEL 1
REMARK minimizedAffinity 0.850869894
REMARK minimizedRMSD -1
REMARK  0 active torsions:
REMARK  status: ('A' for Active; 'I' for Inactive)
ROOT
ATOM      1  C   UNL d   1      -5.961   5.224  -2.628  0.00  0.00     0.077 C 
ATOM      2  C1  UNL d   1      -5.968   3.724  -2.655  0.00  0.00    -0.074 A 
ATOM      3  C2  UNL d   1      -5.982   2.983  -1.469  0.00  0.00    -0.005 A 
ATOM      4  C3  UNL d   1      -5.998   1.589  -1.510  0.00  0.00     0.006 A 
ATOM      5  C4  UNL d   1      -6.000   0.923  -2.736  0.00  0.00    -0.005 A 
ATOM      6  C5  UNL d   1      -5.987   1.647  -3.933  0.00  0.00    -0.074 A 
ATOM      7  C6  UNL d   1      -5.999   0.946  -5.259  0.00  0.00     0.077 C 
ATOM      8  C7  UNL d   1      -5.978   3.047  -3.883  0.00  0.00    -0.001 A 
ENDROOT
TORSDOF 0
ENDMDL
