MODEL 1
REMARK minimizedAffinity -0.272916704
REMARK minimizedRMSD -1
REMARK  0 active torsions:
REMARK  status: ('A' for Active; 'I' for Inactive)
ROOT
ATOM      1  C   UNL d   1       4.215  -1.407   0.188  0.00  0.00     0.077 C 
ATOM      2  C1  UNL d   1       3.978  -2.832  -0.217  0.00  0.00    -0.074 A 
ATOM      3  C2  UNL d   1       5.024  -3.624  -0.701  0.00  0.00    -0.005 A 
ATOM      4  C3  UNL d   1       4.791  -4.951  -1.064  0.00  0.00     0.006 A 
ATOM      5  C4  UNL d   1       3.513  -5.497  -0.947  0.00  0.00    -0.005 A 
ATOM      6  C5  UNL d   1       2.455  -4.721  -0.463  0.00  0.00    -0.074 A 
ATOM      7  C6  UNL d   1       1.077  -5.295  -0.322  0.00  0.00     0.077 C 
ATOM      8  C7  UNL d   1       2.699  -3.391  -0.094  0.00  0.00    -0.001 A 
ENDROOT
TORSDOF 0
ENDMDL
