MODEL 1
REMARK minimizedAffinity -3.88278985
REMARK minimizedRMSD -1
REMARK  0 active torsions:
REMARK  status: ('A' for Active; 'I' for Inactive)
ROOT
ATOM      1  C1  BNZ d   1      -1.503   1.471  -1.922  0.00  0.00     0.000 A 
ATOM      2  C2  BNZ d   1      -0.994   1.558  -0.654  0.00  0.00     0.000 A 
ATOM      3  C3  BNZ d   1      -0.030   0.688  -0.227  0.00  0.00     0.000 A 
ATOM      4  C4  BNZ d   1       0.394  -0.291  -1.052  0.00  0.00     0.000 A 
ATOM      5  C5  BNZ d   1      -0.117  -0.397  -2.331  0.00  0.00     0.000 A 
ATOM      6  C6  BNZ d   1      -1.059   0.505  -2.771  0.00  0.00     0.000 A 
ENDROOT
TORSDOF 0
ENDMDL
