MODEL 1
REMARK minimizedAffinity -4.54648352
REMARK minimizedRMSD -1
REMARK  0 active torsions:
REMARK  status: ('A' for Active; 'I' for Inactive)
ROOT
ATOM      1  C1  BNZ d   1      -0.446  -2.324   2.732  0.00  0.00     0.000 A 
ATOM      2  C2  BNZ d   1      -1.089  -1.388   1.967  0.00  0.00     0.000 A 
ATOM      3  C3  BNZ d   1      -0.587  -1.010   0.753  0.00  0.00     0.000 A 
ATOM      4  C4  BNZ d   1       0.579  -1.537   0.325  0.00  0.00     0.000 A 
ATOM      5  C5  BNZ d   1       1.244  -2.475   1.089  0.00  0.00     0.000 A 
ATOM      6  C6  BNZ d   1       0.715  -2.882   2.292  0.00  0.00     0.000 A 
ENDROOT
TORSDOF 0
ENDMDL
