MODEL 1
REMARK minimizedAffinity -3.94093585
REMARK minimizedRMSD -1
REMARK  0 active torsions:
REMARK  status: ('A' for Active; 'I' for Inactive)
ROOT
ATOM      1  C1  BNZ d   1      -2.018   2.054  -1.272  0.00  0.00     0.000 A 
ATOM      2  C2  BNZ d   1      -1.315   1.927  -0.104  0.00  0.00     0.000 A 
ATOM      3  C3  BNZ d   1      -0.484   0.862   0.101  0.00  0.00     0.000 A 
ATOM      4  C4  BNZ d   1      -0.387  -0.095  -0.844  0.00  0.00     0.000 A 
ATOM      5  C5  BNZ d   1      -1.096   0.013  -2.024  0.00  0.00     0.000 A 
ATOM      6  C6  BNZ d   1      -1.902   1.107  -2.243  0.00  0.00     0.000 A 
ENDROOT
TORSDOF 0
ENDMDL
