MODEL 1
REMARK minimizedAffinity -5.13692904
REMARK minimizedRMSD -1
REMARK  0 active torsions:
REMARK  status: ('A' for Active; 'I' for Inactive)
ROOT
ATOM      1  C1  BNZ d   1       1.048  -3.058   0.386  0.00  0.00     0.000 A 
ATOM      2  C2  BNZ d   1       0.775  -3.439   1.672  0.00  0.00     0.000 A 
ATOM      3  C3  BNZ d   1       0.065  -2.622   2.508  0.00  0.00     0.000 A 
ATOM      4  C4  BNZ d   1      -0.336  -1.412   2.069  0.00  0.00     0.000 A 
ATOM      5  C5  BNZ d   1      -0.060  -1.010   0.777  0.00  0.00     0.000 A 
ATOM      6  C6  BNZ d   1       0.621  -1.850  -0.073  0.00  0.00     0.000 A 
ENDROOT
TORSDOF 0
ENDMDL
