MODEL 1
REMARK minimizedAffinity -1.49353731
REMARK minimizedRMSD -1
REMARK  0 active torsions:
REMARK  status: ('A' for Active; 'I' for Inactive)
ROOT
ATOM      1  C1  BNZ d   1       0.984  -0.614  -0.653  0.00  0.00     0.000 A 
ATOM      2  C2  BNZ d   1      -0.353  -0.342  -0.526  0.00  0.00     0.000 A 
ATOM      3  C3  BNZ d   1      -0.798   0.945  -0.414  0.00  0.00     0.000 A 
ATOM      4  C4  BNZ d   1       0.095   1.956  -0.388  0.00  0.00     0.000 A 
ATOM      5  C5  BNZ d   1       1.446   1.697  -0.505  0.00  0.00     0.000 A 
ATOM      6  C6  BNZ d   1       1.888   0.403  -0.657  0.00  0.00     0.000 A 
ENDROOT
TORSDOF 0
ENDMDL
