MODEL 1
REMARK minimizedAffinity -4.53612804
REMARK minimizedRMSD -1
REMARK  0 active torsions:
REMARK  status: ('A' for Active; 'I' for Inactive)
ROOT
ATOM      1  C1  BNZ d   1      -0.265  -0.207   0.057  0.00  0.00     0.000 A 
ATOM      2  C2  BNZ d   1      -0.024  -1.234   0.931  0.00  0.00     0.000 A 
ATOM      3  C3  BNZ d   1       1.021  -2.092   0.731  0.00  0.00     0.000 A 
ATOM      4  C4  BNZ d   1       1.797  -1.948  -0.362  0.00  0.00     0.000 A 
ATOM      5  C5  BNZ d   1       1.561  -0.924  -1.257  0.00  0.00     0.000 A 
ATOM      6  C6  BNZ d   1       0.533  -0.038  -1.032  0.00  0.00     0.000 A 
ENDROOT
TORSDOF 0
ENDMDL
