MODEL 1
REMARK minimizedAffinity -4.71059465
REMARK minimizedRMSD -1
REMARK  0 active torsions:
REMARK  status: ('A' for Active; 'I' for Inactive)
ROOT
ATOM      1  C1  BNZ d   1      -0.253  -2.035  -0.338  0.00  0.00     0.000 A 
ATOM      2  C2  BNZ d   1       0.385  -2.953   0.453  0.00  0.00     0.000 A 
ATOM      3  C3  BNZ d   1       1.467  -2.595   1.207  0.00  0.00     0.000 A 
ATOM      4  C4  BNZ d   1       1.935  -1.332   1.138  0.00  0.00     0.000 A 
ATOM      5  C5  BNZ d   1       1.308  -0.397   0.338  0.00  0.00     0.000 A 
ATOM      6  C6  BNZ d   1       0.195  -0.751  -0.390  0.00  0.00     0.000 A 
ENDROOT
TORSDOF 0
ENDMDL
