MODEL 1
REMARK minimizedAffinity -0.172372431
REMARK minimizedRMSD -1
REMARK  0 active torsions:
REMARK  status: ('A' for Active; 'I' for Inactive)
ROOT
ATOM      1  C1  BNZ d   1      -0.473  -0.084  -0.863  0.00  0.00     0.000 A 
ATOM      2  C2  BNZ d   1      -1.245   0.571  -1.786  0.00  0.00     0.000 A 
ATOM      3  C3  BNZ d   1      -1.924   1.709  -1.450  0.00  0.00     0.000 A 
ATOM      4  C4  BNZ d   1      -1.863   2.167  -0.183  0.00  0.00     0.000 A 
ATOM      5  C5  BNZ d   1      -1.097   1.513   0.761  0.00  0.00     0.000 A 
ATOM      6  C6  BNZ d   1      -0.384   0.390   0.409  0.00  0.00     0.000 A 
ENDROOT
TORSDOF 0
ENDMDL
