MODEL 1
REMARK minimizedAffinity -4.15042067
REMARK minimizedRMSD -1
REMARK  0 active torsions:
REMARK  status: ('A' for Active; 'I' for Inactive)
ROOT
ATOM      1  C1  BNZ d   1       2.498  -1.534   0.706  0.00  0.00     0.000 A 
ATOM      2  C2  BNZ d   1       2.308  -0.351   0.042  0.00  0.00     0.000 A 
ATOM      3  C3  BNZ d   1       1.224  -0.171  -0.770  0.00  0.00     0.000 A 
ATOM      4  C4  BNZ d   1       0.353  -1.185  -0.948  0.00  0.00     0.000 A 
ATOM      5  C5  BNZ d   1       0.536  -2.387  -0.293  0.00  0.00     0.000 A 
ATOM      6  C6  BNZ d   1       1.608  -2.552   0.554  0.00  0.00     0.000 A 
ENDROOT
TORSDOF 0
ENDMDL
