MODEL 1
REMARK minimizedAffinity -4.05964041
REMARK minimizedRMSD -1
REMARK  0 active torsions:
REMARK  status: ('A' for Active; 'I' for Inactive)
ROOT
ATOM      1  C1  BNZ d   1       1.563  -0.381  -0.508  0.00  0.00     0.000 A 
ATOM      2  C2  BNZ d   1       1.880  -1.409   0.338  0.00  0.00     0.000 A 
ATOM      3  C3  BNZ d   1       0.907  -2.060   1.045  0.00  0.00     0.000 A 
ATOM      4  C4  BNZ d   1      -0.375  -1.656   0.934  0.00  0.00     0.000 A 
ATOM      5  C5  BNZ d   1      -0.709  -0.614   0.092  0.00  0.00     0.000 A 
ATOM      6  C6  BNZ d   1       0.267   0.013  -0.647  0.00  0.00     0.000 A 
ENDROOT
TORSDOF 0
ENDMDL
