MODEL 1
REMARK minimizedAffinity -3.85052609
REMARK minimizedRMSD -1
REMARK  0 active torsions:
REMARK  status: ('A' for Active; 'I' for Inactive)
ROOT
ATOM      1  C1  BNZ d   1      -0.023   0.171  -0.211  0.00  0.00     0.000 A 
ATOM      2  C2  BNZ d   1       0.201  -1.159   0.028  0.00  0.00     0.000 A 
ATOM      3  C3  BNZ d   1      -0.513  -1.828   0.982  0.00  0.00     0.000 A 
ATOM      4  C4  BNZ d   1      -1.419  -1.158   1.723  0.00  0.00     0.000 A 
ATOM      5  C5  BNZ d   1      -1.649   0.185   1.501  0.00  0.00     0.000 A 
ATOM      6  C6  BNZ d   1      -0.956   0.846   0.513  0.00  0.00     0.000 A 
ENDROOT
TORSDOF 0
ENDMDL
