MODEL 1
REMARK minimizedAffinity -1.94011128
REMARK minimizedRMSD -1
REMARK  0 active torsions:
REMARK  status: ('A' for Active; 'I' for Inactive)
ROOT
ATOM      1  C1  BNZ d   1       0.320   1.029  -0.324  0.00  0.00     0.000 A 
ATOM      2  C2  BNZ d   1      -0.616   1.645  -1.111  0.00  0.00     0.000 A 
ATOM      3  C3  BNZ d   1      -1.607   0.924  -1.715  0.00  0.00     0.000 A 
ATOM      4  C4  BNZ d   1      -1.639  -0.416  -1.564  0.00  0.00     0.000 A 
ATOM      5  C5  BNZ d   1      -0.696  -1.053  -0.781  0.00  0.00     0.000 A 
ATOM      6  C6  BNZ d   1       0.277  -0.319  -0.144  0.00  0.00     0.000 A 
ENDROOT
TORSDOF 0
ENDMDL
