MODEL 1
REMARK minimizedAffinity -3.09645844
REMARK minimizedRMSD -1
REMARK  0 active torsions:
REMARK  status: ('A' for Active; 'I' for Inactive)
ROOT
ATOM      1  C1  BNZ d   1      -0.632  -0.435  -1.205  0.00  0.00     0.000 A 
ATOM      2  C2  BNZ d   1       0.673  -0.816  -1.038  0.00  0.00     0.000 A 
ATOM      3  C3  BNZ d   1       1.524  -0.078  -0.264  0.00  0.00     0.000 A 
ATOM      4  C4  BNZ d   1       1.082   1.061   0.308  0.00  0.00     0.000 A 
ATOM      5  C5  BNZ d   1      -0.228   1.463   0.142  0.00  0.00     0.000 A 
ATOM      6  C6  BNZ d   1      -1.093   0.697  -0.606  0.00  0.00     0.000 A 
ENDROOT
TORSDOF 0
ENDMDL
