MODEL 1
REMARK minimizedAffinity -3.09680557
REMARK minimizedRMSD -1
REMARK  0 active torsions:
REMARK  status: ('A' for Active; 'I' for Inactive)
ROOT
ATOM      1  C1  BNZ d   1       0.476  -0.143  -0.940  0.00  0.00     0.000 A 
ATOM      2  C2  BNZ d   1      -0.248   0.928  -1.393  0.00  0.00     0.000 A 
ATOM      3  C3  BNZ d   1      -1.236   1.480  -0.627  0.00  0.00     0.000 A 
ATOM      4  C4  BNZ d   1      -1.525   0.937   0.573  0.00  0.00     0.000 A 
ATOM      5  C5  BNZ d   1      -0.811  -0.148   1.040  0.00  0.00     0.000 A 
ATOM      6  C6  BNZ d   1       0.209  -0.677   0.283  0.00  0.00     0.000 A 
ENDROOT
TORSDOF 0
ENDMDL
