MODEL 1
REMARK minimizedAffinity -2.95876718
REMARK minimizedRMSD -1
REMARK  0 active torsions:
REMARK  status: ('A' for Active; 'I' for Inactive)
ROOT
ATOM      1  C1  BNZ d   1      -0.581   0.151  -0.424  0.00  0.00     0.000 A 
ATOM      2  C2  BNZ d   1      -0.058  -1.072  -0.747  0.00  0.00     0.000 A 
ATOM      3  C3  BNZ d   1       1.293  -1.279  -0.743  0.00  0.00     0.000 A 
ATOM      4  C4  BNZ d   1       2.120  -0.253  -0.455  0.00  0.00     0.000 A 
ATOM      5  C5  BNZ d   1       1.608   0.989  -0.135  0.00  0.00     0.000 A 
ATOM      6  C6  BNZ d   1       0.246   1.183  -0.103  0.00  0.00     0.000 A 
ENDROOT
TORSDOF 0
ENDMDL
