MODEL 1
REMARK minimizedAffinity -0.77667731
REMARK minimizedRMSD -1
REMARK  0 active torsions:
REMARK  status: ('A' for Active; 'I' for Inactive)
ROOT
ATOM      1  C1  BNZ d   1      -1.167   1.264  -0.375  0.00  0.00     0.000 A 
ATOM      2  C2  BNZ d   1      -0.878  -0.073  -0.303  0.00  0.00     0.000 A 
ATOM      3  C3  BNZ d   1       0.402  -0.502  -0.091  0.00  0.00     0.000 A 
ATOM      4  C4  BNZ d   1       1.397   0.403   0.008  0.00  0.00     0.000 A 
ATOM      5  C5  BNZ d   1       1.123   1.754  -0.071  0.00  0.00     0.000 A 
ATOM      6  C6  BNZ d   1      -0.173   2.184  -0.245  0.00  0.00     0.000 A 
ENDROOT
TORSDOF 0
ENDMDL
