MODEL 1
REMARK minimizedAffinity -2.47299814
REMARK minimizedRMSD -1
REMARK  0 active torsions:
REMARK  status: ('A' for Active; 'I' for Inactive)
ROOT
ATOM      1  C1  BNZ d   1      -1.617   1.695  -1.069  0.00  0.00     0.000 A 
ATOM      2  C2  BNZ d   1      -0.875   1.521   0.069  0.00  0.00     0.000 A 
ATOM      3  C3  BNZ d   1      -0.086   0.417   0.228  0.00  0.00     0.000 A 
ATOM      4  C4  BNZ d   1      -0.069  -0.530  -0.732  0.00  0.00     0.000 A 
ATOM      5  C5  BNZ d   1      -0.818  -0.374  -1.881  0.00  0.00     0.000 A 
ATOM      6  C6  BNZ d   1      -1.582   0.757  -2.055  0.00  0.00     0.000 A 
ENDROOT
TORSDOF 0
ENDMDL
