MODEL 1
REMARK minimizedAffinity 16.6771183
REMARK minimizedRMSD -1
REMARK  1 active torsions:
REMARK  status: ('A' for Active; 'I' for Inactive)
REMARK    1  A    between atoms: C1_2  and  C2_3 
ROOT
ATOM      1  C2  UNL d   1       2.169  -1.664  -1.694  0.00  0.00    -0.073 A 
ATOM      2  C3  UNL d   1       2.193  -2.331  -0.464  0.00  0.00    -0.002 A 
ATOM      3  C4  UNL d   1       2.557  -1.651   0.699  0.00  0.00     0.004 A 
ATOM      4  C5  UNL d   1       2.893  -0.298   0.646  0.00  0.00    -0.004 A 
ATOM      5  C6  UNL d   1       2.863   0.389  -0.572  0.00  0.00    -0.075 A 
ATOM      6  C7  UNL d   1       3.223   1.843  -0.647  0.00  0.00     0.076 C 
ATOM      7  C8  UNL d   1       2.499  -0.301  -1.736  0.00  0.00     0.001 A 
ENDROOT
BRANCH   1   8
ATOM      8  C1  UNL d   1       1.770  -2.392  -2.952  0.00  0.00     0.053 C 
ATOM      9  C   UNL d   1       2.890  -3.276  -3.477  0.00  0.00     0.018 C 
ENDBRANCH   1   8
TORSDOF 1
ENDMDL
