MODEL 1
REMARK minimizedAffinity 4.69655657
REMARK minimizedRMSD -1
REMARK  1 active torsions:
REMARK  status: ('A' for Active; 'I' for Inactive)
REMARK    1  A    between atoms: C1_2  and  C2_3 
ROOT
ATOM      1  C2  UNL d   1      -5.364   0.642  -2.823  0.00  0.00    -0.073 A 
ATOM      2  C3  UNL d   1      -4.432  -0.031  -2.025  0.00  0.00    -0.002 A 
ATOM      3  C4  UNL d   1      -4.003   0.525  -0.820  0.00  0.00     0.004 A 
ATOM      4  C5  UNL d   1      -4.506   1.755  -0.396  0.00  0.00    -0.004 A 
ATOM      5  C6  UNL d   1      -5.447   2.438  -1.174  0.00  0.00    -0.075 A 
ATOM      6  C7  UNL d   1      -5.996   3.763  -0.733  0.00  0.00     0.076 C 
ATOM      7  C8  UNL d   1      -5.870   1.874  -2.385  0.00  0.00     0.001 A 
ENDROOT
BRANCH   1   8
ATOM      8  C1  UNL d   1      -5.834   0.042  -4.123  0.00  0.00     0.053 C 
ATOM      9  C   UNL d   1      -5.993   1.092  -5.211  0.00  0.00     0.018 C 
ENDBRANCH   1   8
TORSDOF 1
ENDMDL
