MODEL 1
REMARK minimizedAffinity 15.6076145
REMARK minimizedRMSD -1
REMARK  1 active torsions:
REMARK  status: ('A' for Active; 'I' for Inactive)
REMARK    1  A    between atoms: C1_2  and  C2_3 
ROOT
ATOM      1  C2  UNL d   1      -4.771   0.643  -1.115  0.00  0.00    -0.073 A 
ATOM      2  C3  UNL d   1      -3.523   0.126  -1.480  0.00  0.00    -0.002 A 
ATOM      3  C4  UNL d   1      -2.391   0.410  -0.713  0.00  0.00     0.004 A 
ATOM      4  C5  UNL d   1      -2.498   1.205   0.428  0.00  0.00    -0.004 A 
ATOM      5  C6  UNL d   1      -3.739   1.721   0.815  0.00  0.00    -0.075 A 
ATOM      6  C7  UNL d   1      -3.870   2.580   2.038  0.00  0.00     0.076 C 
ATOM      7  C8  UNL d   1      -4.870   1.434   0.039  0.00  0.00     0.001 A 
ENDROOT
BRANCH   1   8
ATOM      8  C1  UNL d   1      -5.997   0.334  -1.936  0.00  0.00     0.053 C 
ATOM      9  C   UNL d   1      -5.991   1.069  -3.267  0.00  0.00     0.018 C 
ENDBRANCH   1   8
TORSDOF 1
ENDMDL
