MODEL 1
REMARK minimizedAffinity 2.47591424
REMARK minimizedRMSD -1
REMARK  1 active torsions:
REMARK  status: ('A' for Active; 'I' for Inactive)
REMARK    1  A    between atoms: C3_4  and  O_7 
ROOT
ATOM      1  C   UNL d   1       3.873  -5.839   5.997  0.00  0.00    -0.033 A 
ATOM      2  C1  UNL d   1       5.269  -5.875   5.998  0.00  0.00     0.039 A 
ATOM      3  C2  UNL d   1       6.000  -4.685   5.998  0.00  0.00    -0.080 A 
ATOM      4  C3  UNL d   1       5.324  -3.468   5.997  0.00  0.00     0.150 A 
ATOM      5  C4  UNL d   1       3.934  -3.425   5.999  0.00  0.00    -0.007 A 
ATOM      6  C5  UNL d   1       3.206  -4.614   5.999  0.00  0.00     0.039 A 
ENDROOT
BRANCH   4   7
ATOM      7  O   UNL d   1       5.994  -2.281   5.991  0.00  0.00    -0.526 OA
ATOM      8  H5  UNL d   1       6.948  -2.466   5.960  0.00  0.00     0.418 HD
ENDBRANCH   4   7
TORSDOF 1
ENDMDL
