MODEL 1
REMARK minimizedAffinity 3.49830651
REMARK minimizedRMSD -1
REMARK  1 active torsions:
REMARK  status: ('A' for Active; 'I' for Inactive)
REMARK    1  A    between atoms: C3_4  and  O_7 
ROOT
ATOM      1  C   UNL d   1       0.798  -1.121   2.439  0.00  0.00    -0.033 A 
ATOM      2  C1  UNL d   1       2.148  -1.472   2.373  0.00  0.00     0.039 A 
ATOM      3  C2  UNL d   1       2.636  -2.173   1.269  0.00  0.00    -0.080 A 
ATOM      4  C3  UNL d   1       1.766  -2.515   0.238  0.00  0.00     0.150 A 
ATOM      5  C4  UNL d   1       0.421  -2.166   0.295  0.00  0.00    -0.007 A 
ATOM      6  C5  UNL d   1      -0.065  -1.467   1.399  0.00  0.00     0.039 A 
ENDROOT
BRANCH   4   7
ATOM      7  O   UNL d   1       2.195  -3.203  -0.858  0.00  0.00    -0.526 OA
ATOM      8  H5  UNL d   1       3.140  -3.402  -0.746  0.00  0.00     0.418 HD
ENDBRANCH   4   7
TORSDOF 1
ENDMDL
