MODEL 1
REMARK minimizedAffinity 5.44175005
REMARK minimizedRMSD -1
REMARK  1 active torsions:
REMARK  status: ('A' for Active; 'I' for Inactive)
REMARK    1  A    between atoms: C3_4  and  O_7 
ROOT
ATOM      1  C   UNL d   1      -4.962   1.494   1.900  0.00  0.00    -0.033 A 
ATOM      2  C1  UNL d   1      -6.000   1.912   2.735  0.00  0.00     0.039 A 
ATOM      3  C2  UNL d   1      -5.811   1.958   4.117  0.00  0.00    -0.080 A 
ATOM      4  C3  UNL d   1      -4.581   1.586   4.652  0.00  0.00     0.150 A 
ATOM      5  C4  UNL d   1      -3.541   1.172   3.826  0.00  0.00    -0.007 A 
ATOM      6  C5  UNL d   1      -3.731   1.126   2.445  0.00  0.00     0.039 A 
ENDROOT
BRANCH   4   7
ATOM      7  O   UNL d   1      -4.351   1.610   5.995  0.00  0.00    -0.526 OA
ATOM      8  H5  UNL d   1      -5.167   1.888   6.442  0.00  0.00     0.418 HD
ENDBRANCH   4   7
TORSDOF 1
ENDMDL
