MODEL 1
REMARK minimizedAffinity 8.17534065
REMARK minimizedRMSD -1
REMARK  1 active torsions:
REMARK  status: ('A' for Active; 'I' for Inactive)
REMARK    1  A    between atoms: C3_4  and  O_7 
ROOT
ATOM      1  C   UNL d   1      -5.474   1.817   2.694  0.00  0.00    -0.033 A 
ATOM      2  C1  UNL d   1      -4.932   2.111   3.946  0.00  0.00     0.039 A 
ATOM      3  C2  UNL d   1      -3.663   1.639   4.288  0.00  0.00    -0.080 A 
ATOM      4  C3  UNL d   1      -2.947   0.877   3.368  0.00  0.00     0.150 A 
ATOM      5  C4  UNL d   1      -3.480   0.584   2.117  0.00  0.00    -0.007 A 
ATOM      6  C5  UNL d   1      -4.747   1.055   1.778  0.00  0.00     0.039 A 
ENDROOT
BRANCH   4   7
ATOM      7  O   UNL d   1      -1.707   0.390   3.658  0.00  0.00    -0.526 OA
ATOM      8  H5  UNL d   1      -1.480   0.648   4.567  0.00  0.00     0.418 HD
ENDBRANCH   4   7
TORSDOF 1
ENDMDL
