MODEL 1
REMARK minimizedAffinity 8.33918095
REMARK minimizedRMSD -1
REMARK  1 active torsions:
REMARK  status: ('A' for Active; 'I' for Inactive)
REMARK    1  A    between atoms: C3_4  and  O_7 
ROOT
ATOM      1  C   UNL d   1      -0.320   1.530  -2.916  0.00  0.00    -0.033 A 
ATOM      2  C1  UNL d   1      -1.420   1.497  -2.056  0.00  0.00     0.039 A 
ATOM      3  C2  UNL d   1      -2.630   2.076  -2.444  0.00  0.00    -0.080 A 
ATOM      4  C3  UNL d   1      -2.727   2.682  -3.693  0.00  0.00     0.150 A 
ATOM      5  C4  UNL d   1      -1.637   2.716  -4.557  0.00  0.00    -0.007 A 
ATOM      6  C5  UNL d   1      -0.429   2.138  -4.167  0.00  0.00     0.039 A 
ENDROOT
BRANCH   4   7
ATOM      7  O   UNL d   1      -3.886   3.265  -4.114  0.00  0.00    -0.526 OA
ATOM      8  H5  UNL d   1      -4.543   3.191  -3.403  0.00  0.00     0.418 HD
ENDBRANCH   4   7
TORSDOF 1
ENDMDL
