MODEL 1
REMARK minimizedAffinity 3.31045198
REMARK minimizedRMSD -1
REMARK  0 active torsions:
REMARK  status: ('A' for Active; 'I' for Inactive)
ROOT
ATOM      1  C   UNL d   1       3.290   2.886  -0.093  0.00  0.00     0.078 C 
ATOM      2  C1  UNL d   1       2.720   1.582  -0.565  0.00  0.00    -0.077 A 
ATOM      3  C2  UNL d   1       1.760   1.541  -1.583  0.00  0.00    -0.001 A 
ATOM      4  C3  UNL d   1       1.231   0.321  -2.006  0.00  0.00     0.003 A 
ATOM      5  C4  UNL d   1       1.656  -0.868  -1.416  0.00  0.00    -0.005 A 
ATOM      6  C5  UNL d   1       2.610  -0.838  -0.401  0.00  0.00     0.003 A 
ATOM      7  C6  UNL d   1       3.139   0.382   0.023  0.00  0.00    -0.001 A 
ENDROOT
TORSDOF 0
ENDMDL
