MODEL 1
REMARK minimizedAffinity 2.15217996
REMARK minimizedRMSD -1
REMARK  0 active torsions:
REMARK  status: ('A' for Active; 'I' for Inactive)
ROOT
ATOM      1  C   UNL d   1      -2.522   1.009   3.337  0.00  0.00     0.078 C 
ATOM      2  C1  UNL d   1      -1.333   0.186   2.938  0.00  0.00    -0.077 A 
ATOM      3  C2  UNL d   1      -0.058   0.468   3.443  0.00  0.00    -0.001 A 
ATOM      4  C3  UNL d   1       1.041  -0.300   3.056  0.00  0.00     0.003 A 
ATOM      5  C4  UNL d   1       0.876  -1.355   2.160  0.00  0.00    -0.005 A 
ATOM      6  C5  UNL d   1      -0.388  -1.641   1.650  0.00  0.00     0.003 A 
ATOM      7  C6  UNL d   1      -1.488  -0.874   2.036  0.00  0.00    -0.001 A 
ENDROOT
TORSDOF 0
ENDMDL
