MODEL 1
REMARK minimizedAffinity 3.83812332
REMARK minimizedRMSD -1
REMARK  0 active torsions:
REMARK  status: ('A' for Active; 'I' for Inactive)
ROOT
ATOM      1  C   UNL d   1       2.912  -2.572   0.870  0.00  0.00     0.078 C 
ATOM      2  C1  UNL d   1       1.899  -1.823   1.683  0.00  0.00    -0.077 A 
ATOM      3  C2  UNL d   1       0.681  -1.418   1.123  0.00  0.00    -0.001 A 
ATOM      4  C3  UNL d   1      -0.249  -0.714   1.889  0.00  0.00     0.003 A 
ATOM      5  C4  UNL d   1       0.029  -0.407   3.220  0.00  0.00    -0.005 A 
ATOM      6  C5  UNL d   1       1.239  -0.805   3.785  0.00  0.00     0.003 A 
ATOM      7  C6  UNL d   1       2.170  -1.509   3.021  0.00  0.00    -0.001 A 
ENDROOT
TORSDOF 0
ENDMDL
