MODEL 1
REMARK minimizedAffinity 4.03185892
REMARK minimizedRMSD -1
REMARK  0 active torsions:
REMARK  status: ('A' for Active; 'I' for Inactive)
ROOT
ATOM      1  C   UNL d   1      -0.376  -0.463  -0.759  0.00  0.00     0.078 C 
ATOM      2  C1  UNL d   1       0.372  -0.710   0.517  0.00  0.00    -0.077 A 
ATOM      3  C2  UNL d   1       1.727  -1.063   0.502  0.00  0.00    -0.001 A 
ATOM      4  C3  UNL d   1       2.408  -1.299   1.697  0.00  0.00     0.003 A 
ATOM      5  C4  UNL d   1       1.742  -1.186   2.916  0.00  0.00    -0.005 A 
ATOM      6  C5  UNL d   1       0.393  -0.837   2.941  0.00  0.00     0.003 A 
ATOM      7  C6  UNL d   1      -0.289  -0.600   1.746  0.00  0.00    -0.001 A 
ENDROOT
TORSDOF 0
ENDMDL
