MODEL 1
REMARK minimizedAffinity 5.68089151
REMARK minimizedRMSD -1
REMARK  0 active torsions:
REMARK  status: ('A' for Active; 'I' for Inactive)
ROOT
ATOM      1  C   UNL d   1       2.429  -1.860   0.201  0.00  0.00     0.078 C 
ATOM      2  C1  UNL d   1       1.564  -1.316   1.297  0.00  0.00    -0.077 A 
ATOM      3  C2  UNL d   1       0.217  -1.007   1.067  0.00  0.00    -0.001 A 
ATOM      4  C3  UNL d   1      -0.574  -0.492   2.095  0.00  0.00     0.003 A 
ATOM      5  C4  UNL d   1      -0.029  -0.280   3.359  0.00  0.00    -0.005 A 
ATOM      6  C5  UNL d   1       1.311  -0.582   3.597  0.00  0.00     0.003 A 
ATOM      7  C6  UNL d   1       2.104  -1.097   2.571  0.00  0.00    -0.001 A 
ENDROOT
TORSDOF 0
ENDMDL
