MODEL 1
REMARK minimizedAffinity -0.280240297
REMARK minimizedRMSD -1
REMARK  0 active torsions:
REMARK  status: ('A' for Active; 'I' for Inactive)
ROOT
ATOM      1  C   UNL d   1       2.834  -2.000  -0.116  0.00  0.00     0.078 C 
ATOM      2  C1  UNL d   1       1.559  -1.520   0.511  0.00  0.00    -0.077 A 
ATOM      3  C2  UNL d   1       1.415  -1.468   1.902  0.00  0.00    -0.001 A 
ATOM      4  C3  UNL d   1       0.218  -1.028   2.472  0.00  0.00     0.003 A 
ATOM      5  C4  UNL d   1      -0.843  -0.640   1.657  0.00  0.00    -0.005 A 
ATOM      6  C5  UNL d   1      -0.710  -0.691   0.271  0.00  0.00     0.003 A 
ATOM      7  C6  UNL d   1       0.486  -1.130  -0.300  0.00  0.00    -0.001 A 
ENDROOT
TORSDOF 0
ENDMDL
