MODEL 1
REMARK minimizedAffinity -0.528471887
REMARK minimizedRMSD -1
REMARK  0 active torsions:
REMARK  status: ('A' for Active; 'I' for Inactive)
ROOT
ATOM      1  C   UNL d   1       2.985  -2.397   0.846  0.00  0.00     0.078 C 
ATOM      2  C1  UNL d   1       1.764  -1.650   1.292  0.00  0.00    -0.077 A 
ATOM      3  C2  UNL d   1       1.506  -1.434   2.651  0.00  0.00    -0.001 A 
ATOM      4  C3  UNL d   1       0.361  -0.745   3.052  0.00  0.00     0.003 A 
ATOM      5  C4  UNL d   1      -0.538  -0.267   2.100  0.00  0.00    -0.005 A 
ATOM      6  C5  UNL d   1      -0.291  -0.479   0.745  0.00  0.00     0.003 A 
ATOM      7  C6  UNL d   1       0.854  -1.168   0.343  0.00  0.00    -0.001 A 
ENDROOT
TORSDOF 0
ENDMDL
