MODEL 1
REMARK minimizedAffinity 5.98943996
REMARK minimizedRMSD -1
REMARK  0 active torsions:
REMARK  status: ('A' for Active; 'I' for Inactive)
ROOT
ATOM      1  C   UNL d   1       1.861  -1.319  -0.090  0.00  0.00     0.078 C 
ATOM      2  C1  UNL d   1       0.937  -1.081   1.067  0.00  0.00    -0.077 A 
ATOM      3  C2  UNL d   1       1.238  -1.570   2.344  0.00  0.00    -0.001 A 
ATOM      4  C3  UNL d   1       0.364  -1.349   3.409  0.00  0.00     0.003 A 
ATOM      5  C4  UNL d   1      -0.819  -0.640   3.208  0.00  0.00    -0.005 A 
ATOM      6  C5  UNL d   1      -1.128  -0.151   1.940  0.00  0.00     0.003 A 
ATOM      7  C6  UNL d   1      -0.255  -0.371   0.874  0.00  0.00    -0.001 A 
ENDROOT
TORSDOF 0
ENDMDL
