MODEL 1
REMARK minimizedAffinity 0.22054629
REMARK minimizedRMSD -1
REMARK  0 active torsions:
REMARK  status: ('A' for Active; 'I' for Inactive)
ROOT
ATOM      1  C   UNL d   1       3.323  -2.158  -0.229  0.00  0.00     0.078 C 
ATOM      2  C1  UNL d   1       2.383  -1.836   0.894  0.00  0.00    -0.077 A 
ATOM      3  C2  UNL d   1       2.609  -2.324   2.187  0.00  0.00    -0.001 A 
ATOM      4  C3  UNL d   1       1.719  -2.025   3.220  0.00  0.00     0.003 A 
ATOM      5  C4  UNL d   1       0.597  -1.238   2.971  0.00  0.00    -0.005 A 
ATOM      6  C5  UNL d   1       0.362  -0.750   1.687  0.00  0.00     0.003 A 
ATOM      7  C6  UNL d   1       1.251  -1.048   0.653  0.00  0.00    -0.001 A 
ENDROOT
TORSDOF 0
ENDMDL
