MODEL 1
REMARK minimizedAffinity -3.12796736
REMARK minimizedRMSD -1
REMARK  0 active torsions:
REMARK  status: ('A' for Active; 'I' for Inactive)
ROOT
ATOM      1  N1  IND d   1      -0.645  -3.433  -0.567  0.00  0.00    -0.196 N 
ATOM      2  C2  IND d   1       0.336  -4.016  -1.318  0.00  0.00     0.054 A 
ATOM      3  C3  IND d   1       1.273  -3.102  -1.659  0.00  0.00    -0.031 A 
ATOM      4  C4  IND d   1       1.448  -0.618  -1.008  0.00  0.00     0.051 A 
ATOM      5  C5  IND d   1       0.768   0.377  -0.363  0.00  0.00    -0.031 A 
ATOM      6  C6  IND d   1      -0.441   0.148   0.262  0.00  0.00     0.015 A 
ATOM      7  C7  IND d   1      -1.012  -1.093   0.275  0.00  0.00    -0.016 A 
ATOM      8  C8  IND d   1      -0.328  -2.105  -0.385  0.00  0.00    -0.047 A 
ATOM      9  C9  IND d   1       0.878  -1.868  -1.057  0.00  0.00    -0.096 A 
ATOM     10  HN1 IND d   1      -1.344  -3.829  -0.259  0.00  0.00     0.298 HD
ENDROOT
TORSDOF 0
ENDMDL
