MODEL 1
REMARK minimizedAffinity -5.51515198
REMARK minimizedRMSD -1
REMARK  0 active torsions:
REMARK  status: ('A' for Active; 'I' for Inactive)
ROOT
ATOM      1  N1  IND d   1       0.726  -2.233  -2.019  0.00  0.00    -0.196 N 
ATOM      2  C2  IND d   1      -0.364  -2.718  -2.685  0.00  0.00     0.054 A 
ATOM      3  C3  IND d   1      -0.676  -3.956  -2.240  0.00  0.00    -0.031 A 
ATOM      4  C4  IND d   1       0.405  -5.335  -0.354  0.00  0.00     0.051 A 
ATOM      5  C5  IND d   1       1.455  -5.326   0.522  0.00  0.00    -0.031 A 
ATOM      6  C6  IND d   1       2.331  -4.263   0.598  0.00  0.00     0.015 A 
ATOM      7  C7  IND d   1       2.183  -3.159  -0.193  0.00  0.00    -0.016 A 
ATOM      8  C8  IND d   1       1.123  -3.168  -1.088  0.00  0.00    -0.047 A 
ATOM      9  C9  IND d   1       0.255  -4.262  -1.200  0.00  0.00    -0.096 A 
ATOM     10  HN1 IND d   1       1.101  -1.471  -2.157  0.00  0.00     0.298 HD
ENDROOT
TORSDOF 0
ENDMDL
