MODEL 1
REMARK minimizedAffinity -3.13324952
REMARK minimizedRMSD -1
REMARK  0 active torsions:
REMARK  status: ('A' for Active; 'I' for Inactive)
ROOT
ATOM      1  N1  IND d   1       1.454  -4.131  -0.269  0.00  0.00    -0.196 N 
ATOM      2  C2  IND d   1       0.820  -5.114  -0.976  0.00  0.00     0.054 A 
ATOM      3  C3  IND d   1       0.149  -4.583  -2.023  0.00  0.00    -0.031 A 
ATOM      4  C4  IND d   1       0.038  -2.138  -2.823  0.00  0.00     0.051 A 
ATOM      5  C5  IND d   1       0.425  -0.874  -2.479  0.00  0.00    -0.031 A 
ATOM      6  C6  IND d   1       1.194  -0.626  -1.360  0.00  0.00     0.015 A 
ATOM      7  C7  IND d   1       1.614  -1.639  -0.546  0.00  0.00    -0.016 A 
ATOM      8  C8  IND d   1       1.216  -2.923  -0.888  0.00  0.00    -0.047 A 
ATOM      9  C9  IND d   1       0.401  -3.177  -1.999  0.00  0.00    -0.096 A 
ATOM     10  HN1 IND d   1       1.923  -4.248   0.442  0.00  0.00     0.298 HD
ENDROOT
TORSDOF 0
ENDMDL
