MODEL 1
REMARK minimizedAffinity -1.83540165
REMARK minimizedRMSD -1
REMARK  0 active torsions:
REMARK  status: ('A' for Active; 'I' for Inactive)
ROOT
ATOM      1  N1  IND d   1       0.989  -6.000  -0.754  0.00  0.00    -0.196 N 
ATOM      2  C2  IND d   1       1.870  -6.000   0.291  0.00  0.00     0.054 A 
ATOM      3  C3  IND d   1       2.233  -4.735   0.600  0.00  0.00    -0.031 A 
ATOM      4  C4  IND d   1       1.428  -2.509  -0.412  0.00  0.00     0.051 A 
ATOM      5  C5  IND d   1       0.654  -2.000  -1.417  0.00  0.00    -0.031 A 
ATOM      6  C6  IND d   1      -0.066  -2.814  -2.267  0.00  0.00     0.015 A 
ATOM      7  C7  IND d   1      -0.046  -4.174  -2.137  0.00  0.00    -0.016 A 
ATOM      8  C8  IND d   1       0.745  -4.695  -1.123  0.00  0.00    -0.047 A 
ATOM      9  C9  IND d   1       1.511  -3.875  -0.284  0.00  0.00    -0.096 A 
ATOM     10  HN1 IND d   1       0.645  -6.698  -1.121  0.00  0.00     0.298 HD
ENDROOT
TORSDOF 0
ENDMDL
