MODEL 1
REMARK minimizedAffinity -3.82467628
REMARK minimizedRMSD -1
REMARK  0 active torsions:
REMARK  status: ('A' for Active; 'I' for Inactive)
ROOT
ATOM      1  N1  IND d   1       1.100  -0.129   1.232  0.00  0.00    -0.196 N 
ATOM      2  C2  IND d   1       1.359  -0.740   0.037  0.00  0.00     0.054 A 
ATOM      3  C3  IND d   1       0.355  -0.509  -0.837  0.00  0.00    -0.031 A 
ATOM      4  C4  IND d   1      -1.762   0.928  -0.554  0.00  0.00     0.051 A 
ATOM      5  C5  IND d   1      -2.455   1.655   0.374  0.00  0.00    -0.031 A 
ATOM      6  C6  IND d   1      -1.987   1.830   1.660  0.00  0.00     0.015 A 
ATOM      7  C7  IND d   1      -0.798   1.292   2.065  0.00  0.00    -0.016 A 
ATOM      8  C8  IND d   1      -0.096   0.547   1.128  0.00  0.00    -0.047 A 
ATOM      9  C9  IND d   1      -0.586   0.331  -0.166  0.00  0.00    -0.096 A 
ATOM     10  HN1 IND d   1       1.599  -0.162   1.931  0.00  0.00     0.298 HD
ENDROOT
TORSDOF 0
ENDMDL
