MODEL 1
REMARK minimizedAffinity -1.76774037
REMARK minimizedRMSD -1
REMARK  0 active torsions:
REMARK  status: ('A' for Active; 'I' for Inactive)
ROOT
ATOM      1  N1  IND d   1       1.173  -0.189   1.247  0.00  0.00    -0.196 N 
ATOM      2  C2  IND d   1       1.308  -0.615  -0.045  0.00  0.00     0.054 A 
ATOM      3  C3  IND d   1       0.280  -0.164  -0.799  0.00  0.00    -0.031 A 
ATOM      4  C4  IND d   1      -1.678   1.373  -0.143  0.00  0.00     0.051 A 
ATOM      5  C5  IND d   1      -2.248   1.991   0.935  0.00  0.00    -0.031 A 
ATOM      6  C6  IND d   1      -1.694   1.915   2.196  0.00  0.00     0.015 A 
ATOM      7  C7  IND d   1      -0.538   1.224   2.426  0.00  0.00    -0.016 A 
ATOM      8  C8  IND d   1       0.039   0.589   1.336  0.00  0.00    -0.047 A 
ATOM      9  C9  IND d   1      -0.541   0.627   0.062  0.00  0.00    -0.096 A 
ATOM     10  HN1 IND d   1       1.706  -0.375   1.895  0.00  0.00     0.298 HD
ENDROOT
TORSDOF 0
ENDMDL
