MODEL 1
REMARK minimizedAffinity -6.39454699
REMARK minimizedRMSD -1
REMARK  0 active torsions:
REMARK  status: ('A' for Active; 'I' for Inactive)
ROOT
ATOM      1  N1  IND d   1       0.938   1.640  -1.086  0.00  0.00    -0.196 N 
ATOM      2  C2  IND d   1       1.376   0.378  -0.794  0.00  0.00     0.054 A 
ATOM      3  C3  IND d   1       0.736  -0.101   0.297  0.00  0.00    -0.031 A 
ATOM      4  C4  IND d   1      -1.138   0.974   1.697  0.00  0.00     0.051 A 
ATOM      5  C5  IND d   1      -1.846   2.134   1.839  0.00  0.00    -0.031 A 
ATOM      6  C6  IND d   1      -1.661   3.209   0.994  0.00  0.00     0.015 A 
ATOM      7  C7  IND d   1      -0.764   3.160  -0.035  0.00  0.00    -0.016 A 
ATOM      8  C8  IND d   1      -0.038   1.986  -0.178  0.00  0.00    -0.047 A 
ATOM      9  C9  IND d   1      -0.191   0.907   0.702  0.00  0.00    -0.096 A 
ATOM     10  HN1 IND d   1       1.225   2.134  -1.728  0.00  0.00     0.298 HD
ENDROOT
TORSDOF 0
ENDMDL
