MODEL 1
REMARK minimizedAffinity 4.42073631
REMARK minimizedRMSD -1
REMARK  0 active torsions:
REMARK  status: ('A' for Active; 'I' for Inactive)
ROOT
ATOM      1  N1  IND d   1      -0.102   2.662   1.336  0.00  0.00    -0.196 N 
ATOM      2  C2  IND d   1      -0.898   2.512   2.437  0.00  0.00     0.054 A 
ATOM      3  C3  IND d   1      -1.310   1.230   2.549  0.00  0.00    -0.031 A 
ATOM      4  C4  IND d   1      -0.717  -0.811   1.096  0.00  0.00     0.051 A 
ATOM      5  C5  IND d   1      -0.052  -1.165  -0.045  0.00  0.00    -0.031 A 
ATOM      6  C6  IND d   1       0.646  -0.243  -0.797  0.00  0.00     0.015 A 
ATOM      7  C7  IND d   1       0.716   1.071  -0.429  0.00  0.00    -0.016 A 
ATOM      8  C8  IND d   1       0.036   1.435   0.725  0.00  0.00    -0.047 A 
ATOM      9  C9  IND d   1      -0.709   0.512   1.470  0.00  0.00    -0.096 A 
ATOM     10  HN1 IND d   1       0.253   3.398   1.070  0.00  0.00     0.298 HD
ENDROOT
TORSDOF 0
ENDMDL
