MODEL 1
REMARK minimizedAffinity 0.826918662
REMARK minimizedRMSD -1
REMARK  0 active torsions:
REMARK  status: ('A' for Active; 'I' for Inactive)
ROOT
ATOM      1  N1  IND d   1       0.509   1.072  -0.471  0.00  0.00    -0.196 N 
ATOM      2  C2  IND d   1      -0.156   1.254  -1.652  0.00  0.00     0.054 A 
ATOM      3  C3  IND d   1      -1.441   1.603  -1.419  0.00  0.00    -0.031 A 
ATOM      4  C4  IND d   1      -2.639   2.033   0.819  0.00  0.00     0.051 A 
ATOM      5  C5  IND d   1      -2.455   1.958   2.171  0.00  0.00    -0.031 A 
ATOM      6  C6  IND d   1      -1.248   1.579   2.723  0.00  0.00     0.015 A 
ATOM      7  C7  IND d   1      -0.172   1.270   1.939  0.00  0.00    -0.016 A 
ATOM      8  C8  IND d   1      -0.358   1.338   0.566  0.00  0.00    -0.047 A 
ATOM      9  C9  IND d   1      -1.592   1.681  -0.000  0.00  0.00    -0.096 A 
ATOM     10  HN1 IND d   1       1.331   0.831  -0.390  0.00  0.00     0.298 HD
ENDROOT
TORSDOF 0
ENDMDL
