MODEL 1
REMARK minimizedAffinity 9.76565075
REMARK minimizedRMSD -1
REMARK  0 active torsions:
REMARK  status: ('A' for Active; 'I' for Inactive)
ROOT
ATOM      1  N1  IND d   1      -2.402   2.811   2.827  0.00  0.00    -0.196 N 
ATOM      2  C2  IND d   1      -1.463   3.728   3.209  0.00  0.00     0.054 A 
ATOM      3  C3  IND d   1      -0.303   3.109   3.524  0.00  0.00    -0.031 A 
ATOM      4  C4  IND d   1       0.310   0.613   3.387  0.00  0.00     0.051 A 
ATOM      5  C5  IND d   1      -0.229  -0.616   3.128  0.00  0.00    -0.031 A 
ATOM      6  C6  IND d   1      -1.546  -0.768   2.745  0.00  0.00     0.015 A 
ATOM      7  C7  IND d   1      -2.374   0.309   2.595  0.00  0.00    -0.016 A 
ATOM      8  C8  IND d   1      -1.831   1.557   2.864  0.00  0.00    -0.047 A 
ATOM      9  C9  IND d   1      -0.508   1.714   3.294  0.00  0.00    -0.096 A 
ATOM     10  HN1 IND d   1      -3.213   2.987   2.602  0.00  0.00     0.298 HD
ENDROOT
TORSDOF 0
ENDMDL
