MODEL 1
REMARK minimizedAffinity -1.28992641
REMARK minimizedRMSD -1
REMARK  0 active torsions:
REMARK  status: ('A' for Active; 'I' for Inactive)
ROOT
ATOM      1  N1  IND d   1      -1.716   2.670  -0.488  0.00  0.00    -0.196 N 
ATOM      2  C2  IND d   1      -1.475   2.109  -1.710  0.00  0.00     0.054 A 
ATOM      3  C3  IND d   1      -0.801   0.946  -1.569  0.00  0.00    -0.031 A 
ATOM      4  C4  IND d   1      -0.080  -0.277   0.579  0.00  0.00     0.051 A 
ATOM      5  C5  IND d   1      -0.046  -0.137   1.938  0.00  0.00    -0.031 A 
ATOM      6  C6  IND d   1      -0.580   0.967   2.571  0.00  0.00     0.015 A 
ATOM      7  C7  IND d   1      -1.181   1.971   1.866  0.00  0.00    -0.016 A 
ATOM      8  C8  IND d   1      -1.211   1.836   0.485  0.00  0.00    -0.047 A 
ATOM      9  C9  IND d   1      -0.633   0.738  -0.166  0.00  0.00    -0.096 A 
ATOM     10  HN1 IND d   1      -2.115   3.419  -0.349  0.00  0.00     0.298 HD
ENDROOT
TORSDOF 0
ENDMDL
