MODEL 1
REMARK minimizedAffinity -4.48449469
REMARK minimizedRMSD -1
REMARK  0 active torsions:
REMARK  status: ('A' for Active; 'I' for Inactive)
ROOT
ATOM      1  N1  IND d   1      -0.539   1.194  -1.757  0.00  0.00    -0.196 N 
ATOM      2  C2  IND d   1       0.547   0.364  -1.746  0.00  0.00     0.054 A 
ATOM      3  C3  IND d   1       0.940   0.120  -0.475  0.00  0.00    -0.031 A 
ATOM      4  C4  IND d   1      -0.116   0.896   1.741  0.00  0.00     0.051 A 
ATOM      5  C5  IND d   1      -1.102   1.701   2.241  0.00  0.00    -0.031 A 
ATOM      6  C6  IND d   1      -1.969   2.389   1.417  0.00  0.00     0.015 A 
ATOM      7  C7  IND d   1      -1.890   2.289   0.057  0.00  0.00    -0.016 A 
ATOM      8  C8  IND d   1      -0.886   1.479  -0.454  0.00  0.00    -0.047 A 
ATOM      9  C9  IND d   1       0.024   0.812   0.376  0.00  0.00    -0.096 A 
ATOM     10  HN1 IND d   1      -0.937   1.489  -2.459  0.00  0.00     0.298 HD
ENDROOT
TORSDOF 0
ENDMDL
