MODEL 1
REMARK minimizedAffinity 1.98141146
REMARK minimizedRMSD -1
REMARK  0 active torsions:
REMARK  status: ('A' for Active; 'I' for Inactive)
ROOT
ATOM      1  N1  IND d   1       0.937  -0.532  -3.997  0.00  0.00    -0.196 N 
ATOM      2  C2  IND d   1       0.011  -0.424  -4.997  0.00  0.00     0.054 A 
ATOM      3  C3  IND d   1      -1.117   0.156  -4.531  0.00  0.00    -0.031 A 
ATOM      4  C4  IND d   1      -1.627   1.099  -2.191  0.00  0.00     0.051 A 
ATOM      5  C5  IND d   1      -1.104   1.198  -0.932  0.00  0.00    -0.031 A 
ATOM      6  C6  IND d   1       0.153   0.718  -0.625  0.00  0.00     0.015 A 
ATOM      7  C7  IND d   1       0.941   0.128  -1.572  0.00  0.00    -0.016 A 
ATOM      8  C8  IND d   1       0.411   0.020  -2.850  0.00  0.00    -0.047 A 
ATOM      9  C9  IND d   1      -0.881   0.467  -3.157  0.00  0.00    -0.096 A 
ATOM     10  HN1 IND d   1       1.717  -0.886  -4.071  0.00  0.00     0.298 HD
ENDROOT
TORSDOF 0
ENDMDL
