MODEL 1
REMARK minimizedAffinity 7.4704957
REMARK minimizedRMSD -1
REMARK  0 active torsions:
REMARK  status: ('A' for Active; 'I' for Inactive)
ROOT
ATOM      1  N1  IND d   1       0.379   3.018  -0.464  0.00  0.00    -0.196 N 
ATOM      2  C2  IND d   1       0.636   2.300  -1.598  0.00  0.00     0.054 A 
ATOM      3  C3  IND d   1       0.444   0.981  -1.373  0.00  0.00    -0.031 A 
ATOM      4  C4  IND d   1      -0.390  -0.212   0.750  0.00  0.00     0.051 A 
ATOM      5  C5  IND d   1      -0.720   0.019   2.056  0.00  0.00    -0.031 A 
ATOM      6  C6  IND d   1      -0.703   1.288   2.599  0.00  0.00     0.015 A 
ATOM      7  C7  IND d   1      -0.365   2.379   1.850  0.00  0.00    -0.016 A 
ATOM      8  C8  IND d   1      -0.022   2.147   0.525  0.00  0.00    -0.047 A 
ATOM      9  C9  IND d   1       0.004   0.857  -0.020  0.00  0.00    -0.096 A 
ATOM     10  HN1 IND d   1       0.455   3.871  -0.382  0.00  0.00     0.298 HD
ENDROOT
TORSDOF 0
ENDMDL
