MODEL 1
REMARK minimizedAffinity 0.0427310281
REMARK minimizedRMSD -1
REMARK  0 active torsions:
REMARK  status: ('A' for Active; 'I' for Inactive)
ROOT
ATOM      1  N1  IND d   1       0.578   2.691  -0.206  0.00  0.00    -0.196 N 
ATOM      2  C2  IND d   1       0.631   1.901  -1.319  0.00  0.00     0.054 A 
ATOM      3  C3  IND d   1       0.276   0.633  -1.013  0.00  0.00    -0.031 A 
ATOM      4  C4  IND d   1      -0.526  -0.345   1.229  0.00  0.00     0.051 A 
ATOM      5  C5  IND d   1      -0.705  -0.019   2.544  0.00  0.00    -0.031 A 
ATOM      6  C6  IND d   1      -0.463   1.254   3.019  0.00  0.00     0.015 A 
ATOM      7  C7  IND d   1      -0.042   2.255   2.190  0.00  0.00    -0.016 A 
ATOM      8  C8  IND d   1       0.147   1.926   0.856  0.00  0.00    -0.047 A 
ATOM      9  C9  IND d   1      -0.056   0.625   0.376  0.00  0.00    -0.096 A 
ATOM     10  HN1 IND d   1       0.779   3.527  -0.173  0.00  0.00     0.298 HD
ENDROOT
TORSDOF 0
ENDMDL
