MODEL 1
REMARK minimizedAffinity 0.830978096
REMARK minimizedRMSD -1
REMARK  0 active torsions:
REMARK  status: ('A' for Active; 'I' for Inactive)
ROOT
ATOM      1  N1  IND d   1      -0.291  -0.351  -1.062  0.00  0.00    -0.196 N 
ATOM      2  C2  IND d   1       0.837  -1.018  -0.674  0.00  0.00     0.054 A 
ATOM      3  C3  IND d   1       1.153  -0.705   0.603  0.00  0.00    -0.031 A 
ATOM      4  C4  IND d   1      -0.097   0.802   2.274  0.00  0.00     0.051 A 
ATOM      5  C5  IND d   1      -1.159   1.658   2.368  0.00  0.00    -0.031 A 
ATOM      6  C6  IND d   1      -2.005   1.890   1.303  0.00  0.00     0.015 A 
ATOM      7  C7  IND d   1      -1.825   1.264   0.102  0.00  0.00    -0.016 A 
ATOM      8  C8  IND d   1      -0.744   0.400   0.000  0.00  0.00    -0.047 A 
ATOM      9  C9  IND d   1       0.143   0.193   1.065  0.00  0.00    -0.096 A 
ATOM     10  HN1 IND d   1      -0.656  -0.392  -1.840  0.00  0.00     0.298 HD
ENDROOT
TORSDOF 0
ENDMDL
