MODEL 1
REMARK minimizedAffinity 6.24498701
REMARK minimizedRMSD -1
REMARK  0 active torsions:
REMARK  status: ('A' for Active; 'I' for Inactive)
ROOT
ATOM      1  C   UNL d   1      -1.929  -0.125   2.693  0.00  0.00     0.020 A 
ATOM      2  C1  UNL d   1      -0.747  -0.835   2.897  0.00  0.00     0.020 A 
ATOM      3  C2  UNL d   1       0.125  -1.061   1.830  0.00  0.00     0.034 A 
ATOM      4  C3  UNL d   1      -0.184  -0.576   0.554  0.00  0.00     0.017 A 
ATOM      5  C4  UNL d   1      -1.371   0.136   0.350  0.00  0.00     0.017 A 
ATOM      6  C5  UNL d   1      -2.241   0.360   1.422  0.00  0.00     0.034 A 
ATOM      7 Cl   UNL d   1      -1.821   0.765  -1.196  0.00  0.00    -0.070 Cl
ATOM      8 Cl1  UNL d   1       0.940  -0.892  -0.720  0.00  0.00    -0.070 Cl
ENDROOT
TORSDOF 0
ENDMDL
