MODEL 1
REMARK minimizedAffinity 2.86623788
REMARK minimizedRMSD -1
REMARK  0 active torsions:
REMARK  status: ('A' for Active; 'I' for Inactive)
ROOT
ATOM      1  C   UNL d   1       2.138  -3.968   1.701  0.00  0.00     0.020 A 
ATOM      2  C1  UNL d   1       1.227  -4.494   2.617  0.00  0.00     0.020 A 
ATOM      3  C2  UNL d   1       0.079  -3.774   2.953  0.00  0.00     0.034 A 
ATOM      4  C3  UNL d   1      -0.162  -2.523   2.373  0.00  0.00     0.017 A 
ATOM      5  C4  UNL d   1       0.753  -1.995   1.454  0.00  0.00     0.017 A 
ATOM      6  C5  UNL d   1       1.901  -2.721   1.121  0.00  0.00     0.034 A 
ATOM      7 Cl   UNL d   1       0.524  -0.458   0.697  0.00  0.00    -0.070 Cl
ATOM      8 Cl1  UNL d   1      -1.602  -1.687   2.834  0.00  0.00    -0.070 Cl
ENDROOT
TORSDOF 0
ENDMDL
