MODEL 1
REMARK minimizedAffinity 0.135695711
REMARK minimizedRMSD -1
REMARK  0 active torsions:
REMARK  status: ('A' for Active; 'I' for Inactive)
ROOT
ATOM      1  C   UNL d   1       2.190  -3.221   1.670  0.00  0.00     0.020 A 
ATOM      2  C1  UNL d   1       1.564  -2.977   2.892  0.00  0.00     0.020 A 
ATOM      3  C2  UNL d   1       0.500  -2.075   2.964  0.00  0.00     0.034 A 
ATOM      4  C3  UNL d   1       0.060  -1.413   1.812  0.00  0.00     0.017 A 
ATOM      5  C4  UNL d   1       0.688  -1.658   0.586  0.00  0.00     0.017 A 
ATOM      6  C5  UNL d   1       1.753  -2.563   0.520  0.00  0.00     0.034 A 
ATOM      7 Cl   UNL d   1       0.201  -0.880  -0.878  0.00  0.00    -0.070 Cl
ATOM      8 Cl1  UNL d   1      -1.261  -0.311   1.975  0.00  0.00    -0.070 Cl
ENDROOT
TORSDOF 0
ENDMDL
