MODEL 1
REMARK minimizedAffinity -1.32471609
REMARK minimizedRMSD -1
REMARK  0 active torsions:
REMARK  status: ('A' for Active; 'I' for Inactive)
ROOT
ATOM      1  C   UNL d   1       0.028  -0.029   0.767  0.00  0.00     0.020 A 
ATOM      2  C1  UNL d   1      -0.991  -0.975   0.656  0.00  0.00     0.020 A 
ATOM      3  C2  UNL d   1      -1.919  -0.883  -0.383  0.00  0.00     0.034 A 
ATOM      4  C3  UNL d   1      -1.830   0.156  -1.316  0.00  0.00     0.017 A 
ATOM      5  C4  UNL d   1      -0.808   1.105  -1.204  0.00  0.00     0.017 A 
ATOM      6  C5  UNL d   1       0.119   1.009  -0.162  0.00  0.00     0.034 A 
ATOM      7 Cl   UNL d   1      -0.634   2.416  -2.317  0.00  0.00    -0.070 Cl
ATOM      8 Cl1  UNL d   1      -3.012   0.207  -2.576  0.00  0.00    -0.070 Cl
ENDROOT
TORSDOF 0
ENDMDL
