MODEL 1
REMARK minimizedAffinity 0.404762775
REMARK minimizedRMSD -1
REMARK  0 active torsions:
REMARK  status: ('A' for Active; 'I' for Inactive)
ROOT
ATOM      1  C   UNL d   1       2.138   2.438  -2.887  0.00  0.00     0.020 A 
ATOM      2  C1  UNL d   1       2.305   1.245  -2.186  0.00  0.00     0.020 A 
ATOM      3  C2  UNL d   1       1.231   0.692  -1.484  0.00  0.00     0.034 A 
ATOM      4  C3  UNL d   1      -0.013   1.333  -1.482  0.00  0.00     0.017 A 
ATOM      5  C4  UNL d   1      -0.179   2.531  -2.186  0.00  0.00     0.017 A 
ATOM      6  C5  UNL d   1       0.899   3.080  -2.888  0.00  0.00     0.034 A 
ATOM      7 Cl   UNL d   1      -1.684   3.379  -2.230  0.00  0.00    -0.070 Cl
ATOM      8 Cl1  UNL d   1      -1.296   0.592  -0.593  0.00  0.00    -0.070 Cl
ENDROOT
TORSDOF 0
ENDMDL
