MODEL 1
REMARK minimizedAffinity -0.219308257
REMARK minimizedRMSD -1
REMARK  0 active torsions:
REMARK  status: ('A' for Active; 'I' for Inactive)
ROOT
ATOM      1  C   UNL d   1      -3.549   4.803   1.989  0.00  0.00     0.077 C 
ATOM      2  C1  UNL d   1      -2.645   3.985   1.116  0.00  0.00    -0.074 A 
ATOM      3  C2  UNL d   1      -3.151   2.942   0.333  0.00  0.00    -0.005 A 
ATOM      4  C3  UNL d   1      -2.299   2.196  -0.482  0.00  0.00     0.006 A 
ATOM      5  C4  UNL d   1      -0.935   2.485  -0.522  0.00  0.00    -0.005 A 
ATOM      6  C5  UNL d   1      -0.410   3.524   0.254  0.00  0.00    -0.074 A 
ATOM      7  C6  UNL d   1       1.053   3.853   0.215  0.00  0.00     0.077 C 
ATOM      8  C7  UNL d   1      -1.274   4.273   1.064  0.00  0.00    -0.001 A 
ENDROOT
TORSDOF 0
ENDMDL
