MODEL 1
REMARK minimizedAffinity 10.2406082
REMARK minimizedRMSD -1
REMARK  0 active torsions:
REMARK  status: ('A' for Active; 'I' for Inactive)
ROOT
ATOM      1  C   UNL d   1       0.040   5.998  -1.932  0.00  0.00     0.077 C 
ATOM      2  C1  UNL d   1       0.044   4.809  -1.017  0.00  0.00    -0.074 A 
ATOM      3  C2  UNL d   1       1.242   4.188  -0.650  0.00  0.00    -0.005 A 
ATOM      4  C3  UNL d   1       1.231   3.090   0.209  0.00  0.00     0.006 A 
ATOM      5  C4  UNL d   1       0.023   2.602   0.710  0.00  0.00    -0.005 A 
ATOM      6  C5  UNL d   1      -1.185   3.211   0.355  0.00  0.00    -0.074 A 
ATOM      7  C6  UNL d   1      -2.491   2.705   0.892  0.00  0.00     0.077 C 
ATOM      8  C7  UNL d   1      -1.165   4.318  -0.503  0.00  0.00    -0.001 A 
ENDROOT
TORSDOF 0
ENDMDL
