MODEL 1
REMARK minimizedAffinity -4.35838032
REMARK minimizedRMSD -1
REMARK  0 active torsions:
REMARK  status: ('A' for Active; 'I' for Inactive)
ROOT
ATOM      1  C   UNL d   1      -5.999   5.354  -5.624  0.00  0.00     0.077 C 
ATOM      2  C1  UNL d   1      -5.273   4.227  -4.951  0.00  0.00    -0.074 A 
ATOM      3  C2  UNL d   1      -4.086   4.454  -4.248  0.00  0.00    -0.005 A 
ATOM      4  C3  UNL d   1      -3.428   3.397  -3.619  0.00  0.00     0.006 A 
ATOM      5  C4  UNL d   1      -3.949   2.105  -3.687  0.00  0.00    -0.005 A 
ATOM      6  C5  UNL d   1      -5.135   1.858  -4.385  0.00  0.00    -0.074 A 
ATOM      7  C6  UNL d   1      -5.714   0.477  -4.460  0.00  0.00     0.077 C 
ATOM      8  C7  UNL d   1      -5.795   2.927  -5.008  0.00  0.00    -0.001 A 
ENDROOT
TORSDOF 0
ENDMDL
