MODEL 1
REMARK minimizedAffinity -0.0823785588
REMARK minimizedRMSD -1
REMARK  0 active torsions:
REMARK  status: ('A' for Active; 'I' for Inactive)
ROOT
ATOM      1  C   UNL d   1       5.936  -2.461  -1.219  0.00  0.00     0.077 C 
ATOM      2  C1  UNL d   1       4.599  -2.412  -0.541  0.00  0.00    -0.074 A 
ATOM      3  C2  UNL d   1       4.031  -3.564   0.013  0.00  0.00    -0.005 A 
ATOM      4  C3  UNL d   1       2.792  -3.500   0.650  0.00  0.00     0.006 A 
ATOM      5  C4  UNL d   1       2.109  -2.287   0.739  0.00  0.00    -0.005 A 
ATOM      6  C5  UNL d   1       2.661  -1.124   0.192  0.00  0.00    -0.074 A 
ATOM      7  C6  UNL d   1       1.945   0.190   0.287  0.00  0.00     0.077 C 
ATOM      8  C7  UNL d   1       3.910  -1.195  -0.440  0.00  0.00    -0.001 A 
ENDROOT
TORSDOF 0
ENDMDL
