MODEL 1
REMARK minimizedAffinity 14.543642
REMARK minimizedRMSD -1
REMARK  0 active torsions:
REMARK  status: ('A' for Active; 'I' for Inactive)
ROOT
ATOM      1  C   UNL d   1       1.901   5.999  -2.506  0.00  0.00     0.077 C 
ATOM      2  C1  UNL d   1       1.071   5.208  -1.539  0.00  0.00    -0.074 A 
ATOM      3  C2  UNL d   1      -0.275   5.521  -1.323  0.00  0.00    -0.005 A 
ATOM      4  C3  UNL d   1      -1.036   4.770  -0.427  0.00  0.00     0.006 A 
ATOM      5  C4  UNL d   1      -0.461   3.700   0.260  0.00  0.00    -0.005 A 
ATOM      6  C5  UNL d   1       0.883   3.372   0.056  0.00  0.00    -0.074 A 
ATOM      7  C6  UNL d   1       1.514   2.219   0.778  0.00  0.00     0.077 C 
ATOM      8  C7  UNL d   1       1.640   4.127  -0.851  0.00  0.00    -0.001 A 
ENDROOT
TORSDOF 0
ENDMDL
