MODEL 1
REMARK minimizedAffinity 9.4481039
REMARK minimizedRMSD -1
REMARK  0 active torsions:
REMARK  status: ('A' for Active; 'I' for Inactive)
ROOT
ATOM      1  C   UNL d   1       0.525   5.973  -2.175  0.00  0.00     0.077 C 
ATOM      2  C1  UNL d   1       0.108   4.964  -1.148  0.00  0.00    -0.074 A 
ATOM      3  C2  UNL d   1       0.872   3.816  -0.916  0.00  0.00    -0.005 A 
ATOM      4  C3  UNL d   1       0.476   2.890   0.050  0.00  0.00     0.006 A 
ATOM      5  C4  UNL d   1      -0.687   3.103   0.792  0.00  0.00    -0.005 A 
ATOM      6  C5  UNL d   1      -1.463   4.245   0.574  0.00  0.00    -0.074 A 
ATOM      7  C6  UNL d   1      -2.710   4.494   1.369  0.00  0.00     0.077 C 
ATOM      8  C7  UNL d   1      -1.055   5.174  -0.393  0.00  0.00    -0.001 A 
ENDROOT
TORSDOF 0
ENDMDL
