MODEL 1
REMARK minimizedAffinity -6.6942091
REMARK minimizedRMSD -1
REMARK  0 active torsions:
REMARK  status: ('A' for Active; 'I' for Inactive)
ROOT
ATOM      1  N1  IND d   1       1.028  -1.153  -1.308  0.00  0.00    -0.196 N 
ATOM      2  C2  IND d   1      -0.124  -0.423  -1.207  0.00  0.00     0.054 A 
ATOM      3  C3  IND d   1      -0.373  -0.114   0.086  0.00  0.00    -0.031 A 
ATOM      4  C4  IND d   1       1.027  -0.617   2.187  0.00  0.00     0.051 A 
ATOM      5  C5  IND d   1       2.143  -1.289   2.603  0.00  0.00    -0.031 A 
ATOM      6  C6  IND d   1       2.961  -1.961   1.718  0.00  0.00     0.015 A 
ATOM      7  C7  IND d   1       2.700  -1.977   0.377  0.00  0.00    -0.016 A 
ATOM      8  C8  IND d   1       1.565  -1.301  -0.048  0.00  0.00    -0.047 A 
ATOM      9  C9  IND d   1       0.707  -0.653   0.850  0.00  0.00    -0.096 A 
ATOM     10  HN1 IND d   1       1.361  -1.466  -2.036  0.00  0.00     0.298 HD
ENDROOT
TORSDOF 0
ENDMDL
