MODEL 1
REMARK minimizedAffinity -3.77362847
REMARK minimizedRMSD -1
REMARK  0 active torsions:
REMARK  status: ('A' for Active; 'I' for Inactive)
ROOT
ATOM      1  N1  IND d   1       1.156  -0.371  -0.656  0.00  0.00    -0.196 N 
ATOM      2  C2  IND d   1       0.091  -0.026  -1.441  0.00  0.00     0.054 A 
ATOM      3  C3  IND d   1      -1.051  -0.042  -0.718  0.00  0.00    -0.031 A 
ATOM      4  C4  IND d   1      -1.392  -0.507   1.791  0.00  0.00     0.051 A 
ATOM      5  C5  IND d   1      -0.721  -0.903   2.914  0.00  0.00    -0.031 A 
ATOM      6  C6  IND d   1       0.638  -1.145   2.905  0.00  0.00     0.015 A 
ATOM      7  C7  IND d   1       1.381  -0.987   1.769  0.00  0.00    -0.016 A 
ATOM      8  C8  IND d   1       0.702  -0.592   0.626  0.00  0.00    -0.047 A 
ATOM      9  C9  IND d   1      -0.684  -0.386   0.619  0.00  0.00    -0.096 A 
ATOM     10  HN1 IND d   1       1.971  -0.440  -0.919  0.00  0.00     0.298 HD
ENDROOT
TORSDOF 0
ENDMDL
