MODEL 1
REMARK minimizedAffinity -4.41290283
REMARK minimizedRMSD -1
REMARK  0 active torsions:
REMARK  status: ('A' for Active; 'I' for Inactive)
ROOT
ATOM      1  N1  IND d   1       0.411  -0.095  -0.782  0.00  0.00    -0.196 N 
ATOM      2  C2  IND d   1      -0.813   0.356  -0.373  0.00  0.00     0.054 A 
ATOM      3  C3  IND d   1      -0.958   0.181   0.959  0.00  0.00    -0.031 A 
ATOM      4  C4  IND d   1       0.725  -0.731   2.681  0.00  0.00     0.051 A 
ATOM      5  C5  IND d   1       1.962  -1.302   2.780  0.00  0.00    -0.031 A 
ATOM      6  C6  IND d   1       2.763  -1.502   1.674  0.00  0.00     0.015 A 
ATOM      7  C7  IND d   1       2.359  -1.125   0.424  0.00  0.00    -0.016 A 
ATOM      8  C8  IND d   1       1.100  -0.551   0.319  0.00  0.00    -0.047 A 
ATOM      9  C9  IND d   1       0.266  -0.385   1.432  0.00  0.00    -0.096 A 
ATOM     10  HN1 IND d   1       0.701  -0.094  -1.592  0.00  0.00     0.298 HD
ENDROOT
TORSDOF 0
ENDMDL
