MODEL 1
REMARK minimizedAffinity -3.18792319
REMARK minimizedRMSD -1
REMARK  0 active torsions:
REMARK  status: ('A' for Active; 'I' for Inactive)
ROOT
ATOM      1  N1  IND d   1       0.507  -0.270  -0.753  0.00  0.00    -0.196 N 
ATOM      2  C2  IND d   1      -0.670   0.313  -0.374  0.00  0.00     0.054 A 
ATOM      3  C3  IND d   1      -0.875   0.140   0.951  0.00  0.00    -0.031 A 
ATOM      4  C4  IND d   1       0.638  -0.978   2.709  0.00  0.00     0.051 A 
ATOM      5  C5  IND d   1       1.799  -1.687   2.835  0.00  0.00    -0.031 A 
ATOM      6  C6  IND d   1       2.607  -1.964   1.751  0.00  0.00     0.015 A 
ATOM      7  C7  IND d   1       2.287  -1.529   0.496  0.00  0.00    -0.016 A 
ATOM      8  C8  IND d   1       1.105  -0.815   0.362  0.00  0.00    -0.047 A 
ATOM      9  C9  IND d   1       0.260  -0.568   1.452  0.00  0.00    -0.096 A 
ATOM     10  HN1 IND d   1       0.821  -0.292  -1.553  0.00  0.00     0.298 HD
ENDROOT
TORSDOF 0
ENDMDL
