MODEL 1
REMARK minimizedAffinity -4.25875854
REMARK minimizedRMSD -1
REMARK  0 active torsions:
REMARK  status: ('A' for Active; 'I' for Inactive)
ROOT
ATOM      1  N1  IND d   1       0.551   0.358  -1.324  0.00  0.00    -0.196 N 
ATOM      2  C2  IND d   1      -0.787   0.395  -1.603  0.00  0.00     0.054 A 
ATOM      3  C3  IND d   1      -1.506   0.107  -0.495  0.00  0.00    -0.031 A 
ATOM      4  C4  IND d   1      -0.698  -0.356   1.905  0.00  0.00     0.051 A 
ATOM      5  C5  IND d   1       0.438  -0.532   2.644  0.00  0.00    -0.031 A 
ATOM      6  C6  IND d   1       1.695  -0.416   2.087  0.00  0.00     0.015 A 
ATOM      7  C7  IND d   1       1.864  -0.107   0.767  0.00  0.00    -0.016 A 
ATOM      8  C8  IND d   1       0.713   0.067   0.012  0.00  0.00    -0.047 A 
ATOM      9  C9  IND d   1      -0.566  -0.092   0.562  0.00  0.00    -0.096 A 
ATOM     10  HN1 IND d   1       1.185   0.494  -1.889  0.00  0.00     0.298 HD
ENDROOT
TORSDOF 0
ENDMDL
