MODEL 1
REMARK minimizedAffinity -3.82929325
REMARK minimizedRMSD -1
REMARK  0 active torsions:
REMARK  status: ('A' for Active; 'I' for Inactive)
ROOT
ATOM      1  N1  IND d   1      -0.387   0.179  -2.174  0.00  0.00    -0.196 N 
ATOM      2  C2  IND d   1      -1.637   0.362  -2.695  0.00  0.00     0.054 A 
ATOM      3  C3  IND d   1      -2.579   0.019  -1.789  0.00  0.00    -0.031 A 
ATOM      4  C4  IND d   1      -2.297  -0.769   0.646  0.00  0.00     0.051 A 
ATOM      5  C5  IND d   1      -1.344  -1.123   1.559  0.00  0.00    -0.031 A 
ATOM      6  C6  IND d   1       0.004  -1.058   1.271  0.00  0.00     0.015 A 
ATOM      7  C7  IND d   1       0.451  -0.623   0.055  0.00  0.00    -0.016 A 
ATOM      8  C8  IND d   1      -0.513  -0.269  -0.878  0.00  0.00    -0.047 A 
ATOM      9  C9  IND d   1      -1.883  -0.374  -0.605  0.00  0.00    -0.096 A 
ATOM     10  HN1 IND d   1       0.355   0.320  -2.587  0.00  0.00     0.298 HD
ENDROOT
TORSDOF 0
ENDMDL
