MODEL 1
REMARK minimizedAffinity -5.08434677
REMARK minimizedRMSD -1
REMARK  0 active torsions:
REMARK  status: ('A' for Active; 'I' for Inactive)
ROOT
ATOM      1  N1  IND d   1       0.517  -0.611  -0.688  0.00  0.00    -0.196 N 
ATOM      2  C2  IND d   1      -0.646  -0.316  -1.344  0.00  0.00     0.054 A 
ATOM      3  C3  IND d   1      -1.635  -0.063  -0.458  0.00  0.00    -0.031 A 
ATOM      4  C4  IND d   1      -1.545   0.023   2.113  0.00  0.00     0.051 A 
ATOM      5  C5  IND d   1      -0.711  -0.210   3.171  0.00  0.00    -0.031 A 
ATOM      6  C6  IND d   1       0.603  -0.594   2.992  0.00  0.00     0.015 A 
ATOM      7  C7  IND d   1       1.136  -0.748   1.744  0.00  0.00    -0.016 A 
ATOM      8  C8  IND d   1       0.290  -0.519   0.668  0.00  0.00    -0.047 A 
ATOM      9  C9  IND d   1      -1.055  -0.171   0.843  0.00  0.00    -0.096 A 
ATOM     10  HN1 IND d   1       1.264  -0.818  -1.059  0.00  0.00     0.298 HD
ENDROOT
TORSDOF 0
ENDMDL
