MODEL 1
REMARK minimizedAffinity -3.5989728
REMARK minimizedRMSD -1
REMARK  0 active torsions:
REMARK  status: ('A' for Active; 'I' for Inactive)
ROOT
ATOM      1  C1  DEN d   1       2.266  -0.832  -1.392  0.00  0.00     0.130 A 
ATOM      2  C2  DEN d   1       1.201  -1.465  -0.619  0.00  0.00    -0.031 A 
ATOM      3  C3  DEN d   1      -0.067  -1.278  -1.351  0.00  0.00     0.027 A 
ATOM      4  C4  DEN d   1      -0.483  -0.082  -3.597  0.00  0.00     0.027 A 
ATOM      5  C5  DEN d   1       0.111   0.622  -4.622  0.00  0.00    -0.003 A 
ATOM      6  C6  DEN d   1       1.449   0.917  -4.624  0.00  0.00     0.001 A 
ATOM      7  C7  DEN d   1       2.245   0.468  -3.604  0.00  0.00     0.017 A 
ATOM      8  C8  DEN d   1       1.652  -0.235  -2.564  0.00  0.00    -0.094 A 
ATOM      9  C9  DEN d   1       0.300  -0.534  -2.586  0.00  0.00    -0.072 A 
ENDROOT
TORSDOF 0
ENDMDL
