MODEL 1
REMARK minimizedAffinity -5.05533886
REMARK minimizedRMSD -1
REMARK  0 active torsions:
REMARK  status: ('A' for Active; 'I' for Inactive)
ROOT
ATOM      1  C1  DEN d   1      -0.330   0.440  -0.317  0.00  0.00     0.130 A 
ATOM      2  C2  DEN d   1       0.528  -0.632  -0.815  0.00  0.00    -0.031 A 
ATOM      3  C3  DEN d   1       1.339  -1.130   0.314  0.00  0.00     0.027 A 
ATOM      4  C4  DEN d   1       1.345  -0.353   2.773  0.00  0.00     0.027 A 
ATOM      5  C5  DEN d   1       0.795   0.535   3.671  0.00  0.00    -0.003 A 
ATOM      6  C6  DEN d   1      -0.135   1.469   3.299  0.00  0.00     0.001 A 
ATOM      7  C7  DEN d   1      -0.578   1.506   2.003  0.00  0.00     0.017 A 
ATOM      8  C8  DEN d   1      -0.023   0.618   1.090  0.00  0.00    -0.094 A 
ATOM      9  C9  DEN d   1       0.907  -0.326   1.489  0.00  0.00    -0.072 A 
ENDROOT
TORSDOF 0
ENDMDL
