MODEL 1
REMARK minimizedAffinity -4.02973557
REMARK minimizedRMSD -1
REMARK  0 active torsions:
REMARK  status: ('A' for Active; 'I' for Inactive)
ROOT
ATOM      1  C1  DEN d   1       1.815  -0.824   1.793  0.00  0.00     0.130 A 
ATOM      2  C2  DEN d   1       1.775  -0.658   3.244  0.00  0.00    -0.031 A 
ATOM      3  C3  DEN d   1       0.434  -0.160   3.609  0.00  0.00     0.027 A 
ATOM      4  C4  DEN d   1      -1.575   0.365   2.079  0.00  0.00     0.027 A 
ATOM      5  C5  DEN d   1      -2.015   0.391   0.774  0.00  0.00    -0.003 A 
ATOM      6  C6  DEN d   1      -1.206   0.050  -0.276  0.00  0.00     0.001 A 
ATOM      7  C7  DEN d   1       0.074  -0.376  -0.037  0.00  0.00     0.017 A 
ATOM      8  C8  DEN d   1       0.527  -0.398   1.275  0.00  0.00    -0.094 A 
ATOM      9  C9  DEN d   1      -0.310  -0.061   2.325  0.00  0.00    -0.072 A 
ENDROOT
TORSDOF 0
ENDMDL
