MODEL 1
REMARK minimizedAffinity -4.9117527
REMARK minimizedRMSD -1
REMARK  0 active torsions:
REMARK  status: ('A' for Active; 'I' for Inactive)
ROOT
ATOM      1  C1  DEN d   1      -0.182  -1.495  -0.407  0.00  0.00     0.130 A 
ATOM      2  C2  DEN d   1       0.367  -0.749  -1.537  0.00  0.00    -0.031 A 
ATOM      3  C3  DEN d   1       0.347   0.686  -1.189  0.00  0.00     0.027 A 
ATOM      4  C4  DEN d   1      -0.472   1.819   0.978  0.00  0.00     0.027 A 
ATOM      5  C5  DEN d   1      -1.032   1.600   2.217  0.00  0.00    -0.003 A 
ATOM      6  C6  DEN d   1      -1.377   0.347   2.651  0.00  0.00     0.001 A 
ATOM      7  C7  DEN d   1      -1.123  -0.740   1.857  0.00  0.00     0.017 A 
ATOM      8  C8  DEN d   1      -0.565  -0.526   0.604  0.00  0.00    -0.094 A 
ATOM      9  C9  DEN d   1      -0.212   0.747   0.188  0.00  0.00    -0.072 A 
ENDROOT
TORSDOF 0
ENDMDL
