MODEL 1
REMARK minimizedAffinity -1.35590541
REMARK minimizedRMSD -1
REMARK  1 active torsions:
REMARK  status: ('A' for Active; 'I' for Inactive)
REMARK    1  A    between atoms: C1_2  and  C2_3 
ROOT
ATOM      1  C2  UNL d   1      -4.023   2.995  -3.224  0.00  0.00    -0.076 A 
ATOM      2  C3  UNL d   1      -2.652   3.141  -2.952  0.00  0.00     0.004 A 
ATOM      3  C4  UNL d   1      -1.791   3.711  -3.889  0.00  0.00    -0.003 A 
ATOM      4  C5  UNL d   1      -2.288   4.144  -5.114  0.00  0.00     0.000 A 
ATOM      5  C6  UNL d   1      -3.648   4.022  -5.394  0.00  0.00     0.000 A 
ATOM      6  C7  UNL d   1      -4.532   3.466  -4.454  0.00  0.00    -0.073 A 
ATOM      7  C8  UNL d   1      -5.989   3.354  -4.811  0.00  0.00     0.078 C 
ENDROOT
BRANCH   1   8
ATOM      8  C1  UNL d   1      -4.903   2.346  -2.181  0.00  0.00     0.053 C 
ATOM      9  C   UNL d   1      -4.761   2.995  -0.813  0.00  0.00     0.018 C 
ENDBRANCH   1   8
TORSDOF 1
ENDMDL
