MODEL 1
REMARK minimizedAffinity 6.57450151
REMARK minimizedRMSD -1
REMARK  1 active torsions:
REMARK  status: ('A' for Active; 'I' for Inactive)
REMARK    1  A    between atoms: C1_2  and  C2_3 
ROOT
ATOM      1  C2  UNL d   1      -2.127  -1.487   2.204  0.00  0.00    -0.076 A 
ATOM      2  C3  UNL d   1      -1.030  -2.345   2.010  0.00  0.00     0.004 A 
ATOM      3  C4  UNL d   1       0.274  -1.852   2.005  0.00  0.00    -0.003 A 
ATOM      4  C5  UNL d   1       0.502  -0.494   2.194  0.00  0.00     0.000 A 
ATOM      5  C6  UNL d   1      -0.573   0.369   2.406  0.00  0.00     0.000 A 
ATOM      6  C7  UNL d   1      -1.892  -0.114   2.430  0.00  0.00    -0.073 A 
ATOM      7  C8  UNL d   1      -3.014   0.862   2.656  0.00  0.00     0.078 C 
ENDROOT
BRANCH   1   8
ATOM      8  C1  UNL d   1      -3.520  -2.074   2.173  0.00  0.00     0.053 C 
ATOM      9  C   UNL d   1      -3.697  -3.208   3.171  0.00  0.00     0.018 C 
ENDBRANCH   1   8
TORSDOF 1
ENDMDL
