MODEL 1
REMARK minimizedAffinity 3.51000738
REMARK minimizedRMSD -1
REMARK  1 active torsions:
REMARK  status: ('A' for Active; 'I' for Inactive)
REMARK    1  A    between atoms: C1_2  and  C2_3 
ROOT
ATOM      1  C2  UNL d   1       2.071   0.227   0.069  0.00  0.00    -0.076 A 
ATOM      2  C3  UNL d   1       1.081   0.370   1.057  0.00  0.00     0.004 A 
ATOM      3  C4  UNL d   1       0.445  -0.744   1.603  0.00  0.00    -0.003 A 
ATOM      4  C5  UNL d   1       0.791  -2.020   1.171  0.00  0.00     0.000 A 
ATOM      5  C6  UNL d   1       1.784  -2.181   0.205  0.00  0.00     0.000 A 
ATOM      6  C7  UNL d   1       2.446  -1.069  -0.344  0.00  0.00    -0.073 A 
ATOM      7  C8  UNL d   1       3.504  -1.302  -1.387  0.00  0.00     0.078 C 
ENDROOT
BRANCH   1   8
ATOM      8  C1  UNL d   1       2.706   1.473  -0.506  0.00  0.00     0.053 C 
ATOM      9  C   UNL d   1       3.252   2.399   0.571  0.00  0.00     0.018 C 
ENDBRANCH   1   8
TORSDOF 1
ENDMDL
