MODEL 1
REMARK minimizedAffinity 4.08124638
REMARK minimizedRMSD -1
REMARK  1 active torsions:
REMARK  status: ('A' for Active; 'I' for Inactive)
REMARK    1  A    between atoms: C1_2  and  C2_3 
ROOT
ATOM      1  C2  UNL d   1       2.539   0.255  -0.603  0.00  0.00    -0.076 A 
ATOM      2  C3  UNL d   1       2.336   1.080   0.517  0.00  0.00     0.004 A 
ATOM      3  C4  UNL d   1       1.683   0.603   1.651  0.00  0.00    -0.003 A 
ATOM      4  C5  UNL d   1       1.222  -0.709   1.686  0.00  0.00     0.000 A 
ATOM      5  C6  UNL d   1       1.431  -1.547   0.591  0.00  0.00     0.000 A 
ATOM      6  C7  UNL d   1       2.102  -1.086  -0.554  0.00  0.00    -0.073 A 
ATOM      7  C8  UNL d   1       2.294  -2.032  -1.708  0.00  0.00     0.078 C 
ENDROOT
BRANCH   1   8
ATOM      8  C1  UNL d   1       3.230   0.836  -1.816  0.00  0.00     0.053 C 
ATOM      9  C   UNL d   1       4.449   0.028  -2.234  0.00  0.00     0.018 C 
ENDBRANCH   1   8
TORSDOF 1
ENDMDL
