MODEL 1
REMARK minimizedAffinity 2.38533783
REMARK minimizedRMSD -1
REMARK  1 active torsions:
REMARK  status: ('A' for Active; 'I' for Inactive)
REMARK    1  A    between atoms: C1_2  and  C2_3 
ROOT
ATOM      1  C2  UNL d   1       1.443  -0.813  -0.569  0.00  0.00    -0.076 A 
ATOM      2  C3  UNL d   1       0.552  -1.493   0.279  0.00  0.00     0.004 A 
ATOM      3  C4  UNL d   1      -0.046  -0.845   1.359  0.00  0.00    -0.003 A 
ATOM      4  C5  UNL d   1       0.238   0.494   1.607  0.00  0.00     0.000 A 
ATOM      5  C6  UNL d   1       1.107   1.188   0.766  0.00  0.00     0.000 A 
ATOM      6  C7  UNL d   1       1.705   0.554  -0.337  0.00  0.00    -0.073 A 
ATOM      7  C8  UNL d   1       2.638   1.349  -1.208  0.00  0.00     0.078 C 
ENDROOT
BRANCH   1   8
ATOM      8  C1  UNL d   1       2.082  -1.576  -1.708  0.00  0.00     0.053 C 
ATOM      9  C   UNL d   1       3.558  -1.855  -1.467  0.00  0.00     0.018 C 
ENDBRANCH   1   8
TORSDOF 1
ENDMDL
