MODEL 1
REMARK minimizedAffinity -1.10964525
REMARK minimizedRMSD -1
REMARK  1 active torsions:
REMARK  status: ('A' for Active; 'I' for Inactive)
REMARK    1  A    between atoms: C1_2  and  C2_3 
ROOT
ATOM      1  C2  UNL d   1       0.121  -0.705   1.501  0.00  0.00    -0.076 A 
ATOM      2  C3  UNL d   1       0.469   0.502   0.871  0.00  0.00     0.004 A 
ATOM      3  C4  UNL d   1       1.368   0.523  -0.193  0.00  0.00    -0.003 A 
ATOM      4  C5  UNL d   1       1.934  -0.664  -0.646  0.00  0.00     0.000 A 
ATOM      5  C6  UNL d   1       1.586  -1.873  -0.045  0.00  0.00     0.000 A 
ATOM      6  C7  UNL d   1       0.669  -1.914   1.019  0.00  0.00    -0.073 A 
ATOM      7  C8  UNL d   1       0.334  -3.245   1.634  0.00  0.00     0.078 C 
ENDROOT
BRANCH   1   8
ATOM      8  C1  UNL d   1      -0.840  -0.663   2.668  0.00  0.00     0.053 C 
ATOM      9  C   UNL d   1      -2.217  -1.198   2.309  0.00  0.00     0.018 C 
ENDBRANCH   1   8
TORSDOF 1
ENDMDL
