MODEL 1
REMARK minimizedAffinity 7.17206669
REMARK minimizedRMSD -1
REMARK  1 active torsions:
REMARK  status: ('A' for Active; 'I' for Inactive)
REMARK    1  A    between atoms: C1_2  and  C2_3 
ROOT
ATOM      1  C2  UNL d   1      -0.756   3.760  -3.454  0.00  0.00    -0.076 A 
ATOM      2  C3  UNL d   1      -2.111   3.389  -3.419  0.00  0.00     0.004 A 
ATOM      3  C4  UNL d   1      -2.512   2.101  -3.769  0.00  0.00    -0.003 A 
ATOM      4  C5  UNL d   1      -1.564   1.161  -4.158  0.00  0.00     0.000 A 
ATOM      5  C6  UNL d   1      -0.213   1.506  -4.181  0.00  0.00     0.000 A 
ATOM      6  C7  UNL d   1       0.210   2.796  -3.816  0.00  0.00    -0.073 A 
ATOM      7  C8  UNL d   1       1.679   3.115  -3.865  0.00  0.00     0.078 C 
ENDROOT
BRANCH   1   8
ATOM      8  C1  UNL d   1      -0.383   5.179  -3.090  0.00  0.00     0.053 C 
ATOM      9  C   UNL d   1      -0.769   5.535  -1.663  0.00  0.00     0.018 C 
ENDBRANCH   1   8
TORSDOF 1
ENDMDL
