MODEL 1
REMARK minimizedAffinity 3.58444548
REMARK minimizedRMSD -1
REMARK  1 active torsions:
REMARK  status: ('A' for Active; 'I' for Inactive)
REMARK    1  A    between atoms: C1_2  and  C2_3 
ROOT
ATOM      1  C2  UNL d   1       1.188  -0.589   0.203  0.00  0.00    -0.076 A 
ATOM      2  C3  UNL d   1       0.382  -1.694   0.527  0.00  0.00     0.004 A 
ATOM      3  C4  UNL d   1      -0.377  -1.710   1.696  0.00  0.00    -0.003 A 
ATOM      4  C5  UNL d   1      -0.343  -0.621   2.560  0.00  0.00     0.000 A 
ATOM      5  C6  UNL d   1       0.437   0.491   2.245  0.00  0.00     0.000 A 
ATOM      6  C7  UNL d   1       1.196   0.530   1.063  0.00  0.00    -0.073 A 
ATOM      7  C8  UNL d   1       2.024   1.753   0.776  0.00  0.00     0.078 C 
ENDROOT
BRANCH   1   8
ATOM      8  C1  UNL d   1       2.010  -0.640  -1.065  0.00  0.00     0.053 C 
ATOM      9  C   UNL d   1       2.629  -2.008  -1.303  0.00  0.00     0.018 C 
ENDBRANCH   1   8
TORSDOF 1
ENDMDL
