MODEL 1
REMARK minimizedAffinity 4.28328466
REMARK minimizedRMSD -1
REMARK  1 active torsions:
REMARK  status: ('A' for Active; 'I' for Inactive)
REMARK    1  A    between atoms: C1_2  and  C2_3 
ROOT
ATOM      1  C2  UNL d   1       1.223  -0.336   0.517  0.00  0.00    -0.076 A 
ATOM      2  C3  UNL d   1       0.431  -1.479   0.725  0.00  0.00     0.004 A 
ATOM      3  C4  UNL d   1      -0.305  -1.637   1.898  0.00  0.00    -0.003 A 
ATOM      4  C5  UNL d   1      -0.262  -0.655   2.882  0.00  0.00     0.000 A 
ATOM      5  C6  UNL d   1       0.504   0.493   2.684  0.00  0.00     0.000 A 
ATOM      6  C7  UNL d   1       1.240   0.676   1.500  0.00  0.00    -0.073 A 
ATOM      7  C8  UNL d   1       2.054   1.931   1.343  0.00  0.00     0.078 C 
ENDROOT
BRANCH   1   8
ATOM      8  C1  UNL d   1       2.021  -0.232  -0.763  0.00  0.00     0.053 C 
ATOM      9  C   UNL d   1       3.031  -1.359  -0.913  0.00  0.00     0.018 C 
ENDBRANCH   1   8
TORSDOF 1
ENDMDL
