MODEL 1
REMARK minimizedAffinity 8.64835835
REMARK minimizedRMSD -1
REMARK  1 active torsions:
REMARK  status: ('A' for Active; 'I' for Inactive)
REMARK    1  A    between atoms: C1_2  and  C2_3 
ROOT
ATOM      1  C2  UNL d   1      -0.730   3.704  -3.371  0.00  0.00    -0.076 A 
ATOM      2  C3  UNL d   1      -1.996   3.122  -3.190  0.00  0.00     0.004 A 
ATOM      3  C4  UNL d   1      -2.245   1.808  -3.583  0.00  0.00    -0.003 A 
ATOM      4  C5  UNL d   1      -1.230   1.054  -4.163  0.00  0.00     0.000 A 
ATOM      5  C6  UNL d   1       0.038   1.610  -4.334  0.00  0.00     0.000 A 
ATOM      6  C7  UNL d   1       0.309   2.928  -3.928  0.00  0.00    -0.073 A 
ATOM      7  C8  UNL d   1       1.692   3.479  -4.142  0.00  0.00     0.078 C 
ENDROOT
BRANCH   1   8
ATOM      8  C1  UNL d   1      -0.527   5.142  -2.950  0.00  0.00     0.053 C 
ATOM      9  C   UNL d   1      -1.719   5.700  -2.187  0.00  0.00     0.018 C 
ENDBRANCH   1   8
TORSDOF 1
ENDMDL
