MODEL 1
REMARK minimizedAffinity 2.61162329
REMARK minimizedRMSD -1
REMARK  1 active torsions:
REMARK  status: ('A' for Active; 'I' for Inactive)
REMARK    1  A    between atoms: C1_2  and  C2_3 
ROOT
ATOM      1  C2  UNL d   1       1.904  -0.837  -0.676  0.00  0.00    -0.076 A 
ATOM      2  C3  UNL d   1       2.368   0.475  -0.877  0.00  0.00     0.004 A 
ATOM      3  C4  UNL d   1       1.869   1.536  -0.123  0.00  0.00    -0.003 A 
ATOM      4  C5  UNL d   1       0.899   1.302   0.845  0.00  0.00     0.000 A 
ATOM      5  C6  UNL d   1       0.440   0.005   1.070  0.00  0.00     0.000 A 
ATOM      6  C7  UNL d   1       0.944  -1.078   0.330  0.00  0.00    -0.073 A 
ATOM      7  C8  UNL d   1       0.409  -2.456   0.610  0.00  0.00     0.078 C 
ENDROOT
BRANCH   1   8
ATOM      8  C1  UNL d   1       2.463  -1.943  -1.542  0.00  0.00     0.053 C 
ATOM      9  C   UNL d   1       3.847  -1.619  -2.081  0.00  0.00     0.018 C 
ENDBRANCH   1   8
TORSDOF 1
ENDMDL
