MODEL 1
REMARK minimizedAffinity -5.13950157
REMARK minimizedRMSD -1
REMARK  0 active torsions:
REMARK  status: ('A' for Active; 'I' for Inactive)
ROOT
ATOM      1  C   UNL d   1      -0.681   0.373   1.024  0.00  0.00     0.078 C 
ATOM      2  C1  UNL d   1       0.154   0.235  -0.214  0.00  0.00    -0.077 A 
ATOM      3  C2  UNL d   1      -0.185  -0.683  -1.215  0.00  0.00    -0.001 A 
ATOM      4  C3  UNL d   1       0.607  -0.807  -2.357  0.00  0.00     0.003 A 
ATOM      5  C4  UNL d   1       1.744  -0.016  -2.510  0.00  0.00    -0.005 A 
ATOM      6  C5  UNL d   1       2.091   0.899  -1.518  0.00  0.00     0.003 A 
ATOM      7  C6  UNL d   1       1.300   1.024  -0.375  0.00  0.00    -0.001 A 
ENDROOT
TORSDOF 0
ENDMDL
