MODEL 1
REMARK minimizedAffinity -3.40854216
REMARK minimizedRMSD -1
REMARK  0 active torsions:
REMARK  status: ('A' for Active; 'I' for Inactive)
ROOT
ATOM      1  C   UNL d   1      -0.021   0.108   0.485  0.00  0.00     0.078 C 
ATOM      2  C1  UNL d   1      -1.418   0.533   0.826  0.00  0.00    -0.077 A 
ATOM      3  C2  UNL d   1      -2.461  -0.399   0.887  0.00  0.00    -0.001 A 
ATOM      4  C3  UNL d   1      -3.758   0.013   1.196  0.00  0.00     0.003 A 
ATOM      5  C4  UNL d   1      -4.025   1.358   1.444  0.00  0.00    -0.005 A 
ATOM      6  C5  UNL d   1      -2.994   2.293   1.383  0.00  0.00     0.003 A 
ATOM      7  C6  UNL d   1      -1.696   1.883   1.075  0.00  0.00    -0.001 A 
ENDROOT
TORSDOF 0
ENDMDL
