MODEL 1
REMARK minimizedAffinity -3.78193688
REMARK minimizedRMSD -1
REMARK  0 active torsions:
REMARK  status: ('A' for Active; 'I' for Inactive)
ROOT
ATOM      1  C   UNL d   1      -4.646  -0.231  -5.822  0.00  0.00     0.078 C 
ATOM      2  C1  UNL d   1      -4.648   1.268  -5.778  0.00  0.00    -0.077 A 
ATOM      3  C2  UNL d   1      -3.475   1.983  -5.506  0.00  0.00    -0.001 A 
ATOM      4  C3  UNL d   1      -3.494   3.378  -5.459  0.00  0.00     0.003 A 
ATOM      5  C4  UNL d   1      -4.682   4.070  -5.683  0.00  0.00    -0.005 A 
ATOM      6  C5  UNL d   1      -5.855   3.367  -5.953  0.00  0.00     0.003 A 
ATOM      7  C6  UNL d   1      -5.838   1.972  -6.000  0.00  0.00    -0.001 A 
ENDROOT
TORSDOF 0
ENDMDL
