MODEL 1
REMARK minimizedAffinity -3.73751903
REMARK minimizedRMSD -1
REMARK  0 active torsions:
REMARK  status: ('A' for Active; 'I' for Inactive)
ROOT
ATOM      1  C   UNL d   1      -0.312  -0.006   1.293  0.00  0.00     0.078 C 
ATOM      2  C1  UNL d   1       0.579   0.132   0.095  0.00  0.00    -0.077 A 
ATOM      3  C2  UNL d   1       1.699   0.972   0.123  0.00  0.00    -0.001 A 
ATOM      4  C3  UNL d   1       2.514   1.098  -1.003  0.00  0.00     0.003 A 
ATOM      5  C4  UNL d   1       2.218   0.388  -2.165  0.00  0.00    -0.005 A 
ATOM      6  C5  UNL d   1       1.105  -0.449  -2.202  0.00  0.00     0.003 A 
ATOM      7  C6  UNL d   1       0.288  -0.577  -1.077  0.00  0.00    -0.001 A 
ENDROOT
TORSDOF 0
ENDMDL
