MODEL 1
REMARK minimizedAffinity -2.64473891
REMARK minimizedRMSD -1
REMARK  0 active torsions:
REMARK  status: ('A' for Active; 'I' for Inactive)
ROOT
ATOM      1  C   UNL d   1      -4.172   0.319   1.112  0.00  0.00     0.078 C 
ATOM      2  C1  UNL d   1      -2.723   0.151   0.765  0.00  0.00    -0.077 A 
ATOM      3  C2  UNL d   1      -1.791  -0.244   1.732  0.00  0.00    -0.001 A 
ATOM      4  C3  UNL d   1      -0.444  -0.388   1.396  0.00  0.00     0.003 A 
ATOM      5  C4  UNL d   1      -0.016  -0.136   0.094  0.00  0.00    -0.005 A 
ATOM      6  C5  UNL d   1      -0.936   0.260  -0.874  0.00  0.00     0.003 A 
ATOM      7  C6  UNL d   1      -2.284   0.403  -0.541  0.00  0.00    -0.001 A 
ENDROOT
TORSDOF 0
ENDMDL
