MODEL 1
REMARK minimizedAffinity -5.10674095
REMARK minimizedRMSD -1
REMARK  0 active torsions:
REMARK  status: ('A' for Active; 'I' for Inactive)
ROOT
ATOM      1  C   UNL d   1      -0.343  -0.050   0.855  0.00  0.00     0.078 C 
ATOM      2  C1  UNL d   1       0.531   0.038  -0.360  0.00  0.00    -0.077 A 
ATOM      3  C2  UNL d   1       0.731  -1.074  -1.187  0.00  0.00    -0.001 A 
ATOM      4  C3  UNL d   1       1.556  -0.980  -2.309  0.00  0.00     0.003 A 
ATOM      5  C4  UNL d   1       2.188   0.223  -2.614  0.00  0.00    -0.005 A 
ATOM      6  C5  UNL d   1       1.997   1.335  -1.796  0.00  0.00     0.003 A 
ATOM      7  C6  UNL d   1       1.173   1.243  -0.673  0.00  0.00    -0.001 A 
ENDROOT
TORSDOF 0
ENDMDL
