MODEL 1
REMARK minimizedAffinity -4.70411348
REMARK minimizedRMSD -1
REMARK  0 active torsions:
REMARK  status: ('A' for Active; 'I' for Inactive)
ROOT
ATOM      1  C   UNL d   1      -0.380  -0.212   0.430  0.00  0.00     0.078 C 
ATOM      2  C1  UNL d   1       0.564  -0.670  -0.641  0.00  0.00    -0.077 A 
ATOM      3  C2  UNL d   1       1.179   0.249  -1.501  0.00  0.00    -0.001 A 
ATOM      4  C3  UNL d   1       2.049  -0.192  -2.500  0.00  0.00     0.003 A 
ATOM      5  C4  UNL d   1       2.310  -1.553  -2.649  0.00  0.00    -0.005 A 
ATOM      6  C5  UNL d   1       1.702  -2.474  -1.800  0.00  0.00     0.003 A 
ATOM      7  C6  UNL d   1       0.832  -2.035  -0.800  0.00  0.00    -0.001 A 
ENDROOT
TORSDOF 0
ENDMDL
