MODEL 1
REMARK minimizedAffinity -5.15097618
REMARK minimizedRMSD -1
REMARK  0 active torsions:
REMARK  status: ('A' for Active; 'I' for Inactive)
ROOT
ATOM      1  C   UNL d   1       1.994  -0.431  -3.087  0.00  0.00     0.078 C 
ATOM      2  C1  UNL d   1       1.391  -0.062  -1.765  0.00  0.00    -0.077 A 
ATOM      3  C2  UNL d   1       0.535  -0.942  -1.092  0.00  0.00    -0.001 A 
ATOM      4  C3  UNL d   1      -0.027  -0.582   0.134  0.00  0.00     0.003 A 
ATOM      5  C4  UNL d   1       0.260   0.660   0.697  0.00  0.00    -0.005 A 
ATOM      6  C5  UNL d   1       1.109   1.544   0.034  0.00  0.00     0.003 A 
ATOM      7  C6  UNL d   1       1.672   1.185  -1.192  0.00  0.00    -0.001 A 
ENDROOT
TORSDOF 0
ENDMDL
