MODEL 1
REMARK minimizedAffinity -4.38388586
REMARK minimizedRMSD -1
REMARK  0 active torsions:
REMARK  status: ('A' for Active; 'I' for Inactive)
ROOT
ATOM      1  C   UNL d   1       0.893  -0.531  -3.103  0.00  0.00     0.078 C 
ATOM      2  C1  UNL d   1       0.515  -0.404  -1.657  0.00  0.00    -0.077 A 
ATOM      3  C2  UNL d   1      -0.162  -1.436  -0.995  0.00  0.00    -0.001 A 
ATOM      4  C3  UNL d   1      -0.516  -1.300   0.348  0.00  0.00     0.003 A 
ATOM      5  C4  UNL d   1      -0.199  -0.134   1.041  0.00  0.00    -0.005 A 
ATOM      6  C5  UNL d   1       0.472   0.900   0.390  0.00  0.00     0.003 A 
ATOM      7  C6  UNL d   1       0.827   0.766  -0.953  0.00  0.00    -0.001 A 
ENDROOT
TORSDOF 0
ENDMDL
