MODEL 1
REMARK minimizedAffinity -5.14222574
REMARK minimizedRMSD -1
REMARK  0 active torsions:
REMARK  status: ('A' for Active; 'I' for Inactive)
ROOT
ATOM      1  C   UNL d   1       1.632  -0.079  -2.783  0.00  0.00     0.078 C 
ATOM      2  C1  UNL d   1       0.867  -0.225  -1.502  0.00  0.00    -0.077 A 
ATOM      3  C2  UNL d   1       0.539   0.894  -0.727  0.00  0.00    -0.001 A 
ATOM      4  C3  UNL d   1      -0.166   0.743   0.468  0.00  0.00     0.003 A 
ATOM      5  C4  UNL d   1      -0.548  -0.526   0.900  0.00  0.00    -0.005 A 
ATOM      6  C5  UNL d   1      -0.224  -1.646   0.136  0.00  0.00     0.003 A 
ATOM      7  C6  UNL d   1       0.480  -1.496  -1.060  0.00  0.00    -0.001 A 
ENDROOT
TORSDOF 0
ENDMDL
