MODEL 1
REMARK minimizedAffinity -3.29052973
REMARK minimizedRMSD -1
REMARK  0 active torsions:
REMARK  status: ('A' for Active; 'I' for Inactive)
ROOT
ATOM      1  C   UNL d   1       2.465   0.006  -2.625  0.00  0.00     0.078 C 
ATOM      2  C1  UNL d   1       1.533  -0.069  -1.452  0.00  0.00    -0.077 A 
ATOM      3  C2  UNL d   1       0.968  -1.288  -1.057  0.00  0.00    -0.001 A 
ATOM      4  C3  UNL d   1       0.095  -1.341   0.031  0.00  0.00     0.003 A 
ATOM      5  C4  UNL d   1      -0.223  -0.179   0.731  0.00  0.00    -0.005 A 
ATOM      6  C5  UNL d   1       0.333   1.039   0.343  0.00  0.00     0.003 A 
ATOM      7  C6  UNL d   1       1.206   1.094  -0.744  0.00  0.00    -0.001 A 
ENDROOT
TORSDOF 0
ENDMDL
