MODEL 1
REMARK minimizedAffinity -1.59447289
REMARK minimizedRMSD -1
REMARK  0 active torsions:
REMARK  status: ('A' for Active; 'I' for Inactive)
ROOT
ATOM      1  C   UNL d   1       1.561   0.002  -2.251  0.00  0.00     0.078 C 
ATOM      2  C1  UNL d   1       0.728  -0.285  -1.038  0.00  0.00    -0.077 A 
ATOM      3  C2  UNL d   1       0.258   0.753  -0.223  0.00  0.00    -0.001 A 
ATOM      4  C3  UNL d   1      -0.509   0.470   0.908  0.00  0.00     0.003 A 
ATOM      5  C4  UNL d   1      -0.811  -0.850   1.237  0.00  0.00    -0.005 A 
ATOM      6  C5  UNL d   1      -0.346  -1.890   0.433  0.00  0.00     0.003 A 
ATOM      7  C6  UNL d   1       0.421  -1.609  -0.699  0.00  0.00    -0.001 A 
ENDROOT
TORSDOF 0
ENDMDL
