MODEL 1
REMARK minimizedAffinity -1.94578075
REMARK minimizedRMSD -1
REMARK  0 active torsions:
REMARK  status: ('A' for Active; 'I' for Inactive)
ROOT
ATOM      1  C   UNL d   1       3.098  -2.109  -1.847  0.00  0.00     0.078 C 
ATOM      2  C1  UNL d   1       2.315  -0.937  -1.336  0.00  0.00    -0.077 A 
ATOM      3  C2  UNL d   1       1.144  -1.121  -0.590  0.00  0.00    -0.001 A 
ATOM      4  C3  UNL d   1       0.420  -0.021  -0.129  0.00  0.00     0.003 A 
ATOM      5  C4  UNL d   1       0.857   1.272  -0.409  0.00  0.00    -0.005 A 
ATOM      6  C5  UNL d   1       2.019   1.466  -1.153  0.00  0.00     0.003 A 
ATOM      7  C6  UNL d   1       2.745   0.366  -1.615  0.00  0.00    -0.001 A 
ENDROOT
TORSDOF 0
ENDMDL
