MODEL 1
REMARK minimizedAffinity -4.62443256
REMARK minimizedRMSD -1
REMARK  0 active torsions:
REMARK  status: ('A' for Active; 'I' for Inactive)
ROOT
ATOM      1  C   UNL d   1       1.813  -2.873  -1.775  0.00  0.00     0.078 C 
ATOM      2  C1  UNL d   1       1.386  -1.444  -1.627  0.00  0.00    -0.077 A 
ATOM      3  C2  UNL d   1       1.804  -0.467  -2.539  0.00  0.00    -0.001 A 
ATOM      4  C3  UNL d   1       1.407   0.862  -2.383  0.00  0.00     0.003 A 
ATOM      5  C4  UNL d   1       0.590   1.227  -1.314  0.00  0.00    -0.005 A 
ATOM      6  C5  UNL d   1       0.171   0.263  -0.400  0.00  0.00     0.003 A 
ATOM      7  C6  UNL d   1       0.567  -1.067  -0.555  0.00  0.00    -0.001 A 
ENDROOT
TORSDOF 0
ENDMDL
