MODEL 1
REMARK minimizedAffinity -2.69514823
REMARK minimizedRMSD -1
REMARK  0 active torsions:
REMARK  status: ('A' for Active; 'I' for Inactive)
ROOT
ATOM      1  C   UNL d   1       1.193  -3.358  -1.427  0.00  0.00     0.078 C 
ATOM      2  C1  UNL d   1       1.197  -1.858  -1.437  0.00  0.00    -0.077 A 
ATOM      3  C2  UNL d   1       0.457  -1.128  -0.499  0.00  0.00    -0.001 A 
ATOM      4  C3  UNL d   1       0.463   0.267  -0.527  0.00  0.00     0.003 A 
ATOM      5  C4  UNL d   1       1.206   0.945  -1.491  0.00  0.00    -0.005 A 
ATOM      6  C5  UNL d   1       1.944   0.227  -2.430  0.00  0.00     0.003 A 
ATOM      7  C6  UNL d   1       1.939  -1.169  -2.404  0.00  0.00    -0.001 A 
ENDROOT
TORSDOF 0
ENDMDL
