MODEL 1
REMARK minimizedAffinity -2.77916217
REMARK minimizedRMSD -1
REMARK  0 active torsions:
REMARK  status: ('A' for Active; 'I' for Inactive)
ROOT
ATOM      1  O1  BZF d   1       0.171   1.575   2.121  0.00  0.00    -0.204 OA
ATOM      2  C2  BZF d   1      -1.181   1.824   2.252  0.00  0.00     0.174 A 
ATOM      3  C3  BZF d   1      -1.893   1.067   1.393  0.00  0.00    -0.012 A 
ATOM      4  C3A BZF d   1      -0.932   0.229   0.744  0.00  0.00    -0.107 A 
ATOM      5  C4  BZF d   1      -1.027  -0.750  -0.203  0.00  0.00     0.055 A 
ATOM      6  C5  BZF d   1       0.110  -1.324  -0.676  0.00  0.00    -0.016 A 
ATOM      7  C6  BZF d   1       1.358  -0.940  -0.229  0.00  0.00     0.022 A 
ATOM      8  C7  BZF d   1       1.502   0.023   0.713  0.00  0.00     0.029 A 
ATOM      9  C7A BZF d   1       0.353   0.582   1.218  0.00  0.00     0.058 A 
ENDROOT
TORSDOF 0
ENDMDL
