MODEL 1
REMARK minimizedAffinity 7.66980076
REMARK minimizedRMSD -1
REMARK  0 active torsions:
REMARK  status: ('A' for Active; 'I' for Inactive)
ROOT
ATOM      1  O1  BZF d   1       1.161  -0.404   2.587  0.00  0.00    -0.204 OA
ATOM      2  C2  BZF d   1       2.129  -0.560   1.615  0.00  0.00     0.174 A 
ATOM      3  C3  BZF d   1       1.569  -0.642   0.390  0.00  0.00    -0.012 A 
ATOM      4  C3A BZF d   1       0.169  -0.437   0.603  0.00  0.00    -0.107 A 
ATOM      5  C4  BZF d   1      -0.910  -0.388  -0.233  0.00  0.00     0.055 A 
ATOM      6  C5  BZF d   1      -2.152  -0.245   0.300  0.00  0.00    -0.016 A 
ATOM      7  C6  BZF d   1      -2.351  -0.151   1.661  0.00  0.00     0.022 A 
ATOM      8  C7  BZF d   1      -1.311  -0.189   2.530  0.00  0.00     0.029 A 
ATOM      9  C7A BZF d   1      -0.052  -0.301   1.993  0.00  0.00     0.058 A 
ENDROOT
TORSDOF 0
ENDMDL
