MODEL 1
REMARK minimizedAffinity -2.83928633
REMARK minimizedRMSD -1
REMARK  0 active torsions:
REMARK  status: ('A' for Active; 'I' for Inactive)
ROOT
ATOM      1  O1  BZF d   1      -1.133   1.325  -0.910  0.00  0.00    -0.204 OA
ATOM      2  C2  BZF d   1      -1.285   0.482   0.174  0.00  0.00     0.174 A 
ATOM      3  C3  BZF d   1      -0.461  -0.581   0.073  0.00  0.00    -0.012 A 
ATOM      4  C3A BZF d   1       0.316  -0.344  -1.104  0.00  0.00    -0.107 A 
ATOM      5  C4  BZF d   1       1.318  -1.036  -1.723  0.00  0.00     0.055 A 
ATOM      6  C5  BZF d   1       1.816  -0.568  -2.898  0.00  0.00    -0.016 A 
ATOM      7  C6  BZF d   1       1.333   0.584  -3.484  0.00  0.00     0.022 A 
ATOM      8  C7  BZF d   1       0.344   1.307  -2.904  0.00  0.00     0.029 A 
ATOM      9  C7A BZF d   1      -0.139   0.855  -1.701  0.00  0.00     0.058 A 
ENDROOT
TORSDOF 0
ENDMDL
