MODEL 1
REMARK minimizedAffinity -2.62530994
REMARK minimizedRMSD -1
REMARK  0 active torsions:
REMARK  status: ('A' for Active; 'I' for Inactive)
ROOT
ATOM      1  O1  BZF d   1       1.053  -1.424   0.638  0.00  0.00    -0.204 OA
ATOM      2  C2  BZF d   1       2.322  -1.123   1.091  0.00  0.00     0.174 A 
ATOM      3  C3  BZF d   1       2.299  -0.044   1.900  0.00  0.00    -0.012 A 
ATOM      4  C3A BZF d   1       0.915   0.298   2.029  0.00  0.00    -0.107 A 
ATOM      5  C4  BZF d   1       0.250   1.272   2.718  0.00  0.00     0.055 A 
ATOM      6  C5  BZF d   1      -1.097   1.379   2.574  0.00  0.00    -0.016 A 
ATOM      7  C6  BZF d   1      -1.809   0.534   1.747  0.00  0.00     0.022 A 
ATOM      8  C7  BZF d   1      -1.193  -0.450   1.048  0.00  0.00     0.029 A 
ATOM      9  C7A BZF d   1       0.164  -0.582   1.217  0.00  0.00     0.058 A 
ENDROOT
TORSDOF 0
ENDMDL
