MODEL 1
REMARK minimizedAffinity 1.08649015
REMARK minimizedRMSD -1
REMARK  0 active torsions:
REMARK  status: ('A' for Active; 'I' for Inactive)
ROOT
ATOM      1  O1  BZF d   1       1.526  -0.714   1.486  0.00  0.00    -0.204 OA
ATOM      2  C2  BZF d   1       1.768  -1.015   0.160  0.00  0.00     0.174 A 
ATOM      3  C3  BZF d   1       0.650  -0.859  -0.578  0.00  0.00    -0.012 A 
ATOM      4  C3A BZF d   1      -0.330  -0.344   0.328  0.00  0.00    -0.107 A 
ATOM      5  C4  BZF d   1      -1.636   0.030   0.186  0.00  0.00     0.055 A 
ATOM      6  C5  BZF d   1      -2.334   0.421   1.285  0.00  0.00    -0.016 A 
ATOM      7  C6  BZF d   1      -1.761   0.446   2.539  0.00  0.00     0.022 A 
ATOM      8  C7  BZF d   1      -0.467   0.089   2.729  0.00  0.00     0.029 A 
ATOM      9  C7A BZF d   1       0.251  -0.276   1.616  0.00  0.00     0.058 A 
ENDROOT
TORSDOF 0
ENDMDL
