MODEL 1
REMARK minimizedAffinity 0.638624549
REMARK minimizedRMSD -1
REMARK  0 active torsions:
REMARK  status: ('A' for Active; 'I' for Inactive)
ROOT
ATOM      1  O1  BZF d   1       1.484  -0.791   1.276  0.00  0.00    -0.204 OA
ATOM      2  C2  BZF d   1       1.237   0.136   0.282  0.00  0.00     0.174 A 
ATOM      3  C3  BZF d   1       0.362   1.070   0.706  0.00  0.00    -0.012 A 
ATOM      4  C3A BZF d   1       0.113   0.757   2.080  0.00  0.00    -0.107 A 
ATOM      5  C4  BZF d   1      -0.660   1.331   3.049  0.00  0.00     0.055 A 
ATOM      6  C5  BZF d   1      -0.740   0.737   4.268  0.00  0.00    -0.016 A 
ATOM      7  C6  BZF d   1      -0.067  -0.434   4.551  0.00  0.00     0.022 A 
ATOM      8  C7  BZF d   1       0.715  -1.038   3.623  0.00  0.00     0.029 A 
ATOM      9  C7A BZF d   1       0.824  -0.422   2.401  0.00  0.00     0.058 A 
ENDROOT
TORSDOF 0
ENDMDL
