MODEL 1
REMARK minimizedAffinity 0.149518281
REMARK minimizedRMSD -1
REMARK  0 active torsions:
REMARK  status: ('A' for Active; 'I' for Inactive)
ROOT
ATOM      1  O1  BZF d   1       0.518   2.236   1.873  0.00  0.00    -0.204 OA
ATOM      2  C2  BZF d   1       1.217   3.059   2.734  0.00  0.00     0.174 A 
ATOM      3  C3  BZF d   1       1.187   2.572   3.992  0.00  0.00    -0.012 A 
ATOM      4  C3A BZF d   1       0.500   1.321   3.894  0.00  0.00    -0.107 A 
ATOM      5  C4  BZF d   1       0.169   0.358   4.804  0.00  0.00     0.055 A 
ATOM      6  C5  BZF d   1      -0.568  -0.709   4.398  0.00  0.00    -0.016 A 
ATOM      7  C6  BZF d   1      -0.995  -0.843   3.093  0.00  0.00     0.022 A 
ATOM      8  C7  BZF d   1      -0.687   0.084   2.153  0.00  0.00     0.029 A 
ATOM      9  C7A BZF d   1       0.086   1.147   2.553  0.00  0.00     0.058 A 
ENDROOT
TORSDOF 0
ENDMDL
