MODEL 1
REMARK minimizedAffinity -4.09618807
REMARK minimizedRMSD -1
REMARK  0 active torsions:
REMARK  status: ('A' for Active; 'I' for Inactive)
ROOT
ATOM      1  O1  BZF d   1       0.153   0.970   2.548  0.00  0.00    -0.204 OA
ATOM      2  C2  BZF d   1      -1.078   1.141   3.152  0.00  0.00     0.174 A 
ATOM      3  C3  BZF d   1      -2.077   0.887   2.283  0.00  0.00    -0.012 A 
ATOM      4  C3A BZF d   1      -1.431   0.447   1.085  0.00  0.00    -0.107 A 
ATOM      5  C4  BZF d   1      -1.891   0.033  -0.133  0.00  0.00     0.055 A 
ATOM      6  C5  BZF d   1      -0.996  -0.259  -1.113  0.00  0.00    -0.016 A 
ATOM      7  C6  BZF d   1       0.364  -0.145  -0.912  0.00  0.00     0.022 A 
ATOM      8  C7  BZF d   1       0.868   0.256   0.281  0.00  0.00     0.029 A 
ATOM      9  C7A BZF d   1      -0.033   0.521   1.283  0.00  0.00     0.058 A 
ENDROOT
TORSDOF 0
ENDMDL
