MODEL 1
REMARK minimizedAffinity 10.0400267
REMARK minimizedRMSD -1
REMARK  1 active torsions:
REMARK  status: ('A' for Active; 'I' for Inactive)
REMARK    1  A    between atoms: C1_2  and  C2_3 
ROOT
ATOM      1  C2  UNL d   1      -2.462   2.620  -3.743  0.00  0.00    -0.081 A 
ATOM      2  C3  UNL d   1      -2.331   3.878  -4.342  0.00  0.00     0.006 A 
ATOM      3  C4  UNL d   1      -1.178   4.204  -5.061  0.00  0.00     0.002 A 
ATOM      4  C5  UNL d   1      -0.141   3.275  -5.198  0.00  0.00    -0.080 A 
ATOM      5  C6  UNL d   1       1.089   3.602  -5.992  0.00  0.00     0.076 C 
ATOM      6  C7  UNL d   1      -0.264   2.024  -4.584  0.00  0.00     0.002 A 
ATOM      7  C8  UNL d   1      -1.416   1.698  -3.865  0.00  0.00     0.006 A 
ENDROOT
BRANCH   1   8
ATOM      8  C1  UNL d   1      -3.730   2.242  -3.022  0.00  0.00     0.054 C 
ATOM      9  C   UNL d   1      -3.795   2.883  -1.643  0.00  0.00     0.018 C 
ENDBRANCH   1   8
TORSDOF 1
ENDMDL
