MODEL 1
REMARK minimizedAffinity 4.58393669
REMARK minimizedRMSD -1
REMARK  1 active torsions:
REMARK  status: ('A' for Active; 'I' for Inactive)
REMARK    1  A    between atoms: C1_2  and  C2_3 
ROOT
ATOM      1  C2  UNL d   1      -1.489   2.697  -4.534  0.00  0.00    -0.081 A 
ATOM      2  C3  UNL d   1      -1.208   1.392  -4.111  0.00  0.00     0.006 A 
ATOM      3  C4  UNL d   1       0.018   0.797  -4.418  0.00  0.00     0.002 A 
ATOM      4  C5  UNL d   1       0.986   1.499  -5.145  0.00  0.00    -0.080 A 
ATOM      5  C6  UNL d   1       2.318   0.883  -5.455  0.00  0.00     0.076 C 
ATOM      6  C7  UNL d   1       0.698   2.796  -5.583  0.00  0.00     0.002 A 
ATOM      7  C8  UNL d   1      -0.528   3.391  -5.277  0.00  0.00     0.006 A 
ENDROOT
BRANCH   1   8
ATOM      8  C1  UNL d   1      -2.785   3.364  -4.150  0.00  0.00     0.054 C 
ATOM      9  C   UNL d   1      -3.701   2.406  -3.402  0.00  0.00     0.018 C 
ENDBRANCH   1   8
TORSDOF 1
ENDMDL
