MODEL 1
REMARK minimizedAffinity 6.13180685
REMARK minimizedRMSD -1
REMARK  1 active torsions:
REMARK  status: ('A' for Active; 'I' for Inactive)
REMARK    1  A    between atoms: C1_2  and  C2_3 
ROOT
ATOM      1  C2  UNL d   1      -1.526   3.655  -4.991  0.00  0.00    -0.081 A 
ATOM      2  C3  UNL d   1      -2.802   4.226  -4.909  0.00  0.00     0.006 A 
ATOM      3  C4  UNL d   1      -3.707   3.801  -3.934  0.00  0.00     0.002 A 
ATOM      4  C5  UNL d   1      -3.349   2.804  -3.020  0.00  0.00    -0.080 A 
ATOM      5  C6  UNL d   1      -4.301   2.360  -1.949  0.00  0.00     0.076 C 
ATOM      6  C7  UNL d   1      -2.081   2.221  -3.112  0.00  0.00     0.002 A 
ATOM      7  C8  UNL d   1      -1.176   2.645  -4.088  0.00  0.00     0.006 A 
ENDROOT
BRANCH   1   8
ATOM      8  C1  UNL d   1      -0.525   4.156  -6.000  0.00  0.00     0.054 C 
ATOM      9  C   UNL d   1       0.738   3.307  -5.996  0.00  0.00     0.018 C 
ENDBRANCH   1   8
TORSDOF 1
ENDMDL
