MODEL 1
REMARK minimizedAffinity 7.97921753
REMARK minimizedRMSD -1
REMARK  1 active torsions:
REMARK  status: ('A' for Active; 'I' for Inactive)
REMARK    1  A    between atoms: C1_2  and  C2_3 
ROOT
ATOM      1  C2  UNL d   1      -2.178   2.649  -3.494  0.00  0.00    -0.081 A 
ATOM      2  C3  UNL d   1      -2.172   3.970  -3.958  0.00  0.00     0.006 A 
ATOM      3  C4  UNL d   1      -1.125   4.435  -4.757  0.00  0.00     0.002 A 
ATOM      4  C5  UNL d   1      -0.072   3.586  -5.113  0.00  0.00    -0.080 A 
ATOM      5  C6  UNL d   1       1.042   4.064  -5.996  0.00  0.00     0.076 C 
ATOM      6  C7  UNL d   1      -0.069   2.271  -4.636  0.00  0.00     0.002 A 
ATOM      7  C8  UNL d   1      -1.115   1.805  -3.836  0.00  0.00     0.006 A 
ENDROOT
BRANCH   1   8
ATOM      8  C1  UNL d   1      -3.337   2.126  -2.686  0.00  0.00     0.054 C 
ATOM      9  C   UNL d   1      -3.935   3.215  -1.807  0.00  0.00     0.018 C 
ENDBRANCH   1   8
TORSDOF 1
ENDMDL
