MODEL 1
REMARK minimizedAffinity 4.28943539
REMARK minimizedRMSD -1
REMARK  1 active torsions:
REMARK  status: ('A' for Active; 'I' for Inactive)
REMARK    1  A    between atoms: C1_2  and  C2_3 
ROOT
ATOM      1  C2  UNL d   1      -2.455   2.910  -3.207  0.00  0.00    -0.081 A 
ATOM      2  C3  UNL d   1      -1.395   2.008  -3.361  0.00  0.00     0.006 A 
ATOM      3  C4  UNL d   1      -0.370   2.270  -4.273  0.00  0.00     0.002 A 
ATOM      4  C5  UNL d   1      -0.383   3.441  -5.039  0.00  0.00    -0.080 A 
ATOM      5  C6  UNL d   1       0.727   3.749  -5.999  0.00  0.00     0.076 C 
ATOM      6  C7  UNL d   1      -1.451   4.334  -4.897  0.00  0.00     0.002 A 
ATOM      7  C8  UNL d   1      -2.477   4.071  -3.986  0.00  0.00     0.006 A 
ENDROOT
BRANCH   1   8
ATOM      8  C1  UNL d   1      -3.529   2.661  -2.178  0.00  0.00     0.054 C 
ATOM      9  C   UNL d   1      -4.664   3.667  -2.308  0.00  0.00     0.018 C 
ENDBRANCH   1   8
TORSDOF 1
ENDMDL
