MODEL 1
REMARK minimizedAffinity 15.9484806
REMARK minimizedRMSD -1
REMARK  1 active torsions:
REMARK  status: ('A' for Active; 'I' for Inactive)
REMARK    1  A    between atoms: C1_2  and  C2_3 
ROOT
ATOM      1  C2  UNL d   1      -3.163   2.919  -2.795  0.00  0.00    -0.081 A 
ATOM      2  C3  UNL d   1      -2.542   1.702  -3.101  0.00  0.00     0.006 A 
ATOM      3  C4  UNL d   1      -1.487   1.655  -4.014  0.00  0.00     0.002 A 
ATOM      4  C5  UNL d   1      -1.030   2.825  -4.631  0.00  0.00    -0.080 A 
ATOM      5  C6  UNL d   1       0.122   2.793  -5.591  0.00  0.00     0.076 C 
ATOM      6  C7  UNL d   1      -1.662   4.038  -4.339  0.00  0.00     0.002 A 
ATOM      7  C8  UNL d   1      -2.717   4.085  -3.426  0.00  0.00     0.006 A 
ENDROOT
BRANCH   1   8
ATOM      8  C1  UNL d   1      -4.259   2.982  -1.761  0.00  0.00     0.054 C 
ATOM      9  C   UNL d   1      -3.702   3.311  -0.384  0.00  0.00     0.018 C 
ENDBRANCH   1   8
TORSDOF 1
ENDMDL
