MODEL 1
REMARK minimizedAffinity 8.46792126
REMARK minimizedRMSD -1
REMARK  1 active torsions:
REMARK  status: ('A' for Active; 'I' for Inactive)
REMARK    1  A    between atoms: C1_2  and  C2_3 
ROOT
ATOM      1  C2  UNL d   1       1.897  -3.087   0.447  0.00  0.00    -0.081 A 
ATOM      2  C3  UNL d   1       1.750  -1.971   1.280  0.00  0.00     0.006 A 
ATOM      3  C4  UNL d   1       0.511  -1.675   1.854  0.00  0.00     0.002 A 
ATOM      4  C5  UNL d   1      -0.597  -2.493   1.612  0.00  0.00    -0.080 A 
ATOM      5  C6  UNL d   1      -1.925  -2.203   2.247  0.00  0.00     0.076 C 
ATOM      6  C7  UNL d   1      -0.454  -3.598   0.766  0.00  0.00     0.002 A 
ATOM      7  C8  UNL d   1       0.783  -3.894   0.191  0.00  0.00     0.006 A 
ENDROOT
BRANCH   1   8
ATOM      8  C1  UNL d   1       3.246  -3.446  -0.121  0.00  0.00     0.054 C 
ATOM      9  C   UNL d   1       4.069  -4.253   0.873  0.00  0.00     0.018 C 
ENDBRANCH   1   8
TORSDOF 1
ENDMDL
