MODEL 1
REMARK minimizedAffinity 11.6415539
REMARK minimizedRMSD -1
REMARK  1 active torsions:
REMARK  status: ('A' for Active; 'I' for Inactive)
REMARK    1  A    between atoms: C1_2  and  C2_3 
ROOT
ATOM      1  C2  UNL d   1       3.991  -3.812   2.611  0.00  0.00    -0.081 A 
ATOM      2  C3  UNL d   1       4.233  -4.289   1.317  0.00  0.00     0.006 A 
ATOM      3  C4  UNL d   1       3.447  -3.859   0.245  0.00  0.00     0.002 A 
ATOM      4  C5  UNL d   1       2.411  -2.941   0.448  0.00  0.00    -0.080 A 
ATOM      5  C6  UNL d   1       1.579  -2.449  -0.699  0.00  0.00     0.076 C 
ATOM      6  C7  UNL d   1       2.157  -2.478   1.744  0.00  0.00     0.002 A 
ATOM      7  C8  UNL d   1       2.943  -2.908   2.816  0.00  0.00     0.006 A 
ENDROOT
BRANCH   1   8
ATOM      8  C1  UNL d   1       4.878  -4.224   3.758  0.00  0.00     0.054 C 
ATOM      9  C   UNL d   1       4.855  -3.189   4.874  0.00  0.00     0.018 C 
ENDBRANCH   1   8
TORSDOF 1
ENDMDL
