MODEL 1
REMARK minimizedAffinity -4.44183636
REMARK minimizedRMSD -1
REMARK  0 active torsions:
REMARK  status: ('A' for Active; 'I' for Inactive)
ROOT
ATOM      1  C   UNL d   1       1.243  -2.886   1.811  0.00  0.00    -0.002 A 
ATOM      2  C1  UNL d   1       0.028  -2.509   2.366  0.00  0.00     0.010 A 
ATOM      3  C2  UNL d   1      -0.647  -1.379   1.898  0.00  0.00     0.041 A 
ATOM      4  C3  UNL d   1      -0.076  -0.629   0.851  0.00  0.00    -0.075 A 
ATOM      5  S   UNL d   1      -0.722   0.790   0.117  0.00  0.00     0.015 SA
ATOM      6  C4  UNL d   1       0.597   0.928  -0.952  0.00  0.00     0.022 A 
ATOM      7  C5  UNL d   1       1.519  -0.075  -0.767  0.00  0.00     0.026 A 
ATOM      8  C6  UNL d   1       1.146  -0.990   0.275  0.00  0.00    -0.082 A 
ATOM      9  C7  UNL d   1       1.806  -2.139   0.772  0.00  0.00     0.045 A 
ENDROOT
TORSDOF 0
ENDMDL
