MODEL 1
REMARK minimizedAffinity -4.73679256
REMARK minimizedRMSD -1
REMARK  0 active torsions:
REMARK  status: ('A' for Active; 'I' for Inactive)
ROOT
ATOM      1  C   UNL d   1       0.085  -2.494   2.533  0.00  0.00    -0.002 A 
ATOM      2  C1  UNL d   1       1.338  -2.695   1.971  0.00  0.00     0.010 A 
ATOM      3  C2  UNL d   1       1.771  -1.908   0.902  0.00  0.00     0.041 A 
ATOM      4  C3  UNL d   1       0.917  -0.904   0.404  0.00  0.00    -0.075 A 
ATOM      5  S   UNL d   1       1.235   0.181  -0.897  0.00  0.00     0.015 SA
ATOM      6  C4  UNL d   1      -0.284   0.937  -0.737  0.00  0.00     0.022 A 
ATOM      7  C5  UNL d   1      -1.029   0.387   0.280  0.00  0.00     0.026 A 
ATOM      8  C6  UNL d   1      -0.349  -0.683   0.954  0.00  0.00    -0.082 A 
ATOM      9  C7  UNL d   1      -0.760  -1.498   2.037  0.00  0.00     0.045 A 
ENDROOT
TORSDOF 0
ENDMDL
