MODEL 1
REMARK minimizedAffinity -4.53160429
REMARK minimizedRMSD -1
REMARK  0 active torsions:
REMARK  status: ('A' for Active; 'I' for Inactive)
ROOT
ATOM      1  C   UNL d   1       1.179  -2.701   1.099  0.00  0.00    -0.002 A 
ATOM      2  C1  UNL d   1       0.407  -2.514   2.237  0.00  0.00     0.010 A 
ATOM      3  C2  UNL d   1      -0.458  -1.423   2.337  0.00  0.00     0.041 A 
ATOM      4  C3  UNL d   1      -0.536  -0.514   1.264  0.00  0.00    -0.075 A 
ATOM      5  S   UNL d   1      -1.525   0.895   1.164  0.00  0.00     0.015 SA
ATOM      6  C4  UNL d   1      -0.947   1.281  -0.392  0.00  0.00     0.022 A 
ATOM      7  C5  UNL d   1      -0.021   0.369  -0.840  0.00  0.00     0.026 A 
ATOM      8  C6  UNL d   1       0.231  -0.681   0.107  0.00  0.00    -0.082 A 
ATOM      9  C7  UNL d   1       1.099  -1.797   0.036  0.00  0.00     0.045 A 
ENDROOT
TORSDOF 0
ENDMDL
