MODEL 1
REMARK minimizedAffinity -2.59054303
REMARK minimizedRMSD -1
REMARK  0 active torsions:
REMARK  status: ('A' for Active; 'I' for Inactive)
ROOT
ATOM      1  C   UNL d   1      -0.330  -2.471   2.504  0.00  0.00    -0.002 A 
ATOM      2  C1  UNL d   1       1.010  -2.609   2.170  0.00  0.00     0.010 A 
ATOM      3  C2  UNL d   1       1.611  -1.729   1.267  0.00  0.00     0.041 A 
ATOM      4  C3  UNL d   1       0.835  -0.698   0.702  0.00  0.00    -0.075 A 
ATOM      5  S   UNL d   1       1.357   0.497  -0.426  0.00  0.00     0.015 SA
ATOM      6  C4  UNL d   1      -0.186   1.219  -0.489  0.00  0.00     0.022 A 
ATOM      7  C5  UNL d   1      -1.089   0.576   0.323  0.00  0.00     0.026 A 
ATOM      8  C6  UNL d   1      -0.516  -0.539   1.024  0.00  0.00    -0.082 A 
ATOM      9  C7  UNL d   1      -1.096  -1.447   1.942  0.00  0.00     0.045 A 
ENDROOT
TORSDOF 0
ENDMDL
