MODEL 1
REMARK minimizedAffinity -4.99632692
REMARK minimizedRMSD -1
REMARK  0 active torsions:
REMARK  status: ('A' for Active; 'I' for Inactive)
ROOT
ATOM      1  C   UNL d   1       1.546  -2.697   1.133  0.00  0.00    -0.002 A 
ATOM      2  C1  UNL d   1       0.386  -2.529   1.875  0.00  0.00     0.010 A 
ATOM      3  C2  UNL d   1      -0.483  -1.469   1.605  0.00  0.00     0.041 A 
ATOM      4  C3  UNL d   1      -0.163  -0.574   0.566  0.00  0.00    -0.075 A 
ATOM      5  S   UNL d   1      -1.077   0.796   0.055  0.00  0.00     0.015 SA
ATOM      6  C4  UNL d   1       0.051   1.189  -1.161  0.00  0.00     0.022 A 
ATOM      7  C5  UNL d   1       1.105   0.308  -1.190  0.00  0.00     0.026 A 
ATOM      8  C6  UNL d   1       1.000  -0.723  -0.196  0.00  0.00    -0.082 A 
ATOM      9  C7  UNL d   1       1.860  -1.807   0.102  0.00  0.00     0.045 A 
ENDROOT
TORSDOF 0
ENDMDL
