MODEL 1
REMARK minimizedAffinity -3.92949724
REMARK minimizedRMSD -1
REMARK  0 active torsions:
REMARK  status: ('A' for Active; 'I' for Inactive)
ROOT
ATOM      1  C   UNL d   1       1.470  -2.664   1.671  0.00  0.00    -0.002 A 
ATOM      2  C1  UNL d   1       0.107  -2.756   1.916  0.00  0.00     0.010 A 
ATOM      3  C2  UNL d   1      -0.769  -1.785   1.428  0.00  0.00     0.041 A 
ATOM      4  C3  UNL d   1      -0.248  -0.711   0.680  0.00  0.00    -0.075 A 
ATOM      5  S   UNL d   1      -1.132   0.594  -0.019  0.00  0.00     0.015 SA
ATOM      6  C4  UNL d   1       0.279   1.304  -0.661  0.00  0.00     0.022 A 
ATOM      7  C5  UNL d   1       1.406   0.576  -0.358  0.00  0.00     0.026 A 
ATOM      8  C6  UNL d   1       1.120  -0.597   0.419  0.00  0.00    -0.082 A 
ATOM      9  C7  UNL d   1       1.983  -1.597   0.929  0.00  0.00     0.045 A 
ENDROOT
TORSDOF 0
ENDMDL
