MODEL 1
REMARK minimizedAffinity -5.68049049
REMARK minimizedRMSD -1
REMARK  0 active torsions:
REMARK  status: ('A' for Active; 'I' for Inactive)
ROOT
ATOM      1  C   UNL d   1       1.455  -3.057   1.645  0.00  0.00    -0.002 A 
ATOM      2  C1  UNL d   1       0.348  -2.773   2.432  0.00  0.00     0.010 A 
ATOM      3  C2  UNL d   1      -0.414  -1.627   2.198  0.00  0.00     0.041 A 
ATOM      4  C3  UNL d   1      -0.043  -0.764   1.148  0.00  0.00    -0.075 A 
ATOM      5  S   UNL d   1      -0.829   0.696   0.676  0.00  0.00     0.015 SA
ATOM      6  C4  UNL d   1       0.285   0.977  -0.582  0.00  0.00     0.022 A 
ATOM      7  C5  UNL d   1       1.241  -0.010  -0.655  0.00  0.00     0.026 A 
ATOM      8  C6  UNL d   1       1.066  -1.030   0.341  0.00  0.00    -0.082 A 
ATOM      9  C7  UNL d   1       1.820  -2.199   0.604  0.00  0.00     0.045 A 
ENDROOT
TORSDOF 0
ENDMDL
