MODEL 1
REMARK minimizedAffinity -5.06661272
REMARK minimizedRMSD -1
REMARK  0 active torsions:
REMARK  status: ('A' for Active; 'I' for Inactive)
ROOT
ATOM      1  C   UNL d   1       1.533  -2.808   1.505  0.00  0.00    -0.002 A 
ATOM      2  C1  UNL d   1       0.309  -2.611   2.129  0.00  0.00     0.010 A 
ATOM      3  C2  UNL d   1      -0.539  -1.579   1.721  0.00  0.00     0.041 A 
ATOM      4  C3  UNL d   1      -0.132  -0.740   0.665  0.00  0.00    -0.075 A 
ATOM      5  S   UNL d   1      -1.005   0.587  -0.004  0.00  0.00     0.015 SA
ATOM      6  C4  UNL d   1       0.226   0.924  -1.134  0.00  0.00     0.022 A 
ATOM      7  C5  UNL d   1       1.285   0.055  -1.018  0.00  0.00     0.026 A 
ATOM      8  C6  UNL d   1       1.096  -0.919   0.020  0.00  0.00    -0.082 A 
ATOM      9  C7  UNL d   1       1.933  -1.974   0.457  0.00  0.00     0.045 A 
ENDROOT
TORSDOF 0
ENDMDL
