MODEL 1
REMARK minimizedAffinity -4.27902222
REMARK minimizedRMSD -1
REMARK  0 active torsions:
REMARK  status: ('A' for Active; 'I' for Inactive)
ROOT
ATOM      1  C   UNL d   1       1.282  -2.986   2.299  0.00  0.00    -0.002 A 
ATOM      2  C1  UNL d   1       0.016  -2.563   2.678  0.00  0.00     0.010 A 
ATOM      3  C2  UNL d   1      -0.596  -1.487   2.032  0.00  0.00     0.041 A 
ATOM      4  C3  UNL d   1       0.093  -0.837   0.988  0.00  0.00    -0.075 A 
ATOM      5  S   UNL d   1      -0.460   0.502   0.054  0.00  0.00     0.015 SA
ATOM      6  C4  UNL d   1       0.972   0.544  -0.870  0.00  0.00     0.022 A 
ATOM      7  C5  UNL d   1       1.860  -0.433  -0.488  0.00  0.00     0.026 A 
ATOM      8  C6  UNL d   1       1.368  -1.246   0.589  0.00  0.00    -0.082 A 
ATOM      9  C7  UNL d   1       1.962  -2.340   1.263  0.00  0.00     0.045 A 
ENDROOT
TORSDOF 0
ENDMDL
