MODEL 1
REMARK minimizedAffinity 6.36810827
REMARK minimizedRMSD -1
REMARK  2 active torsions:
REMARK  status: ('A' for Active; 'I' for Inactive)
REMARK    1  A    between atoms: C2'_3  and  C1'_4 
REMARK    2  A    between atoms: C1'_4  and  C1_5 
ROOT
ATOM      1  C1  I4B d   1      -1.680  -1.202  -2.262  0.00  0.00    -0.075 A 
ATOM      2  C2  I4B d   1      -0.703  -0.915  -1.342  0.00  0.00     0.003 A 
ATOM      3  C3  I4B d   1       0.649  -0.811  -1.746  0.00  0.00     0.002 A 
ATOM      4  C4  I4B d   1       0.985  -1.050  -3.063  0.00  0.00    -0.004 A 
ATOM      5  C5  I4B d   1      -0.009  -1.319  -4.000  0.00  0.00     0.002 A 
ATOM      6  C6  I4B d   1      -1.352  -1.384  -3.599  0.00  0.00     0.003 A 
ENDROOT
BRANCH   1   7
ATOM      7  C1' I4B d   1      -3.094  -1.337  -1.794  0.00  0.00     0.060 C 
BRANCH   7   8
ATOM      8  C2' I4B d   1      -3.413  -0.141  -0.920  0.00  0.00    -0.013 C 
ATOM      9  C4' I4B d   1      -4.359   0.804  -1.613  0.00  0.00     0.013 C 
ATOM     10  C3' I4B d   1      -3.999  -0.649   0.363  0.00  0.00     0.013 C 
ENDBRANCH   7   8
ENDBRANCH   1   7
TORSDOF 2
ENDMDL
