MODEL 1
REMARK minimizedAffinity 1.49418437
REMARK minimizedRMSD -1
REMARK  2 active torsions:
REMARK  status: ('A' for Active; 'I' for Inactive)
REMARK    1  A    between atoms: C2'_3  and  C1'_4 
REMARK    2  A    between atoms: C1'_4  and  C1_5 
ROOT
ATOM      1  C1  I4B d   1       0.940   1.873   2.394  0.00  0.00    -0.075 A 
ATOM      2  C2  I4B d   1       1.743   0.762   2.331  0.00  0.00     0.003 A 
ATOM      3  C3  I4B d   1       1.594  -0.280   3.279  0.00  0.00     0.002 A 
ATOM      4  C4  I4B d   1       0.670  -0.146   4.295  0.00  0.00    -0.004 A 
ATOM      5  C5  I4B d   1      -0.159   0.970   4.343  0.00  0.00     0.002 A 
ATOM      6  C6  I4B d   1      -0.032   1.981   3.379  0.00  0.00     0.003 A 
ENDROOT
BRANCH   1   7
ATOM      7  C1' I4B d   1       1.147   2.969   1.396  0.00  0.00     0.060 C 
BRANCH   7   8
ATOM      8  C2' I4B d   1      -0.047   2.983   0.464  0.00  0.00    -0.013 C 
ATOM      9  C4' I4B d   1      -0.059   4.225  -0.387  0.00  0.00     0.013 C 
ATOM     10  C3' I4B d   1       0.012   1.747  -0.383  0.00  0.00     0.013 C 
ENDBRANCH   7   8
ENDBRANCH   1   7
TORSDOF 2
ENDMDL
