MODEL 1
REMARK minimizedAffinity 14.51439
REMARK minimizedRMSD -1
REMARK  2 active torsions:
REMARK  status: ('A' for Active; 'I' for Inactive)
REMARK    1  A    between atoms: C2'_3  and  C1'_4 
REMARK    2  A    between atoms: C1'_4  and  C1_5 
ROOT
ATOM      1  C1  I4B d   1       2.162  -1.613   2.834  0.00  0.00    -0.075 A 
ATOM      2  C2  I4B d   1       2.678  -0.817   1.843  0.00  0.00     0.003 A 
ATOM      3  C3  I4B d   1       3.130  -1.391   0.630  0.00  0.00     0.002 A 
ATOM      4  C4  I4B d   1       3.094  -2.762   0.472  0.00  0.00    -0.004 A 
ATOM      5  C5  I4B d   1       2.549  -3.565   1.469  0.00  0.00     0.002 A 
ATOM      6  C6  I4B d   1       2.068  -2.987   2.653  0.00  0.00     0.003 A 
ENDROOT
BRANCH   1   7
ATOM      7  C1' I4B d   1       1.724  -0.977   4.115  0.00  0.00     0.060 C 
BRANCH   7   8
ATOM      8  C2' I4B d   1       1.402  -2.083   5.100  0.00  0.00    -0.013 C 
ATOM      9  C4' I4B d   1       2.592  -2.405   5.966  0.00  0.00     0.013 C 
ATOM     10  C3' I4B d   1       0.234  -1.640   5.929  0.00  0.00     0.013 C 
ENDBRANCH   7   8
ENDBRANCH   1   7
TORSDOF 2
ENDMDL
