MODEL 1
REMARK minimizedAffinity 8.68667603
REMARK minimizedRMSD -1
REMARK  2 active torsions:
REMARK  status: ('A' for Active; 'I' for Inactive)
REMARK    1  A    between atoms: C2'_3  and  C1'_4 
REMARK    2  A    between atoms: C1'_4  and  C1_5 
ROOT
ATOM      1  C1  I4B d   1      -5.919  -2.025   5.179  0.00  0.00    -0.075 A 
ATOM      2  C2  I4B d   1      -5.936  -0.924   5.999  0.00  0.00     0.003 A 
ATOM      3  C3  I4B d   1      -5.998   0.377   5.444  0.00  0.00     0.002 A 
ATOM      4  C4  I4B d   1      -5.990   0.532   4.073  0.00  0.00    -0.004 A 
ATOM      5  C5  I4B d   1      -5.996  -0.586   3.243  0.00  0.00     0.002 A 
ATOM      6  C6  I4B d   1      -5.972  -1.873   3.800  0.00  0.00     0.003 A 
ENDROOT
BRANCH   1   7
ATOM      7  C1' I4B d   1      -5.819  -3.383   5.798  0.00  0.00     0.060 C 
BRANCH   7   8
ATOM      8  C2' I4B d   1      -4.790  -4.176   5.020  0.00  0.00    -0.013 C 
ATOM      9  C4' I4B d   1      -3.495  -3.416   4.895  0.00  0.00     0.013 C 
ATOM     10  C3' I4B d   1      -4.584  -5.484   5.724  0.00  0.00     0.013 C 
ENDBRANCH   7   8
ENDBRANCH   1   7
TORSDOF 2
ENDMDL
