MODEL 1
REMARK minimizedAffinity 9.67912006
REMARK minimizedRMSD -1
REMARK  2 active torsions:
REMARK  status: ('A' for Active; 'I' for Inactive)
REMARK    1  A    between atoms: C2'_3  and  C1'_4 
REMARK    2  A    between atoms: C1'_4  and  C1_5 
ROOT
ATOM      1  C1  I4B d   1       0.388   2.201   0.210  0.00  0.00    -0.075 A 
ATOM      2  C2  I4B d   1      -0.966   2.272   0.423  0.00  0.00     0.003 A 
ATOM      3  C3  I4B d   1      -1.519   1.825   1.647  0.00  0.00     0.002 A 
ATOM      4  C4  I4B d   1      -0.694   1.272   2.605  0.00  0.00    -0.004 A 
ATOM      5  C5  I4B d   1       0.682   1.222   2.397  0.00  0.00     0.002 A 
ATOM      6  C6  I4B d   1       1.228   1.701   1.197  0.00  0.00     0.003 A 
ENDROOT
BRANCH   1   7
ATOM      7  C1' I4B d   1       0.936   2.652  -1.107  0.00  0.00     0.060 C 
BRANCH   7   8
ATOM      8  C2' I4B d   1       0.860   4.164  -1.151  0.00  0.00    -0.013 C 
ATOM      9  C4' I4B d   1      -0.259   4.680  -0.284  0.00  0.00     0.013 C 
ATOM     10  C3' I4B d   1       2.185   4.707  -0.706  0.00  0.00     0.013 C 
ENDBRANCH   7   8
ENDBRANCH   1   7
TORSDOF 2
ENDMDL
