MODEL 1
REMARK minimizedAffinity -2.98403192
REMARK minimizedRMSD -1
REMARK  0 active torsions:
REMARK  status: ('A' for Active; 'I' for Inactive)
ROOT
ATOM      1  O1  BZF d   1      -1.962   0.415   2.731  0.00  0.00    -0.204 OA
ATOM      2  C2  BZF d   1      -0.916   0.766   3.563  0.00  0.00     0.174 A 
ATOM      3  C3  BZF d   1       0.265   0.645   2.923  0.00  0.00    -0.012 A 
ATOM      4  C3A BZF d   1      -0.069   0.279   1.581  0.00  0.00    -0.107 A 
ATOM      5  C4  BZF d   1       0.674   0.030   0.462  0.00  0.00     0.055 A 
ATOM      6  C5  BZF d   1       0.045  -0.375  -0.672  0.00  0.00    -0.016 A 
ATOM      7  C6  BZF d   1      -1.323  -0.547  -0.722  0.00  0.00     0.022 A 
ATOM      8  C7  BZF d   1      -2.103  -0.307   0.361  0.00  0.00     0.029 A 
ATOM      9  C7A BZF d   1      -1.473   0.134   1.499  0.00  0.00     0.058 A 
ENDROOT
TORSDOF 0
ENDMDL
