MODEL 1
REMARK minimizedAffinity -3.0096271
REMARK minimizedRMSD -1
REMARK  0 active torsions:
REMARK  status: ('A' for Active; 'I' for Inactive)
ROOT
ATOM      1  O1  BZF d   1       0.521   0.031   2.808  0.00  0.00    -0.204 OA
ATOM      2  C2  BZF d   1      -0.661   0.435   3.400  0.00  0.00     0.174 A 
ATOM      3  C3  BZF d   1      -1.618   0.631   2.470  0.00  0.00    -0.012 A 
ATOM      4  C3A BZF d   1      -1.023   0.242   1.229  0.00  0.00    -0.107 A 
ATOM      5  C4  BZF d   1      -1.479   0.195  -0.057  0.00  0.00     0.055 A 
ATOM      6  C5  BZF d   1      -0.623  -0.163  -1.050  0.00  0.00    -0.016 A 
ATOM      7  C6  BZF d   1       0.696  -0.476  -0.793  0.00  0.00     0.022 A 
ATOM      8  C7  BZF d   1       1.193  -0.449   0.468  0.00  0.00     0.029 A 
ATOM      9  C7A BZF d   1       0.322  -0.119   1.477  0.00  0.00     0.058 A 
ENDROOT
TORSDOF 0
ENDMDL
