MODEL 1
REMARK minimizedAffinity -6.0126543
REMARK minimizedRMSD -1
REMARK  0 active torsions:
REMARK  status: ('A' for Active; 'I' for Inactive)
ROOT
ATOM      1  O1  BZF d   1       1.948  -0.849   0.975  0.00  0.00    -0.204 OA
ATOM      2  C2  BZF d   1       1.521  -0.924  -0.336  0.00  0.00     0.174 A 
ATOM      3  C3  BZF d   1       0.372  -0.238  -0.505  0.00  0.00    -0.012 A 
ATOM      4  C3A BZF d   1       0.112   0.377   0.761  0.00  0.00    -0.107 A 
ATOM      5  C4  BZF d   1      -0.877   1.199   1.219  0.00  0.00     0.055 A 
ATOM      6  C5  BZF d   1      -0.880   1.563   2.529  0.00  0.00    -0.016 A 
ATOM      7  C6  BZF d   1       0.086   1.119   3.407  0.00  0.00     0.022 A 
ATOM      8  C7  BZF d   1       1.090   0.306   2.998  0.00  0.00     0.029 A 
ATOM      9  C7A BZF d   1       1.115  -0.037   1.668  0.00  0.00     0.058 A 
ENDROOT
TORSDOF 0
ENDMDL
