MODEL 1
REMARK minimizedAffinity -4.15674973
REMARK minimizedRMSD -1
REMARK  0 active torsions:
REMARK  status: ('A' for Active; 'I' for Inactive)
ROOT
ATOM      1  O1  BZF d   1      -0.687  -0.454   2.816  0.00  0.00    -0.204 OA
ATOM      2  C2  BZF d   1       0.337  -0.674   3.717  0.00  0.00     0.174 A 
ATOM      3  C3  BZF d   1       1.407  -1.219   3.102  0.00  0.00    -0.012 A 
ATOM      4  C3A BZF d   1       1.062  -1.261   1.714  0.00  0.00    -0.107 A 
ATOM      5  C4  BZF d   1       1.722  -1.682   0.596  0.00  0.00     0.055 A 
ATOM      6  C5  BZF d   1       1.077  -1.657  -0.601  0.00  0.00    -0.016 A 
ATOM      7  C6  BZF d   1      -0.227  -1.222  -0.713  0.00  0.00     0.022 A 
ATOM      8  C7  BZF d   1      -0.921  -0.789   0.367  0.00  0.00     0.029 A 
ATOM      9  C7A BZF d   1      -0.261  -0.783   1.572  0.00  0.00     0.058 A 
ENDROOT
TORSDOF 0
ENDMDL
