MODEL 1
REMARK minimizedAffinity -1.08968091
REMARK minimizedRMSD -1
REMARK  0 active torsions:
REMARK  status: ('A' for Active; 'I' for Inactive)
ROOT
ATOM      1  O1  BZF d   1      -1.151   1.522   2.836  0.00  0.00    -0.204 OA
ATOM      2  C2  BZF d   1       0.121   1.204   3.271  0.00  0.00     0.174 A 
ATOM      3  C3  BZF d   1       0.592   0.121   2.621  0.00  0.00    -0.012 A 
ATOM      4  C3A BZF d   1      -0.413  -0.207   1.657  0.00  0.00    -0.107 A 
ATOM      5  C4  BZF d   1      -0.517  -1.176   0.701  0.00  0.00     0.055 A 
ATOM      6  C5  BZF d   1      -1.662  -1.267  -0.026  0.00  0.00    -0.016 A 
ATOM      7  C6  BZF d   1      -2.723  -0.410   0.180  0.00  0.00     0.022 A 
ATOM      8  C7  BZF d   1      -2.664   0.571   1.114  0.00  0.00     0.029 A 
ATOM      9  C7A BZF d   1      -1.496   0.686   1.827  0.00  0.00     0.058 A 
ENDROOT
TORSDOF 0
ENDMDL
