MODEL 1
REMARK minimizedAffinity 0.833231628
REMARK minimizedRMSD -1
REMARK  0 active torsions:
REMARK  status: ('A' for Active; 'I' for Inactive)
ROOT
ATOM      1  C   UNL d   1       5.977  -5.345  -3.018  0.00  0.00    -0.002 A 
ATOM      2  C1  UNL d   1       5.004  -4.938  -2.116  0.00  0.00     0.010 A 
ATOM      3  C2  UNL d   1       3.661  -4.890  -2.494  0.00  0.00     0.041 A 
ATOM      4  C3  UNL d   1       3.309  -5.261  -3.806  0.00  0.00    -0.075 A 
ATOM      5  S   UNL d   1       1.727  -5.281  -4.492  0.00  0.00     0.015 SA
ATOM      6  C4  UNL d   1       2.305  -5.830  -5.998  0.00  0.00     0.022 A 
ATOM      7  C5  UNL d   1       3.670  -5.999  -5.996  0.00  0.00     0.026 A 
ATOM      8  C6  UNL d   1       4.270  -5.675  -4.732  0.00  0.00    -0.082 A 
ATOM      9  C7  UNL d   1       5.624  -5.713  -4.319  0.00  0.00     0.045 A 
ENDROOT
TORSDOF 0
ENDMDL
