MODEL 1
REMARK minimizedAffinity -1.24057364
REMARK minimizedRMSD -1
REMARK  0 active torsions:
REMARK  status: ('A' for Active; 'I' for Inactive)
ROOT
ATOM      1  C   UNL d   1       4.580  -5.989  -1.543  0.00  0.00    -0.002 A 
ATOM      2  C1  UNL d   1       5.837  -5.899  -2.123  0.00  0.00     0.010 A 
ATOM      3  C2  UNL d   1       5.973  -5.715  -3.500  0.00  0.00     0.041 A 
ATOM      4  C3  UNL d   1       4.812  -5.620  -4.293  0.00  0.00    -0.075 A 
ATOM      5  S   UNL d   1       4.734  -5.393  -6.000  0.00  0.00     0.015 SA
ATOM      6  C4  UNL d   1       3.030  -5.411  -6.000  0.00  0.00     0.022 A 
ATOM      7  C5  UNL d   1       2.516  -5.585  -4.737  0.00  0.00     0.026 A 
ATOM      8  C6  UNL d   1       3.535  -5.708  -3.732  0.00  0.00    -0.082 A 
ATOM      9  C7  UNL d   1       3.430  -5.895  -2.332  0.00  0.00     0.045 A 
ENDROOT
TORSDOF 0
ENDMDL
