MODEL 1
REMARK minimizedAffinity 1.3000561
REMARK minimizedRMSD -1
REMARK  0 active torsions:
REMARK  status: ('A' for Active; 'I' for Inactive)
ROOT
ATOM      1  C   UNL d   1       5.867  -5.159  -3.854  0.00  0.00    -0.002 A 
ATOM      2  C1  UNL d   1       5.908  -5.241  -5.238  0.00  0.00     0.010 A 
ATOM      3  C2  UNL d   1       4.729  -5.350  -5.979  0.00  0.00     0.041 A 
ATOM      4  C3  UNL d   1       3.496  -5.374  -5.297  0.00  0.00    -0.075 A 
ATOM      5  S   UNL d   1       1.925  -5.501  -5.995  0.00  0.00     0.015 SA
ATOM      6  C4  UNL d   1       1.162  -5.449  -4.472  0.00  0.00     0.022 A 
ATOM      7  C5  UNL d   1       2.069  -5.337  -3.445  0.00  0.00     0.026 A 
ATOM      8  C6  UNL d   1       3.429  -5.292  -3.903  0.00  0.00    -0.082 A 
ATOM      9  C7  UNL d   1       4.642  -5.183  -3.181  0.00  0.00     0.045 A 
ENDROOT
TORSDOF 0
ENDMDL
