MODEL 1
REMARK minimizedAffinity 5.51201534
REMARK minimizedRMSD -1
REMARK  0 active torsions:
REMARK  status: ('A' for Active; 'I' for Inactive)
ROOT
ATOM      1  C   UNL d   1      -2.785   1.591  -5.226  0.00  0.00    -0.002 A 
ATOM      2  C1  UNL d   1      -1.870   2.629  -5.329  0.00  0.00     0.010 A 
ATOM      3  C2  UNL d   1      -2.302   3.935  -5.569  0.00  0.00     0.041 A 
ATOM      4  C3  UNL d   1      -3.683   4.183  -5.703  0.00  0.00    -0.075 A 
ATOM      5  S   UNL d   1      -4.443   5.702  -5.998  0.00  0.00     0.015 SA
ATOM      6  C4  UNL d   1      -5.999   5.008  -5.993  0.00  0.00     0.022 A 
ATOM      7  C5  UNL d   1      -5.959   3.652  -5.773  0.00  0.00     0.026 A 
ATOM      8  C6  UNL d   1      -4.623   3.154  -5.602  0.00  0.00    -0.082 A 
ATOM      9  C7  UNL d   1      -4.153   1.840  -5.359  0.00  0.00     0.045 A 
ENDROOT
TORSDOF 0
ENDMDL
