MODEL 1
REMARK minimizedAffinity 0.997347057
REMARK minimizedRMSD -1
REMARK  0 active torsions:
REMARK  status: ('A' for Active; 'I' for Inactive)
ROOT
ATOM      1  C   UNL d   1       3.087  -5.832  -5.998  0.00  0.00    -0.002 A 
ATOM      2  C1  UNL d   1       2.079  -5.999  -5.060  0.00  0.00     0.010 A 
ATOM      3  C2  UNL d   1       2.369  -5.978  -3.694  0.00  0.00     0.041 A 
ATOM      4  C3  UNL d   1       3.703  -5.783  -3.284  0.00  0.00    -0.075 A 
ATOM      5  S   UNL d   1       4.294  -5.720  -1.665  0.00  0.00     0.015 SA
ATOM      6  C4  UNL d   1       5.899  -5.469  -2.182  0.00  0.00     0.022 A 
ATOM      7  C5  UNL d   1       5.999  -5.432  -3.552  0.00  0.00     0.026 A 
ATOM      8  C6  UNL d   1       4.736  -5.612  -4.210  0.00  0.00    -0.082 A 
ATOM      9  C7  UNL d   1       4.409  -5.639  -5.587  0.00  0.00     0.045 A 
ENDROOT
TORSDOF 0
ENDMDL
