MODEL 1
REMARK minimizedAffinity 9.08700371
REMARK minimizedRMSD -1
REMARK  0 active torsions:
REMARK  status: ('A' for Active; 'I' for Inactive)
ROOT
ATOM      1  C   UNL d   1       4.271  -5.981  -1.675  0.00  0.00    -0.002 A 
ATOM      2  C1  UNL d   1       5.535  -5.964  -2.247  0.00  0.00     0.010 A 
ATOM      3  C2  UNL d   1       5.705  -5.600  -3.585  0.00  0.00     0.041 A 
ATOM      4  C3  UNL d   1       4.572  -5.248  -4.344  0.00  0.00    -0.075 A 
ATOM      5  S   UNL d   1       4.539  -4.768  -6.000  0.00  0.00     0.015 SA
ATOM      6  C4  UNL d   1       2.846  -4.572  -5.987  0.00  0.00     0.022 A 
ATOM      7  C5  UNL d   1       2.303  -4.863  -4.757  0.00  0.00     0.026 A 
ATOM      8  C6  UNL d   1       3.289  -5.256  -3.790  0.00  0.00    -0.082 A 
ATOM      9  C7  UNL d   1       3.149  -5.631  -2.432  0.00  0.00     0.045 A 
ENDROOT
TORSDOF 0
ENDMDL
