MODEL 1
REMARK minimizedAffinity 0.316204131
REMARK minimizedRMSD -1
REMARK  0 active torsions:
REMARK  status: ('A' for Active; 'I' for Inactive)
ROOT
ATOM      1  C   UNL d   1      -3.504   1.525  -5.760  0.00  0.00    -0.002 A 
ATOM      2  C1  UNL d   1      -2.354   2.286  -5.613  0.00  0.00     0.010 A 
ATOM      3  C2  UNL d   1      -2.421   3.680  -5.598  0.00  0.00     0.041 A 
ATOM      4  C3  UNL d   1      -3.678   4.303  -5.733  0.00  0.00    -0.075 A 
ATOM      5  S   UNL d   1      -4.004   5.996  -5.741  0.00  0.00     0.015 SA
ATOM      6  C4  UNL d   1      -5.678   5.749  -5.940  0.00  0.00     0.022 A 
ATOM      7  C5  UNL d   1      -5.999   4.413  -6.000  0.00  0.00     0.026 A 
ATOM      8  C6  UNL d   1      -4.851   3.558  -5.881  0.00  0.00    -0.082 A 
ATOM      9  C7  UNL d   1      -4.749   2.146  -5.893  0.00  0.00     0.045 A 
ENDROOT
TORSDOF 0
ENDMDL
