MODEL 1
REMARK minimizedAffinity 5.85388803
REMARK minimizedRMSD -1
REMARK  0 active torsions:
REMARK  status: ('A' for Active; 'I' for Inactive)
ROOT
ATOM      1  C   UNL d   1       1.750  -5.999  -4.801  0.00  0.00    -0.002 A 
ATOM      2  C1  UNL d   1       2.318  -5.539  -5.981  0.00  0.00     0.010 A 
ATOM      3  C2  UNL d   1       3.630  -5.063  -6.000  0.00  0.00     0.041 A 
ATOM      4  C3  UNL d   1       4.371  -5.059  -4.801  0.00  0.00    -0.075 A 
ATOM      5  S   UNL d   1       5.995  -4.523  -4.585  0.00  0.00     0.015 SA
ATOM      6  C4  UNL d   1       5.975  -4.894  -2.921  0.00  0.00     0.022 A 
ATOM      7  C5  UNL d   1       4.766  -5.414  -2.524  0.00  0.00     0.026 A 
ATOM      8  C6  UNL d   1       3.822  -5.519  -3.601  0.00  0.00    -0.082 A 
ATOM      9  C7  UNL d   1       2.488  -5.994  -3.614  0.00  0.00     0.045 A 
ENDROOT
TORSDOF 0
ENDMDL
