MODEL 1
REMARK minimizedAffinity 6.12822342
REMARK minimizedRMSD -1
REMARK  0 active torsions:
REMARK  status: ('A' for Active; 'I' for Inactive)
ROOT
ATOM      1  C   UNL d   1      -1.090   1.426   0.693  0.00  0.00    -0.002 A 
ATOM      2  C1  UNL d   1      -1.061   2.684   1.277  0.00  0.00     0.010 A 
ATOM      3  C2  UNL d   1       0.154   3.328   1.518  0.00  0.00     0.041 A 
ATOM      4  C3  UNL d   1       1.352   2.681   1.156  0.00  0.00    -0.075 A 
ATOM      5  S   UNL d   1       2.957   3.278   1.355  0.00  0.00     0.015 SA
ATOM      6  C4  UNL d   1       3.643   1.877   0.668  0.00  0.00     0.022 A 
ATOM      7  C5  UNL d   1       2.685   0.966   0.292  0.00  0.00     0.026 A 
ATOM      8  C6  UNL d   1       1.349   1.414   0.566  0.00  0.00    -0.082 A 
ATOM      9  C7  UNL d   1       0.101   0.787   0.336  0.00  0.00     0.045 A 
ENDROOT
TORSDOF 0
ENDMDL
