MODEL 1
REMARK minimizedAffinity 0.945081532
REMARK minimizedRMSD -1
REMARK  0 active torsions:
REMARK  status: ('A' for Active; 'I' for Inactive)
ROOT
ATOM      1  C   UNL d   1       3.121  -5.163  -1.574  0.00  0.00    -0.002 A 
ATOM      2  C1  UNL d   1       1.897  -5.273  -2.219  0.00  0.00     0.010 A 
ATOM      3  C2  UNL d   1       1.837  -5.530  -3.590  0.00  0.00     0.041 A 
ATOM      4  C3  UNL d   1       3.039  -5.679  -4.308  0.00  0.00    -0.075 A 
ATOM      5  S   UNL d   1       3.210  -6.000  -5.994  0.00  0.00     0.015 SA
ATOM      6  C4  UNL d   1       4.911  -5.999  -5.898  0.00  0.00     0.022 A 
ATOM      7  C5  UNL d   1       5.356  -5.762  -4.618  0.00  0.00     0.026 A 
ATOM      8  C6  UNL d   1       4.284  -5.574  -3.681  0.00  0.00    -0.082 A 
ATOM      9  C7  UNL d   1       4.311  -5.311  -2.290  0.00  0.00     0.045 A 
ENDROOT
TORSDOF 0
ENDMDL
