MODEL 1
REMARK minimizedAffinity 2.62910652
REMARK minimizedRMSD -1
REMARK  0 active torsions:
REMARK  status: ('A' for Active; 'I' for Inactive)
ROOT
ATOM      1  C   UNL d   1       2.843   1.767   0.986  0.00  0.00    -0.002 A 
ATOM      2  C1  UNL d   1       2.132   1.043   0.039  0.00  0.00     0.010 A 
ATOM      3  C2  UNL d   1       0.737   1.083   0.015  0.00  0.00     0.041 A 
ATOM      4  C3  UNL d   1       0.061   1.873   0.967  0.00  0.00    -0.075 A 
ATOM      5  S   UNL d   1      -1.643   2.075   1.128  0.00  0.00     0.015 SA
ATOM      6  C4  UNL d   1      -1.468   3.129   2.456  0.00  0.00     0.022 A 
ATOM      7  C5  UNL d   1      -0.148   3.332   2.782  0.00  0.00     0.026 A 
ATOM      8  C6  UNL d   1       0.755   2.612   1.929  0.00  0.00    -0.082 A 
ATOM      9  C7  UNL d   1       2.170   2.549   1.928  0.00  0.00     0.045 A 
ENDROOT
TORSDOF 0
ENDMDL
