MODEL 1
REMARK minimizedAffinity 3.78296137
REMARK minimizedRMSD -1
REMARK  0 active torsions:
REMARK  status: ('A' for Active; 'I' for Inactive)
ROOT
ATOM      1  C   UNL d   1       3.699   1.186   0.119  0.00  0.00    -0.002 A 
ATOM      2  C1  UNL d   1       2.610   0.749  -0.621  0.00  0.00     0.010 A 
ATOM      3  C2  UNL d   1       1.319   1.174  -0.303  0.00  0.00     0.041 A 
ATOM      4  C3  UNL d   1       1.139   2.055   0.781  0.00  0.00    -0.075 A 
ATOM      5  S   UNL d   1      -0.350   2.709   1.354  0.00  0.00     0.015 SA
ATOM      6  C4  UNL d   1       0.426   3.584   2.594  0.00  0.00     0.022 A 
ATOM      7  C5  UNL d   1       1.787   3.394   2.586  0.00  0.00     0.026 A 
ATOM      8  C6  UNL d   1       2.221   2.510   1.541  0.00  0.00    -0.082 A 
ATOM      9  C7  UNL d   1       3.518   2.060   1.194  0.00  0.00     0.045 A 
ENDROOT
TORSDOF 0
ENDMDL
