MODEL 1
REMARK minimizedAffinity -6.10511732
REMARK minimizedRMSD -1
REMARK  3 active torsions:
REMARK  status: ('A' for Active; 'I' for Inactive)
REMARK    1  A    between atoms: C3'_2  and  C2'_3 
REMARK    2  A    between atoms: C2'_3  and  C1'_4 
REMARK    3  A    between atoms: C1'_4  and  C1_5 
ROOT
ATOM      1  C1  N4B d   1      -0.012  -0.341   0.429  0.00  0.00    -0.075 A 
ATOM      2  C2  N4B d   1      -0.848  -0.447   1.563  0.00  0.00     0.002 A 
ATOM      3  C3  N4B d   1      -0.429  -1.158   2.660  0.00  0.00     0.002 A 
ATOM      4  C4  N4B d   1       0.808  -1.785   2.640  0.00  0.00    -0.004 A 
ATOM      5  C5  N4B d   1       1.620  -1.656   1.551  0.00  0.00     0.002 A 
ATOM      6  C6  N4B d   1       1.213  -0.941   0.443  0.00  0.00     0.002 A 
ENDROOT
BRANCH   1   7
ATOM      7  C1' N4B d   1      -0.463   0.354  -0.827  0.00  0.00     0.057 C 
BRANCH   7   8
ATOM      8  C2' N4B d   1      -1.310   1.566  -0.452  0.00  0.00     0.009 C 
BRANCH   8   9
ATOM      9  C3' N4B d   1      -2.017   2.160  -1.659  0.00  0.00     0.004 C 
ATOM     10  C4' N4B d   1      -3.312   1.471  -1.969  0.00  0.00     0.003 C 
ENDBRANCH   8   9
ENDBRANCH   7   8
ENDBRANCH   1   7
TORSDOF 3
ENDMDL
