MODEL 1
REMARK minimizedAffinity -1.2659601
REMARK minimizedRMSD -1
REMARK  3 active torsions:
REMARK  status: ('A' for Active; 'I' for Inactive)
REMARK    1  A    between atoms: C3'_2  and  C2'_3 
REMARK    2  A    between atoms: C2'_3  and  C1'_4 
REMARK    3  A    between atoms: C1'_4  and  C1_5 
ROOT
ATOM      1  C1  N4B d   1      -0.086   0.433  -0.470  0.00  0.00    -0.075 A 
ATOM      2  C2  N4B d   1      -0.064  -0.005   0.872  0.00  0.00     0.002 A 
ATOM      3  C3  N4B d   1       0.939  -0.836   1.307  0.00  0.00     0.002 A 
ATOM      4  C4  N4B d   1       1.916  -1.256   0.417  0.00  0.00    -0.004 A 
ATOM      5  C5  N4B d   1       1.902  -0.808  -0.872  0.00  0.00     0.002 A 
ATOM      6  C6  N4B d   1       0.902   0.030  -1.321  0.00  0.00     0.002 A 
ENDROOT
BRANCH   1   7
ATOM      7  C1' N4B d   1      -1.210   1.273  -1.013  0.00  0.00     0.057 C 
BRANCH   7   8
ATOM      8  C2' N4B d   1      -0.694   2.100  -2.187  0.00  0.00     0.009 C 
BRANCH   8   9
ATOM      9  C3' N4B d   1      -1.777   2.989  -2.774  0.00  0.00     0.004 C 
ATOM     10  C4' N4B d   1      -3.091   2.282  -2.926  0.00  0.00     0.003 C 
ENDBRANCH   8   9
ENDBRANCH   7   8
ENDBRANCH   1   7
TORSDOF 3
ENDMDL
