MODEL 1
REMARK minimizedAffinity -4.29041529
REMARK minimizedRMSD -1
REMARK  3 active torsions:
REMARK  status: ('A' for Active; 'I' for Inactive)
REMARK    1  A    between atoms: C3'_2  and  C2'_3 
REMARK    2  A    between atoms: C2'_3  and  C1'_4 
REMARK    3  A    between atoms: C1'_4  and  C1_5 
ROOT
ATOM      1  C1  N4B d   1      -0.300   0.573   0.418  0.00  0.00    -0.075 A 
ATOM      2  C2  N4B d   1      -0.355  -0.325   1.507  0.00  0.00     0.002 A 
ATOM      3  C3  N4B d   1       0.650  -1.242   1.692  0.00  0.00     0.002 A 
ATOM      4  C4  N4B d   1       1.707  -1.292   0.795  0.00  0.00    -0.004 A 
ATOM      5  C5  N4B d   1       1.765  -0.404  -0.239  0.00  0.00     0.002 A 
ATOM      6  C6  N4B d   1       0.764   0.525  -0.435  0.00  0.00     0.002 A 
ENDROOT
BRANCH   1   7
ATOM      7  C1' N4B d   1      -1.418   1.536   0.126  0.00  0.00     0.057 C 
BRANCH   7   8
ATOM      8  C2' N4B d   1      -1.124   2.261  -1.184  0.00  0.00     0.009 C 
BRANCH   8   9
ATOM      9  C3' N4B d   1      -1.963   1.723  -2.331  0.00  0.00     0.004 C 
ATOM     10  C4' N4B d   1      -3.367   1.396  -1.920  0.00  0.00     0.003 C 
ENDBRANCH   8   9
ENDBRANCH   7   8
ENDBRANCH   1   7
TORSDOF 3
ENDMDL
