MODEL 1
REMARK minimizedAffinity -4.47431517
REMARK minimizedRMSD -1
REMARK  3 active torsions:
REMARK  status: ('A' for Active; 'I' for Inactive)
REMARK    1  A    between atoms: C3'_2  and  C2'_3 
REMARK    2  A    between atoms: C2'_3  and  C1'_4 
REMARK    3  A    between atoms: C1'_4  and  C1_5 
ROOT
ATOM      1  C1  N4B d   1      -0.010   0.408  -0.146  0.00  0.00    -0.075 A 
ATOM      2  C2  N4B d   1       1.095   0.214  -1.004  0.00  0.00     0.002 A 
ATOM      3  C3  N4B d   1       2.124  -0.611  -0.622  0.00  0.00     0.002 A 
ATOM      4  C4  N4B d   1       2.079  -1.236   0.616  0.00  0.00    -0.004 A 
ATOM      5  C5  N4B d   1       0.996  -1.063   1.427  0.00  0.00     0.002 A 
ATOM      6  C6  N4B d   1      -0.047  -0.240   1.055  0.00  0.00     0.002 A 
ENDROOT
BRANCH   1   7
ATOM      7  C1' N4B d   1      -1.119   1.367  -0.483  0.00  0.00     0.057 C 
BRANCH   7   8
ATOM      8  C2' N4B d   1      -0.813   2.035  -1.821  0.00  0.00     0.009 C 
BRANCH   8   9
ATOM      9  C3' N4B d   1      -1.719   1.527  -2.930  0.00  0.00     0.004 C 
ATOM     10  C4' N4B d   1      -2.981   0.906  -2.410  0.00  0.00     0.003 C 
ENDBRANCH   8   9
ENDBRANCH   7   8
ENDBRANCH   1   7
TORSDOF 3
ENDMDL
