MODEL 1
REMARK minimizedAffinity -0.0857088566
REMARK minimizedRMSD -1
REMARK  3 active torsions:
REMARK  status: ('A' for Active; 'I' for Inactive)
REMARK    1  A    between atoms: C3'_2  and  C2'_3 
REMARK    2  A    between atoms: C2'_3  and  C1'_4 
REMARK    3  A    between atoms: C1'_4  and  C1_5 
ROOT
ATOM      1  C1  N4B d   1      -0.149   0.769  -0.332  0.00  0.00    -0.075 A 
ATOM      2  C2  N4B d   1       1.169   1.131  -0.686  0.00  0.00     0.002 A 
ATOM      3  C3  N4B d   1       2.218   0.302  -0.371  0.00  0.00     0.002 A 
ATOM      4  C4  N4B d   1       1.975  -0.880   0.312  0.00  0.00    -0.004 A 
ATOM      5  C5  N4B d   1       0.696  -1.235   0.628  0.00  0.00     0.002 A 
ATOM      6  C6  N4B d   1      -0.367  -0.413   0.314  0.00  0.00     0.002 A 
ENDROOT
BRANCH   1   7
ATOM      7  C1' N4B d   1      -1.317   1.683  -0.580  0.00  0.00     0.057 C 
BRANCH   7   8
ATOM      8  C2' N4B d   1      -1.181   2.307  -1.965  0.00  0.00     0.009 C 
BRANCH   8   9
ATOM      9  C3' N4B d   1      -2.363   1.972  -2.858  0.00  0.00     0.004 C 
ATOM     10  C4' N4B d   1      -3.351   1.059  -2.195  0.00  0.00     0.003 C 
ENDBRANCH   8   9
ENDBRANCH   7   8
ENDBRANCH   1   7
TORSDOF 3
ENDMDL
