MODEL 1
REMARK minimizedAffinity -3.77851605
REMARK minimizedRMSD -1
REMARK  3 active torsions:
REMARK  status: ('A' for Active; 'I' for Inactive)
REMARK    1  A    between atoms: C3'_2  and  C2'_3 
REMARK    2  A    between atoms: C2'_3  and  C1'_4 
REMARK    3  A    between atoms: C1'_4  and  C1_5 
ROOT
ATOM      1  C1  N4B d   1       0.627  -0.618   0.761  0.00  0.00    -0.075 A 
ATOM      2  C2  N4B d   1       1.690  -1.403   1.259  0.00  0.00     0.002 A 
ATOM      3  C3  N4B d   1       1.596  -1.975   2.504  0.00  0.00     0.002 A 
ATOM      4  C4  N4B d   1       0.462  -1.761   3.274  0.00  0.00    -0.004 A 
ATOM      5  C5  N4B d   1      -0.571  -1.022   2.775  0.00  0.00     0.002 A 
ATOM      6  C6  N4B d   1      -0.492  -0.445   1.524  0.00  0.00     0.002 A 
ENDROOT
BRANCH   1   7
ATOM      7  C1' N4B d   1       0.719   0.098  -0.558  0.00  0.00     0.057 C 
BRANCH   7   8
ATOM      8  C2' N4B d   1      -0.321   1.214  -0.596  0.00  0.00     0.009 C 
BRANCH   8   9
ATOM      9  C3' N4B d   1      -1.327   1.016  -1.717  0.00  0.00     0.004 C 
ATOM     10  C4' N4B d   1      -1.349   2.159  -2.687  0.00  0.00     0.003 C 
ENDBRANCH   8   9
ENDBRANCH   7   8
ENDBRANCH   1   7
TORSDOF 3
ENDMDL
