MODEL 1
REMARK minimizedAffinity -2.44123244
REMARK minimizedRMSD -1
REMARK  3 active torsions:
REMARK  status: ('A' for Active; 'I' for Inactive)
REMARK    1  A    between atoms: C3'_2  and  C2'_3 
REMARK    2  A    between atoms: C2'_3  and  C1'_4 
REMARK    3  A    between atoms: C1'_4  and  C1_5 
ROOT
ATOM      1  C1  N4B d   1       0.119  -0.084  -0.120  0.00  0.00    -0.075 A 
ATOM      2  C2  N4B d   1       0.640  -0.388  -1.397  0.00  0.00     0.002 A 
ATOM      3  C3  N4B d   1       1.778  -1.149  -1.510  0.00  0.00     0.002 A 
ATOM      4  C4  N4B d   1       2.419  -1.599  -0.366  0.00  0.00    -0.004 A 
ATOM      5  C5  N4B d   1       1.894  -1.322   0.863  0.00  0.00     0.002 A 
ATOM      6  C6  N4B d   1       0.749  -0.562   0.991  0.00  0.00     0.002 A 
ENDROOT
BRANCH   1   7
ATOM      7  C1' N4B d   1      -1.074   0.816   0.056  0.00  0.00     0.057 C 
BRANCH   7   8
ATOM      8  C2' N4B d   1      -1.950   0.737  -1.190  0.00  0.00     0.009 C 
BRANCH   8   9
ATOM      9  C3' N4B d   1      -1.664   1.871  -2.159  0.00  0.00     0.004 C 
ATOM     10  C4' N4B d   1      -2.217   1.618  -3.530  0.00  0.00     0.003 C 
ENDBRANCH   8   9
ENDBRANCH   7   8
ENDBRANCH   1   7
TORSDOF 3
ENDMDL
