MODEL 1
REMARK minimizedAffinity -4.06977654
REMARK minimizedRMSD -1
REMARK  3 active torsions:
REMARK  status: ('A' for Active; 'I' for Inactive)
REMARK    1  A    between atoms: C3'_2  and  C2'_3 
REMARK    2  A    between atoms: C2'_3  and  C1'_4 
REMARK    3  A    between atoms: C1'_4  and  C1_5 
ROOT
ATOM      1  C1  N4B d   1       0.104   0.299   0.335  0.00  0.00    -0.075 A 
ATOM      2  C2  N4B d   1       1.382  -0.125  -0.094  0.00  0.00     0.002 A 
ATOM      3  C3  N4B d   1       2.072  -1.065   0.630  0.00  0.00     0.002 A 
ATOM      4  C4  N4B d   1       1.516  -1.581   1.792  0.00  0.00    -0.004 A 
ATOM      5  C5  N4B d   1       0.271  -1.185   2.185  0.00  0.00     0.002 A 
ATOM      6  C6  N4B d   1      -0.436  -0.243   1.465  0.00  0.00     0.002 A 
ENDROOT
BRANCH   1   7
ATOM      7  C1' N4B d   1      -0.651   1.388  -0.377  0.00  0.00     0.057 C 
BRANCH   7   8
ATOM      8  C2' N4B d   1      -1.324   0.803  -1.615  0.00  0.00     0.009 C 
BRANCH   8   9
ATOM      9  C3' N4B d   1      -2.267   1.797  -2.272  0.00  0.00     0.004 C 
ATOM     10  C4' N4B d   1      -2.590   1.440  -3.692  0.00  0.00     0.003 C 
ENDBRANCH   8   9
ENDBRANCH   7   8
ENDBRANCH   1   7
TORSDOF 3
ENDMDL
