MODEL 1
REMARK minimizedAffinity -2.15820098
REMARK minimizedRMSD -1
REMARK  3 active torsions:
REMARK  status: ('A' for Active; 'I' for Inactive)
REMARK    1  A    between atoms: C3'_2  and  C2'_3 
REMARK    2  A    between atoms: C2'_3  and  C1'_4 
REMARK    3  A    between atoms: C1'_4  and  C1_5 
ROOT
ATOM      1  C1  N4B d   1       0.221   0.430  -0.395  0.00  0.00    -0.075 A 
ATOM      2  C2  N4B d   1       0.668  -0.072  -1.637  0.00  0.00     0.002 A 
ATOM      3  C3  N4B d   1       1.716  -0.959  -1.681  0.00  0.00     0.002 A 
ATOM      4  C4  N4B d   1       2.341  -1.342  -0.504  0.00  0.00    -0.004 A 
ATOM      5  C5  N4B d   1       1.886  -0.872   0.693  0.00  0.00     0.002 A 
ATOM      6  C6  N4B d   1       0.831   0.017   0.753  0.00  0.00     0.002 A 
ENDROOT
BRANCH   1   7
ATOM      7  C1' N4B d   1      -0.865   1.467  -0.302  0.00  0.00     0.057 C 
BRANCH   7   8
ATOM      8  C2' N4B d   1      -1.404   1.754  -1.701  0.00  0.00     0.009 C 
BRANCH   8   9
ATOM      9  C3' N4B d   1      -2.820   1.236  -1.882  0.00  0.00     0.004 C 
ATOM     10  C4' N4B d   1      -3.464   1.733  -3.142  0.00  0.00     0.003 C 
ENDBRANCH   8   9
ENDBRANCH   7   8
ENDBRANCH   1   7
TORSDOF 3
ENDMDL
