MODEL 1
REMARK minimizedAffinity -1.62111425
REMARK minimizedRMSD -1
REMARK  3 active torsions:
REMARK  status: ('A' for Active; 'I' for Inactive)
REMARK    1  A    between atoms: C3'_2  and  C2'_3 
REMARK    2  A    between atoms: C2'_3  and  C1'_4 
REMARK    3  A    between atoms: C1'_4  and  C1_5 
ROOT
ATOM      1  C1  N4B d   1       1.097  -0.654   0.164  0.00  0.00    -0.075 A 
ATOM      2  C2  N4B d   1       0.303   0.221   0.938  0.00  0.00     0.002 A 
ATOM      3  C3  N4B d   1      -0.621   1.032   0.325  0.00  0.00     0.002 A 
ATOM      4  C4  N4B d   1      -0.754   1.000  -1.055  0.00  0.00    -0.004 A 
ATOM      5  C5  N4B d   1      -0.001   0.134  -1.792  0.00  0.00     0.002 A 
ATOM      6  C6  N4B d   1       0.928  -0.690  -1.190  0.00  0.00     0.002 A 
ENDROOT
BRANCH   1   7
ATOM      7  C1' N4B d   1       2.180  -1.497   0.780  0.00  0.00     0.057 C 
BRANCH   7   8
ATOM      8  C2' N4B d   1       2.192  -1.273   2.289  0.00  0.00     0.009 C 
BRANCH   8   9
ATOM      9  C3' N4B d   1       1.304  -2.267   3.018  0.00  0.00     0.004 C 
ATOM     10  C4' N4B d   1       0.329  -1.605   3.944  0.00  0.00     0.003 C 
ENDBRANCH   8   9
ENDBRANCH   7   8
ENDBRANCH   1   7
TORSDOF 3
ENDMDL
