MODEL 1
REMARK minimizedAffinity 10.4655161
REMARK minimizedRMSD -1
REMARK  3 active torsions:
REMARK  status: ('A' for Active; 'I' for Inactive)
REMARK    1  A    between atoms: C3'_2  and  C2'_3 
REMARK    2  A    between atoms: C2'_3  and  C1'_4 
REMARK    3  A    between atoms: C1'_4  and  C1_5 
ROOT
ATOM      1  C1  N4B d   1      -1.843   2.159  -1.733  0.00  0.00    -0.075 A 
ATOM      2  C2  N4B d   1      -1.025   2.101  -0.583  0.00  0.00     0.002 A 
ATOM      3  C3  N4B d   1      -1.440   1.395   0.520  0.00  0.00     0.002 A 
ATOM      4  C4  N4B d   1      -2.672   0.758   0.503  0.00  0.00    -0.004 A 
ATOM      5  C5  N4B d   1      -3.445   0.798  -0.621  0.00  0.00     0.002 A 
ATOM      6  C6  N4B d   1      -3.039   1.500  -1.738  0.00  0.00     0.002 A 
ENDROOT
BRANCH   1   7
ATOM      7  C1' N4B d   1      -1.471   2.988  -2.931  0.00  0.00     0.057 C 
BRANCH   7   8
ATOM      8  C2' N4B d   1       0.047   3.132  -2.989  0.00  0.00     0.009 C 
BRANCH   8   9
ATOM      9  C3' N4B d   1       0.526   3.559  -4.366  0.00  0.00     0.004 C 
ATOM     10  C4' N4B d   1       0.997   4.982  -4.401  0.00  0.00     0.003 C 
ENDBRANCH   8   9
ENDBRANCH   7   8
ENDBRANCH   1   7
TORSDOF 3
ENDMDL
