MODEL 1
REMARK minimizedAffinity -4.25855017
REMARK minimizedRMSD -1
REMARK  1 active torsions:
REMARK  status: ('A' for Active; 'I' for Inactive)
REMARK    1  A    between atoms: N_2  and  C1_3 
ROOT
ATOM      1  C1  UNL d   1      -0.547   0.141  -0.086  0.00  0.00     0.143 A 
ATOM      2  C2  UNL d   1       0.565   0.753  -0.673  0.00  0.00    -0.057 A 
ATOM      3  C3  UNL d   1       1.680   0.004  -1.071  0.00  0.00     0.033 A 
ATOM      4  C4  UNL d   1       1.714  -1.370  -0.860  0.00  0.00    -0.042 A 
ATOM      5  C5  UNL d   1       0.629  -1.996  -0.255  0.00  0.00     0.033 A 
ATOM      6  C6  UNL d   1      -0.484  -1.244   0.134  0.00  0.00    -0.057 A 
ENDROOT
BRANCH   1   7
ATOM      7  N   UNL d   1      -1.644   0.843   0.420  0.00  0.00    -0.732 N 
ATOM      8  C   UNL d   1      -1.983   0.768   1.825  0.00  0.00     0.284 C 
ATOM      9  H3  UNL d   1      -1.726   1.776   0.022  0.00  0.00     0.395 HD
ENDBRANCH   1   7
TORSDOF 1
ENDMDL
