MODEL 1
REMARK minimizedAffinity -4.39225054
REMARK minimizedRMSD -1
REMARK  1 active torsions:
REMARK  status: ('A' for Active; 'I' for Inactive)
REMARK    1  A    between atoms: N_2  and  C1_3 
ROOT
ATOM      1  C1  UNL d   1       0.513  -0.531  -0.035  0.00  0.00     0.143 A 
ATOM      2  C2  UNL d   1       0.741  -1.723  -0.731  0.00  0.00    -0.057 A 
ATOM      3  C3  UNL d   1       1.911  -1.918  -1.475  0.00  0.00     0.033 A 
ATOM      4  C4  UNL d   1       2.864  -0.908  -1.560  0.00  0.00    -0.042 A 
ATOM      5  C5  UNL d   1       2.648   0.294  -0.897  0.00  0.00     0.033 A 
ATOM      6  C6  UNL d   1       1.480   0.480  -0.150  0.00  0.00    -0.057 A 
ENDROOT
BRANCH   1   7
ATOM      7  N   UNL d   1      -0.673  -0.239   0.642  0.00  0.00    -0.732 N 
ATOM      8  C   UNL d   1      -1.435   0.947   0.317  0.00  0.00     0.284 C 
ATOM      9  H3  UNL d   1      -1.243  -1.068   0.802  0.00  0.00     0.395 HD
ENDBRANCH   1   7
TORSDOF 1
ENDMDL
