MODEL 1
REMARK minimizedAffinity -0.252175987
REMARK minimizedRMSD -1
REMARK  1 active torsions:
REMARK  status: ('A' for Active; 'I' for Inactive)
REMARK    1  A    between atoms: N_2  and  C1_3 
ROOT
ATOM      1  C1  UNL d   1       4.827   1.235   4.502  0.00  0.00     0.143 A 
ATOM      2  C2  UNL d   1       3.660   1.913   4.132  0.00  0.00    -0.057 A 
ATOM      3  C3  UNL d   1       3.663   3.295   3.909  0.00  0.00     0.033 A 
ATOM      4  C4  UNL d   1       4.831   4.031   4.081  0.00  0.00    -0.042 A 
ATOM      5  C5  UNL d   1       5.997   3.382   4.472  0.00  0.00     0.033 A 
ATOM      6  C6  UNL d   1       5.989   2.000   4.687  0.00  0.00    -0.057 A 
ENDROOT
BRANCH   1   7
ATOM      7  N   UNL d   1       4.866  -0.121   4.833  0.00  0.00    -0.732 N 
ATOM      8  C   UNL d   1       5.653  -0.583   5.956  0.00  0.00     0.284 C 
ATOM      9  H3  UNL d   1       3.955  -0.567   4.753  0.00  0.00     0.395 HD
ENDBRANCH   1   7
TORSDOF 1
ENDMDL
