MODEL 1
REMARK minimizedAffinity 5.66453886
REMARK minimizedRMSD -1
REMARK  1 active torsions:
REMARK  status: ('A' for Active; 'I' for Inactive)
REMARK    1  A    between atoms: N_2  and  C1_3 
ROOT
ATOM      1  C1  UNL d   1       0.105  -1.198   0.382  0.00  0.00     0.143 A 
ATOM      2  C2  UNL d   1       0.913  -0.601  -0.592  0.00  0.00    -0.057 A 
ATOM      3  C3  UNL d   1       0.501   0.554  -1.269  0.00  0.00     0.033 A 
ATOM      4  C4  UNL d   1      -0.743   1.117  -1.003  0.00  0.00    -0.042 A 
ATOM      5  C5  UNL d   1      -1.573   0.526  -0.057  0.00  0.00     0.033 A 
ATOM      6  C6  UNL d   1      -1.153  -0.623   0.621  0.00  0.00    -0.057 A 
ENDROOT
BRANCH   1   7
ATOM      7  N   UNL d   1       0.416  -2.402   1.019  0.00  0.00    -0.732 N 
ATOM      8  C   UNL d   1       0.304  -3.660   0.312  0.00  0.00     0.284 C 
ATOM      9  H3  UNL d   1       1.242  -2.328   1.608  0.00  0.00     0.395 HD
ENDBRANCH   1   7
TORSDOF 1
ENDMDL
