MODEL 1
REMARK minimizedAffinity -4.22412682
REMARK minimizedRMSD -1
REMARK  1 active torsions:
REMARK  status: ('A' for Active; 'I' for Inactive)
REMARK    1  A    between atoms: N_2  and  C1_3 
ROOT
ATOM      1  C1  UNL d   1       0.078  -0.143  -0.001  0.00  0.00     0.143 A 
ATOM      2  C2  UNL d   1       0.315  -1.518   0.098  0.00  0.00    -0.057 A 
ATOM      3  C3  UNL d   1       1.514  -2.083  -0.356  0.00  0.00     0.033 A 
ATOM      4  C4  UNL d   1       2.487  -1.283  -0.944  0.00  0.00    -0.042 A 
ATOM      5  C5  UNL d   1       2.263   0.083  -1.075  0.00  0.00     0.033 A 
ATOM      6  C6  UNL d   1       1.067   0.642  -0.615  0.00  0.00    -0.057 A 
ENDROOT
BRANCH   1   7
ATOM      7  N   UNL d   1      -1.133   0.464   0.341  0.00  0.00    -0.732 N 
ATOM      8  C   UNL d   1      -1.537   0.574   1.726  0.00  0.00     0.284 C 
ATOM      9  H3  UNL d   1      -1.321   1.296  -0.214  0.00  0.00     0.395 HD
ENDBRANCH   1   7
TORSDOF 1
ENDMDL
