MODEL 1
REMARK minimizedAffinity -0.978952646
REMARK minimizedRMSD -1
REMARK  1 active torsions:
REMARK  status: ('A' for Active; 'I' for Inactive)
REMARK    1  A    between atoms: N_2  and  C1_3 
ROOT
ATOM      1  C1  UNL d   1      -1.374   0.657   1.537  0.00  0.00     0.143 A 
ATOM      2  C2  UNL d   1      -2.300  -0.158   2.197  0.00  0.00    -0.057 A 
ATOM      3  C3  UNL d   1      -2.777   0.169   3.472  0.00  0.00     0.033 A 
ATOM      4  C4  UNL d   1      -2.313   1.307   4.123  0.00  0.00    -0.042 A 
ATOM      5  C5  UNL d   1      -1.374   2.119   3.497  0.00  0.00     0.033 A 
ATOM      6  C6  UNL d   1      -0.906   1.790   2.221  0.00  0.00    -0.057 A 
ENDROOT
BRANCH   1   7
ATOM      7  N   UNL d   1      -0.787   0.333   0.311  0.00  0.00    -0.732 N 
ATOM      8  C   UNL d   1       0.550   0.784  -0.008  0.00  0.00     0.284 C 
ATOM      9  H3  UNL d   1      -0.982  -0.624   0.028  0.00  0.00     0.395 HD
ENDBRANCH   1   7
TORSDOF 1
ENDMDL
