MODEL 1
REMARK minimizedAffinity -5.0591855
REMARK minimizedRMSD -1
REMARK  1 active torsions:
REMARK  status: ('A' for Active; 'I' for Inactive)
REMARK    1  A    between atoms: N_2  and  C1_3 
ROOT
ATOM      1  C1  UNL d   1       1.365   0.226  -1.115  0.00  0.00     0.143 A 
ATOM      2  C2  UNL d   1       0.119   0.485  -0.534  0.00  0.00    -0.057 A 
ATOM      3  C3  UNL d   1      -0.635  -0.538   0.052  0.00  0.00     0.033 A 
ATOM      4  C4  UNL d   1      -0.168  -1.849   0.043  0.00  0.00    -0.042 A 
ATOM      5  C5  UNL d   1       1.056  -2.133  -0.551  0.00  0.00     0.033 A 
ATOM      6  C6  UNL d   1       1.808  -1.106  -1.129  0.00  0.00    -0.057 A 
ENDROOT
BRANCH   1   7
ATOM      7  N   UNL d   1       2.118   1.182  -1.801  0.00  0.00    -0.732 N 
ATOM      8  C   UNL d   1       1.747   1.591  -3.138  0.00  0.00     0.284 C 
ATOM      9  H3  UNL d   1       2.414   1.948  -1.199  0.00  0.00     0.395 HD
ENDBRANCH   1   7
TORSDOF 1
ENDMDL
