MODEL 1
REMARK minimizedAffinity -5.51054716
REMARK minimizedRMSD -1
REMARK  1 active torsions:
REMARK  status: ('A' for Active; 'I' for Inactive)
REMARK    1  A    between atoms: N_2  and  C1_3 
ROOT
ATOM      1  C1  UNL d   1       0.808  -0.507  -0.482  0.00  0.00     0.143 A 
ATOM      2  C2  UNL d   1       1.758  -1.481  -0.810  0.00  0.00    -0.057 A 
ATOM      3  C3  UNL d   1       2.925  -1.151  -1.508  0.00  0.00     0.033 A 
ATOM      4  C4  UNL d   1       3.150   0.160  -1.918  0.00  0.00    -0.042 A 
ATOM      5  C5  UNL d   1       2.209   1.139  -1.624  0.00  0.00     0.033 A 
ATOM      6  C6  UNL d   1       1.048   0.804  -0.921  0.00  0.00    -0.057 A 
ENDROOT
BRANCH   1   7
ATOM      7  N   UNL d   1      -0.418  -0.790   0.125  0.00  0.00    -0.732 N 
ATOM      8  C   UNL d   1      -1.217   0.270   0.701  0.00  0.00     0.284 C 
ATOM      9  H3  UNL d   1      -0.957  -1.482  -0.392  0.00  0.00     0.395 HD
ENDBRANCH   1   7
TORSDOF 1
ENDMDL
