MODEL 1
REMARK minimizedAffinity -2.71294355
REMARK minimizedRMSD -1
REMARK  1 active torsions:
REMARK  status: ('A' for Active; 'I' for Inactive)
REMARK    1  A    between atoms: N_2  and  C1_3 
ROOT
ATOM      1  C1  UNL d   1      -1.704   1.544   2.350  0.00  0.00     0.143 A 
ATOM      2  C2  UNL d   1      -1.669   0.705   1.231  0.00  0.00    -0.057 A 
ATOM      3  C3  UNL d   1      -1.145   1.145   0.010  0.00  0.00     0.033 A 
ATOM      4  C4  UNL d   1      -0.671   2.446  -0.122  0.00  0.00    -0.042 A 
ATOM      5  C5  UNL d   1      -0.719   3.305   0.970  0.00  0.00     0.033 A 
ATOM      6  C6  UNL d   1      -1.238   2.858   2.188  0.00  0.00    -0.057 A 
ENDROOT
BRANCH   1   7
ATOM      7  N   UNL d   1      -2.303   1.197   3.564  0.00  0.00    -0.732 N 
ATOM      8  C   UNL d   1      -3.325   0.174   3.616  0.00  0.00     0.284 C 
ATOM      9  H3  UNL d   1      -1.634   1.156   4.329  0.00  0.00     0.395 HD
ENDBRANCH   1   7
TORSDOF 1
ENDMDL
