MODEL 1
REMARK minimizedAffinity -4.2663784
REMARK minimizedRMSD -1
REMARK  1 active torsions:
REMARK  status: ('A' for Active; 'I' for Inactive)
REMARK    1  A    between atoms: N_2  and  C1_3 
ROOT
ATOM      1  C1  UNL d   1      -0.210  -0.218   0.332  0.00  0.00     0.143 A 
ATOM      2  C2  UNL d   1       0.065  -1.581   0.175  0.00  0.00    -0.057 A 
ATOM      3  C3  UNL d   1       1.257  -2.017  -0.416  0.00  0.00     0.033 A 
ATOM      4  C4  UNL d   1       2.184  -1.095  -0.889  0.00  0.00    -0.042 A 
ATOM      5  C5  UNL d   1       1.921   0.265  -0.766  0.00  0.00     0.033 A 
ATOM      6  C6  UNL d   1       0.732   0.694  -0.169  0.00  0.00    -0.057 A 
ENDROOT
BRANCH   1   7
ATOM      7  N   UNL d   1      -1.419   0.280   0.823  0.00  0.00    -0.732 N 
ATOM      8  C   UNL d   1      -1.540   0.695   2.204  0.00  0.00     0.284 C 
ATOM      9  H3  UNL d   1      -1.882   0.899   0.161  0.00  0.00     0.395 HD
ENDBRANCH   1   7
TORSDOF 1
ENDMDL
