MODEL 1
REMARK minimizedAffinity -0.424364984
REMARK minimizedRMSD -1
REMARK  0 active torsions:
REMARK  status: ('A' for Active; 'I' for Inactive)
ROOT
ATOM      1  C1  DEN d   1       1.783  -0.978   0.259  0.00  0.00     0.130 A 
ATOM      2  C2  DEN d   1       1.409  -0.801  -1.141  0.00  0.00    -0.031 A 
ATOM      3  C3  DEN d   1      -0.057  -0.638  -1.206  0.00  0.00     0.027 A 
ATOM      4  C4  DEN d   1      -1.776  -0.639   0.717  0.00  0.00     0.027 A 
ATOM      5  C5  DEN d   1      -1.936  -0.767   2.079  0.00  0.00    -0.003 A 
ATOM      6  C6  DEN d   1      -0.881  -1.006   2.920  0.00  0.00     0.001 A 
ATOM      7  C7  DEN d   1       0.389  -1.080   2.411  0.00  0.00     0.017 A 
ATOM      8  C8  DEN d   1       0.557  -0.960   1.038  0.00  0.00    -0.094 A 
ATOM      9  C9  DEN d   1      -0.520  -0.705   0.206  0.00  0.00    -0.072 A 
ENDROOT
TORSDOF 0
ENDMDL
