MODEL 1
REMARK minimizedAffinity -1.70677948
REMARK minimizedRMSD -1
REMARK  0 active torsions:
REMARK  status: ('A' for Active; 'I' for Inactive)
ROOT
ATOM      1  C1  DEN d   1       0.423  -0.317  -1.592  0.00  0.00     0.130 A 
ATOM      2  C2  DEN d   1       1.722  -0.971  -1.721  0.00  0.00    -0.031 A 
ATOM      3  C3  DEN d   1       2.116  -1.471  -0.388  0.00  0.00     0.027 A 
ATOM      4  C4  DEN d   1       0.844  -1.301   1.849  0.00  0.00     0.027 A 
ATOM      5  C5  DEN d   1      -0.295  -0.825   2.459  0.00  0.00    -0.003 A 
ATOM      6  C6  DEN d   1      -1.251  -0.122   1.775  0.00  0.00     0.001 A 
ATOM      7  C7  DEN d   1      -1.107   0.086   0.428  0.00  0.00     0.017 A 
ATOM      8  C8  DEN d   1       0.043  -0.385  -0.192  0.00  0.00    -0.094 A 
ATOM      9  C9  DEN d   1       0.992  -1.104   0.515  0.00  0.00    -0.072 A 
ENDROOT
TORSDOF 0
ENDMDL
