MODEL 1
REMARK minimizedAffinity 12.2513208
REMARK minimizedRMSD -1
REMARK  0 active torsions:
REMARK  status: ('A' for Active; 'I' for Inactive)
ROOT
ATOM      1  C1  DEN d   1      -5.992   3.053  -4.915  0.00  0.00     0.130 A 
ATOM      2  C2  DEN d   1      -5.998   4.477  -4.592  0.00  0.00    -0.031 A 
ATOM      3  C3  DEN d   1      -4.857   4.747  -3.695  0.00  0.00     0.027 A 
ATOM      4  C4  DEN d   1      -3.088   3.107  -2.782  0.00  0.00     0.027 A 
ATOM      5  C5  DEN d   1      -2.676   1.793  -2.769  0.00  0.00    -0.003 A 
ATOM      6  C6  DEN d   1      -3.355   0.808  -3.437  0.00  0.00     0.001 A 
ATOM      7  C7  DEN d   1      -4.457   1.131  -4.184  0.00  0.00     0.017 A 
ATOM      8  C8  DEN d   1      -4.882   2.453  -4.196  0.00  0.00    -0.094 A 
ATOM      9  C9  DEN d   1      -4.175   3.436  -3.524  0.00  0.00    -0.072 A 
ENDROOT
TORSDOF 0
ENDMDL
