MODEL 1
REMARK minimizedAffinity -3.08068919
REMARK minimizedRMSD -1
REMARK  0 active torsions:
REMARK  status: ('A' for Active; 'I' for Inactive)
ROOT
ATOM      1  C1  DEN d   1       0.033   1.064   0.560  0.00  0.00     0.130 A 
ATOM      2  C2  DEN d   1      -0.316  -0.347   0.702  0.00  0.00    -0.031 A 
ATOM      3  C3  DEN d   1      -0.990  -0.778  -0.539  0.00  0.00     0.027 A 
ATOM      4  C4  DEN d   1      -1.520   0.594  -2.658  0.00  0.00     0.027 A 
ATOM      5  C5  DEN d   1      -1.427   1.838  -3.242  0.00  0.00    -0.003 A 
ATOM      6  C6  DEN d   1      -0.876   2.911  -2.593  0.00  0.00     0.001 A 
ATOM      7  C7  DEN d   1      -0.356   2.749  -1.336  0.00  0.00     0.017 A 
ATOM      8  C8  DEN d   1      -0.452   1.500  -0.737  0.00  0.00    -0.094 A 
ATOM      9  C9  DEN d   1      -1.002   0.425  -1.416  0.00  0.00    -0.072 A 
ENDROOT
TORSDOF 0
ENDMDL
