MODEL 1
REMARK minimizedAffinity 0.364463925
REMARK minimizedRMSD -1
REMARK  0 active torsions:
REMARK  status: ('A' for Active; 'I' for Inactive)
ROOT
ATOM      1  C1  DEN d   1      -0.318   0.755  -0.395  0.00  0.00     0.130 A 
ATOM      2  C2  DEN d   1      -1.473   1.339   0.282  0.00  0.00    -0.031 A 
ATOM      3  C3  DEN d   1      -1.607   0.686   1.600  0.00  0.00     0.027 A 
ATOM      4  C4  DEN d   1      -0.143  -1.157   2.655  0.00  0.00     0.027 A 
ATOM      5  C5  DEN d   1       0.945  -1.977   2.455  0.00  0.00    -0.003 A 
ATOM      6  C6  DEN d   1       1.662  -1.969   1.289  0.00  0.00     0.001 A 
ATOM      7  C7  DEN d   1       1.327  -1.090   0.292  0.00  0.00     0.017 A 
ATOM      8  C8  DEN d   1       0.226  -0.265   0.483  0.00  0.00    -0.094 A 
ATOM      9  C9  DEN d   1      -0.479  -0.280   1.674  0.00  0.00    -0.072 A 
ENDROOT
TORSDOF 0
ENDMDL
