MODEL 1
REMARK minimizedAffinity -5.17633915
REMARK minimizedRMSD -1
REMARK  0 active torsions:
REMARK  status: ('A' for Active; 'I' for Inactive)
ROOT
ATOM      1  N1  IND d   1      -0.983  -0.314   0.859  0.00  0.00    -0.196 N 
ATOM      2  C2  IND d   1      -0.057  -1.281   0.581  0.00  0.00     0.054 A 
ATOM      3  C3  IND d   1       0.994  -0.748  -0.082  0.00  0.00    -0.031 A 
ATOM      4  C4  IND d   1       1.450   1.702  -0.727  0.00  0.00     0.051 A 
ATOM      5  C5  IND d   1       0.878   2.943  -0.717  0.00  0.00    -0.031 A 
ATOM      6  C6  IND d   1      -0.368   3.167  -0.168  0.00  0.00     0.015 A 
ATOM      7  C7  IND d   1      -1.087   2.155   0.404  0.00  0.00    -0.016 A 
ATOM      8  C8  IND d   1      -0.511   0.893   0.390  0.00  0.00    -0.047 A 
ATOM      9  C9  IND d   1       0.735   0.651  -0.203  0.00  0.00    -0.096 A 
ATOM     10  HN1 IND d   1      -1.733  -0.439   1.260  0.00  0.00     0.298 HD
ENDROOT
TORSDOF 0
ENDMDL
