MODEL 1
REMARK minimizedAffinity -2.73395634
REMARK minimizedRMSD -1
REMARK  0 active torsions:
REMARK  status: ('A' for Active; 'I' for Inactive)
ROOT
ATOM      1  N1  IND d   1      -0.985  -0.064   1.370  0.00  0.00    -0.196 N 
ATOM      2  C2  IND d   1      -0.763  -1.097   0.503  0.00  0.00     0.054 A 
ATOM      3  C3  IND d   1      -0.055  -0.669  -0.567  0.00  0.00    -0.031 A 
ATOM      4  C4  IND d   1       0.929   1.660  -1.051  0.00  0.00     0.051 A 
ATOM      5  C5  IND d   1       0.959   2.939  -0.569  0.00  0.00    -0.031 A 
ATOM      6  C6  IND d   1       0.332   3.288   0.610  0.00  0.00     0.015 A 
ATOM      7  C7  IND d   1      -0.341   2.365   1.359  0.00  0.00    -0.016 A 
ATOM      8  C8  IND d   1      -0.380   1.068   0.869  0.00  0.00    -0.047 A 
ATOM      9  C9  IND d   1       0.218   0.716  -0.348  0.00  0.00    -0.096 A 
ATOM     10  HN1 IND d   1      -1.428  -0.113   2.106  0.00  0.00     0.298 HD
ENDROOT
TORSDOF 0
ENDMDL
