MODEL 1
REMARK minimizedAffinity -6.18393517
REMARK minimizedRMSD -1
REMARK  0 active torsions:
REMARK  status: ('A' for Active; 'I' for Inactive)
ROOT
ATOM      1  N1  IND d   1       0.777  -0.526  -0.075  0.00  0.00    -0.196 N 
ATOM      2  C2  IND d   1      -0.566  -0.752  -0.196  0.00  0.00     0.054 A 
ATOM      3  C3  IND d   1      -1.247   0.414  -0.122  0.00  0.00    -0.031 A 
ATOM      4  C4  IND d   1      -0.355   2.819   0.092  0.00  0.00     0.051 A 
ATOM      5  C5  IND d   1       0.800   3.528   0.273  0.00  0.00    -0.031 A 
ATOM      6  C6  IND d   1       2.031   2.909   0.345  0.00  0.00     0.015 A 
ATOM      7  C7  IND d   1       2.155   1.553   0.227  0.00  0.00    -0.016 A 
ATOM      8  C8  IND d   1       0.984   0.830   0.052  0.00  0.00    -0.047 A 
ATOM      9  C9  IND d   1      -0.272   1.449   0.020  0.00  0.00    -0.096 A 
ATOM     10  HN1 IND d   1       1.390  -1.130  -0.078  0.00  0.00     0.298 HD
ENDROOT
TORSDOF 0
ENDMDL
