MODEL 1
REMARK minimizedAffinity -6.02799892
REMARK minimizedRMSD -1
REMARK  0 active torsions:
REMARK  status: ('A' for Active; 'I' for Inactive)
ROOT
ATOM      1  N1  IND d   1       2.360  -0.213   1.099  0.00  0.00    -0.196 N 
ATOM      2  C2  IND d   1       1.376  -1.162   1.079  0.00  0.00     0.054 A 
ATOM      3  C3  IND d   1       0.218  -0.630   0.630  0.00  0.00    -0.031 A 
ATOM      4  C4  IND d   1      -0.266   1.751  -0.222  0.00  0.00     0.051 A 
ATOM      5  C5  IND d   1       0.309   2.983  -0.361  0.00  0.00    -0.031 A 
ATOM      6  C6  IND d   1       1.624   3.217  -0.015  0.00  0.00     0.015 A 
ATOM      7  C7  IND d   1       2.420   2.220   0.473  0.00  0.00    -0.016 A 
ATOM      8  C8  IND d   1       1.838   0.969   0.622  0.00  0.00    -0.047 A 
ATOM      9  C9  IND d   1       0.492   0.736   0.313  0.00  0.00    -0.096 A 
ATOM     10  HN1 IND d   1       3.168  -0.334   1.366  0.00  0.00     0.298 HD
ENDROOT
TORSDOF 0
ENDMDL
