MODEL 1
REMARK minimizedAffinity -5.31316757
REMARK minimizedRMSD -1
REMARK  0 active torsions:
REMARK  status: ('A' for Active; 'I' for Inactive)
ROOT
ATOM      1  N1  IND d   1      -1.065  -0.374   0.861  0.00  0.00    -0.196 N 
ATOM      2  C2  IND d   1      -0.242  -1.401   0.488  0.00  0.00     0.054 A 
ATOM      3  C3  IND d   1       0.847  -0.921  -0.155  0.00  0.00    -0.031 A 
ATOM      4  C4  IND d   1       1.532   1.517  -0.616  0.00  0.00     0.051 A 
ATOM      5  C5  IND d   1       1.083   2.802  -0.498  0.00  0.00    -0.031 A 
ATOM      6  C6  IND d   1      -0.127   3.101   0.093  0.00  0.00     0.015 A 
ATOM      7  C7  IND d   1      -0.933   2.121   0.601  0.00  0.00    -0.016 A 
ATOM      8  C8  IND d   1      -0.484   0.814   0.477  0.00  0.00    -0.047 A 
ATOM      9  C9  IND d   1       0.724   0.502  -0.161  0.00  0.00    -0.096 A 
ATOM     10  HN1 IND d   1      -1.818  -0.457   1.266  0.00  0.00     0.298 HD
ENDROOT
TORSDOF 0
ENDMDL
