MODEL 1
REMARK minimizedAffinity -1.70691466
REMARK minimizedRMSD -1
REMARK  0 active torsions:
REMARK  status: ('A' for Active; 'I' for Inactive)
ROOT
ATOM      1  N1  IND d   1       2.685   1.008   0.429  0.00  0.00    -0.196 N 
ATOM      2  C2  IND d   1       3.124   2.252   0.787  0.00  0.00     0.054 A 
ATOM      3  C3  IND d   1       2.084   3.114   0.863  0.00  0.00    -0.031 A 
ATOM      4  C4  IND d   1      -0.431   2.674   0.540  0.00  0.00     0.051 A 
ATOM      5  C5  IND d   1      -1.316   1.700   0.167  0.00  0.00    -0.031 A 
ATOM      6  C6  IND d   1      -0.903   0.420  -0.141  0.00  0.00     0.015 A 
ATOM      7  C7  IND d   1       0.413   0.061  -0.077  0.00  0.00    -0.016 A 
ATOM      8  C8  IND d   1       1.315   1.048   0.295  0.00  0.00    -0.047 A 
ATOM      9  C9  IND d   1       0.907   2.360   0.568  0.00  0.00    -0.096 A 
ATOM     10  HN1 IND d   1       3.182   0.317   0.307  0.00  0.00     0.298 HD
ENDROOT
TORSDOF 0
ENDMDL
