MODEL 1
REMARK minimizedAffinity -6.55776548
REMARK minimizedRMSD -1
REMARK  0 active torsions:
REMARK  status: ('A' for Active; 'I' for Inactive)
ROOT
ATOM      1  N1  IND d   1       2.082  -0.060   0.474  0.00  0.00    -0.196 N 
ATOM      2  C2  IND d   1       3.167   0.772   0.468  0.00  0.00     0.054 A 
ATOM      3  C3  IND d   1       2.776   2.054   0.291  0.00  0.00    -0.031 A 
ATOM      4  C4  IND d   1       0.400   3.027   0.093  0.00  0.00     0.051 A 
ATOM      5  C5  IND d   1      -0.912   2.655   0.006  0.00  0.00    -0.031 A 
ATOM      6  C6  IND d   1      -1.302   1.333   0.075  0.00  0.00     0.015 A 
ATOM      7  C7  IND d   1      -0.390   0.330   0.246  0.00  0.00    -0.016 A 
ATOM      8  C8  IND d   1       0.944   0.703   0.327  0.00  0.00    -0.047 A 
ATOM      9  C9  IND d   1       1.349   2.039   0.215  0.00  0.00    -0.096 A 
ATOM     10  HN1 IND d   1       2.106  -0.915   0.556  0.00  0.00     0.298 HD
ENDROOT
TORSDOF 0
ENDMDL
