MODEL 1
REMARK minimizedAffinity -3.31268835
REMARK minimizedRMSD -1
REMARK  0 active torsions:
REMARK  status: ('A' for Active; 'I' for Inactive)
ROOT
ATOM      1  N1  IND d   1       1.613   2.557  -0.070  0.00  0.00    -0.196 N 
ATOM      2  C2  IND d   1       0.833   3.678  -0.123  0.00  0.00     0.054 A 
ATOM      3  C3  IND d   1      -0.473   3.348  -0.015  0.00  0.00    -0.031 A 
ATOM      4  C4  IND d   1      -1.551   1.040   0.359  0.00  0.00     0.051 A 
ATOM      5  C5  IND d   1      -1.248  -0.290   0.438  0.00  0.00    -0.031 A 
ATOM      6  C6  IND d   1       0.051  -0.748   0.353  0.00  0.00     0.015 A 
ATOM      7  C7  IND d   1       1.101   0.112   0.196  0.00  0.00    -0.016 A 
ATOM      8  C8  IND d   1       0.796   1.463   0.108  0.00  0.00    -0.047 A 
ATOM      9  C9  IND d   1      -0.524   1.930   0.152  0.00  0.00    -0.096 A 
ATOM     10  HN1 IND d   1       2.470   2.539  -0.136  0.00  0.00     0.298 HD
ENDROOT
TORSDOF 0
ENDMDL
