MODEL 1
REMARK minimizedAffinity -4.72280216
REMARK minimizedRMSD -1
REMARK  0 active torsions:
REMARK  status: ('A' for Active; 'I' for Inactive)
ROOT
ATOM      1  N1  IND d   1       2.258   0.864   0.428  0.00  0.00    -0.196 N 
ATOM      2  C2  IND d   1       2.000  -0.454   0.682  0.00  0.00     0.054 A 
ATOM      3  C3  IND d   1       0.668  -0.660   0.790  0.00  0.00    -0.031 A 
ATOM      4  C4  IND d   1      -1.274   1.003   0.487  0.00  0.00     0.051 A 
ATOM      5  C5  IND d   1      -1.535   2.328   0.283  0.00  0.00    -0.031 A 
ATOM      6  C6  IND d   1      -0.525   3.252   0.110  0.00  0.00     0.015 A 
ATOM      7  C7  IND d   1       0.790   2.881   0.124  0.00  0.00    -0.016 A 
ATOM      8  C8  IND d   1       1.059   1.537   0.339  0.00  0.00    -0.047 A 
ATOM      9  C9  IND d   1       0.039   0.601   0.557  0.00  0.00    -0.096 A 
ATOM     10  HN1 IND d   1       3.038   1.215   0.340  0.00  0.00     0.298 HD
ENDROOT
TORSDOF 0
ENDMDL
