MODEL 1
REMARK minimizedAffinity -0.516531229
REMARK minimizedRMSD -1
REMARK  0 active torsions:
REMARK  status: ('A' for Active; 'I' for Inactive)
ROOT
ATOM      1  N1  IND d   1       1.280   2.150   1.100  0.00  0.00    -0.196 N 
ATOM      2  C2  IND d   1       0.404   3.196   1.015  0.00  0.00     0.054 A 
ATOM      3  C3  IND d   1      -0.774   2.782   0.495  0.00  0.00    -0.031 A 
ATOM      4  C4  IND d   1      -1.517   0.415  -0.190  0.00  0.00     0.051 A 
ATOM      5  C5  IND d   1      -1.051  -0.863  -0.330  0.00  0.00    -0.031 A 
ATOM      6  C6  IND d   1       0.241  -1.209   0.010  0.00  0.00     0.015 A 
ATOM      7  C7  IND d   1       1.116  -0.288   0.515  0.00  0.00    -0.016 A 
ATOM      8  C8  IND d   1       0.648   1.011   0.651  0.00  0.00    -0.047 A 
ATOM      9  C9  IND d   1      -0.649   1.377   0.268  0.00  0.00    -0.096 A 
ATOM     10  HN1 IND d   1       2.089   2.196   1.387  0.00  0.00     0.298 HD
ENDROOT
TORSDOF 0
ENDMDL
