MODEL 1
REMARK minimizedAffinity -4.08066797
REMARK minimizedRMSD -1
REMARK  0 active torsions:
REMARK  status: ('A' for Active; 'I' for Inactive)
ROOT
ATOM      1  N1  IND d   1       2.273   0.311   0.819  0.00  0.00    -0.196 N 
ATOM      2  C2  IND d   1       3.359   1.107   0.587  0.00  0.00     0.054 A 
ATOM      3  C3  IND d   1       2.976   2.273   0.020  0.00  0.00    -0.031 A 
ATOM      4  C4  IND d   1       0.608   3.126  -0.524  0.00  0.00     0.051 A 
ATOM      5  C5  IND d   1      -0.702   2.738  -0.526  0.00  0.00    -0.031 A 
ATOM      6  C6  IND d   1      -1.096   1.498  -0.068  0.00  0.00     0.015 A 
ATOM      7  C7  IND d   1      -0.192   0.599   0.422  0.00  0.00    -0.016 A 
ATOM      8  C8  IND d   1       1.141   0.986   0.419  0.00  0.00    -0.047 A 
ATOM      9  C9  IND d   1       1.552   2.228  -0.084  0.00  0.00    -0.096 A 
ATOM     10  HN1 IND d   1       2.293  -0.479   1.157  0.00  0.00     0.298 HD
ENDROOT
TORSDOF 0
ENDMDL
