MODEL 1
REMARK minimizedAffinity -0.607780337
REMARK minimizedRMSD -1
REMARK  0 active torsions:
REMARK  status: ('A' for Active; 'I' for Inactive)
ROOT
ATOM      1  N1  IND d   1       0.766  -0.573   0.696  0.00  0.00    -0.196 N 
ATOM      2  C2  IND d   1       0.007  -1.539   0.097  0.00  0.00     0.054 A 
ATOM      3  C3  IND d   1      -1.161  -1.016  -0.341  0.00  0.00    -0.031 A 
ATOM      4  C4  IND d   1      -1.989   1.421  -0.272  0.00  0.00     0.051 A 
ATOM      5  C5  IND d   1      -1.660   2.657   0.209  0.00  0.00    -0.031 A 
ATOM      6  C6  IND d   1      -0.481   2.885   0.888  0.00  0.00     0.015 A 
ATOM      7  C7  IND d   1       0.423   1.883   1.103  0.00  0.00    -0.016 A 
ATOM      8  C8  IND d   1       0.089   0.625   0.622  0.00  0.00    -0.047 A 
ATOM      9  C9  IND d   1      -1.126   0.378  -0.031  0.00  0.00    -0.096 A 
ATOM     10  HN1 IND d   1       1.536  -0.693   1.058  0.00  0.00     0.298 HD
ENDROOT
TORSDOF 0
ENDMDL
