MODEL 1
REMARK minimizedAffinity -4.42605829
REMARK minimizedRMSD -1
REMARK  0 active torsions:
REMARK  status: ('A' for Active; 'I' for Inactive)
ROOT
ATOM      1  N1  IND d   1       0.957  -0.353   0.122  0.00  0.00    -0.196 N 
ATOM      2  C2  IND d   1      -0.354  -0.543  -0.215  0.00  0.00     0.054 A 
ATOM      3  C3  IND d   1      -1.027   0.629  -0.167  0.00  0.00    -0.031 A 
ATOM      4  C4  IND d   1      -0.153   2.997   0.341  0.00  0.00     0.051 A 
ATOM      5  C5  IND d   1       0.968   3.668   0.740  0.00  0.00    -0.031 A 
ATOM      6  C6  IND d   1       2.168   3.022   0.956  0.00  0.00     0.015 A 
ATOM      7  C7  IND d   1       2.294   1.674   0.768  0.00  0.00    -0.016 A 
ATOM      8  C8  IND d   1       1.156   0.988   0.369  0.00  0.00    -0.047 A 
ATOM      9  C9  IND d   1      -0.074   1.632   0.190  0.00  0.00    -0.096 A 
ATOM     10  HN1 IND d   1       1.557  -0.967   0.172  0.00  0.00     0.298 HD
ENDROOT
TORSDOF 0
ENDMDL
