MODEL 1
REMARK minimizedAffinity -1.18688786
REMARK minimizedRMSD -1
REMARK  0 active torsions:
REMARK  status: ('A' for Active; 'I' for Inactive)
ROOT
ATOM      1  N1  IND d   1      -0.579  -0.893  -0.158  0.00  0.00    -0.196 N 
ATOM      2  C2  IND d   1       0.111  -1.165  -1.307  0.00  0.00     0.054 A 
ATOM      3  C3  IND d   1       0.615  -0.027  -1.834  0.00  0.00    -0.031 A 
ATOM      4  C4  IND d   1       0.514   2.380  -0.927  0.00  0.00     0.051 A 
ATOM      5  C5  IND d   1      -0.037   3.133   0.072  0.00  0.00    -0.031 A 
ATOM      6  C6  IND d   1      -0.810   2.570   1.067  0.00  0.00     0.015 A 
ATOM      7  C7  IND d   1      -1.053   1.226   1.106  0.00  0.00    -0.016 A 
ATOM      8  C8  IND d   1      -0.501   0.460   0.089  0.00  0.00    -0.047 A 
ATOM      9  C9  IND d   1       0.250   1.031  -0.946  0.00  0.00    -0.096 A 
ATOM     10  HN1 IND d   1      -0.993  -1.469   0.327  0.00  0.00     0.298 HD
ENDROOT
TORSDOF 0
ENDMDL
