MODEL 1
REMARK minimizedAffinity -1.81004977
REMARK minimizedRMSD -1
REMARK  0 active torsions:
REMARK  status: ('A' for Active; 'I' for Inactive)
ROOT
ATOM      1  N1  IND d   1       0.626  -0.989   0.127  0.00  0.00    -0.196 N 
ATOM      2  C2  IND d   1      -0.706  -1.179  -0.115  0.00  0.00     0.054 A 
ATOM      3  C3  IND d   1      -1.388  -0.028   0.079  0.00  0.00    -0.031 A 
ATOM      4  C4  IND d   1      -0.508   2.311   0.696  0.00  0.00     0.051 A 
ATOM      5  C5  IND d   1       0.633   2.973   1.053  0.00  0.00    -0.031 A 
ATOM      6  C6  IND d   1       1.856   2.336   1.118  0.00  0.00     0.015 A 
ATOM      7  C7  IND d   1       1.985   1.010   0.817  0.00  0.00    -0.016 A 
ATOM      8  C8  IND d   1       0.827   0.333   0.461  0.00  0.00    -0.047 A 
ATOM      9  C9  IND d   1      -0.423   0.964   0.434  0.00  0.00    -0.096 A 
ATOM     10  HN1 IND d   1       1.236  -1.593   0.079  0.00  0.00     0.298 HD
ENDROOT
TORSDOF 0
ENDMDL
