MODEL 1
REMARK minimizedAffinity -1.9396832
REMARK minimizedRMSD -1
REMARK  0 active torsions:
REMARK  status: ('A' for Active; 'I' for Inactive)
ROOT
ATOM      1  C4' PXY d   1      -5.055  -1.455  -0.685  0.00  0.00     0.077 C 
ATOM      2  C1' PXY d   1      -4.863  -6.000   2.882  0.00  0.00     0.077 C 
ATOM      3  C1  PXY d   1      -4.900  -4.808   1.945  0.00  0.00    -0.082 A 
ATOM      4  C2  PXY d   1      -5.931  -3.979   1.982  0.00  0.00     0.003 A 
ATOM      5  C3  PXY d   1      -5.996  -2.915   1.121  0.00  0.00     0.003 A 
ATOM      6  C4  PXY d   1      -4.971  -2.666   0.248  0.00  0.00    -0.082 A 
ATOM      7  C5  PXY d   1      -3.911  -3.501   0.212  0.00  0.00     0.003 A 
ATOM      8  C6  PXY d   1      -3.883  -4.599   1.066  0.00  0.00     0.003 A 
ENDROOT
TORSDOF 0
ENDMDL
