MODEL 1
REMARK minimizedAffinity 7.94809437
REMARK minimizedRMSD -1
REMARK  0 active torsions:
REMARK  status: ('A' for Active; 'I' for Inactive)
ROOT
ATOM      1  C4' PXY d   1       0.592  -1.761   3.769  0.00  0.00     0.077 C 
ATOM      2  C1' PXY d   1      -2.362   2.921   2.107  0.00  0.00     0.077 C 
ATOM      3  C1  PXY d   1      -1.576   1.698   2.537  0.00  0.00    -0.082 A 
ATOM      4  C2  PXY d   1      -2.216   0.571   2.807  0.00  0.00     0.003 A 
ATOM      5  C3  PXY d   1      -1.524  -0.535   3.228  0.00  0.00     0.003 A 
ATOM      6  C4  PXY d   1      -0.159  -0.504   3.322  0.00  0.00    -0.082 A 
ATOM      7  C5  PXY d   1       0.502   0.638   3.038  0.00  0.00     0.003 A 
ATOM      8  C6  PXY d   1      -0.222   1.762   2.652  0.00  0.00     0.003 A 
ENDROOT
TORSDOF 0
ENDMDL
