MODEL 1
REMARK minimizedAffinity 9.84458733
REMARK minimizedRMSD -1
REMARK  0 active torsions:
REMARK  status: ('A' for Active; 'I' for Inactive)
ROOT
ATOM      1  C4' PXY d   1      -3.340  -6.000   0.010  0.00  0.00     0.077 C 
ATOM      2  C1' PXY d   1      -5.996  -0.866   0.032  0.00  0.00     0.077 C 
ATOM      3  C1  PXY d   1      -5.311  -2.218   0.028  0.00  0.00    -0.082 A 
ATOM      4  C2  PXY d   1      -4.045  -2.312   0.401  0.00  0.00     0.003 A 
ATOM      5  C3  PXY d   1      -3.401  -3.522   0.373  0.00  0.00     0.003 A 
ATOM      6  C4  PXY d   1      -4.075  -4.657   0.008  0.00  0.00    -0.082 A 
ATOM      7  C5  PXY d   1      -5.370  -4.571  -0.364  0.00  0.00     0.003 A 
ATOM      8  C6  PXY d   1      -5.994  -3.327  -0.368  0.00  0.00     0.003 A 
ENDROOT
TORSDOF 0
ENDMDL
