MODEL 1
REMARK minimizedAffinity 7.96656466
REMARK minimizedRMSD -1
REMARK  0 active torsions:
REMARK  status: ('A' for Active; 'I' for Inactive)
ROOT
ATOM      1  C4' PXY d   1      -5.883   0.044   0.963  0.00  0.00     0.077 C 
ATOM      2  C1' PXY d   1      -4.224  -5.468   0.441  0.00  0.00     0.077 C 
ATOM      3  C1  PXY d   1      -4.663  -4.023   0.565  0.00  0.00    -0.082 A 
ATOM      4  C2  PXY d   1      -4.135  -3.257   1.507  0.00  0.00     0.003 A 
ATOM      5  C3  PXY d   1      -4.543  -1.957   1.654  0.00  0.00     0.003 A 
ATOM      6  C4  PXY d   1      -5.463  -1.418   0.794  0.00  0.00    -0.082 A 
ATOM      7  C5  PXY d   1      -5.999  -2.190  -0.175  0.00  0.00     0.003 A 
ATOM      8  C6  PXY d   1      -5.601  -3.519  -0.282  0.00  0.00     0.003 A 
ENDROOT
TORSDOF 0
ENDMDL
