MODEL 1
REMARK minimizedAffinity 0.905849755
REMARK minimizedRMSD -1
REMARK  0 active torsions:
REMARK  status: ('A' for Active; 'I' for Inactive)
ROOT
ATOM      1  C4' PXY d   1      -4.384   0.449   4.921  0.00  0.00     0.077 C 
ATOM      2  C1' PXY d   1      -1.140   1.141   0.187  0.00  0.00     0.077 C 
ATOM      3  C1  PXY d   1      -1.994   0.972   1.428  0.00  0.00    -0.082 A 
ATOM      4  C2  PXY d   1      -1.729  -0.009   2.276  0.00  0.00     0.003 A 
ATOM      5  C3  PXY d   1      -2.511  -0.195   3.387  0.00  0.00     0.003 A 
ATOM      6  C4  PXY d   1      -3.542   0.663   3.660  0.00  0.00    -0.082 A 
ATOM      7  C5  PXY d   1      -3.812   1.672   2.806  0.00  0.00     0.003 A 
ATOM      8  C6  PXY d   1      -3.032   1.820   1.662  0.00  0.00     0.003 A 
ENDROOT
TORSDOF 0
ENDMDL
