MODEL 1
REMARK minimizedAffinity 11.8339434
REMARK minimizedRMSD -1
REMARK  0 active torsions:
REMARK  status: ('A' for Active; 'I' for Inactive)
ROOT
ATOM      1  C4' PXY d   1      -4.148  -6.000   0.746  0.00  0.00     0.077 C 
ATOM      2  C1' PXY d   1      -5.999  -0.550   0.206  0.00  0.00     0.077 C 
ATOM      3  C1  PXY d   1      -5.510  -1.979   0.335  0.00  0.00    -0.082 A 
ATOM      4  C2  PXY d   1      -5.999  -2.754   1.289  0.00  0.00     0.003 A 
ATOM      5  C3  PXY d   1      -5.545  -4.039   1.440  0.00  0.00     0.003 A 
ATOM      6  C4  PXY d   1      -4.619  -4.553   0.572  0.00  0.00    -0.082 A 
ATOM      7  C5  PXY d   1      -4.123  -3.772  -0.411  0.00  0.00     0.003 A 
ATOM      8  C6  PXY d   1      -4.567  -2.457  -0.522  0.00  0.00     0.003 A 
ENDROOT
TORSDOF 0
ENDMDL
