MODEL 1
REMARK minimizedAffinity 12.4374762
REMARK minimizedRMSD -1
REMARK  0 active torsions:
REMARK  status: ('A' for Active; 'I' for Inactive)
ROOT
ATOM      1  C4' PXY d   1       4.123  -0.134  -5.997  0.00  0.00     0.077 C 
ATOM      2  C1' PXY d   1       4.691   5.618  -5.976  0.00  0.00     0.077 C 
ATOM      3  C1  PXY d   1       4.554   4.109  -5.987  0.00  0.00    -0.082 A 
ATOM      4  C2  PXY d   1       3.350   3.561  -5.997  0.00  0.00     0.003 A 
ATOM      5  C3  PXY d   1       3.207   2.198  -5.974  0.00  0.00     0.003 A 
ATOM      6  C4  PXY d   1       4.310   1.386  -5.995  0.00  0.00    -0.082 A 
ATOM      7  C5  PXY d   1       5.542   1.936  -5.996  0.00  0.00     0.003 A 
ATOM      8  C6  PXY d   1       5.665   3.323  -5.977  0.00  0.00     0.003 A 
ENDROOT
TORSDOF 0
ENDMDL
