MODEL 1
REMARK minimizedAffinity 11.067174
REMARK minimizedRMSD -1
REMARK  0 active torsions:
REMARK  status: ('A' for Active; 'I' for Inactive)
ROOT
ATOM      1  C4' PXY d   1       5.527  -1.043   2.909  0.00  0.00     0.077 C 
ATOM      2  C1' PXY d   1       6.000  -5.909   5.993  0.00  0.00     0.077 C 
ATOM      3  C1  PXY d   1       5.881  -4.639   5.174  0.00  0.00    -0.082 A 
ATOM      4  C2  PXY d   1       5.833  -3.467   5.787  0.00  0.00     0.003 A 
ATOM      5  C3  PXY d   1       5.693  -2.311   5.063  0.00  0.00     0.003 A 
ATOM      6  C4  PXY d   1       5.656  -2.350   3.695  0.00  0.00    -0.082 A 
ATOM      7  C5  PXY d   1       5.716  -3.541   3.062  0.00  0.00     0.003 A 
ATOM      8  C6  PXY d   1       5.816  -4.706   3.816  0.00  0.00     0.003 A 
ENDROOT
TORSDOF 0
ENDMDL
