MODEL 1
REMARK minimizedAffinity 7.47842598
REMARK minimizedRMSD -1
REMARK  0 active torsions:
REMARK  status: ('A' for Active; 'I' for Inactive)
ROOT
ATOM      1  C4' PXY d   1      -4.493   0.069  -4.175  0.00  0.00     0.077 C 
ATOM      2  C1' PXY d   1      -4.432  -5.416  -6.000  0.00  0.00     0.077 C 
ATOM      3  C1  PXY d   1      -4.435  -3.976  -5.524  0.00  0.00    -0.082 A 
ATOM      4  C2  PXY d   1      -5.371  -3.568  -4.682  0.00  0.00     0.003 A 
ATOM      5  C3  PXY d   1      -5.408  -2.262  -4.266  0.00  0.00     0.003 A 
ATOM      6  C4  PXY d   1      -4.445  -1.378  -4.674  0.00  0.00    -0.082 A 
ATOM      7  C5  PXY d   1      -3.481  -1.789  -5.525  0.00  0.00     0.003 A 
ATOM      8  C6  PXY d   1      -3.486  -3.109  -5.967  0.00  0.00     0.003 A 
ENDROOT
TORSDOF 0
ENDMDL
