MODEL 1
REMARK minimizedAffinity 7.95250177
REMARK minimizedRMSD -1
REMARK  0 active torsions:
REMARK  status: ('A' for Active; 'I' for Inactive)
ROOT
ATOM      1  C4' PXY d   1       5.983   4.088  -4.137  0.00  0.00     0.077 C 
ATOM      2  C1' PXY d   1       0.388   5.374  -4.816  0.00  0.00     0.077 C 
ATOM      3  C1  PXY d   1       1.855   5.042  -4.626  0.00  0.00    -0.082 A 
ATOM      4  C2  PXY d   1       2.631   4.878  -5.685  0.00  0.00     0.003 A 
ATOM      5  C3  PXY d   1       3.952   4.546  -5.532  0.00  0.00     0.003 A 
ATOM      6  C4  PXY d   1       4.498   4.434  -4.281  0.00  0.00    -0.082 A 
ATOM      7  C5  PXY d   1       3.715   4.611  -3.196  0.00  0.00     0.003 A 
ATOM      8  C6  PXY d   1       2.367   4.906  -3.373  0.00  0.00     0.003 A 
ENDROOT
TORSDOF 0
ENDMDL
