MODEL 1
REMARK minimizedAffinity 13.0550785
REMARK minimizedRMSD -1
REMARK  0 active torsions:
REMARK  status: ('A' for Active; 'I' for Inactive)
ROOT
ATOM      1  C4' PXY d   1       3.208   3.431  -6.000  0.00  0.00     0.077 C 
ATOM      2  C1' PXY d   1       1.118  -1.461  -3.738  0.00  0.00     0.077 C 
ATOM      3  C1  PXY d   1       1.661  -0.181  -4.342  0.00  0.00    -0.082 A 
ATOM      4  C2  PXY d   1       2.743   0.379  -3.826  0.00  0.00     0.003 A 
ATOM      5  C3  PXY d   1       3.228   1.554  -4.341  0.00  0.00     0.003 A 
ATOM      6  C4  PXY d   1       2.631   2.134  -5.428  0.00  0.00    -0.082 A 
ATOM      7  C5  PXY d   1       1.532   1.563  -5.966  0.00  0.00     0.003 A 
ATOM      8  C6  PXY d   1       1.031   0.392  -5.404  0.00  0.00     0.003 A 
ENDROOT
TORSDOF 0
ENDMDL
