MODEL 1
REMARK minimizedAffinity 5.20872021
REMARK minimizedRMSD -1
REMARK  0 active torsions:
REMARK  status: ('A' for Active; 'I' for Inactive)
ROOT
ATOM      1  C4' PXY d   1      -1.381  -1.207   0.698  0.00  0.00     0.077 C 
ATOM      2  C1' PXY d   1      -3.685   3.662   2.795  0.00  0.00     0.077 C 
ATOM      3  C1  PXY d   1      -3.092   2.379   2.248  0.00  0.00    -0.082 A 
ATOM      4  C2  PXY d   1      -1.777   2.245   2.175  0.00  0.00     0.003 A 
ATOM      5  C3  PXY d   1      -1.224   1.104   1.654  0.00  0.00     0.003 A 
ATOM      6  C4  PXY d   1      -2.024   0.067   1.252  0.00  0.00    -0.082 A 
ATOM      7  C5  PXY d   1      -3.365   0.192   1.333  0.00  0.00     0.003 A 
ATOM      8  C6  PXY d   1      -3.908   1.375   1.827  0.00  0.00     0.003 A 
ENDROOT
TORSDOF 0
ENDMDL
