MODEL 1
REMARK minimizedAffinity 14.7616243
REMARK minimizedRMSD -1
REMARK  0 active torsions:
REMARK  status: ('A' for Active; 'I' for Inactive)
ROOT
ATOM      1  C4' PXY d   1      -4.345  -0.749   1.087  0.00  0.00     0.077 C 
ATOM      2  C1' PXY d   1       0.593   1.845   2.605  0.00  0.00     0.077 C 
ATOM      3  C1  PXY d   1      -0.704   1.175   2.199  0.00  0.00    -0.082 A 
ATOM      4  C2  PXY d   1      -1.293   0.331   3.031  0.00  0.00     0.003 A 
ATOM      5  C3  PXY d   1      -2.450  -0.309   2.666  0.00  0.00     0.003 A 
ATOM      6  C4  PXY d   1      -3.039  -0.042   1.459  0.00  0.00    -0.082 A 
ATOM      7  C5  PXY d   1      -2.449   0.826   0.609  0.00  0.00     0.003 A 
ATOM      8  C6  PXY d   1      -1.254   1.433   0.981  0.00  0.00     0.003 A 
ENDROOT
TORSDOF 0
ENDMDL
