MODEL 1
REMARK minimizedAffinity 3.11241436
REMARK minimizedRMSD -1
REMARK  0 active torsions:
REMARK  status: ('A' for Active; 'I' for Inactive)
ROOT
ATOM      1  C4' PXY d   1      -0.984  -1.056  -5.671  0.00  0.00     0.077 C 
ATOM      2  C1' PXY d   1      -5.976  -3.952  -5.993  0.00  0.00     0.077 C 
ATOM      3  C1  PXY d   1      -4.661  -3.204  -5.904  0.00  0.00    -0.082 A 
ATOM      4  C2  PXY d   1      -4.665  -1.890  -5.743  0.00  0.00     0.003 A 
ATOM      5  C3  PXY d   1      -3.485  -1.194  -5.694  0.00  0.00     0.003 A 
ATOM      6  C4  PXY d   1      -2.288  -1.854  -5.756  0.00  0.00    -0.082 A 
ATOM      7  C5  PXY d   1      -2.275  -3.195  -5.910  0.00  0.00     0.003 A 
ATOM      8  C6  PXY d   1      -3.484  -3.879  -5.999  0.00  0.00     0.003 A 
ENDROOT
TORSDOF 0
ENDMDL
