MODEL 1
REMARK minimizedAffinity 11.3332834
REMARK minimizedRMSD -1
REMARK  0 active torsions:
REMARK  status: ('A' for Active; 'I' for Inactive)
ROOT
ATOM      1  C4' PXY d   1      -0.287   0.015  -5.907  0.00  0.00     0.077 C 
ATOM      2  C1' PXY d   1      -3.757  -4.608  -5.995  0.00  0.00     0.077 C 
ATOM      3  C1  PXY d   1      -2.856  -3.388  -5.977  0.00  0.00    -0.082 A 
ATOM      4  C2  PXY d   1      -1.543  -3.545  -5.952  0.00  0.00     0.003 A 
ATOM      5  C3  PXY d   1      -0.715  -2.454  -5.903  0.00  0.00     0.003 A 
ATOM      6  C4  PXY d   1      -1.235  -1.188  -5.935  0.00  0.00    -0.082 A 
ATOM      7  C5  PXY d   1      -2.574  -1.019  -5.972  0.00  0.00     0.003 A 
ATOM      8  C6  PXY d   1      -3.398  -2.140  -5.979  0.00  0.00     0.003 A 
ENDROOT
TORSDOF 0
ENDMDL
