MODEL 1
REMARK minimizedAffinity 4.9410677
REMARK minimizedRMSD -1
REMARK  0 active torsions:
REMARK  status: ('A' for Active; 'I' for Inactive)
ROOT
ATOM      1  C4' PXY d   1      -5.967  -3.720  -5.949  0.00  0.00     0.077 C 
ATOM      2  C1' PXY d   1      -0.191  -3.507  -6.000  0.00  0.00     0.077 C 
ATOM      3  C1  PXY d   1      -1.705  -3.575  -5.992  0.00  0.00    -0.082 A 
ATOM      4  C2  PXY d   1      -2.410  -2.455  -5.974  0.00  0.00     0.003 A 
ATOM      5  C3  PXY d   1      -3.780  -2.498  -5.934  0.00  0.00     0.003 A 
ATOM      6  C4  PXY d   1      -4.436  -3.699  -5.967  0.00  0.00    -0.082 A 
ATOM      7  C5  PXY d   1      -3.725  -4.846  -5.996  0.00  0.00     0.003 A 
ATOM      8  C6  PXY d   1      -2.334  -4.781  -5.994  0.00  0.00     0.003 A 
ENDROOT
TORSDOF 0
ENDMDL
