MODEL 1
REMARK minimizedAffinity 8.45777988
REMARK minimizedRMSD -1
REMARK  0 active torsions:
REMARK  status: ('A' for Active; 'I' for Inactive)
ROOT
ATOM      1  C4' PXY d   1      -1.734  -3.104  -6.000  0.00  0.00     0.077 C 
ATOM      2  C1' PXY d   1       2.248   0.374  -3.663  0.00  0.00     0.077 C 
ATOM      3  C1  PXY d   1       1.195  -0.529  -4.276  0.00  0.00    -0.082 A 
ATOM      4  C2  PXY d   1       1.305  -1.841  -4.150  0.00  0.00     0.003 A 
ATOM      5  C3  PXY d   1       0.379  -2.673  -4.725  0.00  0.00     0.003 A 
ATOM      6  C4  PXY d   1      -0.700  -2.154  -5.390  0.00  0.00    -0.082 A 
ATOM      7  C5  PXY d   1      -0.825  -0.816  -5.513  0.00  0.00     0.003 A 
ATOM      8  C6  PXY d   1       0.148   0.010  -4.957  0.00  0.00     0.003 A 
ENDROOT
TORSDOF 0
ENDMDL
