MODEL 1
REMARK minimizedAffinity 8.42898464
REMARK minimizedRMSD -1
REMARK  0 active torsions:
REMARK  status: ('A' for Active; 'I' for Inactive)
ROOT
ATOM      1  C4' PXY d   1      -3.002   2.162   1.706  0.00  0.00     0.077 C 
ATOM      2  C1' PXY d   1       2.112   0.125   3.471  0.00  0.00     0.077 C 
ATOM      3  C1  PXY d   1       0.766   0.647   3.007  0.00  0.00    -0.082 A 
ATOM      4  C2  PXY d   1       0.682   1.855   2.474  0.00  0.00     0.003 A 
ATOM      5  C3  PXY d   1      -0.532   2.356   2.079  0.00  0.00     0.003 A 
ATOM      6  C4  PXY d   1      -1.663   1.591   2.180  0.00  0.00    -0.082 A 
ATOM      7  C5  PXY d   1      -1.583   0.353   2.713  0.00  0.00     0.003 A 
ATOM      8  C6  PXY d   1      -0.348  -0.121   3.146  0.00  0.00     0.003 A 
ENDROOT
TORSDOF 0
ENDMDL
