MODEL 1
REMARK minimizedAffinity -0.150578529
REMARK minimizedRMSD -1
REMARK  0 active torsions:
REMARK  status: ('A' for Active; 'I' for Inactive)
ROOT
ATOM      1  C4' PXY d   1      -4.231   0.800   6.000  0.00  0.00     0.077 C 
ATOM      2  C1' PXY d   1       0.257   2.768   2.933  0.00  0.00     0.077 C 
ATOM      3  C1  PXY d   1      -0.920   2.263   3.745  0.00  0.00    -0.082 A 
ATOM      4  C2  PXY d   1      -1.182   0.966   3.779  0.00  0.00     0.003 A 
ATOM      5  C3  PXY d   1      -2.260   0.495   4.483  0.00  0.00     0.003 A 
ATOM      6  C4  PXY d   1      -3.048   1.354   5.201  0.00  0.00    -0.082 A 
ATOM      7  C5  PXY d   1      -2.781   2.677   5.180  0.00  0.00     0.003 A 
ATOM      8  C6  PXY d   1      -1.705   3.140   4.427  0.00  0.00     0.003 A 
ENDROOT
TORSDOF 0
ENDMDL
