MODEL 1
REMARK minimizedAffinity -1.23373556
REMARK minimizedRMSD -1
REMARK  1 active torsions:
REMARK  status: ('A' for Active; 'I' for Inactive)
REMARK    1  A    between atoms: C1_2  and  C2_3 
ROOT
ATOM      1  C2  UNL d   1       2.917   0.069  -1.604  0.00  0.00    -0.077 A 
ATOM      2  C3  UNL d   1       1.565  -0.201  -1.348  0.00  0.00     0.002 A 
ATOM      3  C4  UNL d   1       1.045  -0.043  -0.062  0.00  0.00     0.002 A 
ATOM      4  C5  UNL d   1       1.869   0.388   0.976  0.00  0.00    -0.004 A 
ATOM      5  C6  UNL d   1       3.215   0.657   0.732  0.00  0.00     0.002 A 
ATOM      6  C7  UNL d   1       3.736   0.499  -0.553  0.00  0.00     0.002 A 
ENDROOT
BRANCH   1   7
ATOM      7  C1  UNL d   1       3.468  -0.053  -3.001  0.00  0.00     0.055 C 
ATOM      8  C   UNL d   1       4.545   0.989  -3.264  0.00  0.00     0.019 C 
ENDBRANCH   1   7
TORSDOF 1
ENDMDL
