MODEL 1
REMARK minimizedAffinity 0.904666305
REMARK minimizedRMSD -1
REMARK  1 active torsions:
REMARK  status: ('A' for Active; 'I' for Inactive)
REMARK    1  A    between atoms: C1_2  and  C2_3 
ROOT
ATOM      1  C2  UNL d   1       3.086   0.411  -1.796  0.00  0.00    -0.077 A 
ATOM      2  C3  UNL d   1       1.736   0.041  -1.720  0.00  0.00     0.002 A 
ATOM      3  C4  UNL d   1       1.089  -0.022  -0.484  0.00  0.00     0.002 A 
ATOM      4  C5  UNL d   1       1.783   0.288   0.684  0.00  0.00    -0.004 A 
ATOM      5  C6  UNL d   1       3.127   0.655   0.619  0.00  0.00     0.002 A 
ATOM      6  C7  UNL d   1       3.775   0.717  -0.615  0.00  0.00     0.002 A 
ENDROOT
BRANCH   1   7
ATOM      7  C1  UNL d   1       3.772   0.527  -3.132  0.00  0.00     0.055 C 
ATOM      8  C   UNL d   1       4.854   1.596  -3.107  0.00  0.00     0.019 C 
ENDBRANCH   1   7
TORSDOF 1
ENDMDL
