MODEL 1
REMARK minimizedAffinity 2.10312557
REMARK minimizedRMSD -1
REMARK  1 active torsions:
REMARK  status: ('A' for Active; 'I' for Inactive)
REMARK    1  A    between atoms: C1_2  and  C2_3 
ROOT
ATOM      1  C2  UNL d   1       3.760   1.068  -1.837  0.00  0.00    -0.077 A 
ATOM      2  C3  UNL d   1       2.490   0.558  -2.139  0.00  0.00     0.002 A 
ATOM      3  C4  UNL d   1       1.637   0.137  -1.116  0.00  0.00     0.002 A 
ATOM      4  C5  UNL d   1       2.043   0.227   0.213  0.00  0.00    -0.004 A 
ATOM      5  C6  UNL d   1       3.305   0.731   0.523  0.00  0.00     0.002 A 
ATOM      6  C7  UNL d   1       4.160   1.150  -0.497  0.00  0.00     0.002 A 
ENDROOT
BRANCH   1   7
ATOM      7  C1  UNL d   1       4.662   1.567  -2.935  0.00  0.00     0.055 C 
ATOM      8  C   UNL d   1       5.828   2.367  -2.373  0.00  0.00     0.019 C 
ENDBRANCH   1   7
TORSDOF 1
ENDMDL
