MODEL 1
REMARK minimizedAffinity 2.08272266
REMARK minimizedRMSD -1
REMARK  1 active torsions:
REMARK  status: ('A' for Active; 'I' for Inactive)
REMARK    1  A    between atoms: C1_2  and  C2_3 
ROOT
ATOM      1  C2  UNL d   1      -0.287   2.135  -0.381  0.00  0.00    -0.077 A 
ATOM      2  C3  UNL d   1       0.587   2.884   0.419  0.00  0.00     0.002 A 
ATOM      3  C4  UNL d   1       0.127   4.009   1.106  0.00  0.00     0.002 A 
ATOM      4  C5  UNL d   1      -1.208   4.393   1.003  0.00  0.00    -0.004 A 
ATOM      5  C6  UNL d   1      -2.085   3.656   0.209  0.00  0.00     0.002 A 
ATOM      6  C7  UNL d   1      -1.627   2.532  -0.480  0.00  0.00     0.002 A 
ENDROOT
BRANCH   1   7
ATOM      7  C1  UNL d   1       0.195   0.893  -1.084  0.00  0.00     0.055 C 
ATOM      8  C   UNL d   1       1.682   0.669  -0.854  0.00  0.00     0.019 C 
ENDBRANCH   1   7
TORSDOF 1
ENDMDL
