MODEL 1
REMARK minimizedAffinity -5.17202902
REMARK minimizedRMSD -1
REMARK  0 active torsions:
REMARK  status: ('A' for Active; 'I' for Inactive)
ROOT
ATOM      1  C   UNL d   1      -2.046  -0.651  -3.406  0.00  0.00     0.020 A 
ATOM      2  C1  UNL d   1      -0.703  -0.383  -3.668  0.00  0.00     0.020 A 
ATOM      3  C2  UNL d   1       0.171  -0.101  -2.616  0.00  0.00     0.034 A 
ATOM      4  C3  UNL d   1      -0.297  -0.086  -1.297  0.00  0.00     0.017 A 
ATOM      5  C4  UNL d   1      -1.645  -0.355  -1.035  0.00  0.00     0.017 A 
ATOM      6  C5  UNL d   1      -2.516  -0.637  -2.092  0.00  0.00     0.034 A 
ATOM      7 Cl   UNL d   1      -2.296  -0.356   0.566  0.00  0.00    -0.070 Cl
ATOM      8 Cl1  UNL d   1       0.840   0.270  -0.045  0.00  0.00    -0.070 Cl
ENDROOT
TORSDOF 0
ENDMDL
