MODEL 1
REMARK minimizedAffinity -1.25862384
REMARK minimizedRMSD -1
REMARK  0 active torsions:
REMARK  status: ('A' for Active; 'I' for Inactive)
ROOT
ATOM      1  C   UNL d   1       1.610  -2.254   1.973  0.00  0.00     0.020 A 
ATOM      2  C1  UNL d   1       2.756  -1.483   2.158  0.00  0.00     0.020 A 
ATOM      3  C2  UNL d   1       2.868  -0.238   1.534  0.00  0.00     0.034 A 
ATOM      4  C3  UNL d   1       1.832   0.238   0.723  0.00  0.00     0.017 A 
ATOM      5  C4  UNL d   1       0.682  -0.537   0.538  0.00  0.00     0.017 A 
ATOM      6  C5  UNL d   1       0.575  -1.782   1.165  0.00  0.00     0.034 A 
ATOM      7 Cl   UNL d   1      -0.638  -0.016  -0.449  0.00  0.00    -0.070 Cl
ATOM      8 Cl1  UNL d   1       2.039   1.786  -0.018  0.00  0.00    -0.070 Cl
ENDROOT
TORSDOF 0
ENDMDL
