MODEL 1
REMARK minimizedAffinity -3.63569546
REMARK minimizedRMSD -1
REMARK  0 active torsions:
REMARK  status: ('A' for Active; 'I' for Inactive)
ROOT
ATOM      1  C   UNL d   1      -1.206   0.448   0.119  0.00  0.00     0.020 A 
ATOM      2  C1  UNL d   1      -0.223   1.432   0.026  0.00  0.00     0.020 A 
ATOM      3  C2  UNL d   1       1.117   1.105   0.247  0.00  0.00     0.034 A 
ATOM      4  C3  UNL d   1       1.477  -0.210   0.563  0.00  0.00     0.017 A 
ATOM      5  C4  UNL d   1       0.489  -1.198   0.656  0.00  0.00     0.017 A 
ATOM      6  C5  UNL d   1      -0.850  -0.864   0.433  0.00  0.00     0.034 A 
ATOM      7 Cl   UNL d   1       0.856  -2.842   1.041  0.00  0.00    -0.070 Cl
ATOM      8 Cl1  UNL d   1       3.152  -0.544   0.824  0.00  0.00    -0.070 Cl
ENDROOT
TORSDOF 0
ENDMDL
