MODEL 1
REMARK minimizedAffinity -5.26506805
REMARK minimizedRMSD -1
REMARK  0 active torsions:
REMARK  status: ('A' for Active; 'I' for Inactive)
ROOT
ATOM      1  C   UNL d   1       2.205  -2.221   2.008  0.00  0.00     0.020 A 
ATOM      2  C1  UNL d   1       3.080  -1.143   1.882  0.00  0.00     0.020 A 
ATOM      3  C2  UNL d   1       2.628   0.064   1.344  0.00  0.00     0.034 A 
ATOM      4  C3  UNL d   1       1.297   0.196   0.930  0.00  0.00     0.017 A 
ATOM      5  C4  UNL d   1       0.420  -0.887   1.057  0.00  0.00     0.017 A 
ATOM      6  C5  UNL d   1       0.878  -2.093   1.596  0.00  0.00     0.034 A 
ATOM      7 Cl   UNL d   1      -1.236  -0.800   0.568  0.00  0.00    -0.070 Cl
ATOM      8 Cl1  UNL d   1       0.807   1.717   0.274  0.00  0.00    -0.070 Cl
ENDROOT
TORSDOF 0
ENDMDL
