MODEL 1
REMARK minimizedAffinity -2.29741454
REMARK minimizedRMSD -1
REMARK  0 active torsions:
REMARK  status: ('A' for Active; 'I' for Inactive)
ROOT
ATOM      1  C   UNL d   1      -0.463   0.788  -0.042  0.00  0.00     0.020 A 
ATOM      2  C1  UNL d   1       0.616   1.636   0.202  0.00  0.00     0.020 A 
ATOM      3  C2  UNL d   1       1.737   1.162   0.885  0.00  0.00     0.034 A 
ATOM      4  C3  UNL d   1       1.782  -0.165   1.328  0.00  0.00     0.017 A 
ATOM      5  C4  UNL d   1       0.699  -1.017   1.083  0.00  0.00     0.017 A 
ATOM      6  C5  UNL d   1      -0.422  -0.536   0.397  0.00  0.00     0.034 A 
ATOM      7 Cl   UNL d   1       0.681  -2.667   1.598  0.00  0.00    -0.070 Cl
ATOM      8 Cl1  UNL d   1       3.200  -0.685   2.167  0.00  0.00    -0.070 Cl
ENDROOT
TORSDOF 0
ENDMDL
