MODEL 1
REMARK minimizedAffinity -4.0727849
REMARK minimizedRMSD -1
REMARK  0 active torsions:
REMARK  status: ('A' for Active; 'I' for Inactive)
ROOT
ATOM      1  C   UNL d   1       3.212   0.251   1.117  0.00  0.00     0.020 A 
ATOM      2  C1  UNL d   1       2.524   1.290   0.491  0.00  0.00     0.020 A 
ATOM      3  C2  UNL d   1       1.164   1.156   0.207  0.00  0.00     0.034 A 
ATOM      4  C3  UNL d   1       0.486  -0.021   0.549  0.00  0.00     0.017 A 
ATOM      5  C4  UNL d   1       1.177  -1.063   1.176  0.00  0.00     0.017 A 
ATOM      6  C5  UNL d   1       2.539  -0.923   1.459  0.00  0.00     0.034 A 
ATOM      7 Cl   UNL d   1       0.409  -2.544   1.628  0.00  0.00    -0.070 Cl
ATOM      8 Cl1  UNL d   1      -1.196  -0.118   0.168  0.00  0.00    -0.070 Cl
ENDROOT
TORSDOF 0
ENDMDL
