MODEL 1
REMARK minimizedAffinity -3.25057364
REMARK minimizedRMSD -1
REMARK  0 active torsions:
REMARK  status: ('A' for Active; 'I' for Inactive)
ROOT
ATOM      1  C   UNL d   1       0.111   1.627  -0.807  0.00  0.00     0.020 A 
ATOM      2  C1  UNL d   1      -1.004   0.814  -0.609  0.00  0.00     0.020 A 
ATOM      3  C2  UNL d   1      -0.860  -0.432   0.005  0.00  0.00     0.034 A 
ATOM      4  C3  UNL d   1       0.403  -0.868   0.424  0.00  0.00     0.017 A 
ATOM      5  C4  UNL d   1       1.521  -0.051   0.225  0.00  0.00     0.017 A 
ATOM      6  C5  UNL d   1       1.371   1.196  -0.391  0.00  0.00     0.034 A 
ATOM      7 Cl   UNL d   1       3.111  -0.520   0.714  0.00  0.00    -0.070 Cl
ATOM      8 Cl1  UNL d   1       0.508  -2.420   1.176  0.00  0.00    -0.070 Cl
ENDROOT
TORSDOF 0
ENDMDL
