MODEL 1
REMARK minimizedAffinity -4.19511509
REMARK minimizedRMSD -1
REMARK  0 active torsions:
REMARK  status: ('A' for Active; 'I' for Inactive)
ROOT
ATOM      1  C   UNL d   1       2.044  -1.736   1.151  0.00  0.00     0.020 A 
ATOM      2  C1  UNL d   1       2.980  -0.703   1.174  0.00  0.00     0.020 A 
ATOM      3  C2  UNL d   1       2.617   0.577   0.752  0.00  0.00     0.034 A 
ATOM      4  C3  UNL d   1       1.315   0.828   0.303  0.00  0.00     0.017 A 
ATOM      5  C4  UNL d   1       0.376  -0.210   0.280  0.00  0.00     0.017 A 
ATOM      6  C5  UNL d   1       0.745  -1.490   0.704  0.00  0.00     0.034 A 
ATOM      7 Cl   UNL d   1      -1.249   0.023  -0.260  0.00  0.00    -0.070 Cl
ATOM      8 Cl1  UNL d   1       0.936   2.436  -0.205  0.00  0.00    -0.070 Cl
ENDROOT
TORSDOF 0
ENDMDL
