MODEL 1
REMARK minimizedAffinity -3.91785336
REMARK minimizedRMSD -1
REMARK  0 active torsions:
REMARK  status: ('A' for Active; 'I' for Inactive)
ROOT
ATOM      1  C   UNL d   1       2.559   1.096   0.079  0.00  0.00     0.020 A 
ATOM      2  C1  UNL d   1       3.332   0.096   0.668  0.00  0.00     0.020 A 
ATOM      3  C2  UNL d   1       2.719  -1.040   1.200  0.00  0.00     0.034 A 
ATOM      4  C3  UNL d   1       1.327  -1.179   1.144  0.00  0.00     0.017 A 
ATOM      5  C4  UNL d   1       0.551  -0.176   0.552  0.00  0.00     0.017 A 
ATOM      6  C5  UNL d   1       1.171   0.960   0.021  0.00  0.00     0.034 A 
ATOM      7 Cl   UNL d   1      -1.171  -0.277   0.445  0.00  0.00    -0.070 Cl
ATOM      8 Cl1  UNL d   1       0.635  -2.610   1.821  0.00  0.00    -0.070 Cl
ENDROOT
TORSDOF 0
ENDMDL
