MODEL 1
REMARK minimizedAffinity -4.26085854
REMARK minimizedRMSD -1
REMARK  0 active torsions:
REMARK  status: ('A' for Active; 'I' for Inactive)
ROOT
ATOM      1  C   UNL d   1       2.793  -1.436   1.881  0.00  0.00     0.020 A 
ATOM      2  C1  UNL d   1       2.896  -0.376   0.982  0.00  0.00     0.020 A 
ATOM      3  C2  UNL d   1       1.773   0.041   0.264  0.00  0.00     0.034 A 
ATOM      4  C3  UNL d   1       0.543  -0.601   0.444  0.00  0.00     0.017 A 
ATOM      5  C4  UNL d   1       0.441  -1.665   1.348  0.00  0.00     0.017 A 
ATOM      6  C5  UNL d   1       1.568  -2.079   2.064  0.00  0.00     0.034 A 
ATOM      7 Cl   UNL d   1      -1.043  -2.508   1.624  0.00  0.00    -0.070 Cl
ATOM      8 Cl1  UNL d   1      -0.804  -0.032  -0.476  0.00  0.00    -0.070 Cl
ENDROOT
TORSDOF 0
ENDMDL
