MODEL 1
REMARK minimizedAffinity -3.8834157
REMARK minimizedRMSD -1
REMARK  1 active torsions:
REMARK  status: ('A' for Active; 'I' for Inactive)
REMARK    1  A    between atoms: N_2  and  C1_3 
ROOT
ATOM      1  C1  UNL d   1       0.369  -0.089   0.806  0.00  0.00     0.143 A 
ATOM      2  C2  UNL d   1       0.874   0.955   1.588  0.00  0.00    -0.057 A 
ATOM      3  C3  UNL d   1       0.734   0.952   2.981  0.00  0.00     0.033 A 
ATOM      4  C4  UNL d   1       0.059  -0.085   3.616  0.00  0.00    -0.042 A 
ATOM      5  C5  UNL d   1      -0.473  -1.121   2.857  0.00  0.00     0.033 A 
ATOM      6  C6  UNL d   1      -0.324  -1.116   1.467  0.00  0.00    -0.057 A 
ENDROOT
BRANCH   1   7
ATOM      7  N   UNL d   1       0.389  -0.095  -0.591  0.00  0.00    -0.732 N 
ATOM      8  C   UNL d   1      -0.279   0.946  -1.342  0.00  0.00     0.284 C 
ATOM      9  H3  UNL d   1       1.298  -0.360  -0.965  0.00  0.00     0.395 HD
ENDBRANCH   1   7
TORSDOF 1
ENDMDL
