MODEL 1
REMARK minimizedAffinity 0.828549206
REMARK minimizedRMSD -1
REMARK  1 active torsions:
REMARK  status: ('A' for Active; 'I' for Inactive)
REMARK    1  A    between atoms: N_2  and  C1_3 
ROOT
ATOM      1  C1  UNL d   1       0.024   0.346  -0.466  0.00  0.00     0.143 A 
ATOM      2  C2  UNL d   1      -0.454   0.041   0.813  0.00  0.00    -0.057 A 
ATOM      3  C3  UNL d   1      -1.658  -0.650   0.993  0.00  0.00     0.033 A 
ATOM      4  C4  UNL d   1      -2.423  -1.025  -0.107  0.00  0.00    -0.042 A 
ATOM      5  C5  UNL d   1      -1.979  -0.711  -1.387  0.00  0.00     0.033 A 
ATOM      6  C6  UNL d   1      -0.773  -0.026  -1.560  0.00  0.00    -0.057 A 
ENDROOT
BRANCH   1   7
ATOM      7  N   UNL d   1       1.164   1.117  -0.707  0.00  0.00    -0.732 N 
ATOM      8  C   UNL d   1       2.049   1.483   0.378  0.00  0.00     0.284 C 
ATOM      9  H3  UNL d   1       1.644   0.843  -1.561  0.00  0.00     0.395 HD
ENDBRANCH   1   7
TORSDOF 1
ENDMDL
