MODEL 1
REMARK minimizedAffinity -4.55635595
REMARK minimizedRMSD -1
REMARK  1 active torsions:
REMARK  status: ('A' for Active; 'I' for Inactive)
REMARK    1  A    between atoms: N_2  and  C1_3 
ROOT
ATOM      1  C1  UNL d   1      -0.026   0.016   0.298  0.00  0.00     0.143 A 
ATOM      2  C2  UNL d   1       0.924   0.088   1.323  0.00  0.00    -0.057 A 
ATOM      3  C3  UNL d   1       0.542   0.060   2.670  0.00  0.00     0.033 A 
ATOM      4  C4  UNL d   1      -0.803  -0.013   3.017  0.00  0.00    -0.042 A 
ATOM      5  C5  UNL d   1      -1.766  -0.060   2.015  0.00  0.00     0.033 A 
ATOM      6  C6  UNL d   1      -1.378  -0.038   0.672  0.00  0.00    -0.057 A 
ENDROOT
BRANCH   1   7
ATOM      7  N   UNL d   1       0.283   0.139  -1.059  0.00  0.00    -0.732 N 
ATOM      8  C   UNL d   1       0.681  -1.017  -1.832  0.00  0.00     0.284 C 
ATOM      9  H3  UNL d   1      -0.352   0.767  -1.546  0.00  0.00     0.395 HD
ENDBRANCH   1   7
TORSDOF 1
ENDMDL
