MODEL 1
REMARK minimizedAffinity -1.77749479
REMARK minimizedRMSD -1
REMARK  1 active torsions:
REMARK  status: ('A' for Active; 'I' for Inactive)
REMARK    1  A    between atoms: N_2  and  C1_3 
ROOT
ATOM      1  C1  UNL d   1      -0.286  -0.443   0.876  0.00  0.00     0.143 A 
ATOM      2  C2  UNL d   1       0.490   0.351   1.728  0.00  0.00    -0.057 A 
ATOM      3  C3  UNL d   1       0.361   0.264   3.119  0.00  0.00     0.033 A 
ATOM      4  C4  UNL d   1      -0.570  -0.602   3.684  0.00  0.00    -0.042 A 
ATOM      5  C5  UNL d   1      -1.369  -1.382   2.856  0.00  0.00     0.033 A 
ATOM      6  C6  UNL d   1      -1.231  -1.295   1.468  0.00  0.00    -0.057 A 
ENDROOT
BRANCH   1   7
ATOM      7  N   UNL d   1      -0.273  -0.331  -0.516  0.00  0.00    -0.732 N 
ATOM      8  C   UNL d   1       0.018  -1.481  -1.346  0.00  0.00     0.284 C 
ATOM      9  H3  UNL d   1      -1.030   0.252  -0.866  0.00  0.00     0.395 HD
ENDBRANCH   1   7
TORSDOF 1
ENDMDL
