MODEL 1
REMARK minimizedAffinity -3.24569654
REMARK minimizedRMSD -1
REMARK  1 active torsions:
REMARK  status: ('A' for Active; 'I' for Inactive)
REMARK    1  A    between atoms: N_2  and  C1_3 
ROOT
ATOM      1  C1  UNL d   1       0.167   0.352   0.133  0.00  0.00     0.143 A 
ATOM      2  C2  UNL d   1       0.931   0.859   1.190  0.00  0.00    -0.057 A 
ATOM      3  C3  UNL d   1       0.546   0.667   2.522  0.00  0.00     0.033 A 
ATOM      4  C4  UNL d   1      -0.630  -0.013   2.821  0.00  0.00    -0.042 A 
ATOM      5  C5  UNL d   1      -1.419  -0.504   1.786  0.00  0.00     0.033 A 
ATOM      6  C6  UNL d   1      -1.025  -0.315   0.458  0.00  0.00    -0.057 A 
ENDROOT
BRANCH   1   7
ATOM      7  N   UNL d   1       0.445   0.594  -1.214  0.00  0.00    -0.732 N 
ATOM      8  C   UNL d   1       0.850  -0.485  -2.089  0.00  0.00     0.284 C 
ATOM      9  H3  UNL d   1      -0.213   1.246  -1.635  0.00  0.00     0.395 HD
ENDBRANCH   1   7
TORSDOF 1
ENDMDL
