MODEL 1
REMARK minimizedAffinity -3.85978079
REMARK minimizedRMSD -1
REMARK  1 active torsions:
REMARK  status: ('A' for Active; 'I' for Inactive)
REMARK    1  A    between atoms: N_2  and  C1_3 
ROOT
ATOM      1  C1  UNL d   1       0.039   0.228  -0.412  0.00  0.00     0.143 A 
ATOM      2  C2  UNL d   1      -1.231  -0.225  -0.038  0.00  0.00    -0.057 A 
ATOM      3  C3  UNL d   1      -1.535  -0.513   1.298  0.00  0.00     0.033 A 
ATOM      4  C4  UNL d   1      -0.562  -0.380   2.283  0.00  0.00    -0.042 A 
ATOM      5  C5  UNL d   1       0.714   0.045   1.931  0.00  0.00     0.033 A 
ATOM      6  C6  UNL d   1       1.010   0.337   0.595  0.00  0.00    -0.057 A 
ENDROOT
BRANCH   1   7
ATOM      7  N   UNL d   1       0.431   0.436  -1.737  0.00  0.00    -0.732 N 
ATOM      8  C   UNL d   1       0.940  -0.658  -2.535  0.00  0.00     0.284 C 
ATOM      9  H3  UNL d   1      -0.202   1.056  -2.237  0.00  0.00     0.395 HD
ENDBRANCH   1   7
TORSDOF 1
ENDMDL
