MODEL 1
REMARK minimizedAffinity -5.43565607
REMARK minimizedRMSD -1
REMARK  1 active torsions:
REMARK  status: ('A' for Active; 'I' for Inactive)
REMARK    1  A    between atoms: N_2  and  C1_3 
ROOT
ATOM      1  C1  UNL d   1       0.307  -0.220   0.459  0.00  0.00     0.143 A 
ATOM      2  C2  UNL d   1       1.550  -0.120   1.093  0.00  0.00    -0.057 A 
ATOM      3  C3  UNL d   1       1.679  -0.315   2.473  0.00  0.00     0.033 A 
ATOM      4  C4  UNL d   1       0.558  -0.586   3.251  0.00  0.00    -0.042 A 
ATOM      5  C5  UNL d   1      -0.691  -0.665   2.647  0.00  0.00     0.033 A 
ATOM      6  C6  UNL d   1      -0.813  -0.476   1.267  0.00  0.00    -0.057 A 
ENDROOT
BRANCH   1   7
ATOM      7  N   UNL d   1       0.098   0.061  -0.893  0.00  0.00    -0.732 N 
ATOM      8  C   UNL d   1       0.672  -0.784  -1.918  0.00  0.00     0.284 C 
ATOM      9  H3  UNL d   1      -0.856   0.359  -1.086  0.00  0.00     0.395 HD
ENDBRANCH   1   7
TORSDOF 1
ENDMDL
