MODEL 1
REMARK minimizedAffinity -3.76316524
REMARK minimizedRMSD -1
REMARK  1 active torsions:
REMARK  status: ('A' for Active; 'I' for Inactive)
REMARK    1  A    between atoms: N_2  and  C1_3 
ROOT
ATOM      1  C1  UNL d   1      -0.729   0.201   0.598  0.00  0.00     0.143 A 
ATOM      2  C2  UNL d   1       0.254   1.104   0.179  0.00  0.00    -0.057 A 
ATOM      3  C3  UNL d   1       1.355   1.406   0.989  0.00  0.00     0.033 A 
ATOM      4  C4  UNL d   1       1.477   0.830   2.250  0.00  0.00    -0.042 A 
ATOM      5  C5  UNL d   1       0.499  -0.051   2.697  0.00  0.00     0.033 A 
ATOM      6  C6  UNL d   1      -0.595  -0.354   1.880  0.00  0.00    -0.057 A 
ENDROOT
BRANCH   1   7
ATOM      7  N   UNL d   1      -1.898  -0.065  -0.121  0.00  0.00    -0.732 N 
ATOM      8  C   UNL d   1      -2.784   1.010  -0.511  0.00  0.00     0.284 C 
ATOM      9  H3  UNL d   1      -1.759  -0.772  -0.840  0.00  0.00     0.395 HD
ENDBRANCH   1   7
TORSDOF 1
ENDMDL
