MODEL 1
REMARK minimizedAffinity -4.74587917
REMARK minimizedRMSD -1
REMARK  1 active torsions:
REMARK  status: ('A' for Active; 'I' for Inactive)
REMARK    1  A    between atoms: N_2  and  C1_3 
ROOT
ATOM      1  C1  UNL d   1      -0.279  -0.036   0.486  0.00  0.00     0.143 A 
ATOM      2  C2  UNL d   1       0.942   0.604   0.247  0.00  0.00    -0.057 A 
ATOM      3  C3  UNL d   1       1.864   0.817   1.278  0.00  0.00     0.033 A 
ATOM      4  C4  UNL d   1       1.568   0.418   2.578  0.00  0.00    -0.042 A 
ATOM      5  C5  UNL d   1       0.350  -0.198   2.843  0.00  0.00     0.033 A 
ATOM      6  C6  UNL d   1      -0.564  -0.414   1.807  0.00  0.00    -0.057 A 
ENDROOT
BRANCH   1   7
ATOM      7  N   UNL d   1      -1.279  -0.189  -0.478  0.00  0.00    -0.732 N 
ATOM      8  C   UNL d   1      -2.676  -0.162  -0.101  0.00  0.00     0.284 C 
ATOM      9  H3  UNL d   1      -1.070   0.315  -1.337  0.00  0.00     0.395 HD
ENDBRANCH   1   7
TORSDOF 1
ENDMDL
