MODEL 1
REMARK minimizedAffinity -4.24096298
REMARK minimizedRMSD -1
REMARK  1 active torsions:
REMARK  status: ('A' for Active; 'I' for Inactive)
REMARK    1  A    between atoms: N_2  and  C1_3 
ROOT
ATOM      1  C1  UNL d   1      -0.186   0.279   0.481  0.00  0.00     0.143 A 
ATOM      2  C2  UNL d   1       1.182   0.521   0.320  0.00  0.00    -0.057 A 
ATOM      3  C3  UNL d   1       2.047   0.558   1.421  0.00  0.00     0.033 A 
ATOM      4  C4  UNL d   1       1.552   0.381   2.709  0.00  0.00    -0.042 A 
ATOM      5  C5  UNL d   1       0.191   0.164   2.894  0.00  0.00     0.033 A 
ATOM      6  C6  UNL d   1      -0.666   0.121   1.791  0.00  0.00    -0.057 A 
ENDROOT
BRANCH   1   7
ATOM      7  N   UNL d   1      -1.113   0.327  -0.564  0.00  0.00    -0.732 N 
ATOM      8  C   UNL d   1      -2.506   0.615  -0.300  0.00  0.00     0.284 C 
ATOM      9  H3  UNL d   1      -0.742   0.790  -1.390  0.00  0.00     0.395 HD
ENDBRANCH   1   7
TORSDOF 1
ENDMDL
