MODEL 1
REMARK minimizedAffinity -3.62015295
REMARK minimizedRMSD -1
REMARK  1 active torsions:
REMARK  status: ('A' for Active; 'I' for Inactive)
REMARK    1  A    between atoms: N_2  and  C1_3 
ROOT
ATOM      1  C1  UNL d   1      -0.176  -0.067  -1.275  0.00  0.00     0.143 A 
ATOM      2  C2  UNL d   1      -1.562   0.091  -1.172  0.00  0.00    -0.057 A 
ATOM      3  C3  UNL d   1      -2.221  -0.064   0.053  0.00  0.00     0.033 A 
ATOM      4  C4  UNL d   1      -1.507  -0.411   1.195  0.00  0.00    -0.042 A 
ATOM      5  C5  UNL d   1      -0.132  -0.598   1.111  0.00  0.00     0.033 A 
ATOM      6  C6  UNL d   1       0.522  -0.435  -0.114  0.00  0.00    -0.057 A 
ENDROOT
BRANCH   1   7
ATOM      7  N   UNL d   1       0.525  -0.022  -2.484  0.00  0.00    -0.732 N 
ATOM      8  C   UNL d   1       0.672  -1.212  -3.295  0.00  0.00     0.284 C 
ATOM      9  H3  UNL d   1       0.327   0.822  -3.016  0.00  0.00     0.395 HD
ENDBRANCH   1   7
TORSDOF 1
ENDMDL
