MODEL 1
REMARK minimizedAffinity 14.3362331
REMARK minimizedRMSD -1
REMARK  2 active torsions:
REMARK  status: ('A' for Active; 'I' for Inactive)
REMARK    1  A    between atoms: C2'_3  and  C1'_4 
REMARK    2  A    between atoms: C1'_4  and  C1_5 
ROOT
ATOM      1  C1  I4B d   1      -2.185  -2.346  -3.598  0.00  0.00    -0.075 A 
ATOM      2  C2  I4B d   1      -1.838  -1.728  -4.774  0.00  0.00     0.003 A 
ATOM      3  C3  I4B d   1      -1.922  -2.431  -6.000  0.00  0.00     0.002 A 
ATOM      4  C4  I4B d   1      -2.307  -3.756  -5.999  0.00  0.00    -0.004 A 
ATOM      5  C5  I4B d   1      -2.681  -4.374  -4.809  0.00  0.00     0.002 A 
ATOM      6  C6  I4B d   1      -2.631  -3.661  -3.602  0.00  0.00     0.003 A 
ENDROOT
BRANCH   1   7
ATOM      7  C1' I4B d   1      -2.053  -1.584  -2.317  0.00  0.00     0.060 C 
BRANCH   7   8
ATOM      8  C2' I4B d   1      -2.059  -2.583  -1.178  0.00  0.00    -0.013 C 
ATOM      9  C4' I4B d   1      -0.697  -2.697  -0.546  0.00  0.00     0.013 C 
ATOM     10  C3' I4B d   1      -3.085  -2.138  -0.178  0.00  0.00     0.013 C 
ENDBRANCH   7   8
ENDBRANCH   1   7
TORSDOF 2
ENDMDL
