MODEL 1
REMARK minimizedAffinity 10.104723
REMARK minimizedRMSD -1
REMARK  2 active torsions:
REMARK  status: ('A' for Active; 'I' for Inactive)
REMARK    1  A    between atoms: C2'_3  and  C1'_4 
REMARK    2  A    between atoms: C1'_4  and  C1_5 
ROOT
ATOM      1  C1  I4B d   1       3.361   2.688  -4.926  0.00  0.00    -0.075 A 
ATOM      2  C2  I4B d   1       3.918   3.824  -5.459  0.00  0.00     0.003 A 
ATOM      3  C3  I4B d   1       3.089   4.846  -5.982  0.00  0.00     0.002 A 
ATOM      4  C4  I4B d   1       1.720   4.670  -5.997  0.00  0.00    -0.004 A 
ATOM      5  C5  I4B d   1       1.157   3.528  -5.436  0.00  0.00     0.002 A 
ATOM      6  C6  I4B d   1       1.981   2.536  -4.885  0.00  0.00     0.003 A 
ENDROOT
BRANCH   1   7
ATOM      7  C1' I4B d   1       4.267   1.614  -4.412  0.00  0.00     0.060 C 
BRANCH   7   8
ATOM      8  C2' I4B d   1       3.948   1.396  -2.947  0.00  0.00    -0.013 C 
ATOM      9  C4' I4B d   1       4.685   0.202  -2.401  0.00  0.00     0.013 C 
ATOM     10  C3' I4B d   1       4.314   2.645  -2.202  0.00  0.00     0.013 C 
ENDBRANCH   7   8
ENDBRANCH   1   7
TORSDOF 2
ENDMDL
