MODEL 1
REMARK minimizedAffinity 11.3698969
REMARK minimizedRMSD -1
REMARK  2 active torsions:
REMARK  status: ('A' for Active; 'I' for Inactive)
REMARK    1  A    between atoms: C2'_3  and  C1'_4 
REMARK    2  A    between atoms: C1'_4  and  C1_5 
ROOT
ATOM      1  C1  I4B d   1      -1.501  -2.609  -3.591  0.00  0.00    -0.075 A 
ATOM      2  C2  I4B d   1      -2.262  -3.747  -3.491  0.00  0.00     0.003 A 
ATOM      3  C3  I4B d   1      -2.677  -4.432  -4.658  0.00  0.00     0.002 A 
ATOM      4  C4  I4B d   1      -2.354  -3.919  -5.898  0.00  0.00    -0.004 A 
ATOM      5  C5  I4B d   1      -1.563  -2.778  -5.997  0.00  0.00     0.002 A 
ATOM      6  C6  I4B d   1      -1.124  -2.125  -4.837  0.00  0.00     0.003 A 
ENDROOT
BRANCH   1   7
ATOM      7  C1' I4B d   1      -1.108  -1.892  -2.338  0.00  0.00     0.060 C 
BRANCH   7   8
ATOM      8  C2' I4B d   1      -0.941  -2.925  -1.242  0.00  0.00    -0.013 C 
ATOM      9  C4' I4B d   1       0.466  -3.461  -1.207  0.00  0.00     0.013 C 
ATOM     10  C3' I4B d   1      -1.308  -2.281   0.061  0.00  0.00     0.013 C 
ENDBRANCH   7   8
ENDBRANCH   1   7
TORSDOF 2
ENDMDL
