MODEL 1
REMARK minimizedAffinity 4.7314229
REMARK minimizedRMSD -1
REMARK  2 active torsions:
REMARK  status: ('A' for Active; 'I' for Inactive)
REMARK    1  A    between atoms: C2'_3  and  C1'_4 
REMARK    2  A    between atoms: C1'_4  and  C1_5 
ROOT
ATOM      1  C1  I4B d   1      -1.701  -2.179  -3.575  0.00  0.00    -0.075 A 
ATOM      2  C2  I4B d   1      -1.416  -1.606  -4.789  0.00  0.00     0.003 A 
ATOM      3  C3  I4B d   1      -1.790  -2.257  -5.990  0.00  0.00     0.002 A 
ATOM      4  C4  I4B d   1      -2.398  -3.494  -5.931  0.00  0.00    -0.004 A 
ATOM      5  C5  I4B d   1      -2.707  -4.063  -4.699  0.00  0.00     0.002 A 
ATOM      6  C6  I4B d   1      -2.367  -3.396  -3.513  0.00  0.00     0.003 A 
ENDROOT
BRANCH   1   7
ATOM      7  C1' I4B d   1      -1.263  -1.480  -2.327  0.00  0.00     0.060 C 
BRANCH   7   8
ATOM      8  C2' I4B d   1      -1.497  -2.417  -1.160  0.00  0.00    -0.013 C 
ATOM      9  C4' I4B d   1      -0.267  -2.531  -0.298  0.00  0.00     0.013 C 
ATOM     10  C3' I4B d   1      -2.663  -1.896  -0.375  0.00  0.00     0.013 C 
ENDBRANCH   7   8
ENDBRANCH   1   7
TORSDOF 2
ENDMDL
