MODEL 1
REMARK minimizedAffinity 5.04656601
REMARK minimizedRMSD -1
REMARK  2 active torsions:
REMARK  status: ('A' for Active; 'I' for Inactive)
REMARK    1  A    between atoms: C2'_3  and  C1'_4 
REMARK    2  A    between atoms: C1'_4  and  C1_5 
ROOT
ATOM      1  C1  I4B d   1      -0.742  -2.293   0.588  0.00  0.00    -0.075 A 
ATOM      2  C2  I4B d   1       0.158  -2.785  -0.324  0.00  0.00     0.003 A 
ATOM      3  C3  I4B d   1      -0.059  -2.599  -1.711  0.00  0.00     0.002 A 
ATOM      4  C4  I4B d   1      -1.206  -1.964  -2.140  0.00  0.00    -0.004 A 
ATOM      5  C5  I4B d   1      -2.106  -1.446  -1.214  0.00  0.00     0.002 A 
ATOM      6  C6  I4B d   1      -1.867  -1.600   0.160  0.00  0.00     0.003 A 
ENDROOT
BRANCH   1   7
ATOM      7  C1' I4B d   1      -0.499  -2.536   2.044  0.00  0.00     0.060 C 
BRANCH   7   8
ATOM      8  C2' I4B d   1      -1.845  -2.682   2.724  0.00  0.00    -0.013 C 
ATOM      9  C4' I4B d   1      -1.967  -4.018   3.409  0.00  0.00     0.013 C 
ATOM     10  C3' I4B d   1      -1.994  -1.556   3.703  0.00  0.00     0.013 C 
ENDBRANCH   7   8
ENDBRANCH   1   7
TORSDOF 2
ENDMDL
