MODEL 1
REMARK minimizedAffinity 1.63901603
REMARK minimizedRMSD -1
REMARK  2 active torsions:
REMARK  status: ('A' for Active; 'I' for Inactive)
REMARK    1  A    between atoms: C2'_3  and  C1'_4 
REMARK    2  A    between atoms: C1'_4  and  C1_5 
ROOT
ATOM      1  C1  I4B d   1       3.292   4.859  -5.305  0.00  0.00    -0.075 A 
ATOM      2  C2  I4B d   1       4.054   6.000  -5.296  0.00  0.00     0.003 A 
ATOM      3  C3  I4B d   1       5.423   5.946  -5.657  0.00  0.00     0.002 A 
ATOM      4  C4  I4B d   1       5.996   4.730  -5.968  0.00  0.00    -0.004 A 
ATOM      5  C5  I4B d   1       5.216   3.578  -5.999  0.00  0.00     0.002 A 
ATOM      6  C6  I4B d   1       3.852   3.644  -5.678  0.00  0.00     0.003 A 
ENDROOT
BRANCH   1   7
ATOM      7  C1' I4B d   1       1.858   4.946  -4.887  0.00  0.00     0.060 C 
BRANCH   7   8
ATOM      8  C2' I4B d   1       1.331   3.534  -4.729  0.00  0.00    -0.013 C 
ATOM      9  C4' I4B d   1       0.495   3.401  -3.483  0.00  0.00     0.013 C 
ATOM     10  C3' I4B d   1       0.535   3.198  -5.954  0.00  0.00     0.013 C 
ENDBRANCH   7   8
ENDBRANCH   1   7
TORSDOF 2
ENDMDL
