MODEL 1
REMARK minimizedAffinity 7.07101536
REMARK minimizedRMSD -1
REMARK  2 active torsions:
REMARK  status: ('A' for Active; 'I' for Inactive)
REMARK    1  A    between atoms: C2'_3  and  C1'_4 
REMARK    2  A    between atoms: C1'_4  and  C1_5 
ROOT
ATOM      1  C1  I4B d   1       2.243   3.849  -3.352  0.00  0.00    -0.075 A 
ATOM      2  C2  I4B d   1       3.297   3.581  -2.515  0.00  0.00     0.003 A 
ATOM      3  C3  I4B d   1       3.067   3.027  -1.232  0.00  0.00     0.002 A 
ATOM      4  C4  I4B d   1       1.771   2.805  -0.811  0.00  0.00    -0.004 A 
ATOM      5  C5  I4B d   1       0.705   3.056  -1.670  0.00  0.00     0.002 A 
ATOM      6  C6  I4B d   1       0.943   3.569  -2.953  0.00  0.00     0.003 A 
ENDROOT
BRANCH   1   7
ATOM      7  C1' I4B d   1       2.521   4.465  -4.686  0.00  0.00     0.060 C 
BRANCH   7   8
ATOM      8  C2' I4B d   1       2.480   3.363  -5.726  0.00  0.00    -0.013 C 
ATOM      9  C4' I4B d   1       3.234   2.146  -5.260  0.00  0.00     0.013 C 
ATOM     10  C3' I4B d   1       1.042   3.038  -6.000  0.00  0.00     0.013 C 
ENDBRANCH   7   8
ENDBRANCH   1   7
TORSDOF 2
ENDMDL
