MODEL 1
REMARK minimizedAffinity 11.5510979
REMARK minimizedRMSD -1
REMARK  2 active torsions:
REMARK  status: ('A' for Active; 'I' for Inactive)
REMARK    1  A    between atoms: C2'_3  and  C1'_4 
REMARK    2  A    between atoms: C1'_4  and  C1_5 
ROOT
ATOM      1  C1  I4B d   1      -2.065  -2.954  -3.430  0.00  0.00    -0.075 A 
ATOM      2  C2  I4B d   1      -1.294  -2.253  -4.323  0.00  0.00     0.003 A 
ATOM      3  C3  I4B d   1      -1.784  -1.972  -5.622  0.00  0.00     0.002 A 
ATOM      4  C4  I4B d   1      -3.022  -2.452  -5.999  0.00  0.00    -0.004 A 
ATOM      5  C5  I4B d   1      -3.811  -3.143  -5.085  0.00  0.00     0.002 A 
ATOM      6  C6  I4B d   1      -3.336  -3.386  -3.788  0.00  0.00     0.003 A 
ENDROOT
BRANCH   1   7
ATOM      7  C1' I4B d   1      -1.503  -3.261  -2.078  0.00  0.00     0.060 C 
BRANCH   7   8
ATOM      8  C2' I4B d   1      -1.151  -1.948  -1.410  0.00  0.00    -0.013 C 
ATOM      9  C4' I4B d   1      -2.295  -1.436  -0.576  0.00  0.00     0.013 C 
ATOM     10  C3' I4B d   1       0.073  -2.169  -0.572  0.00  0.00     0.013 C 
ENDBRANCH   7   8
ENDBRANCH   1   7
TORSDOF 2
ENDMDL
