MODEL 1
REMARK minimizedAffinity 12.6322393
REMARK minimizedRMSD -1
REMARK  2 active torsions:
REMARK  status: ('A' for Active; 'I' for Inactive)
REMARK    1  A    between atoms: C2'_3  and  C1'_4 
REMARK    2  A    between atoms: C1'_4  and  C1_5 
ROOT
ATOM      1  C1  I4B d   1      -0.057  -0.257   3.038  0.00  0.00    -0.075 A 
ATOM      2  C2  I4B d   1      -1.120  -0.305   3.905  0.00  0.00     0.003 A 
ATOM      3  C3  I4B d   1      -2.135  -1.277   3.736  0.00  0.00     0.002 A 
ATOM      4  C4  I4B d   1      -2.073  -2.145   2.664  0.00  0.00    -0.004 A 
ATOM      5  C5  I4B d   1      -0.983  -2.110   1.800  0.00  0.00     0.002 A 
ATOM      6  C6  I4B d   1       0.038  -1.168   1.995  0.00  0.00     0.003 A 
ENDROOT
BRANCH   1   7
ATOM      7  C1' I4B d   1       0.980   0.805   3.227  0.00  0.00     0.060 C 
BRANCH   7   8
ATOM      8  C2' I4B d   1       1.554   1.143   1.867  0.00  0.00    -0.013 C 
ATOM      9  C4' I4B d   1       1.211   2.553   1.465  0.00  0.00     0.013 C 
ATOM     10  C3' I4B d   1       3.039   0.944   1.929  0.00  0.00     0.013 C 
ENDBRANCH   7   8
ENDBRANCH   1   7
TORSDOF 2
ENDMDL
