MODEL 1
REMARK minimizedAffinity -4.02223873
REMARK minimizedRMSD -1
REMARK  2 active torsions:
REMARK  status: ('A' for Active; 'I' for Inactive)
REMARK    1  A    between atoms: C2'_3  and  C1'_4 
REMARK    2  A    between atoms: C1'_4  and  C1_5 
ROOT
ATOM      1  C1  I4B d   1       4.044   3.258  -5.631  0.00  0.00    -0.075 A 
ATOM      2  C2  I4B d   1       2.793   3.719  -5.304  0.00  0.00     0.003 A 
ATOM      3  C3  I4B d   1       2.533   5.111  -5.271  0.00  0.00     0.002 A 
ATOM      4  C4  I4B d   1       3.558   6.000  -5.521  0.00  0.00    -0.004 A 
ATOM      5  C5  I4B d   1       4.820   5.530  -5.874  0.00  0.00     0.002 A 
ATOM      6  C6  I4B d   1       5.061   4.150  -5.942  0.00  0.00     0.003 A 
ENDROOT
BRANCH   1   7
ATOM      7  C1' I4B d   1       4.292   1.783  -5.623  0.00  0.00     0.060 C 
BRANCH   7   8
ATOM      8  C2' I4B d   1       5.633   1.538  -4.962  0.00  0.00    -0.013 C 
ATOM      9  C4' I4B d   1       5.587   1.874  -3.495  0.00  0.00     0.013 C 
ATOM     10  C3' I4B d   1       6.000   0.100  -5.177  0.00  0.00     0.013 C 
ENDBRANCH   7   8
ENDBRANCH   1   7
TORSDOF 2
ENDMDL
