MODEL 1
REMARK minimizedAffinity 4.81187677
REMARK minimizedRMSD -1
REMARK  2 active torsions:
REMARK  status: ('A' for Active; 'I' for Inactive)
REMARK    1  A    between atoms: C2'_3  and  C1'_4 
REMARK    2  A    between atoms: C1'_4  and  C1_5 
ROOT
ATOM      1  C1  I4B d   1       2.473   3.388  -5.949  0.00  0.00    -0.075 A 
ATOM      2  C2  I4B d   1       2.926   4.683  -6.000  0.00  0.00     0.003 A 
ATOM      3  C3  I4B d   1       2.006   5.760  -5.995  0.00  0.00     0.002 A 
ATOM      4  C4  I4B d   1       0.652   5.497  -5.991  0.00  0.00    -0.004 A 
ATOM      5  C5  I4B d   1       0.195   4.185  -5.917  0.00  0.00     0.002 A 
ATOM      6  C6  I4B d   1       1.111   3.123  -5.884  0.00  0.00     0.003 A 
ENDROOT
BRANCH   1   7
ATOM      7  C1' I4B d   1       3.470   2.274  -5.989  0.00  0.00     0.060 C 
BRANCH   7   8
ATOM      8  C2' I4B d   1       4.448   2.482  -4.850  0.00  0.00    -0.013 C 
ATOM      9  C4' I4B d   1       5.183   1.209  -4.523  0.00  0.00     0.013 C 
ATOM     10  C3' I4B d   1       5.399   3.570  -5.250  0.00  0.00     0.013 C 
ENDBRANCH   7   8
ENDBRANCH   1   7
TORSDOF 2
ENDMDL
