MODEL 1
REMARK minimizedAffinity 0.947354436
REMARK minimizedRMSD -1
REMARK  2 active torsions:
REMARK  status: ('A' for Active; 'I' for Inactive)
REMARK    1  A    between atoms: C2'_3  and  C1'_4 
REMARK    2  A    between atoms: C1'_4  and  C1_5 
ROOT
ATOM      1  C1  I4B d   1       3.990   2.937  -5.556  0.00  0.00    -0.075 A 
ATOM      2  C2  I4B d   1       3.750   1.656  -5.987  0.00  0.00     0.003 A 
ATOM      3  C3  I4B d   1       4.636   0.609  -5.639  0.00  0.00     0.002 A 
ATOM      4  C4  I4B d   1       5.770   0.894  -4.906  0.00  0.00    -0.004 A 
ATOM      5  C5  I4B d   1       6.000   2.189  -4.450  0.00  0.00     0.002 A 
ATOM      6  C6  I4B d   1       5.098   3.215  -4.766  0.00  0.00     0.003 A 
ENDROOT
BRANCH   1   7
ATOM      7  C1' I4B d   1       3.050   4.025  -5.970  0.00  0.00     0.060 C 
BRANCH   7   8
ATOM      8  C2' I4B d   1       1.657   3.633  -5.524  0.00  0.00    -0.013 C 
ATOM      9  C4' I4B d   1       1.588   3.473  -4.028  0.00  0.00     0.013 C 
ATOM     10  C3' I4B d   1       0.704   4.689  -6.000  0.00  0.00     0.013 C 
ENDBRANCH   7   8
ENDBRANCH   1   7
TORSDOF 2
ENDMDL
