MODEL 1
REMARK minimizedAffinity 1.49348009
REMARK minimizedRMSD -1
REMARK  0 active torsions:
REMARK  status: ('A' for Active; 'I' for Inactive)
ROOT
ATOM      1  C   UNL d   1       0.199   4.048   0.006  0.00  0.00     0.172 C 
ATOM      2  N   UNL d   1       1.101   2.920  -0.017  0.00  0.00    -0.070 N 
ATOM      3  C1  UNL d   1       0.742   1.615  -0.220  0.00  0.00    -0.004 A 
ATOM      4  C2  UNL d   1       1.887   0.849  -0.168  0.00  0.00    -0.047 A 
ATOM      5  C3  UNL d   1       2.971   1.726   0.075  0.00  0.00    -0.047 A 
ATOM      6  C4  UNL d   1       2.456   3.001   0.165  0.00  0.00    -0.004 A 
ENDROOT
TORSDOF 0
ENDMDL
