MODEL 1
REMARK minimizedAffinity -2.17612243
REMARK minimizedRMSD -1
REMARK  0 active torsions:
REMARK  status: ('A' for Active; 'I' for Inactive)
ROOT
ATOM      1  C   UNL d   1      -1.878   3.029  -3.654  0.00  0.00     0.172 C 
ATOM      2  N   UNL d   1      -3.082   3.301  -4.403  0.00  0.00    -0.070 N 
ATOM      3  C1  UNL d   1      -3.398   2.774  -5.627  0.00  0.00    -0.004 A 
ATOM      4  C2  UNL d   1      -4.625   3.278  -5.999  0.00  0.00    -0.047 A 
ATOM      5  C3  UNL d   1      -5.062   4.139  -4.964  0.00  0.00    -0.047 A 
ATOM      6  C4  UNL d   1      -4.088   4.135  -3.989  0.00  0.00    -0.004 A 
ENDROOT
TORSDOF 0
ENDMDL
