MODEL 1
REMARK minimizedAffinity -1.01485264
REMARK minimizedRMSD -1
REMARK  0 active torsions:
REMARK  status: ('A' for Active; 'I' for Inactive)
ROOT
ATOM      1  C   UNL d   1      -5.239   1.921  -2.587  0.00  0.00     0.172 C 
ATOM      2  N   UNL d   1      -4.238   1.228  -3.364  0.00  0.00    -0.070 N 
ATOM      3  C1  UNL d   1      -2.883   1.345  -3.206  0.00  0.00    -0.004 A 
ATOM      4  C2  UNL d   1      -2.277   0.525  -4.134  0.00  0.00    -0.047 A 
ATOM      5  C3  UNL d   1      -3.304  -0.106  -4.876  0.00  0.00    -0.047 A 
ATOM      6  C4  UNL d   1      -4.508   0.347  -4.378  0.00  0.00    -0.004 A 
ENDROOT
TORSDOF 0
ENDMDL
