MODEL 1
REMARK minimizedAffinity -0.0615390316
REMARK minimizedRMSD -1
REMARK  0 active torsions:
REMARK  status: ('A' for Active; 'I' for Inactive)
ROOT
ATOM      1  C   UNL d   1      -2.636   2.571  -3.358  0.00  0.00     0.172 C 
ATOM      2  N   UNL d   1      -3.840   1.873  -3.741  0.00  0.00    -0.070 N 
ATOM      3  C1  UNL d   1      -3.906   0.798  -4.587  0.00  0.00    -0.004 A 
ATOM      4  C2  UNL d   1      -5.228   0.425  -4.694  0.00  0.00    -0.047 A 
ATOM      5  C3  UNL d   1      -5.984   1.307  -3.886  0.00  0.00    -0.047 A 
ATOM      6  C4  UNL d   1      -5.100   2.193  -3.307  0.00  0.00    -0.004 A 
ENDROOT
TORSDOF 0
ENDMDL
