MODEL 1
REMARK minimizedAffinity -0.329812407
REMARK minimizedRMSD -1
REMARK  0 active torsions:
REMARK  status: ('A' for Active; 'I' for Inactive)
ROOT
ATOM      1  C   UNL d   1      -2.487   3.082  -3.247  0.00  0.00     0.172 C 
ATOM      2  N   UNL d   1      -3.628   2.256  -3.566  0.00  0.00    -0.070 N 
ATOM      3  C1  UNL d   1      -4.388   1.562  -2.663  0.00  0.00    -0.004 A 
ATOM      4  C2  UNL d   1      -5.375   0.902  -3.362  0.00  0.00    -0.047 A 
ATOM      5  C3  UNL d   1      -5.202   1.209  -4.733  0.00  0.00    -0.047 A 
ATOM      6  C4  UNL d   1      -4.113   2.050  -4.830  0.00  0.00    -0.004 A 
ENDROOT
TORSDOF 0
ENDMDL
