MODEL 1
REMARK minimizedAffinity -0.578754067
REMARK minimizedRMSD -1
REMARK  0 active torsions:
REMARK  status: ('A' for Active; 'I' for Inactive)
ROOT
ATOM      1  C   UNL d   1      -2.460   1.098  -3.420  0.00  0.00     0.172 C 
ATOM      2  N   UNL d   1      -3.880   1.312  -3.576  0.00  0.00    -0.070 N 
ATOM      3  C1  UNL d   1      -4.695   0.652  -4.456  0.00  0.00    -0.004 A 
ATOM      4  C2  UNL d   1      -5.973   1.141  -4.296  0.00  0.00    -0.047 A 
ATOM      5  C3  UNL d   1      -5.925   2.130  -3.285  0.00  0.00    -0.047 A 
ATOM      6  C4  UNL d   1      -4.617   2.216  -2.857  0.00  0.00    -0.004 A 
ENDROOT
TORSDOF 0
ENDMDL
