MODEL 1
REMARK minimizedAffinity -0.0901862085
REMARK minimizedRMSD -1
REMARK  0 active torsions:
REMARK  status: ('A' for Active; 'I' for Inactive)
ROOT
ATOM      1  C   UNL d   1       5.535   1.062  -0.102  0.00  0.00     0.172 C 
ATOM      2  N   UNL d   1       4.099   0.942  -0.009  0.00  0.00    -0.070 N 
ATOM      3  C1  UNL d   1       3.409  -0.218   0.222  0.00  0.00    -0.004 A 
ATOM      4  C2  UNL d   1       2.065   0.088   0.239  0.00  0.00    -0.047 A 
ATOM      5  C3  UNL d   1       1.944   1.479   0.008  0.00  0.00    -0.047 A 
ATOM      6  C4  UNL d   1       3.219   1.983  -0.142  0.00  0.00    -0.004 A 
ENDROOT
TORSDOF 0
ENDMDL
