MODEL 1
REMARK minimizedAffinity -1.30411923
REMARK minimizedRMSD -1
REMARK  0 active torsions:
REMARK  status: ('A' for Active; 'I' for Inactive)
ROOT
ATOM      1  C   UNL d   1      -5.996   3.565  -3.710  0.00  0.00     0.172 C 
ATOM      2  N   UNL d   1      -5.388   2.267  -3.881  0.00  0.00    -0.070 N 
ATOM      3  C1  UNL d   1      -6.000   1.062  -3.658  0.00  0.00    -0.004 A 
ATOM      4  C2  UNL d   1      -5.087   0.068  -3.935  0.00  0.00    -0.047 A 
ATOM      5  C3  UNL d   1      -3.885   0.696  -4.339  0.00  0.00    -0.047 A 
ATOM      6  C4  UNL d   1      -4.099   2.057  -4.296  0.00  0.00    -0.004 A 
ENDROOT
TORSDOF 0
ENDMDL
