MODEL 1
REMARK minimizedAffinity -2.05300498
REMARK minimizedRMSD -1
REMARK  0 active torsions:
REMARK  status: ('A' for Active; 'I' for Inactive)
ROOT
ATOM      1  C   UNL d   1      -6.000   4.874   2.225  0.00  0.00     0.172 C 
ATOM      2  N   UNL d   1      -5.975   4.875   3.669  0.00  0.00    -0.070 N 
ATOM      3  C1  UNL d   1      -5.924   3.763   4.467  0.00  0.00    -0.004 A 
ATOM      4  C2  UNL d   1      -5.915   4.185   5.779  0.00  0.00    -0.047 A 
ATOM      5  C3  UNL d   1      -5.963   5.600   5.769  0.00  0.00    -0.047 A 
ATOM      6  C4  UNL d   1      -6.000   6.000   4.450  0.00  0.00    -0.004 A 
ENDROOT
TORSDOF 0
ENDMDL
