MODEL 1
REMARK minimizedAffinity 3.54722857
REMARK minimizedRMSD -1
REMARK  0 active torsions:
REMARK  status: ('A' for Active; 'I' for Inactive)
ROOT
ATOM      1  C   UNL d   1       5.545   2.221  -0.677  0.00  0.00     0.172 C 
ATOM      2  N   UNL d   1       4.250   1.599  -0.527  0.00  0.00    -0.070 N 
ATOM      3  C1  UNL d   1       3.781   0.546  -1.265  0.00  0.00    -0.004 A 
ATOM      4  C2  UNL d   1       2.511   0.250  -0.818  0.00  0.00    -0.047 A 
ATOM      5  C3  UNL d   1       2.207   1.158   0.224  0.00  0.00    -0.047 A 
ATOM      6  C4  UNL d   1       3.300   1.982   0.383  0.00  0.00    -0.004 A 
ENDROOT
TORSDOF 0
ENDMDL
