MODEL 1
REMARK minimizedAffinity -1.25752306
REMARK minimizedRMSD -1
REMARK  0 active torsions:
REMARK  status: ('A' for Active; 'I' for Inactive)
ROOT
ATOM      1  C   UNL d   1      -5.727   0.628  -5.139  0.00  0.00     0.172 C 
ATOM      2  N   UNL d   1      -4.879   1.394  -4.257  0.00  0.00    -0.070 N 
ATOM      3  C1  UNL d   1      -3.548   1.163  -4.028  0.00  0.00    -0.004 A 
ATOM      4  C2  UNL d   1      -3.104   2.108  -3.129  0.00  0.00    -0.047 A 
ATOM      5  C3  UNL d   1      -4.206   2.935  -2.806  0.00  0.00    -0.047 A 
ATOM      6  C4  UNL d   1      -5.291   2.471  -3.518  0.00  0.00    -0.004 A 
ENDROOT
TORSDOF 0
ENDMDL
