MODEL 1
REMARK minimizedAffinity -2.34921908
REMARK minimizedRMSD -1
REMARK  0 active torsions:
REMARK  status: ('A' for Active; 'I' for Inactive)
ROOT
ATOM      1  C   UNL d   1      -3.650   0.378  -4.122  0.00  0.00     0.172 C 
ATOM      2  N   UNL d   1      -4.556   0.747  -3.060  0.00  0.00    -0.070 N 
ATOM      3  C1  UNL d   1      -4.864  -0.023  -1.970  0.00  0.00    -0.004 A 
ATOM      4  C2  UNL d   1      -5.760   0.681  -1.196  0.00  0.00    -0.047 A 
ATOM      5  C3  UNL d   1      -5.999   1.917  -1.843  0.00  0.00    -0.047 A 
ATOM      6  C4  UNL d   1      -5.241   1.931  -2.994  0.00  0.00    -0.004 A 
ENDROOT
TORSDOF 0
ENDMDL
