MODEL 1
REMARK minimizedAffinity -1.9332242
REMARK minimizedRMSD -1
REMARK  0 active torsions:
REMARK  status: ('A' for Active; 'I' for Inactive)
ROOT
ATOM      1  C1  BNZ d   1       4.617   5.975   2.444  0.00  0.00     0.000 A 
ATOM      2  C2  BNZ d   1       3.291   5.970   2.101  0.00  0.00     0.000 A 
ATOM      3  C3  BNZ d   1       2.319   6.000   3.062  0.00  0.00     0.000 A 
ATOM      4  C4  BNZ d   1       2.673   5.995   4.363  0.00  0.00     0.000 A 
ATOM      5  C5  BNZ d   1       4.005   5.991   4.725  0.00  0.00     0.000 A 
ATOM      6  C6  BNZ d   1       4.981   6.000   3.755  0.00  0.00     0.000 A 
ENDROOT
TORSDOF 0
ENDMDL
