MODEL 1
REMARK minimizedAffinity 0.303364038
REMARK minimizedRMSD -1
REMARK  0 active torsions:
REMARK  status: ('A' for Active; 'I' for Inactive)
ROOT
ATOM      1  C1  BNZ d   1       3.744   4.870   2.338  0.00  0.00     0.000 A 
ATOM      2  C2  BNZ d   1       2.970   5.994   2.451  0.00  0.00     0.000 A 
ATOM      3  C3  BNZ d   1       1.855   5.999   3.241  0.00  0.00     0.000 A 
ATOM      4  C4  BNZ d   1       1.492   4.870   3.884  0.00  0.00     0.000 A 
ATOM      5  C5  BNZ d   1       2.257   3.726   3.773  0.00  0.00     0.000 A 
ATOM      6  C6  BNZ d   1       3.401   3.736   3.008  0.00  0.00     0.000 A 
ENDROOT
TORSDOF 0
ENDMDL
