MODEL 1
REMARK minimizedAffinity -2.40458035
REMARK minimizedRMSD -1
REMARK  0 active torsions:
REMARK  status: ('A' for Active; 'I' for Inactive)
ROOT
ATOM      1  C1  BNZ d   1       1.425   5.957   4.185  0.00  0.00     0.000 A 
ATOM      2  C2  BNZ d   1       1.936   5.973   2.915  0.00  0.00     0.000 A 
ATOM      3  C3  BNZ d   1       3.286   5.975   2.703  0.00  0.00     0.000 A 
ATOM      4  C4  BNZ d   1       4.123   6.000   3.760  0.00  0.00     0.000 A 
ATOM      5  C5  BNZ d   1       3.623   5.993   5.047  0.00  0.00     0.000 A 
ATOM      6  C6  BNZ d   1       2.264   5.952   5.257  0.00  0.00     0.000 A 
ENDROOT
TORSDOF 0
ENDMDL
