MODEL 1
REMARK minimizedAffinity 7.91700363
REMARK minimizedRMSD -1
REMARK  0 active torsions:
REMARK  status: ('A' for Active; 'I' for Inactive)
ROOT
ATOM      1  C   UNL d   1       5.378   1.720   1.120  0.00  0.00     0.172 C 
ATOM      2  N   UNL d   1       4.479   1.030   0.225  0.00  0.00    -0.070 N 
ATOM      3  C1  UNL d   1       3.359   0.335   0.597  0.00  0.00    -0.004 A 
ATOM      4  C2  UNL d   1       2.778  -0.173  -0.544  0.00  0.00    -0.047 A 
ATOM      5  C3  UNL d   1       3.576   0.230  -1.641  0.00  0.00    -0.047 A 
ATOM      6  C4  UNL d   1       4.623   0.973  -1.136  0.00  0.00    -0.004 A 
ENDROOT
TORSDOF 0
ENDMDL
