MODEL 1
REMARK minimizedAffinity 7.10064459
REMARK minimizedRMSD -1
REMARK  0 active torsions:
REMARK  status: ('A' for Active; 'I' for Inactive)
ROOT
ATOM      1  C   UNL d   1       1.194   0.444   0.136  0.00  0.00     0.172 C 
ATOM      2  N   UNL d   1       2.556   0.097  -0.195  0.00  0.00    -0.070 N 
ATOM      3  C1  UNL d   1       2.944  -0.956  -0.981  0.00  0.00    -0.004 A 
ATOM      4  C2  UNL d   1       4.320  -0.944  -1.054  0.00  0.00    -0.047 A 
ATOM      5  C3  UNL d   1       4.775   0.154  -0.285  0.00  0.00    -0.047 A 
ATOM      6  C4  UNL d   1       3.663   0.781   0.235  0.00  0.00    -0.004 A 
ENDROOT
TORSDOF 0
ENDMDL
