MODEL 1
REMARK minimizedAffinity 3.78466272
REMARK minimizedRMSD -1
REMARK  0 active torsions:
REMARK  status: ('A' for Active; 'I' for Inactive)
ROOT
ATOM      1  C   UNL d   1      -0.097  -5.623   6.000  0.00  0.00     0.172 C 
ATOM      2  N   UNL d   1       0.621  -4.531   5.386  0.00  0.00    -0.070 N 
ATOM      3  C1  UNL d   1       0.199  -3.807   4.303  0.00  0.00    -0.004 A 
ATOM      4  C2  UNL d   1       1.162  -2.860   4.027  0.00  0.00    -0.047 A 
ATOM      5  C3  UNL d   1       2.200  -3.022   4.976  0.00  0.00    -0.047 A 
ATOM      6  C4  UNL d   1       1.839  -4.064   5.805  0.00  0.00    -0.004 A 
ENDROOT
TORSDOF 0
ENDMDL
