MODEL 1
REMARK minimizedAffinity 3.15673828
REMARK minimizedRMSD -1
REMARK  0 active torsions:
REMARK  status: ('A' for Active; 'I' for Inactive)
ROOT
ATOM      1  C   UNL d   1      -1.078  -5.267   5.993  0.00  0.00     0.172 C 
ATOM      2  N   UNL d   1      -0.037  -4.420   5.459  0.00  0.00    -0.070 N 
ATOM      3  C1  UNL d   1       1.210  -4.251   6.000  0.00  0.00    -0.004 A 
ATOM      4  C2  UNL d   1       1.901  -3.369   5.198  0.00  0.00    -0.047 A 
ATOM      5  C3  UNL d   1       1.040  -2.995   4.139  0.00  0.00    -0.047 A 
ATOM      6  C4  UNL d   1      -0.153  -3.660   4.325  0.00  0.00    -0.004 A 
ENDROOT
TORSDOF 0
ENDMDL
