MODEL 1
REMARK minimizedAffinity 7.22429609
REMARK minimizedRMSD -1
REMARK  0 active torsions:
REMARK  status: ('A' for Active; 'I' for Inactive)
ROOT
ATOM      1  C   UNL d   1       5.243   2.494  -1.116  0.00  0.00     0.172 C 
ATOM      2  N   UNL d   1       5.551   3.905  -1.141  0.00  0.00    -0.070 N 
ATOM      3  C1  UNL d   1       5.720   4.665  -2.268  0.00  0.00    -0.004 A 
ATOM      4  C2  UNL d   1       6.000   5.954  -1.869  0.00  0.00    -0.047 A 
ATOM      5  C3  UNL d   1       5.998   5.969  -0.454  0.00  0.00    -0.047 A 
ATOM      6  C4  UNL d   1       5.718   4.687  -0.030  0.00  0.00    -0.004 A 
ENDROOT
TORSDOF 0
ENDMDL
