MODEL 1
REMARK minimizedAffinity 6.38817835
REMARK minimizedRMSD -1
REMARK  0 active torsions:
REMARK  status: ('A' for Active; 'I' for Inactive)
ROOT
ATOM      1  C   UNL d   1       2.727  -0.026  -0.692  0.00  0.00     0.172 C 
ATOM      2  N   UNL d   1       3.959   0.726  -0.757  0.00  0.00    -0.070 N 
ATOM      3  C1  UNL d   1       4.652   1.025  -1.899  0.00  0.00    -0.004 A 
ATOM      4  C2  UNL d   1       5.766   1.752  -1.539  0.00  0.00    -0.047 A 
ATOM      5  C3  UNL d   1       5.741   1.894  -0.131  0.00  0.00    -0.047 A 
ATOM      6  C4  UNL d   1       4.612   1.249   0.327  0.00  0.00    -0.004 A 
ENDROOT
TORSDOF 0
ENDMDL
