MODEL 1
REMARK minimizedAffinity 5.25077724
REMARK minimizedRMSD -1
REMARK  0 active torsions:
REMARK  status: ('A' for Active; 'I' for Inactive)
ROOT
ATOM      1  C   UNL d   1       4.885   2.534  -0.030  0.00  0.00     0.172 C 
ATOM      2  N   UNL d   1       4.243   1.270  -0.303  0.00  0.00    -0.070 N 
ATOM      3  C1  UNL d   1       3.055   0.846   0.230  0.00  0.00    -0.004 A 
ATOM      4  C2  UNL d   1       2.787  -0.407  -0.278  0.00  0.00    -0.047 A 
ATOM      5  C3  UNL d   1       3.851  -0.748  -1.146  0.00  0.00    -0.047 A 
ATOM      6  C4  UNL d   1       4.738   0.307  -1.143  0.00  0.00    -0.004 A 
ENDROOT
TORSDOF 0
ENDMDL
