MODEL 1
REMARK minimizedAffinity 9.68861866
REMARK minimizedRMSD -1
REMARK  0 active torsions:
REMARK  status: ('A' for Active; 'I' for Inactive)
ROOT
ATOM      1  C   UNL d   1       2.371  -0.761  -1.160  0.00  0.00     0.172 C 
ATOM      2  N   UNL d   1       3.585  -0.029  -0.885  0.00  0.00    -0.070 N 
ATOM      3  C1  UNL d   1       3.944   0.495   0.328  0.00  0.00    -0.004 A 
ATOM      4  C2  UNL d   1       5.165   1.115   0.175  0.00  0.00    -0.047 A 
ATOM      5  C3  UNL d   1       5.553   0.959  -1.177  0.00  0.00    -0.047 A 
ATOM      6  C4  UNL d   1       4.556   0.247  -1.810  0.00  0.00    -0.004 A 
ENDROOT
TORSDOF 0
ENDMDL
