MODEL 1
REMARK minimizedAffinity -6.26732302
REMARK minimizedRMSD -1
REMARK  2 active torsions:
REMARK  status: ('A' for Active; 'I' for Inactive)
REMARK    1  A    between atoms: C1_2  and  C2_3 
REMARK    2  A    between atoms: C2_3  and  C3_4 
ROOT
ATOM      1  C3  UNL d   1      -0.156  -0.165   0.594  0.00  0.00    -0.075 A 
ATOM      2  C4  UNL d   1       0.764   0.074   1.625  0.00  0.00     0.002 A 
ATOM      3  C5  UNL d   1       0.338   0.580   2.853  0.00  0.00     0.002 A 
ATOM      4  C6  UNL d   1      -1.010   0.863   3.062  0.00  0.00    -0.004 A 
ATOM      5  C7  UNL d   1      -1.931   0.647   2.040  0.00  0.00     0.002 A 
ATOM      6  C8  UNL d   1      -1.508   0.136   0.811  0.00  0.00     0.002 A 
ENDROOT
BRANCH   1   7
ATOM      7  C2  UNL d   1       0.295  -0.740  -0.727  0.00  0.00     0.056 C 
BRANCH   7   8
ATOM      8  C1  UNL d   1       0.076  -2.251  -0.857  0.00  0.00     0.007 C 
ATOM      9  C   UNL d   1      -1.048  -2.615  -1.817  0.00  0.00     0.009 C 
ENDBRANCH   7   8
ENDBRANCH   1   7
TORSDOF 2
ENDMDL
