MODEL 1
REMARK minimizedAffinity -3.33134055
REMARK minimizedRMSD -1
REMARK  2 active torsions:
REMARK  status: ('A' for Active; 'I' for Inactive)
REMARK    1  A    between atoms: C1_2  and  C2_3 
REMARK    2  A    between atoms: C2_3  and  C3_4 
ROOT
ATOM      1  C3  UNL d   1      -0.595  -1.575  -1.135  0.00  0.00    -0.075 A 
ATOM      2  C4  UNL d   1       0.728  -2.023  -1.008  0.00  0.00     0.002 A 
ATOM      3  C5  UNL d   1       1.614  -1.379  -0.143  0.00  0.00     0.002 A 
ATOM      4  C6  UNL d   1       1.193  -0.276   0.596  0.00  0.00    -0.004 A 
ATOM      5  C7  UNL d   1      -0.115   0.188   0.464  0.00  0.00     0.002 A 
ATOM      6  C8  UNL d   1      -1.004  -0.457  -0.397  0.00  0.00     0.002 A 
ENDROOT
BRANCH   1   7
ATOM      7  C2  UNL d   1      -1.566  -2.285  -2.047  0.00  0.00     0.056 C 
BRANCH   7   8
ATOM      8  C1  UNL d   1      -2.831  -2.787  -1.342  0.00  0.00     0.007 C 
ATOM      9  C   UNL d   1      -4.114  -2.403  -2.065  0.00  0.00     0.009 C 
ENDBRANCH   7   8
ENDBRANCH   1   7
TORSDOF 2
ENDMDL
