MODEL 1
REMARK minimizedAffinity 0.402471691
REMARK minimizedRMSD -1
REMARK  2 active torsions:
REMARK  status: ('A' for Active; 'I' for Inactive)
REMARK    1  A    between atoms: C1_2  and  C2_3 
REMARK    2  A    between atoms: C2_3  and  C3_4 
ROOT
ATOM      1  C3  UNL d   1       0.362   0.529  -2.519  0.00  0.00    -0.075 A 
ATOM      2  C4  UNL d   1      -0.086  -0.161  -3.655  0.00  0.00     0.002 A 
ATOM      3  C5  UNL d   1       0.661  -0.147  -4.833  0.00  0.00     0.002 A 
ATOM      4  C6  UNL d   1       1.858   0.563  -4.894  0.00  0.00    -0.004 A 
ATOM      5  C7  UNL d   1       2.305   1.266  -3.777  0.00  0.00     0.002 A 
ATOM      6  C8  UNL d   1       1.561   1.250  -2.596  0.00  0.00     0.002 A 
ENDROOT
BRANCH   1   7
ATOM      7  C2  UNL d   1      -0.427   0.495  -1.232  0.00  0.00     0.056 C 
BRANCH   7   8
ATOM      8  C1  UNL d   1       0.241  -0.311  -0.113  0.00  0.00     0.007 C 
ATOM      9  C   UNL d   1       0.306   0.439   1.211  0.00  0.00     0.009 C 
ENDBRANCH   7   8
ENDBRANCH   1   7
TORSDOF 2
ENDMDL
