MODEL 1
REMARK minimizedAffinity -0.967585504
REMARK minimizedRMSD -1
REMARK  2 active torsions:
REMARK  status: ('A' for Active; 'I' for Inactive)
REMARK    1  A    between atoms: C1_2  and  C2_3 
REMARK    2  A    between atoms: C2_3  and  C3_4 
ROOT
ATOM      1  C3  UNL d   1      -0.105  -0.953  -0.953  0.00  0.00    -0.075 A 
ATOM      2  C4  UNL d   1       1.165  -1.522  -0.779  0.00  0.00     0.002 A 
ATOM      3  C5  UNL d   1       1.963  -1.153   0.304  0.00  0.00     0.002 A 
ATOM      4  C6  UNL d   1       1.508  -0.205   1.218  0.00  0.00    -0.004 A 
ATOM      5  C7  UNL d   1       0.255   0.378   1.045  0.00  0.00     0.002 A 
ATOM      6  C8  UNL d   1      -0.548   0.008  -0.035  0.00  0.00     0.002 A 
ENDROOT
BRANCH   1   7
ATOM      7  C2  UNL d   1      -0.987  -1.370  -2.106  0.00  0.00     0.056 C 
BRANCH   7   8
ATOM      8  C1  UNL d   1      -1.510  -2.807  -2.004  0.00  0.00     0.007 C 
ATOM      9  C   UNL d   1      -2.999  -2.883  -1.697  0.00  0.00     0.009 C 
ENDBRANCH   7   8
ENDBRANCH   1   7
TORSDOF 2
ENDMDL
