MODEL 1
REMARK minimizedAffinity -3.16548944
REMARK minimizedRMSD -1
REMARK  2 active torsions:
REMARK  status: ('A' for Active; 'I' for Inactive)
REMARK    1  A    between atoms: C1_2  and  C2_3 
REMARK    2  A    between atoms: C2_3  and  C3_4 
ROOT
ATOM      1  C3  UNL d   1      -1.709  -0.742   0.174  0.00  0.00    -0.075 A 
ATOM      2  C4  UNL d   1      -0.666  -1.259  -0.609  0.00  0.00     0.002 A 
ATOM      3  C5  UNL d   1       0.658  -0.911  -0.344  0.00  0.00     0.002 A 
ATOM      4  C6  UNL d   1       0.956  -0.035   0.698  0.00  0.00    -0.004 A 
ATOM      5  C7  UNL d   1      -0.073   0.497   1.472  0.00  0.00     0.002 A 
ATOM      6  C8  UNL d   1      -1.399   0.147   1.212  0.00  0.00     0.002 A 
ENDROOT
BRANCH   1   7
ATOM      7  C2  UNL d   1      -3.142  -1.138  -0.089  0.00  0.00     0.056 C 
BRANCH   7   8
ATOM      8  C1  UNL d   1      -3.298  -2.504  -0.765  0.00  0.00     0.007 C 
ATOM      9  C   UNL d   1      -4.732  -2.812  -1.174  0.00  0.00     0.009 C 
ENDBRANCH   7   8
ENDBRANCH   1   7
TORSDOF 2
ENDMDL
