MODEL 1
REMARK minimizedAffinity -4.52127743
REMARK minimizedRMSD -1
REMARK  3 active torsions:
REMARK  status: ('A' for Active; 'I' for Inactive)
REMARK    1  A    between atoms: C3'_2  and  C2'_3 
REMARK    2  A    between atoms: C2'_3  and  C1'_4 
REMARK    3  A    between atoms: C1'_4  and  C1_5 
ROOT
ATOM      1  C1  N4B d   1       0.451  -0.616  -0.040  0.00  0.00    -0.075 A 
ATOM      2  C2  N4B d   1       0.491  -1.044   1.305  0.00  0.00     0.002 A 
ATOM      3  C3  N4B d   1      -0.318  -0.447   2.241  0.00  0.00     0.002 A 
ATOM      4  C4  N4B d   1      -1.157   0.589   1.860  0.00  0.00    -0.004 A 
ATOM      5  C5  N4B d   1      -1.209   0.980   0.553  0.00  0.00     0.002 A 
ATOM      6  C6  N4B d   1      -0.404   0.386  -0.398  0.00  0.00     0.002 A 
ENDROOT
BRANCH   1   7
ATOM      7  C1' N4B d   1       1.379  -1.181  -1.081  0.00  0.00     0.057 C 
BRANCH   7   8
ATOM      8  C2' N4B d   1       1.029  -2.646  -1.321  0.00  0.00     0.009 C 
BRANCH   8   9
ATOM      9  C3' N4B d   1       0.854  -2.954  -2.798  0.00  0.00     0.004 C 
ATOM     10  C4' N4B d   1       0.335  -4.339  -3.045  0.00  0.00     0.003 C 
ENDBRANCH   8   9
ENDBRANCH   7   8
ENDBRANCH   1   7
TORSDOF 3
ENDMDL
