MODEL 1
REMARK minimizedAffinity -4.56040668
REMARK minimizedRMSD -1
REMARK  3 active torsions:
REMARK  status: ('A' for Active; 'I' for Inactive)
REMARK    1  A    between atoms: C3'_2  and  C2'_3 
REMARK    2  A    between atoms: C2'_3  and  C1'_4 
REMARK    3  A    between atoms: C1'_4  and  C1_5 
ROOT
ATOM      1  C1  N4B d   1       0.499   0.115  -0.499  0.00  0.00    -0.075 A 
ATOM      2  C2  N4B d   1       0.319   1.415  -1.022  0.00  0.00     0.002 A 
ATOM      3  C3  N4B d   1      -0.520   2.300  -0.390  0.00  0.00     0.002 A 
ATOM      4  C4  N4B d   1      -1.202   1.903   0.750  0.00  0.00    -0.004 A 
ATOM      5  C5  N4B d   1      -1.004   0.655   1.263  0.00  0.00     0.002 A 
ATOM      6  C6  N4B d   1      -0.160  -0.244   0.641  0.00  0.00     0.002 A 
ENDROOT
BRANCH   1   7
ATOM      7  C1' N4B d   1       1.339  -0.915  -1.202  0.00  0.00     0.057 C 
BRANCH   7   8
ATOM      8  C2' N4B d   1       0.774  -2.303  -0.915  0.00  0.00     0.009 C 
BRANCH   8   9
ATOM      9  C3' N4B d   1       1.038  -3.271  -2.056  0.00  0.00     0.004 C 
ATOM     10  C4' N4B d   1       0.129  -3.049  -3.228  0.00  0.00     0.003 C 
ENDBRANCH   8   9
ENDBRANCH   7   8
ENDBRANCH   1   7
TORSDOF 3
ENDMDL
