MODEL 1
REMARK minimizedAffinity -3.98618937
REMARK minimizedRMSD -1
REMARK  3 active torsions:
REMARK  status: ('A' for Active; 'I' for Inactive)
REMARK    1  A    between atoms: C3'_2  and  C2'_3 
REMARK    2  A    between atoms: C2'_3  and  C1'_4 
REMARK    3  A    between atoms: C1'_4  and  C1_5 
ROOT
ATOM      1  C1  N4B d   1       0.835  -0.807  -1.482  0.00  0.00    -0.075 A 
ATOM      2  C2  N4B d   1       0.573  -1.259  -2.794  0.00  0.00     0.002 A 
ATOM      3  C3  N4B d   1       0.874  -2.551  -3.147  0.00  0.00     0.002 A 
ATOM      4  C4  N4B d   1       1.452  -3.401  -2.216  0.00  0.00    -0.004 A 
ATOM      5  C5  N4B d   1       1.678  -2.964  -0.943  0.00  0.00     0.002 A 
ATOM      6  C6  N4B d   1       1.377  -1.669  -0.573  0.00  0.00     0.002 A 
ENDROOT
BRANCH   1   7
ATOM      7  C1' N4B d   1       0.603   0.622  -1.073  0.00  0.00     0.057 C 
BRANCH   7   8
ATOM      8  C2' N4B d   1      -0.558   0.678  -0.084  0.00  0.00     0.009 C 
BRANCH   8   9
ATOM      9  C3' N4B d   1      -1.898   0.805  -0.787  0.00  0.00     0.004 C 
ATOM     10  C4' N4B d   1      -2.867   1.671  -0.038  0.00  0.00     0.003 C 
ENDBRANCH   8   9
ENDBRANCH   7   8
ENDBRANCH   1   7
TORSDOF 3
ENDMDL
