MODEL 1
REMARK minimizedAffinity -6.02705145
REMARK minimizedRMSD -1
REMARK  3 active torsions:
REMARK  status: ('A' for Active; 'I' for Inactive)
REMARK    1  A    between atoms: C3'_2  and  C2'_3 
REMARK    2  A    between atoms: C2'_3  and  C1'_4 
REMARK    3  A    between atoms: C1'_4  and  C1_5 
ROOT
ATOM      1  C1  N4B d   1      -0.770   0.808   0.332  0.00  0.00    -0.075 A 
ATOM      2  C2  N4B d   1      -1.590   1.329   1.357  0.00  0.00     0.002 A 
ATOM      3  C3  N4B d   1      -1.885   2.670   1.386  0.00  0.00     0.002 A 
ATOM      4  C4  N4B d   1      -1.358   3.509   0.415  0.00  0.00    -0.004 A 
ATOM      5  C5  N4B d   1      -0.588   2.994  -0.586  0.00  0.00     0.002 A 
ATOM      6  C6  N4B d   1      -0.286   1.648  -0.629  0.00  0.00     0.002 A 
ENDROOT
BRANCH   1   7
ATOM      7  C1' N4B d   1      -0.350  -0.636   0.308  0.00  0.00     0.057 C 
BRANCH   7   8
ATOM      8  C2' N4B d   1       1.007  -0.751  -0.381  0.00  0.00     0.009 C 
BRANCH   8   9
ATOM      9  C3' N4B d   1       0.976  -1.741  -1.533  0.00  0.00     0.004 C 
ATOM     10  C4' N4B d   1       1.641  -3.043  -1.198  0.00  0.00     0.003 C 
ENDBRANCH   8   9
ENDBRANCH   7   8
ENDBRANCH   1   7
TORSDOF 3
ENDMDL
