MODEL 1
REMARK minimizedAffinity -3.91643071
REMARK minimizedRMSD -1
REMARK  3 active torsions:
REMARK  status: ('A' for Active; 'I' for Inactive)
REMARK    1  A    between atoms: C3'_2  and  C2'_3 
REMARK    2  A    between atoms: C2'_3  and  C1'_4 
REMARK    3  A    between atoms: C1'_4  and  C1_5 
ROOT
ATOM      1  C1  N4B d   1      -0.902   1.101  -0.302  0.00  0.00    -0.075 A 
ATOM      2  C2  N4B d   1       0.090   1.922  -0.880  0.00  0.00     0.002 A 
ATOM      3  C3  N4B d   1       1.317   1.394  -1.201  0.00  0.00     0.002 A 
ATOM      4  C4  N4B d   1       1.579   0.058  -0.937  0.00  0.00    -0.004 A 
ATOM      5  C5  N4B d   1       0.606  -0.734  -0.402  0.00  0.00     0.002 A 
ATOM      6  C6  N4B d   1      -0.632  -0.218  -0.078  0.00  0.00     0.002 A 
ENDROOT
BRANCH   1   7
ATOM      7  C1' N4B d   1      -2.229   1.652   0.144  0.00  0.00     0.057 C 
BRANCH   7   8
ATOM      8  C2' N4B d   1      -2.038   2.417   1.451  0.00  0.00     0.009 C 
BRANCH   8   9
ATOM      9  C3' N4B d   1      -1.031   1.739   2.364  0.00  0.00     0.004 C 
ATOM     10  C4' N4B d   1      -0.055   2.704   2.969  0.00  0.00     0.003 C 
ENDBRANCH   8   9
ENDBRANCH   7   8
ENDBRANCH   1   7
TORSDOF 3
ENDMDL
