MODEL 1
REMARK minimizedAffinity -4.56370878
REMARK minimizedRMSD -1
REMARK  3 active torsions:
REMARK  status: ('A' for Active; 'I' for Inactive)
REMARK    1  A    between atoms: C3'_2  and  C2'_3 
REMARK    2  A    between atoms: C2'_3  and  C1'_4 
REMARK    3  A    between atoms: C1'_4  and  C1_5 
ROOT
ATOM      1  C1  N4B d   1       0.073   0.293   0.235  0.00  0.00    -0.075 A 
ATOM      2  C2  N4B d   1       0.293   0.698   1.570  0.00  0.00     0.002 A 
ATOM      3  C3  N4B d   1      -0.581   1.566   2.176  0.00  0.00     0.002 A 
ATOM      4  C4  N4B d   1      -1.666   2.057   1.465  0.00  0.00    -0.004 A 
ATOM      5  C5  N4B d   1      -1.885   1.641   0.184  0.00  0.00     0.002 A 
ATOM      6  C6  N4B d   1      -1.017   0.765  -0.437  0.00  0.00     0.002 A 
ENDROOT
BRANCH   1   7
ATOM      7  C1' N4B d   1       1.048  -0.588  -0.498  0.00  0.00     0.057 C 
BRANCH   7   8
ATOM      8  C2' N4B d   1       0.308  -1.349  -1.594  0.00  0.00     0.009 C 
BRANCH   8   9
ATOM      9  C3' N4B d   1       0.801  -2.780  -1.724  0.00  0.00     0.004 C 
ATOM     10  C4' N4B d   1       1.957  -3.081  -0.817  0.00  0.00     0.003 C 
ENDBRANCH   8   9
ENDBRANCH   7   8
ENDBRANCH   1   7
TORSDOF 3
ENDMDL
