MODEL 1
REMARK minimizedAffinity -4.78573656
REMARK minimizedRMSD -1
REMARK  3 active torsions:
REMARK  status: ('A' for Active; 'I' for Inactive)
REMARK    1  A    between atoms: C3'_2  and  C2'_3 
REMARK    2  A    between atoms: C2'_3  and  C1'_4 
REMARK    3  A    between atoms: C1'_4  and  C1_5 
ROOT
ATOM      1  C1  N4B d   1       0.115   0.297   0.215  0.00  0.00    -0.075 A 
ATOM      2  C2  N4B d   1      -0.639   1.428  -0.169  0.00  0.00     0.002 A 
ATOM      3  C3  N4B d   1      -1.415   2.082   0.756  0.00  0.00     0.002 A 
ATOM      4  C4  N4B d   1      -1.468   1.614   2.061  0.00  0.00    -0.004 A 
ATOM      5  C5  N4B d   1      -0.717   0.537   2.430  0.00  0.00     0.002 A 
ATOM      6  C6  N4B d   1       0.071  -0.128   1.511  0.00  0.00     0.002 A 
ENDROOT
BRANCH   1   7
ATOM      7  C1' N4B d   1       0.911  -0.502  -0.780  0.00  0.00     0.057 C 
BRANCH   7   8
ATOM      8  C2' N4B d   1       0.005  -1.550  -1.420  0.00  0.00     0.009 C 
BRANCH   8   9
ATOM      9  C3' N4B d   1       0.799  -2.602  -2.175  0.00  0.00     0.004 C 
ATOM     10  C4' N4B d   1      -0.003  -3.274  -3.250  0.00  0.00     0.003 C 
ENDBRANCH   8   9
ENDBRANCH   7   8
ENDBRANCH   1   7
TORSDOF 3
ENDMDL
