MODEL 1
REMARK minimizedAffinity -5.64894152
REMARK minimizedRMSD -1
REMARK  3 active torsions:
REMARK  status: ('A' for Active; 'I' for Inactive)
REMARK    1  A    between atoms: C3'_2  and  C2'_3 
REMARK    2  A    between atoms: C2'_3  and  C1'_4 
REMARK    3  A    between atoms: C1'_4  and  C1_5 
ROOT
ATOM      1  C1  N4B d   1      -0.001   0.349  -0.111  0.00  0.00    -0.075 A 
ATOM      2  C2  N4B d   1      -0.594  -0.284   1.003  0.00  0.00     0.002 A 
ATOM      3  C3  N4B d   1      -1.626   0.329   1.672  0.00  0.00     0.002 A 
ATOM      4  C4  N4B d   1      -2.066   1.577   1.258  0.00  0.00    -0.004 A 
ATOM      5  C5  N4B d   1      -1.505   2.170   0.165  0.00  0.00     0.002 A 
ATOM      6  C6  N4B d   1      -0.471   1.564  -0.519  0.00  0.00     0.002 A 
ENDROOT
BRANCH   1   7
ATOM      7  C1' N4B d   1       1.186  -0.242  -0.822  0.00  0.00     0.057 C 
BRANCH   7   8
ATOM      8  C2' N4B d   1       1.146  -1.761  -0.684  0.00  0.00     0.009 C 
BRANCH   8   9
ATOM      9  C3' N4B d   1       1.090  -2.453  -2.035  0.00  0.00     0.004 C 
ATOM     10  C4' N4B d   1      -0.024  -3.453  -2.129  0.00  0.00     0.003 C 
ENDBRANCH   8   9
ENDBRANCH   7   8
ENDBRANCH   1   7
TORSDOF 3
ENDMDL
