MODEL 1
REMARK minimizedAffinity -3.30201054
REMARK minimizedRMSD -1
REMARK  1 active torsions:
REMARK  status: ('A' for Active; 'I' for Inactive)
REMARK    1  A    between atoms: C1_2  and  C2_3 
ROOT
ATOM      1  C2  UNL d   1      -0.383   0.227  -0.372  0.00  0.00    -0.076 A 
ATOM      2  C3  UNL d   1       0.941  -0.235  -0.466  0.00  0.00     0.004 A 
ATOM      3  C4  UNL d   1       1.575  -0.823   0.628  0.00  0.00    -0.003 A 
ATOM      4  C5  UNL d   1       0.895  -0.960   1.832  0.00  0.00     0.000 A 
ATOM      5  C6  UNL d   1      -0.426  -0.524   1.938  0.00  0.00     0.000 A 
ATOM      6  C7  UNL d   1      -1.085   0.056   0.841  0.00  0.00    -0.073 A 
ATOM      7  C8  UNL d   1      -2.507   0.514   1.013  0.00  0.00     0.078 C 
ENDROOT
BRANCH   1   8
ATOM      8  C1  UNL d   1      -1.010   0.881  -1.582  0.00  0.00     0.053 C 
ATOM      9  C   UNL d   1      -0.278   2.144  -2.007  0.00  0.00     0.018 C 
ENDBRANCH   1   8
TORSDOF 1
ENDMDL
