MODEL 1
REMARK minimizedAffinity -2.12955618
REMARK minimizedRMSD -1
REMARK  1 active torsions:
REMARK  status: ('A' for Active; 'I' for Inactive)
REMARK    1  A    between atoms: C1_2  and  C2_3 
ROOT
ATOM      1  C2  UNL d   1       0.601  -0.670   0.976  0.00  0.00    -0.076 A 
ATOM      2  C3  UNL d   1      -0.732  -0.277   1.184  0.00  0.00     0.004 A 
ATOM      3  C4  UNL d   1      -1.517   0.185   0.129  0.00  0.00    -0.003 A 
ATOM      4  C5  UNL d   1      -0.981   0.260  -1.152  0.00  0.00     0.000 A 
ATOM      5  C6  UNL d   1       0.334  -0.143  -1.380  0.00  0.00     0.000 A 
ATOM      6  C7  UNL d   1       1.134  -0.626  -0.330  0.00  0.00    -0.073 A 
ATOM      7  C8  UNL d   1       2.548  -1.041  -0.632  0.00  0.00     0.078 C 
ENDROOT
BRANCH   1   8
ATOM      8  C1  UNL d   1       1.413  -1.137   2.164  0.00  0.00     0.053 C 
ATOM      9  C   UNL d   1       0.615  -2.033   3.099  0.00  0.00     0.018 C 
ENDBRANCH   1   8
TORSDOF 1
ENDMDL
