MODEL 1
REMARK minimizedAffinity -2.76895523
REMARK minimizedRMSD -1
REMARK  1 active torsions:
REMARK  status: ('A' for Active; 'I' for Inactive)
REMARK    1  A    between atoms: C1_2  and  C2_3 
ROOT
ATOM      1  C2  UNL d   1      -0.333  -0.272  -0.176  0.00  0.00    -0.076 A 
ATOM      2  C3  UNL d   1      -1.471   0.001   0.603  0.00  0.00     0.004 A 
ATOM      3  C4  UNL d   1      -1.473  -0.237   1.977  0.00  0.00    -0.003 A 
ATOM      4  C5  UNL d   1      -0.338  -0.750   2.593  0.00  0.00     0.000 A 
ATOM      5  C6  UNL d   1       0.806  -1.010   1.839  0.00  0.00     0.000 A 
ATOM      6  C7  UNL d   1       0.831  -0.761   0.456  0.00  0.00    -0.073 A 
ATOM      7  C8  UNL d   1       2.089  -1.065  -0.310  0.00  0.00     0.078 C 
ENDROOT
BRANCH   1   8
ATOM      8  C1  UNL d   1      -0.397  -0.019  -1.665  0.00  0.00     0.053 C 
ATOM      9  C   UNL d   1      -1.374   1.089  -2.027  0.00  0.00     0.018 C 
ENDBRANCH   1   8
TORSDOF 1
ENDMDL
