MODEL 1
REMARK minimizedAffinity 0.889536798
REMARK minimizedRMSD -1
REMARK  1 active torsions:
REMARK  status: ('A' for Active; 'I' for Inactive)
REMARK    1  A    between atoms: C1_2  and  C2_3 
ROOT
ATOM      1  C2  UNL d   1       0.712  -1.149   1.669  0.00  0.00    -0.076 A 
ATOM      2  C3  UNL d   1      -0.000  -1.090   0.458  0.00  0.00     0.004 A 
ATOM      3  C4  UNL d   1       0.660  -1.172  -0.767  0.00  0.00    -0.003 A 
ATOM      4  C5  UNL d   1       2.042  -1.316  -0.801  0.00  0.00     0.000 A 
ATOM      5  C6  UNL d   1       2.763  -1.394   0.391  0.00  0.00     0.000 A 
ATOM      6  C7  UNL d   1       2.111  -1.329   1.634  0.00  0.00    -0.073 A 
ATOM      7  C8  UNL d   1       2.938  -1.412   2.888  0.00  0.00     0.078 C 
ENDROOT
BRANCH   1   8
ATOM      8  C1  UNL d   1      -0.055  -1.027   2.967  0.00  0.00     0.053 C 
ATOM      9  C   UNL d   1       0.037   0.367   3.569  0.00  0.00     0.018 C 
ENDBRANCH   1   8
TORSDOF 1
ENDMDL
