MODEL 1
REMARK minimizedAffinity -5.87981415
REMARK minimizedRMSD -1
REMARK  1 active torsions:
REMARK  status: ('A' for Active; 'I' for Inactive)
REMARK    1  A    between atoms: C1_2  and  C2_3 
ROOT
ATOM      1  C2  UNL d   1      -0.031  -0.126   0.106  0.00  0.00    -0.076 A 
ATOM      2  C3  UNL d   1       1.368  -0.236   0.173  0.00  0.00     0.004 A 
ATOM      3  C4  UNL d   1       2.008  -0.533   1.376  0.00  0.00    -0.003 A 
ATOM      4  C5  UNL d   1       1.258  -0.725   2.531  0.00  0.00     0.000 A 
ATOM      5  C6  UNL d   1      -0.133  -0.638   2.479  0.00  0.00     0.000 A 
ATOM      6  C7  UNL d   1      -0.794  -0.355   1.271  0.00  0.00    -0.073 A 
ATOM      7  C8  UNL d   1      -2.296  -0.267   1.274  0.00  0.00     0.078 C 
ENDROOT
BRANCH   1   8
ATOM      8  C1  UNL d   1      -0.668   0.225  -1.220  0.00  0.00     0.053 C 
ATOM      9  C   UNL d   1      -0.678   1.723  -1.483  0.00  0.00     0.018 C 
ENDBRANCH   1   8
TORSDOF 1
ENDMDL
