MODEL 1
REMARK minimizedAffinity 2.9821105
REMARK minimizedRMSD -1
REMARK  0 active torsions:
REMARK  status: ('A' for Active; 'I' for Inactive)
ROOT
ATOM      1  C   UNL d   1       1.142  -5.112  -0.686  0.00  0.00     0.077 C 
ATOM      2  C1  UNL d   1       2.118  -4.326  -1.509  0.00  0.00    -0.074 A 
ATOM      3  C2  UNL d   1       2.513  -4.771  -2.775  0.00  0.00    -0.005 A 
ATOM      4  C3  UNL d   1       3.415  -4.025  -3.533  0.00  0.00     0.006 A 
ATOM      5  C4  UNL d   1       3.930  -2.828  -3.034  0.00  0.00    -0.005 A 
ATOM      6  C5  UNL d   1       3.546  -2.366  -1.771  0.00  0.00    -0.074 A 
ATOM      7  C6  UNL d   1       4.083  -1.077  -1.224  0.00  0.00     0.077 C 
ATOM      8  C7  UNL d   1       2.634  -3.119  -1.018  0.00  0.00    -0.001 A 
ENDROOT
TORSDOF 0
ENDMDL
