MODEL 1
REMARK minimizedAffinity 3.54142714
REMARK minimizedRMSD -1
REMARK  0 active torsions:
REMARK  status: ('A' for Active; 'I' for Inactive)
ROOT
ATOM      1  C   UNL d   1      -0.293   2.335   2.543  0.00  0.00     0.077 C 
ATOM      2  C1  UNL d   1      -0.325   2.669   1.081  0.00  0.00    -0.074 A 
ATOM      3  C2  UNL d   1      -0.304   1.660   0.113  0.00  0.00    -0.005 A 
ATOM      4  C3  UNL d   1      -0.344   1.985  -1.243  0.00  0.00     0.006 A 
ATOM      5  C4  UNL d   1      -0.405   3.321  -1.643  0.00  0.00    -0.005 A 
ATOM      6  C5  UNL d   1      -0.427   4.343  -0.689  0.00  0.00    -0.074 A 
ATOM      7  C6  UNL d   1      -0.502   5.783  -1.103  0.00  0.00     0.077 C 
ATOM      8  C7  UNL d   1      -0.394   4.008   0.671  0.00  0.00    -0.001 A 
ENDROOT
TORSDOF 0
ENDMDL
