MODEL 1
REMARK minimizedAffinity 1.9495132
REMARK minimizedRMSD -1
REMARK  0 active torsions:
REMARK  status: ('A' for Active; 'I' for Inactive)
ROOT
ATOM      1  C   UNL d   1       4.537  -5.679  -3.616  0.00  0.00     0.077 C 
ATOM      2  C1  UNL d   1       3.875  -4.979  -2.466  0.00  0.00    -0.074 A 
ATOM      3  C2  UNL d   1       2.701  -5.483  -1.898  0.00  0.00    -0.005 A 
ATOM      4  C3  UNL d   1       2.102  -4.825  -0.823  0.00  0.00     0.006 A 
ATOM      5  C4  UNL d   1       2.671  -3.660  -0.307  0.00  0.00    -0.005 A 
ATOM      6  C5  UNL d   1       3.845  -3.142  -0.862  0.00  0.00    -0.074 A 
ATOM      7  C6  UNL d   1       4.475  -1.897  -0.313  0.00  0.00     0.077 C 
ATOM      8  C7  UNL d   1       4.445  -3.812  -1.937  0.00  0.00    -0.001 A 
ENDROOT
TORSDOF 0
ENDMDL
