MODEL 1
REMARK minimizedAffinity 1.15243018
REMARK minimizedRMSD -1
REMARK  0 active torsions:
REMARK  status: ('A' for Active; 'I' for Inactive)
ROOT
ATOM      1  C   UNL d   1       1.900  -5.987  -0.576  0.00  0.00     0.077 C 
ATOM      2  C1  UNL d   1       2.945  -5.203  -1.313  0.00  0.00    -0.074 A 
ATOM      3  C2  UNL d   1       3.294  -5.528  -2.627  0.00  0.00    -0.005 A 
ATOM      4  C3  UNL d   1       4.261  -4.784  -3.303  0.00  0.00     0.006 A 
ATOM      5  C4  UNL d   1       4.888  -3.709  -2.672  0.00  0.00    -0.005 A 
ATOM      6  C5  UNL d   1       4.551  -3.368  -1.358  0.00  0.00    -0.074 A 
ATOM      7  C6  UNL d   1       5.208  -2.209  -0.669  0.00  0.00     0.077 C 
ATOM      8  C7  UNL d   1       3.573  -4.116  -0.688  0.00  0.00    -0.001 A 
ENDROOT
TORSDOF 0
ENDMDL
