MODEL 1
REMARK minimizedAffinity -0.0592926629
REMARK minimizedRMSD -1
REMARK  0 active torsions:
REMARK  status: ('A' for Active; 'I' for Inactive)
ROOT
ATOM      1  C   UNL d   1       3.760  -1.849  -1.687  0.00  0.00     0.077 C 
ATOM      2  C1  UNL d   1       4.131  -3.290  -1.875  0.00  0.00    -0.074 A 
ATOM      3  C2  UNL d   1       3.776  -3.979  -3.039  0.00  0.00    -0.005 A 
ATOM      4  C3  UNL d   1       4.137  -5.316  -3.203  0.00  0.00     0.006 A 
ATOM      5  C4  UNL d   1       4.855  -5.978  -2.206  0.00  0.00    -0.005 A 
ATOM      6  C5  UNL d   1       5.220  -5.305  -1.036  0.00  0.00    -0.074 A 
ATOM      7  C6  UNL d   1       6.000  -5.999   0.041  0.00  0.00     0.077 C 
ATOM      8  C7  UNL d   1       4.859  -3.960  -0.881  0.00  0.00    -0.001 A 
ENDROOT
TORSDOF 0
ENDMDL
