MODEL 1
REMARK minimizedAffinity 0.715374529
REMARK minimizedRMSD -1
REMARK  0 active torsions:
REMARK  status: ('A' for Active; 'I' for Inactive)
ROOT
ATOM      1  C   UNL d   1       3.191  -0.347   1.561  0.00  0.00     0.077 C 
ATOM      2  C1  UNL d   1       3.879  -1.364   0.700  0.00  0.00    -0.074 A 
ATOM      3  C2  UNL d   1       5.006  -1.022  -0.055  0.00  0.00    -0.005 A 
ATOM      4  C3  UNL d   1       5.641  -1.981  -0.844  0.00  0.00     0.006 A 
ATOM      5  C4  UNL d   1       5.156  -3.289  -0.886  0.00  0.00    -0.005 A 
ATOM      6  C5  UNL d   1       4.031  -3.649  -0.138  0.00  0.00    -0.074 A 
ATOM      7  C6  UNL d   1       3.503  -5.053  -0.165  0.00  0.00     0.077 C 
ATOM      8  C7  UNL d   1       3.403  -2.682   0.658  0.00  0.00    -0.001 A 
ENDROOT
TORSDOF 0
ENDMDL
