MODEL 1
REMARK minimizedAffinity 3.99899578
REMARK minimizedRMSD -1
REMARK  0 active torsions:
REMARK  status: ('A' for Active; 'I' for Inactive)
ROOT
ATOM      1  C   UNL d   1      -3.322   0.655  -2.422  0.00  0.00     0.077 C 
ATOM      2  C1  UNL d   1      -2.335   1.623  -1.841  0.00  0.00    -0.074 A 
ATOM      3  C2  UNL d   1      -1.470   1.236  -0.812  0.00  0.00    -0.005 A 
ATOM      4  C3  UNL d   1      -0.551   2.145  -0.287  0.00  0.00     0.006 A 
ATOM      5  C4  UNL d   1      -0.487   3.447  -0.785  0.00  0.00    -0.005 A 
ATOM      6  C5  UNL d   1      -1.343   3.851  -1.814  0.00  0.00    -0.074 A 
ATOM      7  C6  UNL d   1      -1.281   5.244  -2.368  0.00  0.00     0.077 C 
ATOM      8  C7  UNL d   1      -2.259   2.930  -2.341  0.00  0.00    -0.001 A 
ENDROOT
TORSDOF 0
ENDMDL
