MODEL 1
REMARK minimizedAffinity -4.88157654
REMARK minimizedRMSD -1
REMARK  0 active torsions:
REMARK  status: ('A' for Active; 'I' for Inactive)
ROOT
ATOM      1  C   UNL d   1       4.072  -1.578   0.397  0.00  0.00     0.077 C 
ATOM      2  C1  UNL d   1       3.879  -2.815  -0.429  0.00  0.00    -0.074 A 
ATOM      3  C2  UNL d   1       4.940  -3.367  -1.154  0.00  0.00    -0.005 A 
ATOM      4  C3  UNL d   1       4.749  -4.523  -1.910  0.00  0.00     0.006 A 
ATOM      5  C4  UNL d   1       3.497  -5.138  -1.950  0.00  0.00    -0.005 A 
ATOM      6  C5  UNL d   1       2.424  -4.600  -1.231  0.00  0.00    -0.074 A 
ATOM      7  C6  UNL d   1       1.075  -5.254  -1.255  0.00  0.00     0.077 C 
ATOM      8  C7  UNL d   1       2.626  -3.442  -0.468  0.00  0.00    -0.001 A 
ENDROOT
TORSDOF 0
ENDMDL
