MODEL 1
REMARK minimizedAffinity -0.279890865
REMARK minimizedRMSD -1
REMARK  0 active torsions:
REMARK  status: ('A' for Active; 'I' for Inactive)
ROOT
ATOM      1  C   UNL d   1       4.384  -1.679  -0.452  0.00  0.00     0.077 C 
ATOM      2  C1  UNL d   1       4.424  -2.943  -1.258  0.00  0.00    -0.074 A 
ATOM      3  C2  UNL d   1       5.232  -4.017  -0.871  0.00  0.00    -0.005 A 
ATOM      4  C3  UNL d   1       5.252  -5.190  -1.626  0.00  0.00     0.006 A 
ATOM      5  C4  UNL d   1       4.464  -5.301  -2.772  0.00  0.00    -0.005 A 
ATOM      6  C5  UNL d   1       3.649  -4.239  -3.174  0.00  0.00    -0.074 A 
ATOM      7  C6  UNL d   1       2.789  -4.346  -4.398  0.00  0.00     0.077 C 
ATOM      8  C7  UNL d   1       3.629  -3.066  -2.407  0.00  0.00    -0.001 A 
ENDROOT
TORSDOF 0
ENDMDL
