MODEL 1
REMARK minimizedAffinity 0.657000482
REMARK minimizedRMSD -1
REMARK  0 active torsions:
REMARK  status: ('A' for Active; 'I' for Inactive)
ROOT
ATOM      1  C   UNL d   1       3.692  -1.718   0.107  0.00  0.00     0.077 C 
ATOM      2  C1  UNL d   1       4.106  -2.868  -0.762  0.00  0.00    -0.074 A 
ATOM      3  C2  UNL d   1       5.137  -3.729  -0.374  0.00  0.00    -0.005 A 
ATOM      4  C3  UNL d   1       5.504  -4.800  -1.189  0.00  0.00     0.006 A 
ATOM      5  C4  UNL d   1       4.845  -5.020  -2.399  0.00  0.00    -0.005 A 
ATOM      6  C5  UNL d   1       3.811  -4.169  -2.804  0.00  0.00    -0.074 A 
ATOM      7  C6  UNL d   1       3.086  -4.397  -4.097  0.00  0.00     0.077 C 
ATOM      8  C7  UNL d   1       3.443  -3.100  -1.976  0.00  0.00    -0.001 A 
ENDROOT
TORSDOF 0
ENDMDL
