MODEL 1
REMARK minimizedAffinity -4.11686134
REMARK minimizedRMSD -1
REMARK  0 active torsions:
REMARK  status: ('A' for Active; 'I' for Inactive)
ROOT
ATOM      1  N1  IND d   1       0.000  -0.296  -0.561  0.00  0.00    -0.196 N 
ATOM      2  C2  IND d   1       1.144  -0.681   0.081  0.00  0.00     0.054 A 
ATOM      3  C3  IND d   1       1.387   0.130   1.135  0.00  0.00    -0.031 A 
ATOM      4  C4  IND d   1      -0.013   2.087   2.051  0.00  0.00     0.051 A 
ATOM      5  C5  IND d   1      -1.122   2.837   1.779  0.00  0.00    -0.031 A 
ATOM      6  C6  IND d   1      -1.932   2.575   0.693  0.00  0.00     0.015 A 
ATOM      7  C7  IND d   1      -1.668   1.540  -0.159  0.00  0.00    -0.016 A 
ATOM      8  C8  IND d   1      -0.538   0.780   0.110  0.00  0.00    -0.047 A 
ATOM      9  C9  IND d   1       0.311   1.068   1.186  0.00  0.00    -0.096 A 
ATOM     10  HN1 IND d   1      -0.328  -0.664  -1.265  0.00  0.00     0.298 HD
ENDROOT
TORSDOF 0
ENDMDL
