MODEL 1
REMARK minimizedAffinity -5.0708847
REMARK minimizedRMSD -1
REMARK  0 active torsions:
REMARK  status: ('A' for Active; 'I' for Inactive)
ROOT
ATOM      1  N1  IND d   1      -0.592  -0.586  -0.679  0.00  0.00    -0.196 N 
ATOM      2  C2  IND d   1       0.536  -1.182  -0.186  0.00  0.00     0.054 A 
ATOM      3  C3  IND d   1       1.021  -0.477   0.860  0.00  0.00    -0.031 A 
ATOM      4  C4  IND d   1       0.069   1.628   1.996  0.00  0.00     0.051 A 
ATOM      5  C5  IND d   1      -0.924   2.559   1.880  0.00  0.00    -0.031 A 
ATOM      6  C6  IND d   1      -1.878   2.487   0.885  0.00  0.00     0.015 A 
ATOM      7  C7  IND d   1      -1.881   1.469  -0.026  0.00  0.00    -0.016 A 
ATOM      8  C8  IND d   1      -0.870   0.525   0.085  0.00  0.00    -0.047 A 
ATOM      9  C9  IND d   1       0.126   0.617   1.066  0.00  0.00    -0.096 A 
ATOM     10  HN1 IND d   1      -1.050  -0.860  -1.353  0.00  0.00     0.298 HD
ENDROOT
TORSDOF 0
ENDMDL
