MODEL 1
REMARK minimizedAffinity -5.55921507
REMARK minimizedRMSD -1
REMARK  0 active torsions:
REMARK  status: ('A' for Active; 'I' for Inactive)
ROOT
ATOM      1  N1  IND d   1       0.000  -0.091  -0.831  0.00  0.00    -0.196 N 
ATOM      2  C2  IND d   1       0.927  -0.828  -0.149  0.00  0.00     0.054 A 
ATOM      3  C3  IND d   1       1.176  -0.272   1.057  0.00  0.00    -0.031 A 
ATOM      4  C4  IND d   1       0.100   1.790   2.160  0.00  0.00     0.051 A 
ATOM      5  C5  IND d   1      -0.772   2.813   1.912  0.00  0.00    -0.031 A 
ATOM      6  C6  IND d   1      -1.447   2.920   0.713  0.00  0.00     0.015 A 
ATOM      7  C7  IND d   1      -1.283   1.999  -0.282  0.00  0.00    -0.016 A 
ATOM      8  C8  IND d   1      -0.393   0.963  -0.036  0.00  0.00    -0.047 A 
ATOM      9  C9  IND d   1       0.327   0.872   1.162  0.00  0.00    -0.096 A 
ATOM     10  HN1 IND d   1      -0.289  -0.257  -1.624  0.00  0.00     0.298 HD
ENDROOT
TORSDOF 0
ENDMDL
