MODEL 1
REMARK minimizedAffinity -2.05611801
REMARK minimizedRMSD -1
REMARK  0 active torsions:
REMARK  status: ('A' for Active; 'I' for Inactive)
ROOT
ATOM      1  N1  IND d   1      -1.302   2.453   0.174  0.00  0.00    -0.196 N 
ATOM      2  C2  IND d   1      -1.182   2.855   1.475  0.00  0.00     0.054 A 
ATOM      3  C3  IND d   1      -0.545   1.910   2.202  0.00  0.00    -0.031 A 
ATOM      4  C4  IND d   1       0.477  -0.327   1.440  0.00  0.00     0.051 A 
ATOM      5  C5  IND d   1       0.587  -1.146   0.352  0.00  0.00    -0.031 A 
ATOM      6  C6  IND d   1       0.065  -0.799  -0.877  0.00  0.00     0.015 A 
ATOM      7  C7  IND d   1      -0.580   0.390  -1.067  0.00  0.00    -0.016 A 
ATOM      8  C8  IND d   1      -0.700   1.221   0.038  0.00  0.00    -0.047 A 
ATOM      9  C9  IND d   1      -0.209   0.856   1.298  0.00  0.00    -0.096 A 
ATOM     10  HN1 IND d   1      -1.689   2.895  -0.454  0.00  0.00     0.298 HD
ENDROOT
TORSDOF 0
ENDMDL
