MODEL 1
REMARK minimizedAffinity 10.1356592
REMARK minimizedRMSD -1
REMARK  0 active torsions:
REMARK  status: ('A' for Active; 'I' for Inactive)
ROOT
ATOM      1  N1  IND d   1       0.406   0.979  -1.193  0.00  0.00    -0.196 N 
ATOM      2  C2  IND d   1      -0.371   1.520  -2.180  0.00  0.00     0.054 A 
ATOM      3  C3  IND d   1      -1.318   2.323  -1.646  0.00  0.00    -0.031 A 
ATOM      4  C4  IND d   1      -1.714   2.974   0.813  0.00  0.00     0.051 A 
ATOM      5  C5  IND d   1      -1.283   2.704   2.082  0.00  0.00    -0.031 A 
ATOM      6  C6  IND d   1      -0.244   1.830   2.328  0.00  0.00     0.015 A 
ATOM      7  C7  IND d   1       0.413   1.199   1.310  0.00  0.00    -0.016 A 
ATOM      8  C8  IND d   1      -0.027   1.465   0.021  0.00  0.00    -0.047 A 
ATOM      9  C9  IND d   1      -1.108   2.318  -0.233  0.00  0.00    -0.096 A 
ATOM     10  HN1 IND d   1       1.055   0.428  -1.311  0.00  0.00     0.298 HD
ENDROOT
TORSDOF 0
ENDMDL
