MODEL 1
REMARK minimizedAffinity -2.54265738
REMARK minimizedRMSD -1
REMARK  0 active torsions:
REMARK  status: ('A' for Active; 'I' for Inactive)
ROOT
ATOM      1  N1  IND d   1      -0.413  -0.043   1.977  0.00  0.00    -0.196 N 
ATOM      2  C2  IND d   1      -0.569   1.282   2.276  0.00  0.00     0.054 A 
ATOM      3  C3  IND d   1      -0.270   2.045   1.201  0.00  0.00    -0.031 A 
ATOM      4  C4  IND d   1       0.397   1.327  -1.180  0.00  0.00     0.051 A 
ATOM      5  C5  IND d   1       0.704   0.224  -1.926  0.00  0.00    -0.031 A 
ATOM      6  C6  IND d   1       0.651  -1.050  -1.399  0.00  0.00     0.015 A 
ATOM      7  C7  IND d   1       0.276  -1.271  -0.104  0.00  0.00    -0.016 A 
ATOM      8  C8  IND d   1      -0.030  -0.152   0.658  0.00  0.00    -0.047 A 
ATOM      9  C9  IND d   1       0.063   1.146   0.142  0.00  0.00    -0.096 A 
ATOM     10  HN1 IND d   1      -0.534  -0.697   2.521  0.00  0.00     0.298 HD
ENDROOT
TORSDOF 0
ENDMDL
