MODEL 1
REMARK minimizedAffinity -2.56641102
REMARK minimizedRMSD -1
REMARK  0 active torsions:
REMARK  status: ('A' for Active; 'I' for Inactive)
ROOT
ATOM      1  N1  IND d   1       0.157  -0.935   0.009  0.00  0.00    -0.196 N 
ATOM      2  C2  IND d   1       0.240   0.031  -0.956  0.00  0.00     0.054 A 
ATOM      3  C3  IND d   1       0.297  -0.534  -2.182  0.00  0.00    -0.031 A 
ATOM      4  C4  IND d   1       0.166  -3.018  -2.847  0.00  0.00     0.051 A 
ATOM      5  C5  IND d   1       0.123  -4.275  -2.313  0.00  0.00    -0.031 A 
ATOM      6  C6  IND d   1       0.085  -4.487  -0.950  0.00  0.00     0.015 A 
ATOM      7  C7  IND d   1       0.078  -3.445  -0.067  0.00  0.00    -0.016 A 
ATOM      8  C8  IND d   1       0.129  -2.167  -0.605  0.00  0.00    -0.047 A 
ATOM      9  C9  IND d   1       0.210  -1.947  -1.986  0.00  0.00    -0.096 A 
ATOM     10  HN1 IND d   1       0.127  -0.795   0.857  0.00  0.00     0.298 HD
ENDROOT
TORSDOF 0
ENDMDL
