MODEL 1
REMARK minimizedAffinity -4.53021288
REMARK minimizedRMSD -1
REMARK  0 active torsions:
REMARK  status: ('A' for Active; 'I' for Inactive)
ROOT
ATOM      1  N1  IND d   1      -1.021  -0.572  -1.132  0.00  0.00    -0.196 N 
ATOM      2  C2  IND d   1      -0.039  -1.523  -1.149  0.00  0.00     0.054 A 
ATOM      3  C3  IND d   1       0.793  -1.358  -0.096  0.00  0.00    -0.031 A 
ATOM      4  C4  IND d   1       0.672   0.341   1.834  0.00  0.00     0.051 A 
ATOM      5  C5  IND d   1      -0.026   1.435   2.264  0.00  0.00    -0.031 A 
ATOM      6  C6  IND d   1      -1.115   1.923   1.572  0.00  0.00     0.015 A 
ATOM      7  C7  IND d   1      -1.556   1.327   0.425  0.00  0.00    -0.016 A 
ATOM      8  C8  IND d   1      -0.845   0.221  -0.019  0.00  0.00    -0.047 A 
ATOM      9  C9  IND d   1       0.287  -0.254   0.656  0.00  0.00    -0.096 A 
ATOM     10  HN1 IND d   1      -1.644  -0.484  -1.718  0.00  0.00     0.298 HD
ENDROOT
TORSDOF 0
ENDMDL
