MODEL 1
REMARK minimizedAffinity -5.37095976
REMARK minimizedRMSD -1
REMARK  0 active torsions:
REMARK  status: ('A' for Active; 'I' for Inactive)
ROOT
ATOM      1  N1  IND d   1       0.395   0.057  -0.911  0.00  0.00    -0.196 N 
ATOM      2  C2  IND d   1       0.893  -0.774   0.053  0.00  0.00     0.054 A 
ATOM      3  C3  IND d   1       0.683  -0.249   1.281  0.00  0.00    -0.031 A 
ATOM      4  C4  IND d   1      -0.547   1.912   1.947  0.00  0.00     0.051 A 
ATOM      5  C5  IND d   1      -1.143   3.020   1.413  0.00  0.00    -0.031 A 
ATOM      6  C6  IND d   1      -1.262   3.199   0.050  0.00  0.00     0.015 A 
ATOM      7  C7  IND d   1      -0.797   2.267  -0.834  0.00  0.00    -0.016 A 
ATOM      8  C8  IND d   1      -0.185   1.144  -0.296  0.00  0.00    -0.047 A 
ATOM      9  C9  IND d   1      -0.023   0.977   1.086  0.00  0.00    -0.096 A 
ATOM     10  HN1 IND d   1       0.436  -0.078  -1.759  0.00  0.00     0.298 HD
ENDROOT
TORSDOF 0
ENDMDL
