MODEL 1
REMARK minimizedAffinity -2.8629694
REMARK minimizedRMSD -1
REMARK  0 active torsions:
REMARK  status: ('A' for Active; 'I' for Inactive)
ROOT
ATOM      1  C   UNL d   1       3.794   2.096   3.219  0.00  0.00     0.172 C 
ATOM      2  N   UNL d   1       3.257   2.560   1.961  0.00  0.00    -0.070 N 
ATOM      3  C1  UNL d   1       2.166   2.039   1.318  0.00  0.00    -0.004 A 
ATOM      4  C2  UNL d   1       1.979   2.755   0.156  0.00  0.00    -0.047 A 
ATOM      5  C3  UNL d   1       2.994   3.740   0.098  0.00  0.00    -0.047 A 
ATOM      6  C4  UNL d   1       3.771   3.596   1.228  0.00  0.00    -0.004 A 
ENDROOT
TORSDOF 0
ENDMDL
