MODEL 1
REMARK minimizedAffinity -1.59987998
REMARK minimizedRMSD -1
REMARK  0 active torsions:
REMARK  status: ('A' for Active; 'I' for Inactive)
ROOT
ATOM      1  C   UNL d   1       5.924   0.009  -5.947  0.00  0.00     0.172 C 
ATOM      2  N   UNL d   1       5.348   1.307  -5.682  0.00  0.00    -0.070 N 
ATOM      3  C1  UNL d   1       6.000   2.369  -5.114  0.00  0.00    -0.004 A 
ATOM      4  C2  UNL d   1       5.109   3.417  -5.034  0.00  0.00    -0.047 A 
ATOM      5  C3  UNL d   1       3.879   2.970  -5.573  0.00  0.00    -0.047 A 
ATOM      6  C4  UNL d   1       4.055   1.660  -5.966  0.00  0.00    -0.004 A 
ENDROOT
TORSDOF 0
ENDMDL
