MODEL 1
REMARK minimizedAffinity -2.46305943
REMARK minimizedRMSD -1
REMARK  0 active torsions:
REMARK  status: ('A' for Active; 'I' for Inactive)
ROOT
ATOM      1  C   UNL d   1       5.991   4.431  -5.476  0.00  0.00     0.172 C 
ATOM      2  N   UNL d   1       5.278   3.182  -5.610  0.00  0.00    -0.070 N 
ATOM      3  C1  UNL d   1       3.972   3.045  -5.996  0.00  0.00    -0.004 A 
ATOM      4  C2  UNL d   1       3.671   1.701  -6.000  0.00  0.00    -0.047 A 
ATOM      5  C3  UNL d   1       4.837   1.005  -5.601  0.00  0.00    -0.047 A 
ATOM      6  C4  UNL d   1       5.816   1.946  -5.365  0.00  0.00    -0.004 A 
ENDROOT
TORSDOF 0
ENDMDL
