MODEL 1
REMARK minimizedAffinity -1.95445478
REMARK minimizedRMSD -1
REMARK  0 active torsions:
REMARK  status: ('A' for Active; 'I' for Inactive)
ROOT
ATOM      1  C   UNL d   1       2.509   2.626  -5.988  0.00  0.00     0.172 C 
ATOM      2  N   UNL d   1       3.928   2.513  -5.741  0.00  0.00    -0.070 N 
ATOM      3  C1  UNL d   1       4.697   1.410  -5.997  0.00  0.00    -0.004 A 
ATOM      4  C2  UNL d   1       5.991   1.702  -5.625  0.00  0.00    -0.047 A 
ATOM      5  C3  UNL d   1       6.000   3.026  -5.127  0.00  0.00    -0.047 A 
ATOM      6  C4  UNL d   1       4.710   3.505  -5.210  0.00  0.00    -0.004 A 
ENDROOT
TORSDOF 0
ENDMDL
