MODEL 1
REMARK minimizedAffinity -0.745362282
REMARK minimizedRMSD -1
REMARK  0 active torsions:
REMARK  status: ('A' for Active; 'I' for Inactive)
ROOT
ATOM      1  C   UNL d   1       5.574   0.619  -4.886  0.00  0.00     0.172 C 
ATOM      2  N   UNL d   1       5.123   1.914  -5.338  0.00  0.00    -0.070 N 
ATOM      3  C1  UNL d   1       3.824   2.264  -5.590  0.00  0.00    -0.004 A 
ATOM      4  C2  UNL d   1       3.812   3.580  -5.999  0.00  0.00    -0.047 A 
ATOM      5  C3  UNL d   1       5.152   4.037  -5.994  0.00  0.00    -0.047 A 
ATOM      6  C4  UNL d   1       5.942   2.985  -5.581  0.00  0.00    -0.004 A 
ENDROOT
TORSDOF 0
ENDMDL
