MODEL 1
REMARK minimizedAffinity -0.642032444
REMARK minimizedRMSD -1
REMARK  0 active torsions:
REMARK  status: ('A' for Active; 'I' for Inactive)
ROOT
ATOM      1  C   UNL d   1       2.486   2.160  -5.999  0.00  0.00     0.172 C 
ATOM      2  N   UNL d   1       3.911   2.247  -5.778  0.00  0.00    -0.070 N 
ATOM      3  C1  UNL d   1       4.710   1.234  -5.321  0.00  0.00    -0.004 A 
ATOM      4  C2  UNL d   1       6.000   1.715  -5.248  0.00  0.00    -0.047 A 
ATOM      5  C3  UNL d   1       5.974   3.063  -5.675  0.00  0.00    -0.047 A 
ATOM      6  C4  UNL d   1       4.668   3.367  -5.997  0.00  0.00    -0.004 A 
ENDROOT
TORSDOF 0
ENDMDL
