MODEL 1
REMARK minimizedAffinity -1.80906916
REMARK minimizedRMSD -1
REMARK  0 active torsions:
REMARK  status: ('A' for Active; 'I' for Inactive)
ROOT
ATOM      1  C   UNL d   1       5.999   0.379  -5.669  0.00  0.00     0.172 C 
ATOM      2  N   UNL d   1       5.338   1.662  -5.735  0.00  0.00    -0.070 N 
ATOM      3  C1  UNL d   1       4.010   1.863  -6.000  0.00  0.00    -0.004 A 
ATOM      4  C2  UNL d   1       3.775   3.221  -5.973  0.00  0.00    -0.047 A 
ATOM      5  C3  UNL d   1       5.005   3.857  -5.683  0.00  0.00    -0.047 A 
ATOM      6  C4  UNL d   1       5.956   2.869  -5.541  0.00  0.00    -0.004 A 
ENDROOT
TORSDOF 0
ENDMDL
