MODEL 1
REMARK minimizedAffinity -1.30906641
REMARK minimizedRMSD -1
REMARK  0 active torsions:
REMARK  status: ('A' for Active; 'I' for Inactive)
ROOT
ATOM      1  C   UNL d   1       5.984   4.004  -6.000  0.00  0.00     0.172 C 
ATOM      2  N   UNL d   1       5.367   2.713  -5.805  0.00  0.00    -0.070 N 
ATOM      3  C1  UNL d   1       5.986   1.501  -5.958  0.00  0.00    -0.004 A 
ATOM      4  C2  UNL d   1       5.061   0.517  -5.682  0.00  0.00    -0.047 A 
ATOM      5  C3  UNL d   1       3.844   1.160  -5.353  0.00  0.00    -0.047 A 
ATOM      6  C4  UNL d   1       4.061   2.519  -5.438  0.00  0.00    -0.004 A 
ENDROOT
TORSDOF 0
ENDMDL
