MODEL 1
REMARK minimizedAffinity -0.555611253
REMARK minimizedRMSD -1
REMARK  0 active torsions:
REMARK  status: ('A' for Active; 'I' for Inactive)
ROOT
ATOM      1  C   UNL d   1       4.900   3.858   2.795  0.00  0.00     0.172 C 
ATOM      2  N   UNL d   1       3.841   3.258   2.017  0.00  0.00    -0.070 N 
ATOM      3  C1  UNL d   1       3.485   3.617   0.744  0.00  0.00    -0.004 A 
ATOM      4  C2  UNL d   1       2.436   2.810   0.357  0.00  0.00    -0.047 A 
ATOM      5  C3  UNL d   1       2.153   1.938   1.434  0.00  0.00    -0.047 A 
ATOM      6  C4  UNL d   1       3.037   2.237   2.449  0.00  0.00    -0.004 A 
ENDROOT
TORSDOF 0
ENDMDL
