MODEL 1
REMARK minimizedAffinity -0.873304307
REMARK minimizedRMSD -1
REMARK  0 active torsions:
REMARK  status: ('A' for Active; 'I' for Inactive)
ROOT
ATOM      1  C   UNL d   1      -1.423  -4.096  -0.125  0.00  0.00     0.172 C 
ATOM      2  N   UNL d   1      -1.439  -4.137   1.319  0.00  0.00    -0.070 N 
ATOM      3  C1  UNL d   1      -1.640  -3.064   2.145  0.00  0.00    -0.004 A 
ATOM      4  C2  UNL d   1      -1.581  -3.516   3.446  0.00  0.00    -0.047 A 
ATOM      5  C3  UNL d   1      -1.336  -4.909   3.399  0.00  0.00    -0.047 A 
ATOM      6  C4  UNL d   1      -1.252  -5.267   2.070  0.00  0.00    -0.004 A 
ENDROOT
TORSDOF 0
ENDMDL
