MODEL 1
REMARK minimizedAffinity -0.619379163
REMARK minimizedRMSD -1
REMARK  0 active torsions:
REMARK  status: ('A' for Active; 'I' for Inactive)
ROOT
ATOM      1  C   UNL d   1       5.991   4.878  -5.917  0.00  0.00     0.172 C 
ATOM      2  N   UNL d   1       5.343   3.588  -5.943  0.00  0.00    -0.070 N 
ATOM      3  C1  UNL d   1       3.991   3.373  -5.929  0.00  0.00    -0.004 A 
ATOM      4  C2  UNL d   1       3.780   2.012  -5.964  0.00  0.00    -0.047 A 
ATOM      5  C3  UNL d   1       5.049   1.387  -6.000  0.00  0.00    -0.047 A 
ATOM      6  C4  UNL d   1       5.999   2.386  -5.986  0.00  0.00    -0.004 A 
ENDROOT
TORSDOF 0
ENDMDL
