MODEL 1
REMARK minimizedAffinity -0.634207547
REMARK minimizedRMSD -1
REMARK  0 active torsions:
REMARK  status: ('A' for Active; 'I' for Inactive)
ROOT
ATOM      1  C   UNL d   1       0.345  -1.154   1.074  0.00  0.00     0.172 C 
ATOM      2  N   UNL d   1       1.213  -0.001   1.116  0.00  0.00    -0.070 N 
ATOM      3  C1  UNL d   1       2.552  -0.020   1.402  0.00  0.00    -0.004 A 
ATOM      4  C2  UNL d   1       3.016   1.276   1.339  0.00  0.00    -0.047 A 
ATOM      5  C3  UNL d   1       1.917   2.103   1.005  0.00  0.00    -0.047 A 
ATOM      6  C4  UNL d   1       0.814   1.286   0.872  0.00  0.00    -0.004 A 
ENDROOT
TORSDOF 0
ENDMDL
