MODEL 1
REMARK minimizedAffinity 0.815542281
REMARK minimizedRMSD -1
REMARK  0 active torsions:
REMARK  status: ('A' for Active; 'I' for Inactive)
ROOT
ATOM      1  C   UNL d   1       2.300   1.256   2.019  0.00  0.00     0.172 C 
ATOM      2  N   UNL d   1       3.255   2.309   1.768  0.00  0.00    -0.070 N 
ATOM      3  C1  UNL d   1       4.221   2.737   2.640  0.00  0.00    -0.004 A 
ATOM      4  C2  UNL d   1       4.922   3.753   2.028  0.00  0.00    -0.047 A 
ATOM      5  C3  UNL d   1       4.358   3.943   0.744  0.00  0.00    -0.047 A 
ATOM      6  C4  UNL d   1       3.328   3.037   0.610  0.00  0.00    -0.004 A 
ENDROOT
TORSDOF 0
ENDMDL
