MODEL 1
REMARK minimizedAffinity -0.526415467
REMARK minimizedRMSD -1
REMARK  0 active torsions:
REMARK  status: ('A' for Active; 'I' for Inactive)
ROOT
ATOM      1  C   UNL d   1       5.149   3.181   2.628  0.00  0.00     0.172 C 
ATOM      2  N   UNL d   1       3.891   2.860   1.995  0.00  0.00    -0.070 N 
ATOM      3  C1  UNL d   1       2.988   1.932   2.439  0.00  0.00    -0.004 A 
ATOM      4  C2  UNL d   1       1.924   1.926   1.564  0.00  0.00    -0.047 A 
ATOM      5  C3  UNL d   1       2.197   2.883   0.558  0.00  0.00    -0.047 A 
ATOM      6  C4  UNL d   1       3.422   3.446   0.850  0.00  0.00    -0.004 A 
ENDROOT
TORSDOF 0
ENDMDL
