MODEL 1
REMARK minimizedAffinity -1.52126062
REMARK minimizedRMSD -1
REMARK  0 active torsions:
REMARK  status: ('A' for Active; 'I' for Inactive)
ROOT
ATOM      1  C   UNL d   1      -0.068   1.916   1.009  0.00  0.00     0.172 C 
ATOM      2  N   UNL d   1      -0.294   2.742   2.172  0.00  0.00    -0.070 N 
ATOM      3  C1  UNL d   1      -1.511   2.997   2.746  0.00  0.00    -0.004 A 
ATOM      4  C2  UNL d   1      -1.302   3.823   3.829  0.00  0.00    -0.047 A 
ATOM      5  C3  UNL d   1       0.089   4.074   3.908  0.00  0.00    -0.047 A 
ATOM      6  C4  UNL d   1       0.689   3.393   2.871  0.00  0.00    -0.004 A 
ENDROOT
TORSDOF 0
ENDMDL
