MODEL 1
REMARK minimizedAffinity -2.96375918
REMARK minimizedRMSD -1
REMARK  0 active torsions:
REMARK  status: ('A' for Active; 'I' for Inactive)
ROOT
ATOM      1  C   UNL d   1       0.413   2.997   0.212  0.00  0.00     0.172 C 
ATOM      2  N   UNL d   1       0.797   1.626  -0.030  0.00  0.00    -0.070 N 
ATOM      3  C1  UNL d   1      -0.061   0.592  -0.294  0.00  0.00    -0.004 A 
ATOM      4  C2  UNL d   1       0.694  -0.549  -0.464  0.00  0.00    -0.047 A 
ATOM      5  C3  UNL d   1       2.051  -0.188  -0.295  0.00  0.00    -0.047 A 
ATOM      6  C4  UNL d   1       2.087   1.164  -0.027  0.00  0.00    -0.004 A 
ENDROOT
TORSDOF 0
ENDMDL
