MODEL 1
REMARK minimizedAffinity -4.84611368
REMARK minimizedRMSD -1
REMARK  1 active torsions:
REMARK  status: ('A' for Active; 'I' for Inactive)
REMARK    1  A    between atoms: N_2  and  C1_3 
ROOT
ATOM      1  C1  UNL d   1      -0.483   0.645   0.300  0.00  0.00     0.143 A 
ATOM      2  C2  UNL d   1      -1.305   1.610   0.890  0.00  0.00    -0.057 A 
ATOM      3  C3  UNL d   1      -1.046   2.978   0.736  0.00  0.00     0.033 A 
ATOM      4  C4  UNL d   1       0.061   3.404   0.010  0.00  0.00    -0.042 A 
ATOM      5  C5  UNL d   1       0.906   2.461  -0.565  0.00  0.00     0.033 A 
ATOM      6  C6  UNL d   1       0.638   1.098  -0.413  0.00  0.00    -0.057 A 
ENDROOT
BRANCH   1   7
ATOM      7  N   UNL d   1      -0.632  -0.730   0.498  0.00  0.00    -0.732 N 
ATOM      8  C   UNL d   1       0.468  -1.635   0.242  0.00  0.00     0.284 C 
ATOM      9  H3  UNL d   1      -1.160  -0.946   1.341  0.00  0.00     0.395 HD
ENDBRANCH   1   7
TORSDOF 1
ENDMDL
