MODEL 1
REMARK minimizedAffinity -3.76398802
REMARK minimizedRMSD -1
REMARK  1 active torsions:
REMARK  status: ('A' for Active; 'I' for Inactive)
REMARK    1  A    between atoms: N_2  and  C1_3 
ROOT
ATOM      1  C1  UNL d   1      -0.246  -0.135   0.092  0.00  0.00     0.143 A 
ATOM      2  C2  UNL d   1      -1.224   0.582   0.791  0.00  0.00    -0.057 A 
ATOM      3  C3  UNL d   1      -1.340   1.971   0.658  0.00  0.00     0.033 A 
ATOM      4  C4  UNL d   1      -0.459   2.673  -0.158  0.00  0.00    -0.042 A 
ATOM      5  C5  UNL d   1       0.536   1.985  -0.843  0.00  0.00     0.033 A 
ATOM      6  C6  UNL d   1       0.643   0.597  -0.710  0.00  0.00    -0.057 A 
ENDROOT
BRANCH   1   7
ATOM      7  N   UNL d   1      -0.017  -1.503   0.259  0.00  0.00    -0.732 N 
ATOM      8  C   UNL d   1      -0.411  -2.446  -0.765  0.00  0.00     0.284 C 
ATOM      9  H3  UNL d   1       0.891  -1.697   0.675  0.00  0.00     0.395 HD
ENDBRANCH   1   7
TORSDOF 1
ENDMDL
