MODEL 1
REMARK minimizedAffinity -4.41565895
REMARK minimizedRMSD -1
REMARK  1 active torsions:
REMARK  status: ('A' for Active; 'I' for Inactive)
REMARK    1  A    between atoms: N_2  and  C1_3 
ROOT
ATOM      1  C1  UNL d   1      -0.176  -0.187  -0.156  0.00  0.00     0.143 A 
ATOM      2  C2  UNL d   1      -1.059   0.436   0.732  0.00  0.00    -0.057 A 
ATOM      3  C3  UNL d   1      -1.093   1.829   0.866  0.00  0.00     0.033 A 
ATOM      4  C4  UNL d   1      -0.219   2.625   0.134  0.00  0.00    -0.042 A 
ATOM      5  C5  UNL d   1       0.685   2.027  -0.737  0.00  0.00     0.033 A 
ATOM      6  C6  UNL d   1       0.709   0.636  -0.872  0.00  0.00    -0.057 A 
ENDROOT
BRANCH   1   7
ATOM      7  N   UNL d   1      -0.026  -1.572  -0.263  0.00  0.00    -0.732 N 
ATOM      8  C   UNL d   1      -0.285  -2.246  -1.517  0.00  0.00     0.284 C 
ATOM      9  H3  UNL d   1       0.795  -1.913   0.231  0.00  0.00     0.395 HD
ENDBRANCH   1   7
TORSDOF 1
ENDMDL
