MODEL 1
REMARK minimizedAffinity -4.23034382
REMARK minimizedRMSD -1
REMARK  1 active torsions:
REMARK  status: ('A' for Active; 'I' for Inactive)
REMARK    1  A    between atoms: N_2  and  C1_3 
ROOT
ATOM      1  C1  UNL d   1       0.161   0.535   0.189  0.00  0.00     0.143 A 
ATOM      2  C2  UNL d   1       0.496   1.169  -1.012  0.00  0.00    -0.057 A 
ATOM      3  C3  UNL d   1       0.149   2.505  -1.249  0.00  0.00     0.033 A 
ATOM      4  C4  UNL d   1      -0.566   3.223  -0.297  0.00  0.00    -0.042 A 
ATOM      5  C5  UNL d   1      -0.931   2.606   0.894  0.00  0.00     0.033 A 
ATOM      6  C6  UNL d   1      -0.576   1.274   1.128  0.00  0.00    -0.057 A 
ENDROOT
BRANCH   1   7
ATOM      7  N   UNL d   1       0.391  -0.819   0.444  0.00  0.00    -0.732 N 
ATOM      8  C   UNL d   1       0.043  -1.824  -0.537  0.00  0.00     0.284 C 
ATOM      9  H3  UNL d   1       1.283  -0.981   0.907  0.00  0.00     0.395 HD
ENDBRANCH   1   7
TORSDOF 1
ENDMDL
