MODEL 1
REMARK minimizedAffinity -4.00072002
REMARK minimizedRMSD -1
REMARK  1 active torsions:
REMARK  status: ('A' for Active; 'I' for Inactive)
REMARK    1  A    between atoms: N_2  and  C1_3 
ROOT
ATOM      1  C1  UNL d   1       0.086  -0.145   0.165  0.00  0.00     0.143 A 
ATOM      2  C2  UNL d   1      -0.909   0.430   0.962  0.00  0.00    -0.057 A 
ATOM      3  C3  UNL d   1      -1.074   1.819   1.030  0.00  0.00     0.033 A 
ATOM      4  C4  UNL d   1      -0.224   2.661   0.322  0.00  0.00    -0.042 A 
ATOM      5  C5  UNL d   1       0.789   2.113  -0.458  0.00  0.00     0.033 A 
ATOM      6  C6  UNL d   1       0.944   0.725  -0.527  0.00  0.00    -0.057 A 
ENDROOT
BRANCH   1   7
ATOM      7  N   UNL d   1       0.363  -1.514   0.133  0.00  0.00    -0.732 N 
ATOM      8  C   UNL d   1      -0.597  -2.447  -0.414  0.00  0.00     0.284 C 
ATOM      9  H3  UNL d   1       1.327  -1.709  -0.128  0.00  0.00     0.395 HD
ENDBRANCH   1   7
TORSDOF 1
ENDMDL
