MODEL 1
REMARK minimizedAffinity -4.63958645
REMARK minimizedRMSD -1
REMARK  1 active torsions:
REMARK  status: ('A' for Active; 'I' for Inactive)
REMARK    1  A    between atoms: N_2  and  C1_3 
ROOT
ATOM      1  C1  UNL d   1       0.352   0.608   0.162  0.00  0.00     0.143 A 
ATOM      2  C2  UNL d   1       1.258   1.584  -0.265  0.00  0.00    -0.057 A 
ATOM      3  C3  UNL d   1       0.928   2.944  -0.236  0.00  0.00     0.033 A 
ATOM      4  C4  UNL d   1      -0.330   3.351   0.196  0.00  0.00    -0.042 A 
ATOM      5  C5  UNL d   1      -1.256   2.396   0.601  0.00  0.00     0.033 A 
ATOM      6  C6  UNL d   1      -0.918   1.040   0.576  0.00  0.00    -0.057 A 
ENDROOT
BRANCH   1   7
ATOM      7  N   UNL d   1       0.586  -0.766   0.064  0.00  0.00    -0.732 N 
ATOM      8  C   UNL d   1      -0.497  -1.678  -0.238  0.00  0.00     0.284 C 
ATOM      9  H3  UNL d   1       1.455  -0.979  -0.420  0.00  0.00     0.395 HD
ENDBRANCH   1   7
TORSDOF 1
ENDMDL
