MODEL 1
REMARK minimizedAffinity -2.32953691
REMARK minimizedRMSD -1
REMARK  1 active torsions:
REMARK  status: ('A' for Active; 'I' for Inactive)
REMARK    1  A    between atoms: N_2  and  C1_3 
ROOT
ATOM      1  C1  UNL d   1       0.130   1.179   0.312  0.00  0.00     0.143 A 
ATOM      2  C2  UNL d   1       1.343   0.496   0.176  0.00  0.00    -0.057 A 
ATOM      3  C3  UNL d   1       1.406  -0.899   0.274  0.00  0.00     0.033 A 
ATOM      4  C4  UNL d   1       0.257  -1.636   0.539  0.00  0.00    -0.042 A 
ATOM      5  C5  UNL d   1      -0.956  -0.977   0.703  0.00  0.00     0.033 A 
ATOM      6  C6  UNL d   1      -1.013   0.416   0.598  0.00  0.00    -0.057 A 
ENDROOT
BRANCH   1   7
ATOM      7  N   UNL d   1       0.018   2.572   0.323  0.00  0.00    -0.732 N 
ATOM      8  C   UNL d   1      -0.542   3.257   1.468  0.00  0.00     0.284 C 
ATOM      9  H3  UNL d   1       0.832   3.030  -0.079  0.00  0.00     0.395 HD
ENDBRANCH   1   7
TORSDOF 1
ENDMDL
