MODEL 1
REMARK minimizedAffinity -3.40672421
REMARK minimizedRMSD -1
REMARK  1 active torsions:
REMARK  status: ('A' for Active; 'I' for Inactive)
REMARK    1  A    between atoms: N_2  and  C1_3 
ROOT
ATOM      1  C1  UNL d   1       0.173  -1.014  -0.076  0.00  0.00     0.143 A 
ATOM      2  C2  UNL d   1      -0.194   0.080  -0.868  0.00  0.00    -0.057 A 
ATOM      3  C3  UNL d   1       0.630   1.207  -0.976  0.00  0.00     0.033 A 
ATOM      4  C4  UNL d   1       1.826   1.272  -0.269  0.00  0.00    -0.042 A 
ATOM      5  C5  UNL d   1       2.198   0.207   0.544  0.00  0.00     0.033 A 
ATOM      6  C6  UNL d   1       1.374  -0.918   0.643  0.00  0.00    -0.057 A 
ENDROOT
BRANCH   1   7
ATOM      7  N   UNL d   1      -0.649  -2.121   0.150  0.00  0.00    -0.732 N 
ATOM      8  C   UNL d   1      -1.020  -2.998  -0.940  0.00  0.00     0.284 C 
ATOM      9  H3  UNL d   1      -0.418  -2.606   1.014  0.00  0.00     0.395 HD
ENDBRANCH   1   7
TORSDOF 1
ENDMDL
