MODEL 1
REMARK minimizedAffinity -5.05316353
REMARK minimizedRMSD -1
REMARK  1 active torsions:
REMARK  status: ('A' for Active; 'I' for Inactive)
REMARK    1  A    between atoms: N_2  and  C1_3 
ROOT
ATOM      1  C1  UNL d   1      -0.168  -0.071  -0.198  0.00  0.00     0.143 A 
ATOM      2  C2  UNL d   1      -1.167   0.773   0.299  0.00  0.00    -0.057 A 
ATOM      3  C3  UNL d   1      -0.994   2.162   0.331  0.00  0.00     0.033 A 
ATOM      4  C4  UNL d   1       0.197   2.731  -0.108  0.00  0.00    -0.042 A 
ATOM      5  C5  UNL d   1       1.213   1.909  -0.583  0.00  0.00     0.033 A 
ATOM      6  C6  UNL d   1       1.032   0.523  -0.618  0.00  0.00    -0.057 A 
ENDROOT
BRANCH   1   7
ATOM      7  N   UNL d   1      -0.241  -1.466  -0.164  0.00  0.00    -0.732 N 
ATOM      8  C   UNL d   1      -0.483  -2.221  -1.375  0.00  0.00     0.284 C 
ATOM      9  H3  UNL d   1       0.459  -1.877   0.449  0.00  0.00     0.395 HD
ENDBRANCH   1   7
TORSDOF 1
ENDMDL
