MODEL 1
REMARK minimizedAffinity 12.6463451
REMARK minimizedRMSD -1
REMARK  1 active torsions:
REMARK  status: ('A' for Active; 'I' for Inactive)
REMARK    1  A    between atoms: C1_2  and  C2_3 
ROOT
ATOM      1  C2  UNL d   1      -2.262  -0.684   2.340  0.00  0.00    -0.073 A 
ATOM      2  C3  UNL d   1      -1.186  -1.047   1.521  0.00  0.00    -0.002 A 
ATOM      3  C4  UNL d   1      -1.170  -2.291   0.889  0.00  0.00     0.004 A 
ATOM      4  C5  UNL d   1      -2.229  -3.180   1.063  0.00  0.00    -0.004 A 
ATOM      5  C6  UNL d   1      -3.319  -2.832   1.867  0.00  0.00    -0.075 A 
ATOM      6  C7  UNL d   1      -4.466  -3.779   2.066  0.00  0.00     0.076 C 
ATOM      7  C8  UNL d   1      -3.327  -1.582   2.501  0.00  0.00     0.001 A 
ENDROOT
BRANCH   1   8
ATOM      8  C1  UNL d   1      -2.287   0.660   3.020  0.00  0.00     0.053 C 
ATOM      9  C   UNL d   1      -2.744   0.559   4.467  0.00  0.00     0.018 C 
ENDBRANCH   1   8
TORSDOF 1
ENDMDL
