MODEL 1
REMARK minimizedAffinity 15.2803278
REMARK minimizedRMSD -1
REMARK  1 active torsions:
REMARK  status: ('A' for Active; 'I' for Inactive)
REMARK    1  A    between atoms: C1_2  and  C2_3 
ROOT
ATOM      1  C2  UNL d   1      -2.236  -0.239   2.514  0.00  0.00    -0.073 A 
ATOM      2  C3  UNL d   1      -1.156  -0.287   1.626  0.00  0.00    -0.002 A 
ATOM      3  C4  UNL d   1      -0.946  -1.415   0.832  0.00  0.00     0.004 A 
ATOM      4  C5  UNL d   1      -1.816  -2.502   0.913  0.00  0.00    -0.004 A 
ATOM      5  C6  UNL d   1      -2.908  -2.468   1.785  0.00  0.00    -0.075 A 
ATOM      6  C7  UNL d   1      -3.853  -3.630   1.885  0.00  0.00     0.076 C 
ATOM      7  C8  UNL d   1      -3.111  -1.332   2.582  0.00  0.00     0.001 A 
ENDROOT
BRANCH   1   8
ATOM      8  C1  UNL d   1      -2.470   0.980   3.369  0.00  0.00     0.053 C 
ATOM      9  C   UNL d   1      -2.507   0.639   4.850  0.00  0.00     0.018 C 
ENDBRANCH   1   8
TORSDOF 1
ENDMDL
