MODEL 1
REMARK minimizedAffinity 8.34727192
REMARK minimizedRMSD -1
REMARK  1 active torsions:
REMARK  status: ('A' for Active; 'I' for Inactive)
REMARK    1  A    between atoms: C1_2  and  C2_3 
ROOT
ATOM      1  C2  UNL d   1       5.445   5.015  -2.841  0.00  0.00    -0.073 A 
ATOM      2  C3  UNL d   1       6.000   4.938  -4.123  0.00  0.00    -0.002 A 
ATOM      3  C4  UNL d   1       5.479   4.050  -5.065  0.00  0.00     0.004 A 
ATOM      4  C5  UNL d   1       4.395   3.236  -4.738  0.00  0.00    -0.004 A 
ATOM      5  C6  UNL d   1       3.819   3.306  -3.465  0.00  0.00    -0.075 A 
ATOM      6  C7  UNL d   1       2.654   2.435  -3.097  0.00  0.00     0.076 C 
ATOM      7  C8  UNL d   1       4.349   4.198  -2.524  0.00  0.00     0.001 A 
ENDROOT
BRANCH   1   8
ATOM      8  C1  UNL d   1       6.000   5.977  -1.823  0.00  0.00     0.053 C 
ATOM      9  C   UNL d   1       6.000   5.386  -0.421  0.00  0.00     0.018 C 
ENDBRANCH   1   8
TORSDOF 1
ENDMDL
