MODEL 1
REMARK minimizedAffinity 11.838789
REMARK minimizedRMSD -1
REMARK  1 active torsions:
REMARK  status: ('A' for Active; 'I' for Inactive)
REMARK    1  A    between atoms: C1_2  and  C2_3 
ROOT
ATOM      1  C2  UNL d   1      -4.260   0.844   1.849  0.00  0.00    -0.073 A 
ATOM      2  C3  UNL d   1      -3.965   1.541   3.027  0.00  0.00    -0.002 A 
ATOM      3  C4  UNL d   1      -2.804   1.251   3.745  0.00  0.00     0.004 A 
ATOM      4  C5  UNL d   1      -1.925   0.269   3.292  0.00  0.00    -0.004 A 
ATOM      5  C6  UNL d   1      -2.196  -0.431   2.111  0.00  0.00    -0.075 A 
ATOM      6  C7  UNL d   1      -1.261  -1.492   1.611  0.00  0.00     0.076 C 
ATOM      7  C8  UNL d   1      -3.365  -0.136   1.397  0.00  0.00     0.001 A 
ENDROOT
BRANCH   1   8
ATOM      8  C1  UNL d   1      -5.509   1.158   1.067  0.00  0.00     0.053 C 
ATOM      9  C   UNL d   1      -5.419   0.668  -0.370  0.00  0.00     0.018 C 
ENDBRANCH   1   8
TORSDOF 1
ENDMDL
