MODEL 1
REMARK minimizedAffinity 13.6964092
REMARK minimizedRMSD -1
REMARK  1 active torsions:
REMARK  status: ('A' for Active; 'I' for Inactive)
REMARK    1  A    between atoms: C1_2  and  C2_3 
ROOT
ATOM      1  C2  UNL d   1      -1.021  -4.337  -3.235  0.00  0.00    -0.073 A 
ATOM      2  C3  UNL d   1       0.275  -4.749  -3.566  0.00  0.00    -0.002 A 
ATOM      3  C4  UNL d   1       0.493  -5.567  -4.676  0.00  0.00     0.004 A 
ATOM      4  C5  UNL d   1      -0.580  -5.976  -5.468  0.00  0.00    -0.004 A 
ATOM      5  C6  UNL d   1      -1.881  -5.565  -5.159  0.00  0.00    -0.075 A 
ATOM      6  C7  UNL d   1      -3.046  -5.998  -6.000  0.00  0.00     0.076 C 
ATOM      7  C8  UNL d   1      -2.092  -4.746  -4.042  0.00  0.00     0.001 A 
ENDROOT
BRANCH   1   8
ATOM      8  C1  UNL d   1      -1.260  -3.449  -2.041  0.00  0.00     0.053 C 
ATOM      9  C   UNL d   1      -1.034  -4.183  -0.729  0.00  0.00     0.018 C 
ENDBRANCH   1   8
TORSDOF 1
ENDMDL
