MODEL 1
REMARK minimizedAffinity 3.59381461
REMARK minimizedRMSD -1
REMARK  1 active torsions:
REMARK  status: ('A' for Active; 'I' for Inactive)
REMARK    1  A    between atoms: C1_2  and  C2_3 
ROOT
ATOM      1  C2  UNL d   1      -5.244   2.548   4.413  0.00  0.00    -0.073 A 
ATOM      2  C3  UNL d   1      -3.849   2.444   4.452  0.00  0.00    -0.002 A 
ATOM      3  C4  UNL d   1      -3.156   1.864   3.390  0.00  0.00     0.004 A 
ATOM      4  C5  UNL d   1      -3.847   1.389   2.276  0.00  0.00    -0.004 A 
ATOM      5  C6  UNL d   1      -5.240   1.495   2.212  0.00  0.00    -0.075 A 
ATOM      6  C7  UNL d   1      -6.000   0.987   1.022  0.00  0.00     0.076 C 
ATOM      7  C8  UNL d   1      -5.930   2.076   3.285  0.00  0.00     0.001 A 
ENDROOT
BRANCH   1   8
ATOM      8  C1  UNL d   1      -5.997   3.179   5.556  0.00  0.00     0.053 C 
ATOM      9  C   UNL d   1      -5.970   4.698   5.486  0.00  0.00     0.018 C 
ENDBRANCH   1   8
TORSDOF 1
ENDMDL
