MODEL 1
REMARK minimizedAffinity 16.9241657
REMARK minimizedRMSD -1
REMARK  1 active torsions:
REMARK  status: ('A' for Active; 'I' for Inactive)
REMARK    1  A    between atoms: C1_2  and  C2_3 
ROOT
ATOM      1  C2  UNL d   1      -3.193  -5.452  -4.923  0.00  0.00    -0.073 A 
ATOM      2  C3  UNL d   1      -3.041  -4.473  -3.935  0.00  0.00    -0.002 A 
ATOM      3  C4  UNL d   1      -1.773  -3.988  -3.613  0.00  0.00     0.004 A 
ATOM      4  C5  UNL d   1      -0.646  -4.472  -4.278  0.00  0.00    -0.004 A 
ATOM      5  C6  UNL d   1      -0.779  -5.442  -5.276  0.00  0.00    -0.075 A 
ATOM      6  C7  UNL d   1       0.423  -5.974  -6.000  0.00  0.00     0.076 C 
ATOM      7  C8  UNL d   1      -2.056  -5.926  -5.593  0.00  0.00     0.001 A 
ENDROOT
BRANCH   1   8
ATOM      8  C1  UNL d   1      -4.561  -5.974  -5.279  0.00  0.00     0.053 C 
ATOM      9  C   UNL d   1      -5.647  -4.936  -5.042  0.00  0.00     0.018 C 
ENDBRANCH   1   8
TORSDOF 1
ENDMDL
