MODEL 1
REMARK minimizedAffinity 8.90144157
REMARK minimizedRMSD -1
REMARK  1 active torsions:
REMARK  status: ('A' for Active; 'I' for Inactive)
REMARK    1  A    between atoms: C1_2  and  C2_3 
ROOT
ATOM      1  C2  UNL d   1       3.418   1.423  -1.074  0.00  0.00    -0.073 A 
ATOM      2  C3  UNL d   1       2.717   0.681  -0.117  0.00  0.00    -0.002 A 
ATOM      3  C4  UNL d   1       3.083   0.742   1.229  0.00  0.00     0.004 A 
ATOM      4  C5  UNL d   1       4.147   1.549   1.631  0.00  0.00    -0.004 A 
ATOM      5  C6  UNL d   1       4.852   2.308   0.691  0.00  0.00    -0.075 A 
ATOM      6  C7  UNL d   1       6.000   3.179   1.107  0.00  0.00     0.076 C 
ATOM      7  C8  UNL d   1       4.480   2.239  -0.658  0.00  0.00     0.001 A 
ENDROOT
BRANCH   1   8
ATOM      8  C1  UNL d   1       3.022   1.366  -2.527  0.00  0.00     0.053 C 
ATOM      9  C   UNL d   1       3.027   2.742  -3.174  0.00  0.00     0.018 C 
ENDBRANCH   1   8
TORSDOF 1
ENDMDL
