MODEL 1
REMARK minimizedAffinity 1.96065211
REMARK minimizedRMSD -1
REMARK  1 active torsions:
REMARK  status: ('A' for Active; 'I' for Inactive)
REMARK    1  A    between atoms: C1_2  and  C2_3 
ROOT
ATOM      1  C2  UNL d   1       3.002  -3.814   0.359  0.00  0.00    -0.073 A 
ATOM      2  C3  UNL d   1       1.731  -4.343   0.109  0.00  0.00    -0.002 A 
ATOM      3  C4  UNL d   1       0.591  -3.691   0.581  0.00  0.00     0.004 A 
ATOM      4  C5  UNL d   1       0.709  -2.502   1.300  0.00  0.00    -0.004 A 
ATOM      5  C6  UNL d   1       1.970  -1.951   1.549  0.00  0.00    -0.075 A 
ATOM      6  C7  UNL d   1       2.115  -0.673   2.323  0.00  0.00     0.076 C 
ATOM      7  C8  UNL d   1       3.111  -2.613   1.074  0.00  0.00     0.001 A 
ENDROOT
BRANCH   1   8
ATOM      8  C1  UNL d   1       4.236  -4.511  -0.155  0.00  0.00     0.053 C 
ATOM      9  C   UNL d   1       4.544  -5.776   0.631  0.00  0.00     0.018 C 
ENDBRANCH   1   8
TORSDOF 1
ENDMDL
