MODEL 1
REMARK minimizedAffinity -1.28765655
REMARK minimizedRMSD -1
REMARK  1 active torsions:
REMARK  status: ('A' for Active; 'I' for Inactive)
REMARK    1  A    between atoms: C1_2  and  C2_3 
ROOT
ATOM      1  C2  UNL d   1      -4.973  -4.483   3.326  0.00  0.00    -0.073 A 
ATOM      2  C3  UNL d   1      -5.350  -5.587   4.098  0.00  0.00    -0.002 A 
ATOM      3  C4  UNL d   1      -5.735  -5.419   5.429  0.00  0.00     0.004 A 
ATOM      4  C5  UNL d   1      -5.754  -4.146   5.999  0.00  0.00    -0.004 A 
ATOM      5  C6  UNL d   1      -5.391  -3.028   5.240  0.00  0.00    -0.075 A 
ATOM      6  C7  UNL d   1      -5.404  -1.653   5.839  0.00  0.00     0.076 C 
ATOM      7  C8  UNL d   1      -5.003  -3.206   3.905  0.00  0.00     0.001 A 
ENDROOT
BRANCH   1   8
ATOM      8  C1  UNL d   1      -4.562  -4.659   1.887  0.00  0.00     0.053 C 
ATOM      9  C   UNL d   1      -5.723  -5.109   1.014  0.00  0.00     0.018 C 
ENDBRANCH   1   8
TORSDOF 1
ENDMDL
