MODEL 1
REMARK minimizedAffinity 1.68649828
REMARK minimizedRMSD -1
REMARK  1 active torsions:
REMARK  status: ('A' for Active; 'I' for Inactive)
REMARK    1  A    between atoms: C1_2  and  C2_3 
ROOT
ATOM      1  C2  UNL d   1       1.880  -3.696   0.375  0.00  0.00    -0.073 A 
ATOM      2  C3  UNL d   1       2.496  -2.439   0.352  0.00  0.00    -0.002 A 
ATOM      3  C4  UNL d   1       3.887  -2.337   0.300  0.00  0.00     0.004 A 
ATOM      4  C5  UNL d   1       4.674  -3.488   0.265  0.00  0.00    -0.004 A 
ATOM      5  C6  UNL d   1       4.077  -4.752   0.275  0.00  0.00    -0.075 A 
ATOM      6  C7  UNL d   1       4.910  -6.000   0.240  0.00  0.00     0.076 C 
ATOM      7  C8  UNL d   1       2.679  -4.847   0.330  0.00  0.00     0.001 A 
ENDROOT
BRANCH   1   8
ATOM      8  C1  UNL d   1       0.378  -3.811   0.425  0.00  0.00     0.053 C 
ATOM      9  C   UNL d   1      -0.218  -3.012   1.573  0.00  0.00     0.018 C 
ENDBRANCH   1   8
TORSDOF 1
ENDMDL
