MODEL 1
REMARK minimizedAffinity 2.38059759
REMARK minimizedRMSD -1
REMARK  0 active torsions:
REMARK  status: ('A' for Active; 'I' for Inactive)
ROOT
ATOM      1  O1  BZF d   1       2.197  -1.614  -0.203  0.00  0.00    -0.204 OA
ATOM      2  C2  BZF d   1       2.351  -0.429   0.490  0.00  0.00     0.174 A 
ATOM      3  C3  BZF d   1       1.285   0.376   0.304  0.00  0.00    -0.012 A 
ATOM      4  C3A BZF d   1       0.369  -0.389  -0.485  0.00  0.00    -0.107 A 
ATOM      5  C4  BZF d   1      -0.877  -0.138  -0.984  0.00  0.00     0.055 A 
ATOM      6  C5  BZF d   1      -1.471  -1.068  -1.777  0.00  0.00    -0.016 A 
ATOM      7  C6  BZF d   1      -0.845  -2.255  -2.097  0.00  0.00     0.022 A 
ATOM      8  C7  BZF d   1       0.389  -2.551  -1.622  0.00  0.00     0.029 A 
ATOM      9  C7A BZF d   1       0.978  -1.628  -0.793  0.00  0.00     0.058 A 
ENDROOT
TORSDOF 0
ENDMDL
