MODEL 1
REMARK minimizedAffinity 0.359312922
REMARK minimizedRMSD -1
REMARK  0 active torsions:
REMARK  status: ('A' for Active; 'I' for Inactive)
ROOT
ATOM      1  O1  BZF d   1       1.161  -5.940   5.971  0.00  0.00    -0.204 OA
ATOM      2  C2  BZF d   1       2.534  -5.787   5.986  0.00  0.00     0.174 A 
ATOM      3  C3  BZF d   1       2.871  -4.482   5.944  0.00  0.00    -0.012 A 
ATOM      4  C3A BZF d   1       1.629  -3.772   5.994  0.00  0.00    -0.107 A 
ATOM      5  C4  BZF d   1       1.306  -2.445   6.000  0.00  0.00     0.055 A 
ATOM      6  C5  BZF d   1      -0.004  -2.084   5.980  0.00  0.00    -0.016 A 
ATOM      7  C6  BZF d   1      -1.015  -3.021   5.948  0.00  0.00     0.022 A 
ATOM      8  C7  BZF d   1      -0.744  -4.349   5.946  0.00  0.00     0.029 A 
ATOM      9  C7A BZF d   1       0.578  -4.718   6.000  0.00  0.00     0.058 A 
ENDROOT
TORSDOF 0
ENDMDL
