MODEL 1
REMARK minimizedAffinity 3.999336
REMARK minimizedRMSD -1
REMARK  0 active torsions:
REMARK  status: ('A' for Active; 'I' for Inactive)
ROOT
ATOM      1  O1  BZF d   1       0.306  -5.087   5.955  0.00  0.00    -0.204 OA
ATOM      2  C2  BZF d   1      -1.075  -5.110   5.945  0.00  0.00     0.174 A 
ATOM      3  C3  BZF d   1      -1.575  -3.858   6.000  0.00  0.00    -0.012 A 
ATOM      4  C3A BZF d   1      -0.434  -2.996   5.954  0.00  0.00    -0.107 A 
ATOM      5  C4  BZF d   1      -0.282  -1.639   5.959  0.00  0.00     0.055 A 
ATOM      6  C5  BZF d   1       0.971  -1.114   5.979  0.00  0.00    -0.016 A 
ATOM      7  C6  BZF d   1       2.093  -1.916   6.000  0.00  0.00     0.022 A 
ATOM      8  C7  BZF d   1       1.993  -3.268   5.990  0.00  0.00     0.029 A 
ATOM      9  C7A BZF d   1       0.729  -3.801   5.936  0.00  0.00     0.058 A 
ENDROOT
TORSDOF 0
ENDMDL
