MODEL 1
REMARK minimizedAffinity 0.351672798
REMARK minimizedRMSD -1
REMARK  0 active torsions:
REMARK  status: ('A' for Active; 'I' for Inactive)
ROOT
ATOM      1  O1  BZF d   1       2.723  -3.343   5.834  0.00  0.00    -0.204 OA
ATOM      2  C2  BZF d   1       2.826  -4.721   5.870  0.00  0.00     0.174 A 
ATOM      3  C3  BZF d   1       1.608  -5.288   5.990  0.00  0.00    -0.012 A 
ATOM      4  C3A BZF d   1       0.680  -4.201   5.938  0.00  0.00    -0.107 A 
ATOM      5  C4  BZF d   1      -0.683  -4.127   5.991  0.00  0.00     0.055 A 
ATOM      6  C5  BZF d   1      -1.279  -2.906   5.989  0.00  0.00    -0.016 A 
ATOM      7  C6  BZF d   1      -0.544  -1.740   5.940  0.00  0.00     0.022 A 
ATOM      8  C7  BZF d   1       0.810  -1.762   5.882  0.00  0.00     0.029 A 
ATOM      9  C7A BZF d   1       1.414  -2.996   5.850  0.00  0.00     0.058 A 
ENDROOT
TORSDOF 0
ENDMDL
