MODEL 1
REMARK minimizedAffinity 3.56689978
REMARK minimizedRMSD -1
REMARK  0 active torsions:
REMARK  status: ('A' for Active; 'I' for Inactive)
ROOT
ATOM      1  O1  BZF d   1       0.814  -5.793   5.969  0.00  0.00    -0.204 OA
ATOM      2  C2  BZF d   1      -0.568  -5.811   5.950  0.00  0.00     0.174 A 
ATOM      3  C3  BZF d   1      -1.063  -4.557   5.990  0.00  0.00    -0.012 A 
ATOM      4  C3A BZF d   1       0.082  -3.699   5.944  0.00  0.00    -0.107 A 
ATOM      5  C4  BZF d   1       0.238  -2.343   5.939  0.00  0.00     0.055 A 
ATOM      6  C5  BZF d   1       1.494  -1.823   5.963  0.00  0.00    -0.016 A 
ATOM      7  C6  BZF d   1       2.613  -2.628   5.998  0.00  0.00     0.022 A 
ATOM      8  C7  BZF d   1       2.508  -3.980   6.000  0.00  0.00     0.029 A 
ATOM      9  C7A BZF d   1       1.241  -4.508   5.942  0.00  0.00     0.058 A 
ENDROOT
TORSDOF 0
ENDMDL
