MODEL 1
REMARK minimizedAffinity -0.78777945
REMARK minimizedRMSD -1
REMARK  0 active torsions:
REMARK  status: ('A' for Active; 'I' for Inactive)
ROOT
ATOM      1  O1  BZF d   1       1.119  -5.656   5.974  0.00  0.00    -0.204 OA
ATOM      2  C2  BZF d   1       2.463  -5.336   5.994  0.00  0.00     0.174 A 
ATOM      3  C3  BZF d   1       2.637  -3.999   5.952  0.00  0.00    -0.012 A 
ATOM      4  C3A BZF d   1       1.318  -3.446   5.996  0.00  0.00    -0.107 A 
ATOM      5  C4  BZF d   1       0.835  -2.169   6.000  0.00  0.00     0.055 A 
ATOM      6  C5  BZF d   1      -0.509  -1.971   5.975  0.00  0.00    -0.016 A 
ATOM      7  C6  BZF d   1      -1.398  -3.026   5.941  0.00  0.00     0.022 A 
ATOM      8  C7  BZF d   1      -0.966  -4.311   5.941  0.00  0.00     0.029 A 
ATOM      9  C7A BZF d   1       0.391  -4.514   6.000  0.00  0.00     0.058 A 
ENDROOT
TORSDOF 0
ENDMDL
