MODEL 1
REMARK minimizedAffinity 2.11628985
REMARK minimizedRMSD -1
REMARK  0 active torsions:
REMARK  status: ('A' for Active; 'I' for Inactive)
ROOT
ATOM      1  O1  BZF d   1      -2.707   2.043   1.139  0.00  0.00    -0.204 OA
ATOM      2  C2  BZF d   1      -3.193   3.009   1.999  0.00  0.00     0.174 A 
ATOM      3  C3  BZF d   1      -4.504   2.813   2.248  0.00  0.00    -0.012 A 
ATOM      4  C3A BZF d   1      -4.838   1.598   1.569  0.00  0.00    -0.107 A 
ATOM      5  C4  BZF d   1      -5.989   0.874   1.453  0.00  0.00     0.055 A 
ATOM      6  C5  BZF d   1      -6.000  -0.227   0.657  0.00  0.00    -0.016 A 
ATOM      7  C6  BZF d   1      -4.880  -0.629  -0.041  0.00  0.00     0.022 A 
ATOM      8  C7  BZF d   1      -3.713   0.054   0.046  0.00  0.00     0.029 A 
ATOM      9  C7A BZF d   1      -3.690   1.149   0.876  0.00  0.00     0.058 A 
ENDROOT
TORSDOF 0
ENDMDL
