MODEL 1
REMARK minimizedAffinity 3.22487354
REMARK minimizedRMSD -1
REMARK  0 active torsions:
REMARK  status: ('A' for Active; 'I' for Inactive)
ROOT
ATOM      1  O1  BZF d   1       0.228  -5.051   5.989  0.00  0.00    -0.204 OA
ATOM      2  C2  BZF d   1      -1.144  -4.893   5.962  0.00  0.00     0.174 A 
ATOM      3  C3  BZF d   1      -1.475  -3.586   5.978  0.00  0.00    -0.012 A 
ATOM      4  C3A BZF d   1      -0.230  -2.882   5.924  0.00  0.00    -0.107 A 
ATOM      5  C4  BZF d   1       0.098  -1.556   5.897  0.00  0.00     0.055 A 
ATOM      6  C5  BZF d   1       1.410  -1.201   5.920  0.00  0.00    -0.016 A 
ATOM      7  C6  BZF d   1       2.416  -2.142   5.975  0.00  0.00     0.022 A 
ATOM      8  C7  BZF d   1       2.140  -3.468   5.999  0.00  0.00     0.029 A 
ATOM      9  C7A BZF d   1       0.816  -3.832   5.943  0.00  0.00     0.058 A 
ENDROOT
TORSDOF 0
ENDMDL
