MODEL 1
REMARK minimizedAffinity -2.54844093
REMARK minimizedRMSD -1
REMARK  3 active torsions:
REMARK  status: ('A' for Active; 'I' for Inactive)
REMARK    1  A    between atoms: C3'_2  and  C2'_3 
REMARK    2  A    between atoms: C2'_3  and  C1'_4 
REMARK    3  A    between atoms: C1'_4  and  C1_5 
ROOT
ATOM      1  C1  N4B d   1       0.347   0.816   0.735  0.00  0.00    -0.075 A 
ATOM      2  C2  N4B d   1      -0.151   0.349  -0.502  0.00  0.00     0.002 A 
ATOM      3  C3  N4B d   1       0.484  -0.680  -1.152  0.00  0.00     0.002 A 
ATOM      4  C4  N4B d   1       1.624  -1.243  -0.598  0.00  0.00    -0.004 A 
ATOM      5  C5  N4B d   1       2.084  -0.803   0.609  0.00  0.00     0.002 A 
ATOM      6  C6  N4B d   1       1.453   0.228   1.276  0.00  0.00     0.002 A 
ENDROOT
BRANCH   1   7
ATOM      7  C1' N4B d   1      -0.264   1.995   1.442  0.00  0.00     0.057 C 
BRANCH   7   8
ATOM      8  C2' N4B d   1      -0.915   1.521   2.737  0.00  0.00     0.009 C 
BRANCH   8   9
ATOM      9  C3' N4B d   1      -1.993   0.481   2.483  0.00  0.00     0.004 C 
ATOM     10  C4' N4B d   1      -2.184  -0.452   3.642  0.00  0.00     0.003 C 
ENDBRANCH   8   9
ENDBRANCH   7   8
ENDBRANCH   1   7
TORSDOF 3
ENDMDL
