MODEL 1
REMARK minimizedAffinity -3.65355945
REMARK minimizedRMSD -1
REMARK  3 active torsions:
REMARK  status: ('A' for Active; 'I' for Inactive)
REMARK    1  A    between atoms: C3'_2  and  C2'_3 
REMARK    2  A    between atoms: C2'_3  and  C1'_4 
REMARK    3  A    between atoms: C1'_4  and  C1_5 
ROOT
ATOM      1  C1  N4B d   1       0.304  -0.185  -0.259  0.00  0.00    -0.075 A 
ATOM      2  C2  N4B d   1      -1.105  -0.262  -0.218  0.00  0.00     0.002 A 
ATOM      3  C3  N4B d   1      -1.790   0.261   0.851  0.00  0.00     0.002 A 
ATOM      4  C4  N4B d   1      -1.089   0.845   1.895  0.00  0.00    -0.004 A 
ATOM      5  C5  N4B d   1       0.271   0.938   1.836  0.00  0.00     0.002 A 
ATOM      6  C6  N4B d   1       0.972   0.421   0.766  0.00  0.00     0.002 A 
ENDROOT
BRANCH   1   7
ATOM      7  C1' N4B d   1       1.102  -0.818  -1.367  0.00  0.00     0.057 C 
BRANCH   7   8
ATOM      8  C2' N4B d   1       1.782   0.277  -2.183  0.00  0.00     0.009 C 
BRANCH   8   9
ATOM      9  C3' N4B d   1       1.306   0.289  -3.626  0.00  0.00     0.004 C 
ATOM     10  C4' N4B d   1      -0.013  -0.402  -3.808  0.00  0.00     0.003 C 
ENDBRANCH   8   9
ENDBRANCH   7   8
ENDBRANCH   1   7
TORSDOF 3
ENDMDL
