MODEL 1
REMARK minimizedAffinity -5.67166758
REMARK minimizedRMSD -1
REMARK  3 active torsions:
REMARK  status: ('A' for Active; 'I' for Inactive)
REMARK    1  A    between atoms: C3'_2  and  C2'_3 
REMARK    2  A    between atoms: C2'_3  and  C1'_4 
REMARK    3  A    between atoms: C1'_4  and  C1_5 
ROOT
ATOM      1  C1  N4B d   1       0.150  -0.791  -2.009  0.00  0.00    -0.075 A 
ATOM      2  C2  N4B d   1       0.667   0.414  -2.532  0.00  0.00     0.002 A 
ATOM      3  C3  N4B d   1       0.450   0.740  -3.849  0.00  0.00     0.002 A 
ATOM      4  C4  N4B d   1      -0.261  -0.129  -4.662  0.00  0.00    -0.004 A 
ATOM      5  C5  N4B d   1      -0.779  -1.279  -4.142  0.00  0.00     0.002 A 
ATOM      6  C6  N4B d   1      -0.573  -1.617  -2.820  0.00  0.00     0.002 A 
ENDROOT
BRANCH   1   7
ATOM      7  C1' N4B d   1       0.433  -1.231  -0.599  0.00  0.00     0.057 C 
BRANCH   7   8
ATOM      8  C2' N4B d   1       0.570   0.000   0.292  0.00  0.00     0.009 C 
BRANCH   8   9
ATOM      9  C3' N4B d   1      -0.755   0.397   0.921  0.00  0.00     0.004 C 
ATOM     10  C4' N4B d   1      -0.585   1.226   2.159  0.00  0.00     0.003 C 
ENDBRANCH   8   9
ENDBRANCH   7   8
ENDBRANCH   1   7
TORSDOF 3
ENDMDL
