MODEL 1
REMARK minimizedAffinity 4.63015127
REMARK minimizedRMSD -1
REMARK  3 active torsions:
REMARK  status: ('A' for Active; 'I' for Inactive)
REMARK    1  A    between atoms: C3'_2  and  C2'_3 
REMARK    2  A    between atoms: C2'_3  and  C1'_4 
REMARK    3  A    between atoms: C1'_4  and  C1_5 
ROOT
ATOM      1  C1  N4B d   1       4.351  -0.360  -3.387  0.00  0.00    -0.075 A 
ATOM      2  C2  N4B d   1       4.549  -0.373  -4.785  0.00  0.00     0.002 A 
ATOM      3  C3  N4B d   1       5.362  -1.322  -5.355  0.00  0.00     0.002 A 
ATOM      4  C4  N4B d   1       6.000  -2.252  -4.548  0.00  0.00    -0.004 A 
ATOM      5  C5  N4B d   1       5.784  -2.249  -3.202  0.00  0.00     0.002 A 
ATOM      6  C6  N4B d   1       4.966  -1.304  -2.616  0.00  0.00     0.002 A 
ENDROOT
BRANCH   1   7
ATOM      7  C1' N4B d   1       3.540   0.710  -2.709  0.00  0.00     0.057 C 
BRANCH   7   8
ATOM      8  C2' N4B d   1       2.058   0.374  -2.842  0.00  0.00     0.009 C 
BRANCH   8   9
ATOM      9  C3' N4B d   1       1.602   0.376  -4.291  0.00  0.00     0.004 C 
ATOM     10  C4' N4B d   1       0.326  -0.383  -4.499  0.00  0.00     0.003 C 
ENDBRANCH   8   9
ENDBRANCH   7   8
ENDBRANCH   1   7
TORSDOF 3
ENDMDL
