MODEL 1
REMARK minimizedAffinity -4.02304506
REMARK minimizedRMSD -1
REMARK  1 active torsions:
REMARK  status: ('A' for Active; 'I' for Inactive)
REMARK    1  A    between atoms: C1_2  and  C2_3 
ROOT
ATOM      1  C2  UNL d   1       1.405  -1.295   1.684  0.00  0.00    -0.076 A 
ATOM      2  C3  UNL d   1       0.022  -1.179   1.462  0.00  0.00     0.004 A 
ATOM      3  C4  UNL d   1      -0.481  -0.272   0.531  0.00  0.00    -0.003 A 
ATOM      4  C5  UNL d   1       0.391   0.533  -0.194  0.00  0.00     0.000 A 
ATOM      5  C6  UNL d   1       1.767   0.418   0.000  0.00  0.00     0.000 A 
ATOM      6  C7  UNL d   1       2.291  -0.502   0.923  0.00  0.00    -0.073 A 
ATOM      7  C8  UNL d   1       3.783  -0.580   1.097  0.00  0.00     0.078 C 
ENDROOT
BRANCH   1   8
ATOM      8  C1  UNL d   1       1.891  -2.277   2.726  0.00  0.00     0.053 C 
ATOM      9  C   UNL d   1       1.772  -1.732   4.140  0.00  0.00     0.018 C 
ENDBRANCH   1   8
TORSDOF 1
ENDMDL
