MODEL 1
REMARK minimizedAffinity -5.23549986
REMARK minimizedRMSD -1
REMARK  1 active torsions:
REMARK  status: ('A' for Active; 'I' for Inactive)
REMARK    1  A    between atoms: C1_2  and  C2_3 
ROOT
ATOM      1  C2  UNL d   1       0.981  -0.736   0.900  0.00  0.00    -0.076 A 
ATOM      2  C3  UNL d   1       0.396  -1.219   2.084  0.00  0.00     0.004 A 
ATOM      3  C4  UNL d   1       1.087  -2.093   2.921  0.00  0.00    -0.003 A 
ATOM      4  C5  UNL d   1       2.375  -2.499   2.588  0.00  0.00     0.000 A 
ATOM      5  C6  UNL d   1       2.977  -2.017   1.427  0.00  0.00     0.000 A 
ATOM      6  C7  UNL d   1       2.301  -1.122   0.581  0.00  0.00    -0.073 A 
ATOM      7  C8  UNL d   1       2.996  -0.638  -0.662  0.00  0.00     0.078 C 
ENDROOT
BRANCH   1   8
ATOM      8  C1  UNL d   1       0.174   0.189   0.018  0.00  0.00     0.053 C 
ATOM      9  C   UNL d   1      -0.028   1.560   0.643  0.00  0.00     0.018 C 
ENDBRANCH   1   8
TORSDOF 1
ENDMDL
