MODEL 1
REMARK minimizedAffinity -4.97117996
REMARK minimizedRMSD -1
REMARK  1 active torsions:
REMARK  status: ('A' for Active; 'I' for Inactive)
REMARK    1  A    between atoms: C1_2  and  C2_3 
ROOT
ATOM      1  C2  UNL d   1      -1.499   0.380  -1.048  0.00  0.00    -0.076 A 
ATOM      2  C3  UNL d   1      -1.511  -0.085  -2.374  0.00  0.00     0.004 A 
ATOM      3  C4  UNL d   1      -2.207   0.602  -3.368  0.00  0.00    -0.003 A 
ATOM      4  C5  UNL d   1      -2.901   1.765  -3.051  0.00  0.00     0.000 A 
ATOM      5  C6  UNL d   1      -2.884   2.249  -1.744  0.00  0.00     0.000 A 
ATOM      6  C7  UNL d   1      -2.175   1.578  -0.733  0.00  0.00    -0.073 A 
ATOM      7  C8  UNL d   1      -2.197   2.142   0.661  0.00  0.00     0.078 C 
ENDROOT
BRANCH   1   8
ATOM      8  C1  UNL d   1      -0.749  -0.422  -0.007  0.00  0.00     0.053 C 
ATOM      9  C   UNL d   1       0.741  -0.118   0.001  0.00  0.00     0.018 C 
ENDBRANCH   1   8
TORSDOF 1
ENDMDL
