MODEL 1
REMARK minimizedAffinity 0.343633264
REMARK minimizedRMSD -1
REMARK  1 active torsions:
REMARK  status: ('A' for Active; 'I' for Inactive)
REMARK    1  A    between atoms: C1_2  and  C2_3 
ROOT
ATOM      1  C2  UNL d   1      -0.161   0.215   0.617  0.00  0.00    -0.076 A 
ATOM      2  C3  UNL d   1      -0.933  -0.662  -0.165  0.00  0.00     0.004 A 
ATOM      3  C4  UNL d   1      -0.482  -1.948  -0.457  0.00  0.00    -0.003 A 
ATOM      4  C5  UNL d   1       0.748  -2.378   0.029  0.00  0.00     0.000 A 
ATOM      5  C6  UNL d   1       1.518  -1.528   0.821  0.00  0.00     0.000 A 
ATOM      6  C7  UNL d   1       1.071  -0.234   1.139  0.00  0.00    -0.073 A 
ATOM      7  C8  UNL d   1       1.945   0.643   1.992  0.00  0.00     0.078 C 
ENDROOT
BRANCH   1   8
ATOM      8  C1  UNL d   1      -0.689   1.608   0.879  0.00  0.00     0.053 C 
ATOM      9  C   UNL d   1      -2.193   1.627   1.106  0.00  0.00     0.018 C 
ENDBRANCH   1   8
TORSDOF 1
ENDMDL
