MODEL 1
REMARK minimizedAffinity -0.00232057599
REMARK minimizedRMSD -1
REMARK  1 active torsions:
REMARK  status: ('A' for Active; 'I' for Inactive)
REMARK    1  A    between atoms: C1_2  and  C2_3 
ROOT
ATOM      1  C2  UNL d   1      -1.588  -0.510  -1.617  0.00  0.00    -0.076 A 
ATOM      2  C3  UNL d   1      -0.375  -0.037  -1.087  0.00  0.00     0.004 A 
ATOM      3  C4  UNL d   1       0.176  -0.605   0.060  0.00  0.00    -0.003 A 
ATOM      4  C5  UNL d   1      -0.476  -1.655   0.696  0.00  0.00     0.000 A 
ATOM      5  C6  UNL d   1      -1.672  -2.149   0.174  0.00  0.00     0.000 A 
ATOM      6  C7  UNL d   1      -2.233  -1.599  -0.991  0.00  0.00    -0.073 A 
ATOM      7  C8  UNL d   1      -3.527  -2.166  -1.507  0.00  0.00     0.078 C 
ENDROOT
BRANCH   1   8
ATOM      8  C1  UNL d   1      -2.152   0.162  -2.849  0.00  0.00     0.053 C 
ATOM      9  C   UNL d   1      -2.100  -0.733  -4.077  0.00  0.00     0.018 C 
ENDBRANCH   1   8
TORSDOF 1
ENDMDL
