MODEL 1
REMARK minimizedAffinity -2.12450504
REMARK minimizedRMSD -1
REMARK  1 active torsions:
REMARK  status: ('A' for Active; 'I' for Inactive)
REMARK    1  A    between atoms: C1_2  and  C2_3 
ROOT
ATOM      1  C2  UNL d   1       1.708  -0.050   1.370  0.00  0.00    -0.076 A 
ATOM      2  C3  UNL d   1       1.428  -1.314   1.919  0.00  0.00     0.004 A 
ATOM      3  C4  UNL d   1       0.222  -1.961   1.652  0.00  0.00    -0.003 A 
ATOM      4  C5  UNL d   1      -0.722  -1.355   0.830  0.00  0.00     0.000 A 
ATOM      5  C6  UNL d   1      -0.453  -0.110   0.263  0.00  0.00     0.000 A 
ATOM      6  C7  UNL d   1       0.764   0.549   0.509  0.00  0.00    -0.073 A 
ATOM      7  C8  UNL d   1       0.998   1.893  -0.124  0.00  0.00     0.078 C 
ENDROOT
BRANCH   1   8
ATOM      8  C1  UNL d   1       3.020   0.615   1.718  0.00  0.00     0.053 C 
ATOM      9  C   UNL d   1       2.915   1.507   2.945  0.00  0.00     0.018 C 
ENDBRANCH   1   8
TORSDOF 1
ENDMDL
