MODEL 1
REMARK minimizedAffinity -1.61378622
REMARK minimizedRMSD -1
REMARK  1 active torsions:
REMARK  status: ('A' for Active; 'I' for Inactive)
REMARK    1  A    between atoms: C1_2  and  C2_3 
ROOT
ATOM      1  C2  UNL d   1       0.026   1.427   0.523  0.00  0.00    -0.076 A 
ATOM      2  C3  UNL d   1      -0.738   0.516  -0.227  0.00  0.00     0.004 A 
ATOM      3  C4  UNL d   1      -0.292  -0.786  -0.444  0.00  0.00    -0.003 A 
ATOM      4  C5  UNL d   1       0.926  -1.199   0.084  0.00  0.00     0.000 A 
ATOM      5  C6  UNL d   1       1.689  -0.313   0.845  0.00  0.00     0.000 A 
ATOM      6  C7  UNL d   1       1.246   0.998   1.088  0.00  0.00    -0.073 A 
ATOM      7  C8  UNL d   1       2.112   1.912   1.910  0.00  0.00     0.078 C 
ENDROOT
BRANCH   1   8
ATOM      8  C1  UNL d   1      -0.497   2.835   0.703  0.00  0.00     0.053 C 
ATOM      9  C   UNL d   1      -1.954   2.864   1.137  0.00  0.00     0.018 C 
ENDBRANCH   1   8
TORSDOF 1
ENDMDL
