MODEL 1
REMARK minimizedAffinity -1.92019486
REMARK minimizedRMSD -1
REMARK  1 active torsions:
REMARK  status: ('A' for Active; 'I' for Inactive)
REMARK    1  A    between atoms: C1_2  and  C2_3 
ROOT
ATOM      1  C2  UNL d   1      -1.026  -0.440  -0.825  0.00  0.00    -0.076 A 
ATOM      2  C3  UNL d   1      -1.390  -1.430   0.103  0.00  0.00     0.004 A 
ATOM      3  C4  UNL d   1      -0.433  -2.045   0.909  0.00  0.00    -0.003 A 
ATOM      4  C5  UNL d   1       0.904  -1.679   0.799  0.00  0.00     0.000 A 
ATOM      5  C6  UNL d   1       1.280  -0.686  -0.104  0.00  0.00     0.000 A 
ATOM      6  C7  UNL d   1       0.326  -0.044  -0.912  0.00  0.00    -0.073 A 
ATOM      7  C8  UNL d   1       0.789   1.016  -1.873  0.00  0.00     0.078 C 
ENDROOT
BRANCH   1   8
ATOM      8  C1  UNL d   1      -2.104   0.172  -1.691  0.00  0.00     0.053 C 
ATOM      9  C   UNL d   1      -3.056  -0.869  -2.260  0.00  0.00     0.018 C 
ENDBRANCH   1   8
TORSDOF 1
ENDMDL
