MODEL 1
REMARK minimizedAffinity 2.66189861
REMARK minimizedRMSD -1
REMARK  0 active torsions:
REMARK  status: ('A' for Active; 'I' for Inactive)
ROOT
ATOM      1  C   UNL d   1      -4.170   5.996   5.977  0.00  0.00     0.020 A 
ATOM      2  C1  UNL d   1      -2.801   5.998   5.713  0.00  0.00     0.020 A 
ATOM      3  C2  UNL d   1      -2.344   5.999   4.393  0.00  0.00     0.034 A 
ATOM      4  C3  UNL d   1      -3.257   5.998   3.332  0.00  0.00     0.017 A 
ATOM      5  C4  UNL d   1      -4.631   5.996   3.598  0.00  0.00     0.017 A 
ATOM      6  C5  UNL d   1      -5.083   5.995   4.921  0.00  0.00     0.034 A 
ATOM      7 Cl   UNL d   1      -5.818   5.994   2.342  0.00  0.00    -0.070 Cl
ATOM      8 Cl1  UNL d   1      -2.621   6.000   1.726  0.00  0.00    -0.070 Cl
ENDROOT
TORSDOF 0
ENDMDL
