MODEL 1
REMARK minimizedAffinity -0.95163238
REMARK minimizedRMSD -1
REMARK  0 active torsions:
REMARK  status: ('A' for Active; 'I' for Inactive)
ROOT
ATOM      1  C   UNL d   1       1.327   0.452  -2.767  0.00  0.00     0.020 A 
ATOM      2  C1  UNL d   1       1.190   0.063  -4.099  0.00  0.00     0.020 A 
ATOM      3  C2  UNL d   1       1.268  -1.288  -4.443  0.00  0.00     0.034 A 
ATOM      4  C3  UNL d   1       1.485  -2.255  -3.454  0.00  0.00     0.017 A 
ATOM      5  C4  UNL d   1       1.623  -1.863  -2.117  0.00  0.00     0.017 A 
ATOM      6  C5  UNL d   1       1.544  -0.509  -1.779  0.00  0.00     0.034 A 
ATOM      7 Cl   UNL d   1       1.893  -2.998  -0.842  0.00  0.00    -0.070 Cl
ATOM      8 Cl1  UNL d   1       1.571  -3.908  -3.951  0.00  0.00    -0.070 Cl
ENDROOT
TORSDOF 0
ENDMDL
