MODEL 1
REMARK minimizedAffinity 1.55410373
REMARK minimizedRMSD -1
REMARK  0 active torsions:
REMARK  status: ('A' for Active; 'I' for Inactive)
ROOT
ATOM      1  C   UNL d   1       1.014  -0.938  -0.824  0.00  0.00     0.020 A 
ATOM      2  C1  UNL d   1       1.756  -1.722  -1.707  0.00  0.00     0.020 A 
ATOM      3  C2  UNL d   1       2.324  -1.146  -2.845  0.00  0.00     0.034 A 
ATOM      4  C3  UNL d   1       2.150   0.218  -3.105  0.00  0.00     0.017 A 
ATOM      5  C4  UNL d   1       1.405   1.005  -2.218  0.00  0.00     0.017 A 
ATOM      6  C5  UNL d   1       0.839   0.423  -1.080  0.00  0.00     0.034 A 
ATOM      7 Cl   UNL d   1       1.148   2.695  -2.471  0.00  0.00    -0.070 Cl
ATOM      8 Cl1  UNL d   1       2.880   0.864  -4.531  0.00  0.00    -0.070 Cl
ENDROOT
TORSDOF 0
ENDMDL
