MODEL 1
REMARK minimizedAffinity 0.798152208
REMARK minimizedRMSD -1
REMARK  0 active torsions:
REMARK  status: ('A' for Active; 'I' for Inactive)
ROOT
ATOM      1  C   UNL d   1      -2.965   5.999   5.648  0.00  0.00     0.020 A 
ATOM      2  C1  UNL d   1      -4.336   5.998   5.903  0.00  0.00     0.020 A 
ATOM      3  C2  UNL d   1      -5.244   5.996   4.842  0.00  0.00     0.034 A 
ATOM      4  C3  UNL d   1      -4.782   5.996   3.521  0.00  0.00     0.017 A 
ATOM      5  C4  UNL d   1      -3.406   5.997   3.266  0.00  0.00     0.017 A 
ATOM      6  C5  UNL d   1      -2.501   5.998   4.332  0.00  0.00     0.034 A 
ATOM      7 Cl   UNL d   1      -2.761   5.996   1.662  0.00  0.00    -0.070 Cl
ATOM      8 Cl1  UNL d   1      -5.961   5.993   2.258  0.00  0.00    -0.070 Cl
ENDROOT
TORSDOF 0
ENDMDL
