MODEL 1
REMARK minimizedAffinity 1.0827322
REMARK minimizedRMSD -1
REMARK  0 active torsions:
REMARK  status: ('A' for Active; 'I' for Inactive)
ROOT
ATOM      1  C   UNL d   1      -4.020   5.830   2.101  0.00  0.00     0.020 A 
ATOM      2  C1  UNL d   1      -2.632   5.951   2.075  0.00  0.00     0.020 A 
ATOM      3  C2  UNL d   1      -1.912   6.000   3.271  0.00  0.00     0.034 A 
ATOM      4  C3  UNL d   1      -2.582   5.927   4.498  0.00  0.00     0.017 A 
ATOM      5  C4  UNL d   1      -3.976   5.805   4.523  0.00  0.00     0.017 A 
ATOM      6  C5  UNL d   1      -4.691   5.757   3.323  0.00  0.00     0.034 A 
ATOM      7 Cl   UNL d   1      -4.871   5.710   5.998  0.00  0.00    -0.070 Cl
ATOM      8 Cl1  UNL d   1      -1.629   5.992   5.938  0.00  0.00    -0.070 Cl
ENDROOT
TORSDOF 0
ENDMDL
