MODEL 1
REMARK minimizedAffinity 6.63057518
REMARK minimizedRMSD -1
REMARK  0 active torsions:
REMARK  status: ('A' for Active; 'I' for Inactive)
ROOT
ATOM      1  C   UNL d   1       4.441   1.558  -5.020  0.00  0.00     0.020 A 
ATOM      2  C1  UNL d   1       3.955   2.426  -5.997  0.00  0.00     0.020 A 
ATOM      3  C2  UNL d   1       2.743   3.090  -5.799  0.00  0.00     0.034 A 
ATOM      4  C3  UNL d   1       2.013   2.888  -4.623  0.00  0.00     0.017 A 
ATOM      5  C4  UNL d   1       2.502   2.017  -3.643  0.00  0.00     0.017 A 
ATOM      6  C5  UNL d   1       3.716   1.354  -3.845  0.00  0.00     0.034 A 
ATOM      7 Cl   UNL d   1       1.658   1.716  -2.165  0.00  0.00    -0.070 Cl
ATOM      8 Cl1  UNL d   1       0.522   3.743  -4.445  0.00  0.00    -0.070 Cl
ENDROOT
TORSDOF 0
ENDMDL
