MODEL 1
REMARK minimizedAffinity 1.69738197
REMARK minimizedRMSD -1
REMARK  0 active torsions:
REMARK  status: ('A' for Active; 'I' for Inactive)
ROOT
ATOM      1  C   UNL d   1       2.518   0.206  -2.509  0.00  0.00     0.020 A 
ATOM      2  C1  UNL d   1       1.417   0.948  -2.084  0.00  0.00     0.020 A 
ATOM      3  C2  UNL d   1       1.077   2.132  -2.743  0.00  0.00     0.034 A 
ATOM      4  C3  UNL d   1       1.840   2.577  -3.829  0.00  0.00     0.017 A 
ATOM      5  C4  UNL d   1       2.945   1.832  -4.254  0.00  0.00     0.017 A 
ATOM      6  C5  UNL d   1       3.281   0.647  -3.591  0.00  0.00     0.034 A 
ATOM      7 Cl   UNL d   1       3.934   2.317  -5.586  0.00  0.00    -0.070 Cl
ATOM      8 Cl1  UNL d   1       1.362   4.050  -4.596  0.00  0.00    -0.070 Cl
ENDROOT
TORSDOF 0
ENDMDL
