MODEL 1
REMARK minimizedAffinity 5.5670414
REMARK minimizedRMSD -1
REMARK  0 active torsions:
REMARK  status: ('A' for Active; 'I' for Inactive)
ROOT
ATOM      1  C   UNL d   1       2.338   3.916  -4.297  0.00  0.00     0.020 A 
ATOM      2  C1  UNL d   1       1.182   3.674  -3.556  0.00  0.00     0.020 A 
ATOM      3  C2  UNL d   1       1.032   2.466  -2.872  0.00  0.00     0.034 A 
ATOM      4  C3  UNL d   1       2.039   1.495  -2.928  0.00  0.00     0.017 A 
ATOM      5  C4  UNL d   1       3.199   1.739  -3.672  0.00  0.00     0.017 A 
ATOM      6  C5  UNL d   1       3.344   2.951  -4.355  0.00  0.00     0.034 A 
ATOM      7 Cl   UNL d   1       4.485   0.590  -3.788  0.00  0.00    -0.070 Cl
ATOM      8 Cl1  UNL d   1       1.786   0.024  -2.057  0.00  0.00    -0.070 Cl
ENDROOT
TORSDOF 0
ENDMDL
