MODEL 1
REMARK minimizedAffinity 1.88681209
REMARK minimizedRMSD -1
REMARK  0 active torsions:
REMARK  status: ('A' for Active; 'I' for Inactive)
ROOT
ATOM      1  C   UNL d   1      -2.898   5.800   5.886  0.00  0.00     0.020 A 
ATOM      2  C1  UNL d   1      -4.181   5.266   6.000  0.00  0.00     0.020 A 
ATOM      3  C2  UNL d   1      -4.902   4.930   4.852  0.00  0.00     0.034 A 
ATOM      4  C3  UNL d   1      -4.341   5.128   3.585  0.00  0.00     0.017 A 
ATOM      5  C4  UNL d   1      -3.054   5.665   3.472  0.00  0.00     0.017 A 
ATOM      6  C5  UNL d   1      -2.336   5.999   4.624  0.00  0.00     0.034 A 
ATOM      7 Cl   UNL d   1      -2.296   5.939   1.943  0.00  0.00    -0.070 Cl
ATOM      8 Cl1  UNL d   1      -5.290   4.690   2.209  0.00  0.00    -0.070 Cl
ENDROOT
TORSDOF 0
ENDMDL
