MODEL 1
REMARK minimizedAffinity 1.27921093
REMARK minimizedRMSD -1
REMARK  0 active torsions:
REMARK  status: ('A' for Active; 'I' for Inactive)
ROOT
ATOM      1  C   UNL d   1       1.717  -0.905  -1.447  0.00  0.00     0.020 A 
ATOM      2  C1  UNL d   1       1.221  -0.078  -0.439  0.00  0.00     0.020 A 
ATOM      3  C2  UNL d   1       1.194   1.306  -0.622  0.00  0.00     0.034 A 
ATOM      4  C3  UNL d   1       1.663   1.868  -1.815  0.00  0.00     0.017 A 
ATOM      5  C4  UNL d   1       2.160   1.037  -2.826  0.00  0.00     0.017 A 
ATOM      6  C5  UNL d   1       2.186  -0.348  -2.637  0.00  0.00     0.034 A 
ATOM      7 Cl   UNL d   1       2.757   1.657  -4.325  0.00  0.00    -0.070 Cl
ATOM      8 Cl1  UNL d   1       1.598   3.587  -1.973  0.00  0.00    -0.070 Cl
ENDROOT
TORSDOF 0
ENDMDL
