MODEL 1
REMARK minimizedAffinity 9.81508827
REMARK minimizedRMSD -1
REMARK  0 active torsions:
REMARK  status: ('A' for Active; 'I' for Inactive)
ROOT
ATOM      1  C   UNL d   1       1.076  -2.068  -0.148  0.00  0.00     0.020 A 
ATOM      2  C1  UNL d   1       1.540  -2.673  -1.316  0.00  0.00     0.020 A 
ATOM      3  C2  UNL d   1       1.807  -1.897  -2.445  0.00  0.00     0.034 A 
ATOM      4  C3  UNL d   1       1.610  -0.511  -2.410  0.00  0.00     0.017 A 
ATOM      5  C4  UNL d   1       1.145   0.095  -1.237  0.00  0.00     0.017 A 
ATOM      6  C5  UNL d   1       0.879  -0.688  -0.109  0.00  0.00     0.034 A 
ATOM      7 Cl   UNL d   1       0.878   1.798  -1.117  0.00  0.00    -0.070 Cl
ATOM      8 Cl1  UNL d   1       1.961   0.387  -3.843  0.00  0.00    -0.070 Cl
ENDROOT
TORSDOF 0
ENDMDL
