MODEL 1
REMARK minimizedAffinity 2.99767613
REMARK minimizedRMSD -1
REMARK  0 active torsions:
REMARK  status: ('A' for Active; 'I' for Inactive)
ROOT
ATOM      1  C   UNL d   1      -1.706   5.998   4.084  0.00  0.00     0.020 A 
ATOM      2  C1  UNL d   1      -2.003   5.995   2.721  0.00  0.00     0.020 A 
ATOM      3  C2  UNL d   1      -3.334   5.993   2.297  0.00  0.00     0.034 A 
ATOM      4  C3  UNL d   1      -4.372   5.994   3.236  0.00  0.00     0.017 A 
ATOM      5  C4  UNL d   1      -4.073   5.998   4.603  0.00  0.00     0.017 A 
ATOM      6  C5  UNL d   1      -2.739   6.000   5.022  0.00  0.00     0.034 A 
ATOM      7 Cl   UNL d   1      -5.299   6.000   5.821  0.00  0.00    -0.070 Cl
ATOM      8 Cl1  UNL d   1      -5.994   5.992   2.640  0.00  0.00    -0.070 Cl
ENDROOT
TORSDOF 0
ENDMDL
