MODEL 1
REMARK minimizedAffinity 2.5990417
REMARK minimizedRMSD -1
REMARK  0 active torsions:
REMARK  status: ('A' for Active; 'I' for Inactive)
ROOT
ATOM      1  C   UNL d   1       1.645   2.489  -2.770  0.00  0.00     0.020 A 
ATOM      2  C1  UNL d   1       2.104   1.675  -3.805  0.00  0.00     0.020 A 
ATOM      3  C2  UNL d   1       2.224   0.298  -3.609  0.00  0.00     0.034 A 
ATOM      4  C3  UNL d   1       1.884  -0.270  -2.376  0.00  0.00     0.017 A 
ATOM      5  C4  UNL d   1       1.423   0.547  -1.338  0.00  0.00     0.017 A 
ATOM      6  C5  UNL d   1       1.305   1.926  -1.539  0.00  0.00     0.034 A 
ATOM      7 Cl   UNL d   1       0.984  -0.081   0.211  0.00  0.00    -0.070 Cl
ATOM      8 Cl1  UNL d   1       2.056  -1.981  -2.205  0.00  0.00    -0.070 Cl
ENDROOT
TORSDOF 0
ENDMDL
