MODEL 1
REMARK minimizedAffinity 3.85827231
REMARK minimizedRMSD -1
REMARK  0 active torsions:
REMARK  status: ('A' for Active; 'I' for Inactive)
ROOT
ATOM      1  C   UNL d   1      -4.472   5.945   5.998  0.00  0.00     0.020 A 
ATOM      2  C1  UNL d   1      -3.082   5.945   5.881  0.00  0.00     0.020 A 
ATOM      3  C2  UNL d   1      -2.488   5.961   4.618  0.00  0.00     0.034 A 
ATOM      4  C3  UNL d   1      -3.283   5.977   3.466  0.00  0.00     0.017 A 
ATOM      5  C4  UNL d   1      -4.677   5.976   3.584  0.00  0.00     0.017 A 
ATOM      6  C5  UNL d   1      -5.267   5.960   4.851  0.00  0.00     0.034 A 
ATOM      7 Cl   UNL d   1      -5.724   5.995   2.208  0.00  0.00    -0.070 Cl
ATOM      8 Cl1  UNL d   1      -2.480   5.996   1.936  0.00  0.00    -0.070 Cl
ENDROOT
TORSDOF 0
ENDMDL
