MODEL 1
REMARK minimizedAffinity -1.69400012
REMARK minimizedRMSD -1
REMARK  0 active torsions:
REMARK  status: ('A' for Active; 'I' for Inactive)
ROOT
ATOM      1  C   UNL d   1      -4.667   5.951   5.995  0.00  0.00     0.020 A 
ATOM      2  C1  UNL d   1      -3.273   5.951   5.966  0.00  0.00     0.020 A 
ATOM      3  C2  UNL d   1      -2.600   5.966   4.742  0.00  0.00     0.034 A 
ATOM      4  C3  UNL d   1      -3.321   5.981   3.542  0.00  0.00     0.017 A 
ATOM      5  C4  UNL d   1      -4.720   5.981   3.572  0.00  0.00     0.017 A 
ATOM      6  C5  UNL d   1      -5.389   5.966   4.800  0.00  0.00     0.034 A 
ATOM      7 Cl   UNL d   1      -5.678   6.000   2.134  0.00  0.00    -0.070 Cl
ATOM      8 Cl1  UNL d   1      -2.423   6.000   2.066  0.00  0.00    -0.070 Cl
ENDROOT
TORSDOF 0
ENDMDL
