MODEL 1
REMARK minimizedAffinity 7.15890217
REMARK minimizedRMSD -1
REMARK  0 active torsions:
REMARK  status: ('A' for Active; 'I' for Inactive)
ROOT
ATOM      1  C   UNL d   1       2.199   3.753  -1.828  0.00  0.00     0.020 A 
ATOM      2  C1  UNL d   1       1.296   2.803  -1.353  0.00  0.00     0.020 A 
ATOM      3  C2  UNL d   1       1.014   1.666  -2.113  0.00  0.00     0.034 A 
ATOM      4  C3  UNL d   1       1.635   1.477  -3.353  0.00  0.00     0.017 A 
ATOM      5  C4  UNL d   1       2.541   2.431  -3.829  0.00  0.00     0.017 A 
ATOM      6  C5  UNL d   1       2.820   3.567  -3.064  0.00  0.00     0.034 A 
ATOM      7 Cl   UNL d   1       3.347   2.266  -5.349  0.00  0.00    -0.070 Cl
ATOM      8 Cl1  UNL d   1       1.239   0.047  -4.239  0.00  0.00    -0.070 Cl
ENDROOT
TORSDOF 0
ENDMDL
