MODEL 1
REMARK minimizedAffinity 1.32821369
REMARK minimizedRMSD -1
REMARK  0 active torsions:
REMARK  status: ('A' for Active; 'I' for Inactive)
ROOT
ATOM      1  C   UNL d   1       0.857   0.104  -4.351  0.00  0.00     0.020 A 
ATOM      2  C1  UNL d   1       1.065   0.105  -2.973  0.00  0.00     0.020 A 
ATOM      3  C2  UNL d   1       1.378   1.297  -2.314  0.00  0.00     0.034 A 
ATOM      4  C3  UNL d   1       1.484   2.492  -3.035  0.00  0.00     0.017 A 
ATOM      5  C4  UNL d   1       1.276   2.490  -4.419  0.00  0.00     0.017 A 
ATOM      6  C5  UNL d   1       0.963   1.294  -5.073  0.00  0.00     0.034 A 
ATOM      7 Cl   UNL d   1       1.390   3.925  -5.376  0.00  0.00    -0.070 Cl
ATOM      8 Cl1  UNL d   1       1.874   3.928  -2.156  0.00  0.00    -0.070 Cl
ENDROOT
TORSDOF 0
ENDMDL
