MODEL 1
REMARK minimizedAffinity 5.59464598
REMARK minimizedRMSD -1
REMARK  0 active torsions:
REMARK  status: ('A' for Active; 'I' for Inactive)
ROOT
ATOM      1  C   UNL d   1      -2.115  -1.705  -0.042  0.00  0.00     0.020 A 
ATOM      2  C1  UNL d   1      -2.125  -2.284   1.227  0.00  0.00     0.020 A 
ATOM      3  C2  UNL d   1      -3.333  -2.681   1.803  0.00  0.00     0.034 A 
ATOM      4  C3  UNL d   1      -4.537  -2.500   1.112  0.00  0.00     0.017 A 
ATOM      5  C4  UNL d   1      -4.525  -1.918  -0.161  0.00  0.00     0.017 A 
ATOM      6  C5  UNL d   1      -3.313  -1.523  -0.734  0.00  0.00     0.034 A 
ATOM      7 Cl   UNL d   1      -5.969  -1.662  -1.076  0.00  0.00    -0.070 Cl
ATOM      8 Cl1  UNL d   1      -5.994  -3.014   1.885  0.00  0.00    -0.070 Cl
ENDROOT
TORSDOF 0
ENDMDL
