MODEL 1
REMARK minimizedAffinity 15.4561386
REMARK minimizedRMSD -1
REMARK  1 active torsions:
REMARK  status: ('A' for Active; 'I' for Inactive)
REMARK    1  A    between atoms: C1_2  and  C2_3 
ROOT
ATOM      1  C2  UNL d   1      -4.659  -0.443  -0.798  0.00  0.00    -0.073 A 
ATOM      2  C3  UNL d   1      -4.578   0.118   0.481  0.00  0.00    -0.002 A 
ATOM      3  C4  UNL d   1      -3.334   0.374   1.060  0.00  0.00     0.004 A 
ATOM      4  C5  UNL d   1      -2.162   0.080   0.365  0.00  0.00    -0.004 A 
ATOM      5  C6  UNL d   1      -2.223  -0.470  -0.920  0.00  0.00    -0.075 A 
ATOM      6  C7  UNL d   1      -0.971  -0.795  -1.681  0.00  0.00     0.076 C 
ATOM      7  C8  UNL d   1      -3.475  -0.727  -1.494  0.00  0.00     0.001 A 
ENDROOT
BRANCH   1   8
ATOM      8  C1  UNL d   1      -6.000  -0.715  -1.430  0.00  0.00     0.053 C 
ATOM      9  C   UNL d   1      -5.998  -2.003  -2.238  0.00  0.00     0.018 C 
ENDBRANCH   1   8
TORSDOF 1
ENDMDL
