MODEL 1
REMARK minimizedAffinity 2.05104494
REMARK minimizedRMSD -1
REMARK  1 active torsions:
REMARK  status: ('A' for Active; 'I' for Inactive)
REMARK    1  A    between atoms: C1_2  and  C2_3 
ROOT
ATOM      1  C2  UNL d   1       1.108  -0.635  -0.652  0.00  0.00    -0.073 A 
ATOM      2  C3  UNL d   1       0.102   0.334  -0.748  0.00  0.00    -0.002 A 
ATOM      3  C4  UNL d   1      -1.149   0.002  -1.268  0.00  0.00     0.004 A 
ATOM      4  C5  UNL d   1      -1.411  -1.302  -1.690  0.00  0.00    -0.004 A 
ATOM      5  C6  UNL d   1      -0.423  -2.287  -1.591  0.00  0.00    -0.075 A 
ATOM      6  C7  UNL d   1      -0.688  -3.693  -2.043  0.00  0.00     0.076 C 
ATOM      7  C8  UNL d   1       0.832  -1.945  -1.070  0.00  0.00     0.001 A 
ENDROOT
BRANCH   1   8
ATOM      8  C1  UNL d   1       2.459  -0.283  -0.085  0.00  0.00     0.053 C 
ATOM      9  C   UNL d   1       2.813  -1.141   1.119  0.00  0.00     0.018 C 
ENDBRANCH   1   8
TORSDOF 1
ENDMDL
