MODEL 1
REMARK minimizedAffinity 5.5464921
REMARK minimizedRMSD -1
REMARK  1 active torsions:
REMARK  status: ('A' for Active; 'I' for Inactive)
REMARK    1  A    between atoms: C1_2  and  C2_3 
ROOT
ATOM      1  C2  UNL d   1      -2.510  -0.701  -0.427  0.00  0.00    -0.073 A 
ATOM      2  C3  UNL d   1      -2.829   0.075   0.693  0.00  0.00    -0.002 A 
ATOM      3  C4  UNL d   1      -4.151   0.449   0.938  0.00  0.00     0.004 A 
ATOM      4  C5  UNL d   1      -5.167   0.046   0.071  0.00  0.00    -0.004 A 
ATOM      5  C6  UNL d   1      -4.870  -0.740  -1.047  0.00  0.00    -0.075 A 
ATOM      6  C7  UNL d   1      -5.951  -1.179  -1.991  0.00  0.00     0.076 C 
ATOM      7  C8  UNL d   1      -3.540  -1.109  -1.288  0.00  0.00     0.001 A 
ENDROOT
BRANCH   1   8
ATOM      8  C1  UNL d   1      -1.085  -1.113  -0.692  0.00  0.00     0.053 C 
ATOM      9  C   UNL d   1      -0.133   0.071  -0.653  0.00  0.00     0.018 C 
ENDBRANCH   1   8
TORSDOF 1
ENDMDL
