MODEL 1
REMARK minimizedAffinity 0.174139693
REMARK minimizedRMSD -1
REMARK  1 active torsions:
REMARK  status: ('A' for Active; 'I' for Inactive)
REMARK    1  A    between atoms: C1_2  and  C2_3 
ROOT
ATOM      1  C2  UNL d   1      -3.591   2.241   1.511  0.00  0.00    -0.073 A 
ATOM      2  C3  UNL d   1      -4.609   2.603   2.400  0.00  0.00    -0.002 A 
ATOM      3  C4  UNL d   1      -5.809   1.890   2.426  0.00  0.00     0.004 A 
ATOM      4  C5  UNL d   1      -5.999   0.805   1.571  0.00  0.00    -0.004 A 
ATOM      5  C6  UNL d   1      -4.989   0.420   0.684  0.00  0.00    -0.075 A 
ATOM      6  C7  UNL d   1      -5.179  -0.744  -0.244  0.00  0.00     0.076 C 
ATOM      7  C8  UNL d   1      -3.788   1.142   0.662  0.00  0.00     0.001 A 
ENDROOT
BRANCH   1   8
ATOM      8  C1  UNL d   1      -2.292   3.003   1.483  0.00  0.00     0.053 C 
ATOM      9  C   UNL d   1      -1.910   3.530   2.858  0.00  0.00     0.018 C 
ENDBRANCH   1   8
TORSDOF 1
ENDMDL
