MODEL 1
REMARK minimizedAffinity 2.92255425
REMARK minimizedRMSD -1
REMARK  1 active torsions:
REMARK  status: ('A' for Active; 'I' for Inactive)
REMARK    1  A    between atoms: C1_2  and  C2_3 
ROOT
ATOM      1  C2  UNL d   1       0.100  -2.915   5.898  0.00  0.00    -0.073 A 
ATOM      2  C3  UNL d   1       1.263  -3.692   5.950  0.00  0.00    -0.002 A 
ATOM      3  C4  UNL d   1       2.517  -3.081   5.996  0.00  0.00     0.004 A 
ATOM      4  C5  UNL d   1       2.621  -1.690   5.998  0.00  0.00    -0.004 A 
ATOM      5  C6  UNL d   1       1.470  -0.897   5.958  0.00  0.00    -0.075 A 
ATOM      6  C7  UNL d   1       1.564   0.601   5.957  0.00  0.00     0.076 C 
ATOM      7  C8  UNL d   1       0.214  -1.518   5.910  0.00  0.00     0.001 A 
ENDROOT
BRANCH   1   8
ATOM      8  C1  UNL d   1      -1.256  -3.570   5.855  0.00  0.00     0.053 C 
ATOM      9  C   UNL d   1      -1.156  -5.087   5.810  0.00  0.00     0.018 C 
ENDBRANCH   1   8
TORSDOF 1
ENDMDL
