MODEL 1
REMARK minimizedAffinity 5.75158834
REMARK minimizedRMSD -1
REMARK  1 active torsions:
REMARK  status: ('A' for Active; 'I' for Inactive)
REMARK    1  A    between atoms: C1_2  and  C2_3 
ROOT
ATOM      1  C2  UNL d   1       1.336   0.239   1.766  0.00  0.00    -0.073 A 
ATOM      2  C3  UNL d   1       2.486  -0.533   1.566  0.00  0.00    -0.002 A 
ATOM      3  C4  UNL d   1       2.683  -1.203   0.357  0.00  0.00     0.004 A 
ATOM      4  C5  UNL d   1       1.738  -1.102  -0.664  0.00  0.00    -0.004 A 
ATOM      5  C6  UNL d   1       0.589  -0.325  -0.487  0.00  0.00    -0.075 A 
ATOM      6  C7  UNL d   1      -0.438  -0.207  -1.575  0.00  0.00     0.076 C 
ATOM      7  C8  UNL d   1       0.397   0.343   0.730  0.00  0.00     0.001 A 
ENDROOT
BRANCH   1   8
ATOM      8  C1  UNL d   1       1.122   0.970   3.067  0.00  0.00     0.053 C 
ATOM      9  C   UNL d   1       1.173   2.479   2.888  0.00  0.00     0.018 C 
ENDBRANCH   1   8
TORSDOF 1
ENDMDL
