MODEL 1
REMARK minimizedAffinity -0.423316449
REMARK minimizedRMSD -1
REMARK  1 active torsions:
REMARK  status: ('A' for Active; 'I' for Inactive)
REMARK    1  A    between atoms: C1_2  and  C2_3 
ROOT
ATOM      1  C2  UNL d   1       0.957  -2.038   5.991  0.00  0.00    -0.073 A 
ATOM      2  C3  UNL d   1      -0.392  -2.410   5.999  0.00  0.00    -0.002 A 
ATOM      3  C4  UNL d   1      -0.752  -3.758   5.997  0.00  0.00     0.004 A 
ATOM      4  C5  UNL d   1       0.232  -4.747   5.995  0.00  0.00    -0.004 A 
ATOM      5  C6  UNL d   1       1.586  -4.395   5.999  0.00  0.00    -0.075 A 
ATOM      6  C7  UNL d   1       2.656  -5.447   5.994  0.00  0.00     0.076 C 
ATOM      7  C8  UNL d   1       1.939  -3.039   5.998  0.00  0.00     0.001 A 
ENDROOT
BRANCH   1   8
ATOM      8  C1  UNL d   1       1.350  -0.583   6.000  0.00  0.00     0.053 C 
ATOM      9  C   UNL d   1       0.139   0.335   5.958  0.00  0.00     0.018 C 
ENDBRANCH   1   8
TORSDOF 1
ENDMDL
