MODEL 1
REMARK minimizedAffinity 17.0329227
REMARK minimizedRMSD -1
REMARK  0 active torsions:
REMARK  status: ('A' for Active; 'I' for Inactive)
ROOT
ATOM      1  C1  DEN d   1       5.731   1.881   4.502  0.00  0.00     0.130 A 
ATOM      2  C2  DEN d   1       5.220   3.245   4.391  0.00  0.00    -0.031 A 
ATOM      3  C3  DEN d   1       4.789   3.459   2.995  0.00  0.00     0.027 A 
ATOM      4  C4  DEN d   1       4.858   1.818   1.006  0.00  0.00     0.027 A 
ATOM      5  C5  DEN d   1       5.217   0.549   0.610  0.00  0.00    -0.003 A 
ATOM      6  C6  DEN d   1       5.800  -0.346   1.467  0.00  0.00     0.001 A 
ATOM      7  C7  DEN d   1       5.999  -0.000   2.778  0.00  0.00     0.017 A 
ATOM      8  C8  DEN d   1       5.646   1.280   3.183  0.00  0.00    -0.094 A 
ATOM      9  C9  DEN d   1       5.047   2.167   2.304  0.00  0.00    -0.072 A 
ENDROOT
TORSDOF 0
ENDMDL
