MODEL 1
REMARK minimizedAffinity 12.0681324
REMARK minimizedRMSD -1
REMARK  0 active torsions:
REMARK  status: ('A' for Active; 'I' for Inactive)
ROOT
ATOM      1  C1  DEN d   1       4.082   0.472   1.063  0.00  0.00     0.130 A 
ATOM      2  C2  DEN d   1       4.247   1.386  -0.064  0.00  0.00    -0.031 A 
ATOM      3  C3  DEN d   1       3.414   0.891  -1.179  0.00  0.00     0.027 A 
ATOM      4  C4  DEN d   1       1.890  -1.188  -1.266  0.00  0.00     0.027 A 
ATOM      5  C5  DEN d   1       1.435  -2.277  -0.556  0.00  0.00    -0.003 A 
ATOM      6  C6  DEN d   1       1.853  -2.542   0.721  0.00  0.00     0.001 A 
ATOM      7  C7  DEN d   1       2.719  -1.683   1.344  0.00  0.00     0.017 A 
ATOM      8  C8  DEN d   1       3.188  -0.587   0.632  0.00  0.00    -0.094 A 
ATOM      9  C9  DEN d   1       2.744  -0.329  -0.654  0.00  0.00    -0.072 A 
ENDROOT
TORSDOF 0
ENDMDL
