MODEL 1
REMARK minimizedAffinity 20.270153
REMARK minimizedRMSD -1
REMARK  0 active torsions:
REMARK  status: ('A' for Active; 'I' for Inactive)
ROOT
ATOM      1  C1  DEN d   1       2.525  -1.511  -3.259  0.00  0.00     0.130 A 
ATOM      2  C2  DEN d   1       2.189  -2.905  -2.978  0.00  0.00    -0.031 A 
ATOM      3  C3  DEN d   1       2.077  -3.061  -1.514  0.00  0.00     0.027 A 
ATOM      4  C4  DEN d   1       2.383  -1.290   0.335  0.00  0.00     0.027 A 
ATOM      5  C5  DEN d   1       2.685   0.030   0.586  0.00  0.00    -0.003 A 
ATOM      6  C6  DEN d   1       2.986   0.914  -0.416  0.00  0.00     0.001 A 
ATOM      7  C7  DEN d   1       2.947   0.499  -1.721  0.00  0.00     0.017 A 
ATOM      8  C8  DEN d   1       2.651  -0.833  -1.982  0.00  0.00    -0.094 A 
ATOM      9  C9  DEN d   1       2.337  -1.707  -0.955  0.00  0.00    -0.072 A 
ENDROOT
TORSDOF 0
ENDMDL
