MODEL 1
REMARK minimizedAffinity 15.7665596
REMARK minimizedRMSD -1
REMARK  0 active torsions:
REMARK  status: ('A' for Active; 'I' for Inactive)
ROOT
ATOM      1  C1  DEN d   1       3.154   0.812   1.346  0.00  0.00     0.130 A 
ATOM      2  C2  DEN d   1       3.004   2.034   0.560  0.00  0.00    -0.031 A 
ATOM      3  C3  DEN d   1       2.570   1.652  -0.799  0.00  0.00     0.027 A 
ATOM      4  C4  DEN d   1       2.114  -0.699  -1.757  0.00  0.00     0.027 A 
ATOM      5  C5  DEN d   1       2.117  -2.047  -1.472  0.00  0.00    -0.003 A 
ATOM      6  C6  DEN d   1       2.495  -2.534  -0.249  0.00  0.00     0.001 A 
ATOM      7  C7  DEN d   1       2.843  -1.664   0.750  0.00  0.00     0.017 A 
ATOM      8  C8  DEN d   1       2.850  -0.304   0.469  0.00  0.00    -0.094 A 
ATOM      9  C9  DEN d   1       2.453   0.169  -0.770  0.00  0.00    -0.072 A 
ENDROOT
TORSDOF 0
ENDMDL
