MODEL 1
REMARK minimizedAffinity 12.3559589
REMARK minimizedRMSD -1
REMARK  0 active torsions:
REMARK  status: ('A' for Active; 'I' for Inactive)
ROOT
ATOM      1  C1  DEN d   1       1.633   0.792  -0.915  0.00  0.00     0.130 A 
ATOM      2  C2  DEN d   1       1.378   0.156   0.374  0.00  0.00    -0.031 A 
ATOM      3  C3  DEN d   1       2.666   0.038   1.087  0.00  0.00     0.027 A 
ATOM      4  C4  DEN d   1       5.016   0.777   0.324  0.00  0.00     0.027 A 
ATOM      5  C5  DEN d   1       5.734   1.353  -0.700  0.00  0.00    -0.003 A 
ATOM      6  C6  DEN d   1       5.146   1.749  -1.872  0.00  0.00     0.001 A 
ATOM      7  C7  DEN d   1       3.792   1.614  -2.031  0.00  0.00     0.017 A 
ATOM      8  C8  DEN d   1       3.062   1.027  -1.005  0.00  0.00    -0.094 A 
ATOM      9  C9  DEN d   1       3.674   0.645   0.176  0.00  0.00    -0.072 A 
ENDROOT
TORSDOF 0
ENDMDL
