MODEL 1
REMARK minimizedAffinity 13.7925053
REMARK minimizedRMSD -1
REMARK  0 active torsions:
REMARK  status: ('A' for Active; 'I' for Inactive)
ROOT
ATOM      1  C1  DEN d   1      -5.336   2.740   1.319  0.00  0.00     0.130 A 
ATOM      2  C2  DEN d   1      -4.130   2.734   0.495  0.00  0.00    -0.031 A 
ATOM      3  C3  DEN d   1      -3.184   3.715   1.065  0.00  0.00     0.027 A 
ATOM      4  C4  DEN d   1      -3.466   5.231   3.132  0.00  0.00     0.027 A 
ATOM      5  C5  DEN d   1      -4.323   5.598   4.146  0.00  0.00    -0.003 A 
ATOM      6  C6  DEN d   1      -5.580   5.068   4.267  0.00  0.00     0.001 A 
ATOM      7  C7  DEN d   1      -6.000   4.107   3.386  0.00  0.00     0.017 A 
ATOM      8  C8  DEN d   1      -5.144   3.737   2.357  0.00  0.00    -0.094 A 
ATOM      9  C9  DEN d   1      -3.872   4.275   2.258  0.00  0.00    -0.072 A 
ENDROOT
TORSDOF 0
ENDMDL
