MODEL 1
REMARK minimizedAffinity 7.19020939
REMARK minimizedRMSD -1
REMARK  0 active torsions:
REMARK  status: ('A' for Active; 'I' for Inactive)
ROOT
ATOM      1  C1  DEN d   1       4.935   2.583  -0.793  0.00  0.00     0.130 A 
ATOM      2  C2  DEN d   1       4.481   2.880  -2.149  0.00  0.00    -0.031 A 
ATOM      3  C3  DEN d   1       3.417   1.916  -2.496  0.00  0.00     0.027 A 
ATOM      4  C4  DEN d   1       2.431   0.006  -1.070  0.00  0.00     0.027 A 
ATOM      5  C5  DEN d   1       2.504  -0.642   0.143  0.00  0.00    -0.003 A 
ATOM      6  C6  DEN d   1       3.408  -0.286   1.108  0.00  0.00     0.001 A 
ATOM      7  C7  DEN d   1       4.246   0.777   0.894  0.00  0.00     0.017 A 
ATOM      8  C8  DEN d   1       4.183   1.431  -0.330  0.00  0.00    -0.094 A 
ATOM      9  C9  DEN d   1       3.254   1.063  -1.288  0.00  0.00    -0.072 A 
ENDROOT
TORSDOF 0
ENDMDL
