MODEL 1
REMARK minimizedAffinity 17.1740932
REMARK minimizedRMSD -1
REMARK  0 active torsions:
REMARK  status: ('A' for Active; 'I' for Inactive)
ROOT
ATOM      1  C1  DEN d   1      -2.549   0.742   0.000  0.00  0.00     0.130 A 
ATOM      2  C2  DEN d   1      -3.063   1.487   1.146  0.00  0.00    -0.031 A 
ATOM      3  C3  DEN d   1      -4.507   1.713   0.933  0.00  0.00     0.027 A 
ATOM      4  C4  DEN d   1      -5.990   0.981  -1.046  0.00  0.00     0.027 A 
ATOM      5  C5  DEN d   1      -5.999   0.334  -2.262  0.00  0.00    -0.003 A 
ATOM      6  C6  DEN d   1      -4.863  -0.188  -2.821  0.00  0.00     0.001 A 
ATOM      7  C7  DEN d   1      -3.676  -0.112  -2.141  0.00  0.00     0.017 A 
ATOM      8  C8  DEN d   1      -3.657   0.545  -0.918  0.00  0.00    -0.094 A 
ATOM      9  C9  DEN d   1      -4.819   1.055  -0.364  0.00  0.00    -0.072 A 
ENDROOT
TORSDOF 0
ENDMDL
