MODEL 1
REMARK minimizedAffinity 1.1967442
REMARK minimizedRMSD -1
REMARK  0 active torsions:
REMARK  status: ('A' for Active; 'I' for Inactive)
ROOT
ATOM      1  C1  DEN d   1       1.914  -1.737  -1.103  0.00  0.00     0.130 A 
ATOM      2  C2  DEN d   1       1.949  -2.589   0.083  0.00  0.00    -0.031 A 
ATOM      3  C3  DEN d   1       2.557  -1.815   1.184  0.00  0.00     0.027 A 
ATOM      4  C4  DEN d   1       3.438   0.610   1.168  0.00  0.00     0.027 A 
ATOM      5  C5  DEN d   1       3.632   1.728   0.388  0.00  0.00    -0.003 A 
ATOM      6  C6  DEN d   1       3.301   1.759  -0.940  0.00  0.00     0.001 A 
ATOM      7  C7  DEN d   1       2.716   0.664  -1.519  0.00  0.00     0.017 A 
ATOM      8  C8  DEN d   1       2.524  -0.471  -0.742  0.00  0.00    -0.094 A 
ATOM      9  C9  DEN d   1       2.854  -0.477   0.603  0.00  0.00    -0.072 A 
ENDROOT
TORSDOF 0
ENDMDL
