MODEL 1
REMARK minimizedAffinity 17.5674934
REMARK minimizedRMSD -1
REMARK  0 active torsions:
REMARK  status: ('A' for Active; 'I' for Inactive)
ROOT
ATOM      1  C1  DEN d   1       1.690   1.271  -0.050  0.00  0.00     0.130 A 
ATOM      2  C2  DEN d   1       2.962   0.767   0.461  0.00  0.00    -0.031 A 
ATOM      3  C3  DEN d   1       3.271  -0.492  -0.246  0.00  0.00     0.027 A 
ATOM      4  C4  DEN d   1       1.913  -1.702  -2.075  0.00  0.00     0.027 A 
ATOM      5  C5  DEN d   1       0.760  -1.663  -2.828  0.00  0.00    -0.003 A 
ATOM      6  C6  DEN d   1      -0.172  -0.670  -2.684  0.00  0.00     0.001 A 
ATOM      7  C7  DEN d   1       0.053   0.350  -1.799  0.00  0.00     0.017 A 
ATOM      8  C8  DEN d   1       1.210   0.314  -1.031  0.00  0.00    -0.094 A 
ATOM      9  C9  DEN d   1       2.146  -0.692  -1.199  0.00  0.00    -0.072 A 
ENDROOT
TORSDOF 0
ENDMDL
