MODEL 1
REMARK minimizedAffinity 0.185878024
REMARK minimizedRMSD -1
REMARK  0 active torsions:
REMARK  status: ('A' for Active; 'I' for Inactive)
ROOT
ATOM      1  C1  DEN d   1       1.440   1.778   4.839  0.00  0.00     0.130 A 
ATOM      2  C2  DEN d   1       1.044   1.690   3.437  0.00  0.00    -0.031 A 
ATOM      3  C3  DEN d   1       2.045   2.419   2.633  0.00  0.00     0.027 A 
ATOM      4  C4  DEN d   1       4.162   3.665   3.420  0.00  0.00     0.027 A 
ATOM      5  C5  DEN d   1       4.909   4.025   4.519  0.00  0.00    -0.003 A 
ATOM      6  C6  DEN d   1       4.538   3.692   5.795  0.00  0.00     0.001 A 
ATOM      7  C7  DEN d   1       3.411   2.940   6.000  0.00  0.00     0.017 A 
ATOM      8  C8  DEN d   1       2.648   2.580   4.896  0.00  0.00    -0.094 A 
ATOM      9  C9  DEN d   1       3.047   2.915   3.614  0.00  0.00    -0.072 A 
ENDROOT
TORSDOF 0
ENDMDL
