MODEL 1
REMARK minimizedAffinity 2.79064822
REMARK minimizedRMSD -1
REMARK  1 active torsions:
REMARK  status: ('A' for Active; 'I' for Inactive)
REMARK    1  A    between atoms: C1_2  and  C2_3 
ROOT
ATOM      1  C2  UNL d   1      -0.624   0.535  -0.545  0.00  0.00    -0.081 A 
ATOM      2  C3  UNL d   1      -0.708   0.887  -1.897  0.00  0.00     0.006 A 
ATOM      3  C4  UNL d   1      -1.944   1.187  -2.475  0.00  0.00     0.002 A 
ATOM      4  C5  UNL d   1      -3.114   1.149  -1.709  0.00  0.00    -0.080 A 
ATOM      5  C6  UNL d   1      -4.443   1.499  -2.309  0.00  0.00     0.076 C 
ATOM      6  C7  UNL d   1      -3.032   0.780  -0.362  0.00  0.00     0.002 A 
ATOM      7  C8  UNL d   1      -1.796   0.479   0.216  0.00  0.00     0.006 A 
ENDROOT
BRANCH   1   8
ATOM      8  C1  UNL d   1       0.715   0.273   0.097  0.00  0.00     0.054 C 
ATOM      9  C   UNL d   1       0.602  -0.758   1.211  0.00  0.00     0.018 C 
ENDBRANCH   1   8
TORSDOF 1
ENDMDL
