MODEL 1
REMARK minimizedAffinity -2.87236977
REMARK minimizedRMSD -1
REMARK  1 active torsions:
REMARK  status: ('A' for Active; 'I' for Inactive)
REMARK    1  A    between atoms: C1_2  and  C2_3 
ROOT
ATOM      1  C2  UNL d   1      -0.756  -5.669  -4.821  0.00  0.00    -0.081 A 
ATOM      2  C3  UNL d   1      -1.721  -5.876  -5.814  0.00  0.00     0.006 A 
ATOM      3  C4  UNL d   1      -3.072  -5.993  -5.475  0.00  0.00     0.002 A 
ATOM      4  C5  UNL d   1      -3.480  -5.897  -4.140  0.00  0.00    -0.080 A 
ATOM      5  C6  UNL d   1      -4.929  -5.990  -3.767  0.00  0.00     0.076 C 
ATOM      6  C7  UNL d   1      -2.513  -5.707  -3.147  0.00  0.00     0.002 A 
ATOM      7  C8  UNL d   1      -1.163  -5.591  -3.485  0.00  0.00     0.006 A 
ENDROOT
BRANCH   1   8
ATOM      8  C1  UNL d   1       0.693  -5.478  -5.189  0.00  0.00     0.054 C 
ATOM      9  C   UNL d   1       1.483  -4.880  -4.034  0.00  0.00     0.018 C 
ENDBRANCH   1   8
TORSDOF 1
ENDMDL
