MODEL 1
REMARK minimizedAffinity -0.782257617
REMARK minimizedRMSD -1
REMARK  1 active torsions:
REMARK  status: ('A' for Active; 'I' for Inactive)
REMARK    1  A    between atoms: C1_2  and  C2_3 
ROOT
ATOM      1  C2  UNL d   1       1.757  -1.185   2.195  0.00  0.00    -0.081 A 
ATOM      2  C3  UNL d   1       1.662  -1.371   3.579  0.00  0.00     0.006 A 
ATOM      3  C4  UNL d   1       2.807  -1.344   4.378  0.00  0.00     0.002 A 
ATOM      4  C5  UNL d   1       4.065  -1.121   3.807  0.00  0.00    -0.080 A 
ATOM      5  C6  UNL d   1       5.300  -1.059   4.657  0.00  0.00     0.076 C 
ATOM      6  C7  UNL d   1       4.162  -0.952   2.422  0.00  0.00     0.002 A 
ATOM      7  C8  UNL d   1       3.017  -0.980   1.623  0.00  0.00     0.006 A 
ENDROOT
BRANCH   1   8
ATOM      8  C1  UNL d   1       0.516  -1.149   1.339  0.00  0.00     0.054 C 
ATOM      9  C   UNL d   1       0.490   0.088   0.453  0.00  0.00     0.018 C 
ENDBRANCH   1   8
TORSDOF 1
ENDMDL
