MODEL 1
REMARK minimizedAffinity 4.41458273
REMARK minimizedRMSD -1
REMARK  1 active torsions:
REMARK  status: ('A' for Active; 'I' for Inactive)
REMARK    1  A    between atoms: C1_2  and  C2_3 
ROOT
ATOM      1  C2  UNL d   1       0.120  -5.828  -4.627  0.00  0.00    -0.081 A 
ATOM      2  C3  UNL d   1       0.732  -5.857  -5.886  0.00  0.00     0.006 A 
ATOM      3  C4  UNL d   1       2.124  -5.819  -5.997  0.00  0.00     0.002 A 
ATOM      4  C5  UNL d   1       2.927  -5.760  -4.853  0.00  0.00    -0.080 A 
ATOM      5  C6  UNL d   1       4.423  -5.749  -4.958  0.00  0.00     0.076 C 
ATOM      6  C7  UNL d   1       2.315  -5.713  -3.596  0.00  0.00     0.002 A 
ATOM      7  C8  UNL d   1       0.923  -5.750  -3.484  0.00  0.00     0.006 A 
ENDROOT
BRANCH   1   8
ATOM      8  C1  UNL d   1      -1.378  -5.934  -4.501  0.00  0.00     0.054 C 
ATOM      9  C   UNL d   1      -2.050  -5.928  -5.866  0.00  0.00     0.018 C 
ENDBRANCH   1   8
TORSDOF 1
ENDMDL
