MODEL 1
REMARK minimizedAffinity 4.32836294
REMARK minimizedRMSD -1
REMARK  1 active torsions:
REMARK  status: ('A' for Active; 'I' for Inactive)
REMARK    1  A    between atoms: C1_2  and  C2_3 
ROOT
ATOM      1  C2  UNL d   1       2.714  -0.865   1.364  0.00  0.00    -0.081 A 
ATOM      2  C3  UNL d   1       2.605  -0.227   0.122  0.00  0.00     0.006 A 
ATOM      3  C4  UNL d   1       1.371   0.255  -0.320  0.00  0.00     0.002 A 
ATOM      4  C5  UNL d   1       0.228   0.115   0.474  0.00  0.00    -0.080 A 
ATOM      5  C6  UNL d   1      -1.097   0.655   0.023  0.00  0.00     0.076 C 
ATOM      6  C7  UNL d   1       0.333  -0.538   1.706  0.00  0.00     0.002 A 
ATOM      7  C8  UNL d   1       1.567  -1.021   2.149  0.00  0.00     0.006 A 
ENDROOT
BRANCH   1   8
ATOM      8  C1  UNL d   1       4.055  -1.329   1.873  0.00  0.00     0.054 C 
ATOM      9  C   UNL d   1       4.446  -0.598   3.149  0.00  0.00     0.018 C 
ENDBRANCH   1   8
TORSDOF 1
ENDMDL
