MODEL 1
REMARK minimizedAffinity 0.580771148
REMARK minimizedRMSD -1
REMARK  1 active torsions:
REMARK  status: ('A' for Active; 'I' for Inactive)
REMARK    1  A    between atoms: C1_2  and  C2_3 
ROOT
ATOM      1  C2  UNL d   1       2.563  -0.721   1.162  0.00  0.00    -0.081 A 
ATOM      2  C3  UNL d   1       2.555  -0.158  -0.120  0.00  0.00     0.006 A 
ATOM      3  C4  UNL d   1       1.360   0.282  -0.693  0.00  0.00     0.002 A 
ATOM      4  C5  UNL d   1       0.154   0.173   0.008  0.00  0.00    -0.080 A 
ATOM      5  C6  UNL d   1      -1.132   0.669  -0.583  0.00  0.00     0.076 C 
ATOM      6  C7  UNL d   1       0.159  -0.406   1.282  0.00  0.00     0.002 A 
ATOM      7  C8  UNL d   1       1.355  -0.846   1.855  0.00  0.00     0.006 A 
ENDROOT
BRANCH   1   8
ATOM      8  C1  UNL d   1       3.860  -1.137   1.808  0.00  0.00     0.054 C 
ATOM      9  C   UNL d   1       3.895  -0.748   3.279  0.00  0.00     0.018 C 
ENDBRANCH   1   8
TORSDOF 1
ENDMDL
