MODEL 1
REMARK minimizedAffinity 5.07518005
REMARK minimizedRMSD -1
REMARK  1 active torsions:
REMARK  status: ('A' for Active; 'I' for Inactive)
REMARK    1  A    between atoms: C1_2  and  C2_3 
ROOT
ATOM      1  C2  UNL d   1       2.326   1.878  -0.281  0.00  0.00    -0.081 A 
ATOM      2  C3  UNL d   1       1.940   3.196  -0.011  0.00  0.00     0.006 A 
ATOM      3  C4  UNL d   1       2.865   4.239  -0.108  0.00  0.00     0.002 A 
ATOM      4  C5  UNL d   1       4.187   3.982  -0.485  0.00  0.00    -0.080 A 
ATOM      5  C6  UNL d   1       5.182   5.096  -0.623  0.00  0.00     0.076 C 
ATOM      6  C7  UNL d   1       4.577   2.663  -0.738  0.00  0.00     0.002 A 
ATOM      7  C8  UNL d   1       3.654   1.620  -0.640  0.00  0.00     0.006 A 
ENDROOT
BRANCH   1   8
ATOM      8  C1  UNL d   1       1.316   0.760  -0.239  0.00  0.00     0.054 C 
ATOM      9  C   UNL d   1       1.921  -0.511   0.341  0.00  0.00     0.018 C 
ENDBRANCH   1   8
TORSDOF 1
ENDMDL
