MODEL 1
REMARK minimizedAffinity 2.15643644
REMARK minimizedRMSD -1
REMARK  1 active torsions:
REMARK  status: ('A' for Active; 'I' for Inactive)
REMARK    1  A    between atoms: C1_2  and  C2_3 
ROOT
ATOM      1  C2  UNL d   1      -0.366  -5.770  -4.848  0.00  0.00    -0.081 A 
ATOM      2  C3  UNL d   1       0.234  -5.562  -3.599  0.00  0.00     0.006 A 
ATOM      3  C4  UNL d   1       1.601  -5.290  -3.507  0.00  0.00     0.002 A 
ATOM      4  C5  UNL d   1       2.389  -5.214  -4.660  0.00  0.00    -0.080 A 
ATOM      5  C6  UNL d   1       3.852  -4.892  -4.577  0.00  0.00     0.076 C 
ATOM      6  C7  UNL d   1       1.794  -5.439  -5.906  0.00  0.00     0.002 A 
ATOM      7  C8  UNL d   1       0.427  -5.711  -5.999  0.00  0.00     0.006 A 
ENDROOT
BRANCH   1   8
ATOM      8  C1  UNL d   1      -1.852  -6.000  -4.956  0.00  0.00     0.054 C 
ATOM      9  C   UNL d   1      -2.561  -5.656  -3.654  0.00  0.00     0.018 C 
ENDBRANCH   1   8
TORSDOF 1
ENDMDL
