MODEL 1
REMARK minimizedAffinity 3.13159299
REMARK minimizedRMSD -1
REMARK  1 active torsions:
REMARK  status: ('A' for Active; 'I' for Inactive)
REMARK    1  A    between atoms: C1_2  and  C2_3 
ROOT
ATOM      1  C2  UNL d   1      -1.551   2.939  -3.939  0.00  0.00    -0.081 A 
ATOM      2  C3  UNL d   1      -2.898   3.154  -4.256  0.00  0.00     0.006 A 
ATOM      3  C4  UNL d   1      -3.866   2.208  -3.910  0.00  0.00     0.002 A 
ATOM      4  C5  UNL d   1      -3.506   1.037  -3.236  0.00  0.00    -0.080 A 
ATOM      5  C6  UNL d   1      -4.540   0.028  -2.832  0.00  0.00     0.076 C 
ATOM      6  C7  UNL d   1      -2.158   0.814  -2.935  0.00  0.00     0.002 A 
ATOM      7  C8  UNL d   1      -1.189   1.758  -3.281  0.00  0.00     0.006 A 
ENDROOT
BRANCH   1   8
ATOM      8  C1  UNL d   1      -0.513   3.986  -4.253  0.00  0.00     0.054 C 
ATOM      9  C   UNL d   1      -1.087   5.390  -4.125  0.00  0.00     0.018 C 
ENDBRANCH   1   8
TORSDOF 1
ENDMDL
