MODEL 1
REMARK minimizedAffinity 11.819128
REMARK minimizedRMSD -1
REMARK  1 active torsions:
REMARK  status: ('A' for Active; 'I' for Inactive)
REMARK    1  A    between atoms: C1_2  and  C2_3 
ROOT
ATOM      1  C2  UNL d   1       2.523  -1.061   1.392  0.00  0.00    -0.081 A 
ATOM      2  C3  UNL d   1       3.041  -0.999   0.092  0.00  0.00     0.006 A 
ATOM      3  C4  UNL d   1       2.247  -0.549  -0.966  0.00  0.00     0.002 A 
ATOM      4  C5  UNL d   1       0.927  -0.145  -0.741  0.00  0.00    -0.080 A 
ATOM      5  C6  UNL d   1       0.074   0.369  -1.862  0.00  0.00     0.076 C 
ATOM      6  C7  UNL d   1       0.404  -0.223   0.554  0.00  0.00     0.002 A 
ATOM      7  C8  UNL d   1       1.196  -0.674   1.612  0.00  0.00     0.006 A 
ENDROOT
BRANCH   1   8
ATOM      8  C1  UNL d   1       3.396  -1.485   2.545  0.00  0.00     0.054 C 
ATOM      9  C   UNL d   1       2.560  -1.937   3.734  0.00  0.00     0.018 C 
ENDBRANCH   1   8
TORSDOF 1
ENDMDL
