MODEL 1
REMARK minimizedAffinity 5.91504192
REMARK minimizedRMSD -1
REMARK  1 active torsions:
REMARK  status: ('A' for Active; 'I' for Inactive)
REMARK    1  A    between atoms: C1_2  and  C2_3 
ROOT
ATOM      1  C2  UNL d   1       1.557  -5.197  -4.672  0.00  0.00    -0.081 A 
ATOM      2  C3  UNL d   1       0.768  -4.897  -3.554  0.00  0.00     0.006 A 
ATOM      3  C4  UNL d   1      -0.606  -5.144  -3.570  0.00  0.00     0.002 A 
ATOM      4  C5  UNL d   1      -1.214  -5.701  -4.700  0.00  0.00    -0.080 A 
ATOM      5  C6  UNL d   1      -2.684  -5.999  -4.720  0.00  0.00     0.076 C 
ATOM      6  C7  UNL d   1      -0.430  -5.984  -5.824  0.00  0.00     0.002 A 
ATOM      7  C8  UNL d   1       0.945  -5.736  -5.808  0.00  0.00     0.006 A 
ENDROOT
BRANCH   1   8
ATOM      8  C1  UNL d   1       3.049  -4.992  -4.634  0.00  0.00     0.054 C 
ATOM      9  C   UNL d   1       3.728  -5.642  -5.831  0.00  0.00     0.018 C 
ENDBRANCH   1   8
TORSDOF 1
ENDMDL
