MODEL 1
REMARK minimizedAffinity -1.11408484
REMARK minimizedRMSD -1
REMARK  1 active torsions:
REMARK  status: ('A' for Active; 'I' for Inactive)
REMARK    1  A    between atoms: C1_2  and  C2_3 
ROOT
ATOM      1  C2  UNL d   1      -0.626  -5.978  -4.566  0.00  0.00    -0.081 A 
ATOM      2  C3  UNL d   1      -2.009  -5.988  -4.349  0.00  0.00     0.006 A 
ATOM      3  C4  UNL d   1      -2.522  -6.000  -3.050  0.00  0.00     0.002 A 
ATOM      4  C5  UNL d   1      -1.662  -5.993  -1.947  0.00  0.00    -0.080 A 
ATOM      5  C6  UNL d   1      -2.200  -5.974  -0.547  0.00  0.00     0.076 C 
ATOM      6  C7  UNL d   1      -0.280  -6.000  -2.164  0.00  0.00     0.002 A 
ATOM      7  C8  UNL d   1       0.234  -5.989  -3.462  0.00  0.00     0.006 A 
ENDROOT
BRANCH   1   8
ATOM      8  C1  UNL d   1      -0.070  -5.900  -5.965  0.00  0.00     0.054 C 
ATOM      9  C   UNL d   1       1.426  -5.617  -5.951  0.00  0.00     0.018 C 
ENDBRANCH   1   8
TORSDOF 1
ENDMDL
