MODEL 1
REMARK minimizedAffinity 3.12143636
REMARK minimizedRMSD -1
REMARK  1 active torsions:
REMARK  status: ('A' for Active; 'I' for Inactive)
REMARK    1  A    between atoms: C1_2  and  C2_3 
ROOT
ATOM      1  C2  UNL d   1       1.967  -5.258  -4.854  0.00  0.00    -0.081 A 
ATOM      2  C3  UNL d   1       1.212  -5.004  -3.703  0.00  0.00     0.006 A 
ATOM      3  C4  UNL d   1      -0.166  -5.231  -3.695  0.00  0.00     0.002 A 
ATOM      4  C5  UNL d   1      -0.811  -5.722  -4.835  0.00  0.00    -0.080 A 
ATOM      5  C6  UNL d   1      -2.285  -5.999  -4.830  0.00  0.00     0.076 C 
ATOM      6  C7  UNL d   1      -0.060  -5.959  -5.991  0.00  0.00     0.002 A 
ATOM      7  C8  UNL d   1       1.318  -5.732  -6.000  0.00  0.00     0.006 A 
ENDROOT
BRANCH   1   8
ATOM      8  C1  UNL d   1       3.463  -5.076  -4.846  0.00  0.00     0.054 C 
ATOM      9  C   UNL d   1       4.138  -5.995  -5.854  0.00  0.00     0.018 C 
ENDBRANCH   1   8
TORSDOF 1
ENDMDL
