MODEL 1
REMARK minimizedAffinity -4.0173831
REMARK minimizedRMSD -1
REMARK  1 active torsions:
REMARK  status: ('A' for Active; 'I' for Inactive)
REMARK    1  A    between atoms: C1_2  and  C2_3 
ROOT
ATOM      1  C2  UNL d   1      -3.669  -5.968   0.000  0.00  0.00    -0.081 A 
ATOM      2  C3  UNL d   1      -2.321  -5.980  -0.379  0.00  0.00     0.006 A 
ATOM      3  C4  UNL d   1      -1.966  -5.997  -1.730  0.00  0.00     0.002 A 
ATOM      4  C5  UNL d   1      -2.951  -5.994  -2.723  0.00  0.00    -0.080 A 
ATOM      5  C6  UNL d   1      -2.584  -5.981  -4.177  0.00  0.00     0.076 C 
ATOM      6  C7  UNL d   1      -4.298  -6.000  -2.344  0.00  0.00     0.002 A 
ATOM      7  C8  UNL d   1      -4.654  -5.984  -0.994  0.00  0.00     0.006 A 
ENDROOT
BRANCH   1   8
ATOM      8  C1  UNL d   1      -4.055  -5.885   1.455  0.00  0.00     0.054 C 
ATOM      9  C   UNL d   1      -3.045  -5.068   2.249  0.00  0.00     0.018 C 
ENDBRANCH   1   8
TORSDOF 1
ENDMDL
