MODEL 1
REMARK minimizedAffinity -4.8171382
REMARK minimizedRMSD -1
REMARK  0 active torsions:
REMARK  status: ('A' for Active; 'I' for Inactive)
ROOT
ATOM      1  C   UNL d   1      -1.040   2.193   0.015  0.00  0.00     0.124 A 
ATOM      2  C1  UNL d   1       0.018   2.249  -0.883  0.00  0.00     0.062 A 
ATOM      3  C2  UNL d   1       0.663   1.081  -1.278  0.00  0.00     0.162 A 
ATOM      4  C3  UNL d   1       0.252  -0.154  -0.777  0.00  0.00    -0.034 A 
ATOM      5  C4  UNL d   1      -0.812  -0.202   0.126  0.00  0.00     0.162 A 
ATOM      6  C5  UNL d   1      -1.453   0.968   0.518  0.00  0.00     0.062 A 
ATOM      7  F   UNL d   1      -2.475   0.912   1.385  0.00  0.00    -0.097 F 
ATOM      8  F1  UNL d   1      -1.233  -1.373   0.627  0.00  0.00    -0.096 F 
ATOM      9  I   UNL d   1       1.214  -1.903  -1.366  0.00  0.00    -0.060 I 
ATOM     10  F2  UNL d   1       1.682   1.165  -2.146  0.00  0.00    -0.096 F 
ATOM     11  F3  UNL d   1       0.420   3.432  -1.369  0.00  0.00    -0.097 F 
ATOM     12  F4  UNL d   1      -1.658   3.319   0.394  0.00  0.00    -0.092 F 
ENDROOT
TORSDOF 0
ENDMDL
