MODEL 1
REMARK minimizedAffinity -3.66467905
REMARK minimizedRMSD -1
REMARK  0 active torsions:
REMARK  status: ('A' for Active; 'I' for Inactive)
ROOT
ATOM      1  C   UNL d   1      -1.202   1.983   0.842  0.00  0.00     0.124 A 
ATOM      2  C1  UNL d   1      -1.142   0.847   1.637  0.00  0.00     0.062 A 
ATOM      3  C2  UNL d   1      -0.245  -0.173   1.333  0.00  0.00     0.162 A 
ATOM      4  C3  UNL d   1       0.601  -0.061   0.229  0.00  0.00    -0.034 A 
ATOM      5  C4  UNL d   1       0.534   1.085  -0.566  0.00  0.00     0.162 A 
ATOM      6  C5  UNL d   1      -0.364   2.102  -0.258  0.00  0.00     0.062 A 
ATOM      7  F   UNL d   1      -0.421   3.199  -1.026  0.00  0.00    -0.097 F 
ATOM      8  F1  UNL d   1       1.333   1.226  -1.634  0.00  0.00    -0.096 F 
ATOM      9  I   UNL d   1       1.944  -1.583  -0.229  0.00  0.00    -0.060 I 
ATOM     10  F2  UNL d   1      -0.209  -1.260   2.117  0.00  0.00    -0.096 F 
ATOM     11  F3  UNL d   1      -1.951   0.730   2.699  0.00  0.00    -0.097 F 
ATOM     12  F4  UNL d   1      -2.067   2.963   1.137  0.00  0.00    -0.092 F 
ENDROOT
TORSDOF 0
ENDMDL
