MODEL 1
REMARK minimizedAffinity -2.53257084
REMARK minimizedRMSD -1
REMARK  0 active torsions:
REMARK  status: ('A' for Active; 'I' for Inactive)
ROOT
ATOM      1  C   UNL d   1      -1.385   1.950   0.478  0.00  0.00     0.124 A 
ATOM      2  C1  UNL d   1      -1.494   0.800   1.247  0.00  0.00     0.062 A 
ATOM      3  C2  UNL d   1      -0.805  -0.353   0.883  0.00  0.00     0.162 A 
ATOM      4  C3  UNL d   1       0.000  -0.362  -0.256  0.00  0.00    -0.034 A 
ATOM      5  C4  UNL d   1       0.104   0.799  -1.025  0.00  0.00     0.162 A 
ATOM      6  C5  UNL d   1      -0.587   1.949  -0.657  0.00  0.00     0.062 A 
ATOM      7  F   UNL d   1      -0.481   3.059  -1.401  0.00  0.00    -0.097 F 
ATOM      8  F1  UNL d   1       0.869   0.825  -2.126  0.00  0.00    -0.096 F 
ATOM      9  I   UNL d   1       1.032  -2.084  -0.804  0.00  0.00    -0.060 I 
ATOM     10  F2  UNL d   1      -0.928  -1.450   1.645  0.00  0.00    -0.096 F 
ATOM     11  F3  UNL d   1      -2.265   0.799   2.344  0.00  0.00    -0.097 F 
ATOM     12  F4  UNL d   1      -2.050   3.058   0.831  0.00  0.00    -0.092 F 
ENDROOT
TORSDOF 0
ENDMDL
