MODEL 1
REMARK minimizedAffinity 1.70914078
REMARK minimizedRMSD -1
REMARK  0 active torsions:
REMARK  status: ('A' for Active; 'I' for Inactive)
ROOT
ATOM      1  C   UNL d   1       0.047   1.904  -0.887  0.00  0.00     0.124 A 
ATOM      2  C1  UNL d   1      -0.510   1.022   0.029  0.00  0.00     0.062 A 
ATOM      3  C2  UNL d   1      -0.281  -0.346  -0.087  0.00  0.00     0.162 A 
ATOM      4  C3  UNL d   1       0.511  -0.841  -1.123  0.00  0.00    -0.034 A 
ATOM      5  C4  UNL d   1       1.067   0.051  -2.041  0.00  0.00     0.162 A 
ATOM      6  C5  UNL d   1       0.835   1.418  -1.921  0.00  0.00     0.062 A 
ATOM      7  F   UNL d   1       1.375   2.268  -2.807  0.00  0.00    -0.097 F 
ATOM      8  F1  UNL d   1       1.833  -0.391  -3.049  0.00  0.00    -0.096 F 
ATOM      9  I   UNL d   1       0.855  -2.886  -1.300  0.00  0.00    -0.060 I 
ATOM     10  F2  UNL d   1      -0.833  -1.174   0.812  0.00  0.00    -0.096 F 
ATOM     11  F3  UNL d   1      -1.273   1.490   1.028  0.00  0.00    -0.097 F 
ATOM     12  F4  UNL d   1      -0.176   3.219  -0.774  0.00  0.00    -0.092 F 
ENDROOT
TORSDOF 0
ENDMDL
