MODEL 1
REMARK minimizedAffinity -4.43066788
REMARK minimizedRMSD -1
REMARK  0 active torsions:
REMARK  status: ('A' for Active; 'I' for Inactive)
ROOT
ATOM      1  C   UNL d   1      -1.200   0.162   1.710  0.00  0.00     0.124 A 
ATOM      2  C1  UNL d   1      -1.836   1.181   1.015  0.00  0.00     0.062 A 
ATOM      3  C2  UNL d   1      -1.189   1.820  -0.039  0.00  0.00     0.162 A 
ATOM      4  C3  UNL d   1       0.103   1.441  -0.405  0.00  0.00    -0.034 A 
ATOM      5  C4  UNL d   1       0.737   0.416   0.300  0.00  0.00     0.162 A 
ATOM      6  C5  UNL d   1       0.085  -0.220   1.352  0.00  0.00     0.062 A 
ATOM      7  F   UNL d   1       0.702  -1.204   2.023  0.00  0.00    -0.097 F 
ATOM      8  F1  UNL d   1       1.978   0.026  -0.026  0.00  0.00    -0.096 F 
ATOM      9  I   UNL d   1       1.074   2.394  -1.979  0.00  0.00    -0.060 I 
ATOM     10  F2  UNL d   1      -1.828   2.801  -0.693  0.00  0.00    -0.096 F 
ATOM     11  F3  UNL d   1      -3.078   1.552   1.359  0.00  0.00    -0.097 F 
ATOM     12  F4  UNL d   1      -1.825  -0.451   2.724  0.00  0.00    -0.092 F 
ENDROOT
TORSDOF 0
ENDMDL
