MODEL 1
REMARK minimizedAffinity 2.13179398
REMARK minimizedRMSD -1
REMARK  0 active torsions:
REMARK  status: ('A' for Active; 'I' for Inactive)
ROOT
ATOM      1  C   UNL d   1      -0.385   1.432   1.860  0.00  0.00     0.124 A 
ATOM      2  C1  UNL d   1       0.635   0.491   1.809  0.00  0.00     0.062 A 
ATOM      3  C2  UNL d   1       0.678  -0.438   0.773  0.00  0.00     0.162 A 
ATOM      4  C3  UNL d   1      -0.301  -0.430  -0.221  0.00  0.00    -0.034 A 
ATOM      5  C4  UNL d   1      -1.323   0.518  -0.162  0.00  0.00     0.162 A 
ATOM      6  C5  UNL d   1      -1.362   1.445   0.876  0.00  0.00     0.062 A 
ATOM      7  F   UNL d   1      -2.348   2.353   0.924  0.00  0.00    -0.097 F 
ATOM      8  F1  UNL d   1      -2.281   0.554  -1.100  0.00  0.00    -0.096 F 
ATOM      9  I   UNL d   1      -0.240  -1.818  -1.771  0.00  0.00    -0.060 I 
ATOM     10  F2  UNL d   1       1.674  -1.336   0.748  0.00  0.00    -0.096 F 
ATOM     11  F3  UNL d   1       1.580   0.476   2.759  0.00  0.00    -0.097 F 
ATOM     12  F4  UNL d   1      -0.424   2.324   2.858  0.00  0.00    -0.092 F 
ENDROOT
TORSDOF 0
ENDMDL
