MODEL 1
REMARK minimizedAffinity -0.495687366
REMARK minimizedRMSD -1
REMARK  0 active torsions:
REMARK  status: ('A' for Active; 'I' for Inactive)
ROOT
ATOM      1  C   UNL d   1      -0.147   2.547  -1.331  0.00  0.00     0.124 A 
ATOM      2  C1  UNL d   1       1.154   2.069  -1.405  0.00  0.00     0.062 A 
ATOM      3  C2  UNL d   1       1.451   0.778  -0.981  0.00  0.00     0.162 A 
ATOM      4  C3  UNL d   1       0.444  -0.047  -0.478  0.00  0.00    -0.034 A 
ATOM      5  C4  UNL d   1      -0.862   0.440  -0.405  0.00  0.00     0.162 A 
ATOM      6  C5  UNL d   1      -1.154   1.732  -0.831  0.00  0.00     0.062 A 
ATOM      7  F   UNL d   1      -2.411   2.192  -0.758  0.00  0.00    -0.097 F 
ATOM      8  F1  UNL d   1      -1.854  -0.326   0.073  0.00  0.00    -0.096 F 
ATOM      9  I   UNL d   1       0.885  -1.979   0.158  0.00  0.00    -0.060 I 
ATOM     10  F2  UNL d   1       2.717   0.343  -1.065  0.00  0.00    -0.096 F 
ATOM     11  F3  UNL d   1       2.128   2.855  -1.887  0.00  0.00    -0.097 F 
ATOM     12  F4  UNL d   1      -0.430   3.790  -1.739  0.00  0.00    -0.092 F 
ENDROOT
TORSDOF 0
ENDMDL
