MODEL 1
REMARK minimizedAffinity 0.498409331
REMARK minimizedRMSD -1
REMARK  0 active torsions:
REMARK  status: ('A' for Active; 'I' for Inactive)
ROOT
ATOM      1  C   UNL d   1      -1.064   2.556   0.934  0.00  0.00     0.124 A 
ATOM      2  C1  UNL d   1      -1.273   1.366   1.618  0.00  0.00     0.062 A 
ATOM      3  C2  UNL d   1      -0.675   0.190   1.174  0.00  0.00     0.162 A 
ATOM      4  C3  UNL d   1       0.139   0.198   0.042  0.00  0.00    -0.034 A 
ATOM      5  C4  UNL d   1       0.344   1.398  -0.641  0.00  0.00     0.162 A 
ATOM      6  C5  UNL d   1      -0.256   2.571  -0.194  0.00  0.00     0.062 A 
ATOM      7  F   UNL d   1      -0.053   3.719  -0.855  0.00  0.00    -0.097 F 
ATOM      8  F1  UNL d   1       1.121   1.441  -1.733  0.00  0.00    -0.096 F 
ATOM      9  I   UNL d   1       1.035  -1.559  -0.624  0.00  0.00    -0.060 I 
ATOM     10  F2  UNL d   1      -0.895  -0.946   1.854  0.00  0.00    -0.096 F 
ATOM     11  F3  UNL d   1      -2.054   1.348   2.707  0.00  0.00    -0.097 F 
ATOM     12  F4  UNL d   1      -1.642   3.685   1.362  0.00  0.00    -0.092 F 
ENDROOT
TORSDOF 0
ENDMDL
