MODEL 1
REMARK minimizedAffinity -3.08348393
REMARK minimizedRMSD -1
REMARK  0 active torsions:
REMARK  status: ('A' for Active; 'I' for Inactive)
ROOT
ATOM      1  C   UNL d   1      -1.194  -0.266   1.787  0.00  0.00     0.124 A 
ATOM      2  C1  UNL d   1      -0.110  -0.355   0.925  0.00  0.00     0.062 A 
ATOM      3  C2  UNL d   1       0.250   0.735   0.137  0.00  0.00     0.162 A 
ATOM      4  C3  UNL d   1      -0.476   1.924   0.208  0.00  0.00    -0.034 A 
ATOM      5  C4  UNL d   1      -1.566   2.006   1.076  0.00  0.00     0.162 A 
ATOM      6  C5  UNL d   1      -1.921   0.914   1.861  0.00  0.00     0.062 A 
ATOM      7  F   UNL d   1      -2.969   1.002   2.693  0.00  0.00    -0.097 F 
ATOM      8  F1  UNL d   1      -2.285   3.134   1.169  0.00  0.00    -0.096 F 
ATOM      9  I   UNL d   1       0.059   3.556  -0.969  0.00  0.00    -0.060 I 
ATOM     10  F2  UNL d   1       1.302   0.620  -0.687  0.00  0.00    -0.096 F 
ATOM     11  F3  UNL d   1       0.594  -1.494   0.850  0.00  0.00    -0.097 F 
ATOM     12  F4  UNL d   1      -1.538  -1.316   2.543  0.00  0.00    -0.092 F 
ENDROOT
TORSDOF 0
ENDMDL
