MODEL 1
REMARK minimizedAffinity 1.81838298
REMARK minimizedRMSD -1
REMARK  0 active torsions:
REMARK  status: ('A' for Active; 'I' for Inactive)
ROOT
ATOM      1  C   UNL d   1       0.588  -2.995  -2.515  0.00  0.00     0.124 A 
ATOM      2  C1  UNL d   1      -0.461  -2.189  -2.935  0.00  0.00     0.062 A 
ATOM      3  C2  UNL d   1      -0.787  -1.038  -2.225  0.00  0.00     0.162 A 
ATOM      4  C3  UNL d   1      -0.062  -0.684  -1.086  0.00  0.00    -0.034 A 
ATOM      5  C4  UNL d   1       0.990  -1.501  -0.669  0.00  0.00     0.162 A 
ATOM      6  C5  UNL d   1       1.312  -2.651  -1.382  0.00  0.00     0.062 A 
ATOM      7  F   UNL d   1       2.326  -3.428  -0.975  0.00  0.00    -0.097 F 
ATOM      8  F1  UNL d   1       1.708  -1.191   0.421  0.00  0.00    -0.096 F 
ATOM      9  I   UNL d   1      -0.547   1.037  -0.021  0.00  0.00    -0.060 I 
ATOM     10  F2  UNL d   1      -1.805  -0.277  -2.654  0.00  0.00    -0.096 F 
ATOM     11  F3  UNL d   1      -1.163  -2.521  -4.028  0.00  0.00    -0.097 F 
ATOM     12  F4  UNL d   1       0.899  -4.103  -3.200  0.00  0.00    -0.092 F 
ENDROOT
TORSDOF 0
ENDMDL
