MODEL 1
REMARK minimizedAffinity -1.82977867
REMARK minimizedRMSD -1
REMARK  0 active torsions:
REMARK  status: ('A' for Active; 'I' for Inactive)
ROOT
ATOM      1  C   UNL d   1       0.835  -1.114   0.459  0.00  0.00     0.124 A 
ATOM      2  C1  UNL d   1       0.125  -0.570  -0.603  0.00  0.00     0.062 A 
ATOM      3  C2  UNL d   1      -0.704   0.530  -0.401  0.00  0.00     0.162 A 
ATOM      4  C3  UNL d   1      -0.827   1.095   0.869  0.00  0.00    -0.034 A 
ATOM      5  C4  UNL d   1      -0.110   0.542   1.932  0.00  0.00     0.162 A 
ATOM      6  C5  UNL d   1       0.717  -0.557   1.725  0.00  0.00     0.062 A 
ATOM      7  F   UNL d   1       1.402  -1.081   2.752  0.00  0.00    -0.097 F 
ATOM      8  F1  UNL d   1      -0.205   1.060   3.165  0.00  0.00    -0.096 F 
ATOM      9  I   UNL d   1      -2.065   2.739   1.175  0.00  0.00    -0.060 I 
ATOM     10  F2  UNL d   1      -1.378   1.034  -1.445  0.00  0.00    -0.096 F 
ATOM     11  F3  UNL d   1       0.237  -1.106  -1.827  0.00  0.00    -0.097 F 
ATOM     12  F4  UNL d   1       1.631  -2.173   0.262  0.00  0.00    -0.092 F 
ENDROOT
TORSDOF 0
ENDMDL
