MODEL 1
REMARK minimizedAffinity -1.25741148
REMARK minimizedRMSD -1
REMARK  0 active torsions:
REMARK  status: ('A' for Active; 'I' for Inactive)
ROOT
ATOM      1  C   UNL d   1      -0.864   1.588  -0.114  0.00  0.00     0.124 A 
ATOM      2  C1  UNL d   1       0.285   1.578  -0.893  0.00  0.00     0.062 A 
ATOM      3  C2  UNL d   1       0.947   0.381  -1.148  0.00  0.00     0.162 A 
ATOM      4  C3  UNL d   1       0.461  -0.818  -0.624  0.00  0.00    -0.034 A 
ATOM      5  C4  UNL d   1      -0.694  -0.799   0.159  0.00  0.00     0.162 A 
ATOM      6  C5  UNL d   1      -1.352   0.400   0.411  0.00  0.00     0.062 A 
ATOM      7  F   UNL d   1      -2.462   0.408   1.164  0.00  0.00    -0.097 F 
ATOM      8  F1  UNL d   1      -1.188  -1.933   0.678  0.00  0.00    -0.096 F 
ATOM      9  I   UNL d   1       1.449  -2.610  -1.003  0.00  0.00    -0.060 I 
ATOM     10  F2  UNL d   1       2.055   0.401  -1.904  0.00  0.00    -0.096 F 
ATOM     11  F3  UNL d   1       0.759   2.725  -1.400  0.00  0.00    -0.097 F 
ATOM     12  F4  UNL d   1      -1.499   2.742   0.131  0.00  0.00    -0.092 F 
ENDROOT
TORSDOF 0
ENDMDL
