MODEL 1
REMARK minimizedAffinity 0.542593539
REMARK minimizedRMSD -1
REMARK  0 active torsions:
REMARK  status: ('A' for Active; 'I' for Inactive)
ROOT
ATOM      1  C   UNL d   1      -0.920   0.527   1.679  0.00  0.00     0.124 A 
ATOM      2  C1  UNL d   1      -0.069  -0.563   1.565  0.00  0.00     0.062 A 
ATOM      3  C2  UNL d   1       0.443  -0.925   0.323  0.00  0.00     0.162 A 
ATOM      4  C3  UNL d   1       0.106  -0.195  -0.817  0.00  0.00    -0.034 A 
ATOM      5  C4  UNL d   1      -0.751   0.900  -0.695  0.00  0.00     0.162 A 
ATOM      6  C5  UNL d   1      -1.260   1.257   0.549  0.00  0.00     0.062 A 
ATOM      7  F   UNL d   1      -2.083   2.311   0.657  0.00  0.00    -0.097 F 
ATOM      8  F1  UNL d   1      -1.096   1.623  -1.770  0.00  0.00    -0.096 F 
ATOM      9  I   UNL d   1       0.870  -0.733  -2.677  0.00  0.00    -0.060 I 
ATOM     10  F2  UNL d   1       1.264  -1.983   0.243  0.00  0.00    -0.096 F 
ATOM     11  F3  UNL d   1       0.261  -1.271   2.656  0.00  0.00    -0.097 F 
ATOM     12  F4  UNL d   1      -1.412   0.872   2.876  0.00  0.00    -0.092 F 
ENDROOT
TORSDOF 0
ENDMDL
