MODEL 1
REMARK minimizedAffinity -1.03528798
REMARK minimizedRMSD -1
REMARK  0 active torsions:
REMARK  status: ('A' for Active; 'I' for Inactive)
ROOT
ATOM      1  C   UNL d   1       0.327  -2.298  -2.244  0.00  0.00     0.124 A 
ATOM      2  C1  UNL d   1      -0.764  -2.778  -1.534  0.00  0.00     0.062 A 
ATOM      3  C2  UNL d   1      -1.169  -2.146  -0.361  0.00  0.00     0.162 A 
ATOM      4  C3  UNL d   1      -0.482  -1.026   0.108  0.00  0.00    -0.034 A 
ATOM      5  C4  UNL d   1       0.615  -0.550  -0.612  0.00  0.00     0.162 A 
ATOM      6  C5  UNL d   1       1.016  -1.185  -1.783  0.00  0.00     0.062 A 
ATOM      7  F   UNL d   1       2.071  -0.720  -2.468  0.00  0.00    -0.097 F 
ATOM      8  F1  UNL d   1       1.298   0.524  -0.189  0.00  0.00    -0.096 F 
ATOM      9  I   UNL d   1      -1.084  -0.078   1.860  0.00  0.00    -0.060 I 
ATOM     10  F2  UNL d   1      -2.227  -2.631   0.305  0.00  0.00    -0.096 F 
ATOM     11  F3  UNL d   1      -1.431  -3.854  -1.977  0.00  0.00    -0.097 F 
ATOM     12  F4  UNL d   1       0.715  -2.908  -3.371  0.00  0.00    -0.092 F 
ENDROOT
TORSDOF 0
ENDMDL
