MODEL 1
REMARK minimizedAffinity 15.7018528
REMARK minimizedRMSD -1
REMARK  0 active torsions:
REMARK  status: ('A' for Active; 'I' for Inactive)
ROOT
ATOM      1  C2' OXE d   1      -1.787   4.031   3.725  0.00  0.00     0.078 C 
ATOM      2  C1' OXE d   1      -3.364   4.520   5.996  0.00  0.00     0.078 C 
ATOM      3  C1  OXE d   1      -3.594   3.233   5.243  0.00  0.00    -0.078 A 
ATOM      4  C2  OXE d   1      -2.850   3.024   4.106  0.00  0.00    -0.078 A 
ATOM      5  C3  OXE d   1      -2.985   1.829   3.405  0.00  0.00     0.003 A 
ATOM      6  C4  OXE d   1      -3.977   0.908   3.758  0.00  0.00    -0.002 A 
ATOM      7  C5  OXE d   1      -4.773   1.120   4.889  0.00  0.00    -0.002 A 
ATOM      8  C6  OXE d   1      -4.565   2.255   5.665  0.00  0.00     0.003 A 
ENDROOT
TORSDOF 0
ENDMDL
