MODEL 1
REMARK minimizedAffinity 15.14466
REMARK minimizedRMSD -1
REMARK  0 active torsions:
REMARK  status: ('A' for Active; 'I' for Inactive)
ROOT
ATOM      1  C2' OXE d   1      -0.966   1.592  -4.306  0.00  0.00     0.078 C 
ATOM      2  C1' OXE d   1      -3.308   3.085  -3.901  0.00  0.00     0.078 C 
ATOM      3  C1  OXE d   1      -3.061   1.905  -2.995  0.00  0.00    -0.078 A 
ATOM      4  C2  OXE d   1      -1.936   1.152  -3.231  0.00  0.00    -0.078 A 
ATOM      5  C3  OXE d   1      -1.632   0.085  -2.390  0.00  0.00     0.003 A 
ATOM      6  C4  OXE d   1      -2.540  -0.321  -1.404  0.00  0.00    -0.002 A 
ATOM      7  C5  OXE d   1      -3.711   0.409  -1.173  0.00  0.00    -0.002 A 
ATOM      8  C6  OXE d   1      -3.965   1.547  -1.931  0.00  0.00     0.003 A 
ENDROOT
TORSDOF 0
ENDMDL
