MODEL 1
REMARK minimizedAffinity 5.87648201
REMARK minimizedRMSD -1
REMARK  0 active torsions:
REMARK  status: ('A' for Active; 'I' for Inactive)
ROOT
ATOM      1  C2' OXE d   1      -0.368  -0.479   3.377  0.00  0.00     0.078 C 
ATOM      2  C1' OXE d   1      -1.484  -3.054   3.300  0.00  0.00     0.078 C 
ATOM      3  C1  OXE d   1      -0.200  -2.821   2.544  0.00  0.00    -0.078 A 
ATOM      4  C2  OXE d   1       0.314  -1.547   2.549  0.00  0.00    -0.078 A 
ATOM      5  C3  OXE d   1       1.525  -1.290   1.913  0.00  0.00     0.003 A 
ATOM      6  C4  OXE d   1       2.145  -2.280   1.141  0.00  0.00    -0.002 A 
ATOM      7  C5  OXE d   1       1.617  -3.574   1.090  0.00  0.00    -0.002 A 
ATOM      8  C6  OXE d   1       0.470  -3.872   1.818  0.00  0.00     0.003 A 
ENDROOT
TORSDOF 0
ENDMDL
