MODEL 1
REMARK minimizedAffinity 21.4028645
REMARK minimizedRMSD -1
REMARK  0 active torsions:
REMARK  status: ('A' for Active; 'I' for Inactive)
ROOT
ATOM      1  C2' OXE d   1       4.091  -3.085   2.378  0.00  0.00     0.078 C 
ATOM      2  C1' OXE d   1       5.112  -1.931   4.725  0.00  0.00     0.078 C 
ATOM      3  C1  OXE d   1       4.655  -3.367   4.788  0.00  0.00    -0.078 A 
ATOM      4  C2  OXE d   1       4.114  -3.909   3.647  0.00  0.00    -0.078 A 
ATOM      5  C3  OXE d   1       3.727  -5.246   3.636  0.00  0.00     0.003 A 
ATOM      6  C4  OXE d   1       3.742  -5.999   4.817  0.00  0.00    -0.002 A 
ATOM      7  C5  OXE d   1       4.252  -5.453   5.999  0.00  0.00    -0.002 A 
ATOM      8  C6  OXE d   1       4.751  -4.156   5.992  0.00  0.00     0.003 A 
ENDROOT
TORSDOF 0
ENDMDL
