MODEL 1
REMARK minimizedAffinity 11.151475
REMARK minimizedRMSD -1
REMARK  0 active torsions:
REMARK  status: ('A' for Active; 'I' for Inactive)
ROOT
ATOM      1  C2' OXE d   1      -0.263  -1.448  -1.078  0.00  0.00     0.078 C 
ATOM      2  C1' OXE d   1       1.589  -0.474   0.793  0.00  0.00     0.078 C 
ATOM      3  C1  OXE d   1       1.865  -1.817   0.163  0.00  0.00    -0.078 A 
ATOM      4  C2  OXE d   1       0.929  -2.307  -0.716  0.00  0.00    -0.078 A 
ATOM      5  C3  OXE d   1       1.161  -3.515  -1.366  0.00  0.00     0.003 A 
ATOM      6  C4  OXE d   1       2.262  -4.308  -1.018  0.00  0.00    -0.002 A 
ATOM      7  C5  OXE d   1       3.206  -3.845  -0.096  0.00  0.00    -0.002 A 
ATOM      8  C6  OXE d   1       3.045  -2.586   0.471  0.00  0.00     0.003 A 
ENDROOT
TORSDOF 0
ENDMDL
