MODEL 1
REMARK minimizedAffinity 12.8313723
REMARK minimizedRMSD -1
REMARK  0 active torsions:
REMARK  status: ('A' for Active; 'I' for Inactive)
ROOT
ATOM      1  C2' OXE d   1       5.997   1.877  -3.032  0.00  0.00     0.078 C 
ATOM      2  C1' OXE d   1       6.000  -0.828  -3.786  0.00  0.00     0.078 C 
ATOM      3  C1  OXE d   1       5.854  -0.506  -2.319  0.00  0.00    -0.078 A 
ATOM      4  C2  OXE d   1       5.901   0.818  -1.955  0.00  0.00    -0.078 A 
ATOM      5  C3  OXE d   1       5.716   1.173  -0.622  0.00  0.00     0.003 A 
ATOM      6  C4  OXE d   1       5.637   0.188   0.370  0.00  0.00    -0.002 A 
ATOM      7  C5  OXE d   1       5.627  -1.168   0.024  0.00  0.00    -0.002 A 
ATOM      8  C6  OXE d   1       5.692  -1.530  -1.317  0.00  0.00     0.003 A 
ENDROOT
TORSDOF 0
ENDMDL
