MODEL 1
REMARK minimizedAffinity 18.0091915
REMARK minimizedRMSD -1
REMARK  0 active torsions:
REMARK  status: ('A' for Active; 'I' for Inactive)
ROOT
ATOM      1  C2' OXE d   1       2.080  -3.525  -0.010  0.00  0.00     0.078 C 
ATOM      2  C1' OXE d   1       2.002  -1.039   1.292  0.00  0.00     0.078 C 
ATOM      3  C1  OXE d   1       0.896  -2.022   1.585  0.00  0.00    -0.078 A 
ATOM      4  C2  OXE d   1       0.916  -3.217   0.908  0.00  0.00    -0.078 A 
ATOM      5  C3  OXE d   1      -0.050  -4.181   1.181  0.00  0.00     0.003 A 
ATOM      6  C4  OXE d   1      -1.128  -3.885   2.024  0.00  0.00    -0.002 A 
ATOM      7  C5  OXE d   1      -1.190  -2.658   2.693  0.00  0.00    -0.002 A 
ATOM      8  C6  OXE d   1      -0.166  -1.734   2.517  0.00  0.00     0.003 A 
ENDROOT
TORSDOF 0
ENDMDL
