MODEL 1
REMARK minimizedAffinity 11.1634083
REMARK minimizedRMSD -1
REMARK  0 active torsions:
REMARK  status: ('A' for Active; 'I' for Inactive)
ROOT
ATOM      1  C2' OXE d   1      -1.101  -1.827   2.579  0.00  0.00     0.078 C 
ATOM      2  C1' OXE d   1      -3.095  -1.691   0.608  0.00  0.00     0.078 C 
ATOM      3  C1  OXE d   1      -3.148  -0.687   1.733  0.00  0.00    -0.078 A 
ATOM      4  C2  OXE d   1      -2.195  -0.790   2.717  0.00  0.00    -0.078 A 
ATOM      5  C3  OXE d   1      -2.165   0.144   3.748  0.00  0.00     0.003 A 
ATOM      6  C4  OXE d   1      -3.187   1.094   3.874  0.00  0.00    -0.002 A 
ATOM      7  C5  OXE d   1      -4.189   1.191   2.904  0.00  0.00    -0.002 A 
ATOM      8  C6  OXE d   1      -4.160   0.337   1.806  0.00  0.00     0.003 A 
ENDROOT
TORSDOF 0
ENDMDL
