MODEL 1
REMARK minimizedAffinity 9.55463982
REMARK minimizedRMSD -1
REMARK  0 active torsions:
REMARK  status: ('A' for Active; 'I' for Inactive)
ROOT
ATOM      1  C2' OXE d   1      -1.863  -2.568   2.358  0.00  0.00     0.078 C 
ATOM      2  C1' OXE d   1      -1.696  -0.034   3.555  0.00  0.00     0.078 C 
ATOM      3  C1  OXE d   1      -0.420  -0.657   3.046  0.00  0.00    -0.078 A 
ATOM      4  C2  OXE d   1      -0.505  -1.917   2.504  0.00  0.00    -0.078 A 
ATOM      5  C3  OXE d   1       0.633  -2.516   1.970  0.00  0.00     0.003 A 
ATOM      6  C4  OXE d   1       1.888  -1.911   2.117  0.00  0.00    -0.002 A 
ATOM      7  C5  OXE d   1       2.001  -0.646   2.702  0.00  0.00    -0.002 A 
ATOM      8  C6  OXE d   1       0.854   0.012   3.132  0.00  0.00     0.003 A 
ENDROOT
TORSDOF 0
ENDMDL
