MODEL 1
REMARK minimizedAffinity 11.100358
REMARK minimizedRMSD -1
REMARK  0 active torsions:
REMARK  status: ('A' for Active; 'I' for Inactive)
ROOT
ATOM      1  C2' OXE d   1       1.350  -0.738   2.731  0.00  0.00     0.078 C 
ATOM      2  C1' OXE d   1      -0.406  -1.658   0.745  0.00  0.00     0.078 C 
ATOM      3  C1  OXE d   1       1.015  -2.161   0.714  0.00  0.00    -0.078 A 
ATOM      4  C2  OXE d   1       1.880  -1.669   1.662  0.00  0.00    -0.078 A 
ATOM      5  C3  OXE d   1       3.189  -2.141   1.713  0.00  0.00     0.003 A 
ATOM      6  C4  OXE d   1       3.673  -2.995   0.714  0.00  0.00    -0.002 A 
ATOM      7  C5  OXE d   1       2.820  -3.476  -0.284  0.00  0.00    -0.002 A 
ATOM      8  C6  OXE d   1       1.480  -3.104  -0.273  0.00  0.00     0.003 A 
ENDROOT
TORSDOF 0
ENDMDL
