MODEL 1
REMARK minimizedAffinity -0.640007317
REMARK minimizedRMSD -1
REMARK  0 active torsions:
REMARK  status: ('A' for Active; 'I' for Inactive)
ROOT
ATOM      1  C   UNL d   1       5.277   5.708  -5.998  0.00  0.00     0.172 C 
ATOM      2  N   UNL d   1       3.955   5.127  -5.999  0.00  0.00    -0.070 N 
ATOM      3  C1  UNL d   1       3.671   3.787  -5.999  0.00  0.00    -0.004 A 
ATOM      4  C2  UNL d   1       2.300   3.646  -5.999  0.00  0.00    -0.047 A 
ATOM      5  C3  UNL d   1       1.741   4.946  -6.000  0.00  0.00    -0.047 A 
ATOM      6  C4  UNL d   1       2.787   5.844  -5.999  0.00  0.00    -0.004 A 
ENDROOT
TORSDOF 0
ENDMDL
