MODEL 1
REMARK minimizedAffinity 3.42675471
REMARK minimizedRMSD -1
REMARK  0 active torsions:
REMARK  status: ('A' for Active; 'I' for Inactive)
ROOT
ATOM      1  C   UNL d   1       4.711  -3.766   2.952  0.00  0.00     0.172 C 
ATOM      2  N   UNL d   1       3.981  -3.583   1.720  0.00  0.00    -0.070 N 
ATOM      3  C1  UNL d   1       2.873  -2.794   1.558  0.00  0.00    -0.004 A 
ATOM      4  C2  UNL d   1       2.477  -2.887   0.241  0.00  0.00    -0.047 A 
ATOM      5  C3  UNL d   1       3.376  -3.764  -0.410  0.00  0.00    -0.047 A 
ATOM      6  C4  UNL d   1       4.297  -4.180   0.528  0.00  0.00    -0.004 A 
ENDROOT
TORSDOF 0
ENDMDL
