MODEL 1
REMARK minimizedAffinity -2.31038928
REMARK minimizedRMSD -1
REMARK  0 active torsions:
REMARK  status: ('A' for Active; 'I' for Inactive)
ROOT
ATOM      1  C   UNL d   1       5.933   1.508  -5.942  0.00  0.00     0.172 C 
ATOM      2  N   UNL d   1       5.127   2.706  -5.966  0.00  0.00    -0.070 N 
ATOM      3  C1  UNL d   1       3.758   2.746  -5.980  0.00  0.00    -0.004 A 
ATOM      4  C2  UNL d   1       3.375   4.070  -6.000  0.00  0.00    -0.047 A 
ATOM      5  C3  UNL d   1       4.555   4.852  -5.998  0.00  0.00    -0.047 A 
ATOM      6  C4  UNL d   1       5.624   3.982  -5.977  0.00  0.00    -0.004 A 
ENDROOT
TORSDOF 0
ENDMDL
