MODEL 1
REMARK minimizedAffinity -1.57786727
REMARK minimizedRMSD -1
REMARK  0 active torsions:
REMARK  status: ('A' for Active; 'I' for Inactive)
ROOT
ATOM      1  C   UNL d   1       4.126   2.411  -5.888  0.00  0.00     0.172 C 
ATOM      2  N   UNL d   1       4.202   3.853  -5.903  0.00  0.00    -0.070 N 
ATOM      3  C1  UNL d   1       5.354   4.592  -5.871  0.00  0.00    -0.004 A 
ATOM      4  C2  UNL d   1       5.002   5.924  -5.900  0.00  0.00    -0.047 A 
ATOM      5  C3  UNL d   1       3.589   5.988  -5.949  0.00  0.00    -0.047 A 
ATOM      6  C4  UNL d   1       3.119   4.692  -5.950  0.00  0.00    -0.004 A 
ENDROOT
TORSDOF 0
ENDMDL
