MODEL 1
REMARK minimizedAffinity 3.29878211
REMARK minimizedRMSD -1
REMARK  0 active torsions:
REMARK  status: ('A' for Active; 'I' for Inactive)
ROOT
ATOM      1  C   UNL d   1       1.492   5.071  -6.000  0.00  0.00     0.172 C 
ATOM      2  N   UNL d   1       1.920   3.702  -5.835  0.00  0.00    -0.070 N 
ATOM      3  C1  UNL d   1       1.114   2.650  -5.491  0.00  0.00    -0.004 A 
ATOM      4  C2  UNL d   1       1.898   1.518  -5.437  0.00  0.00    -0.047 A 
ATOM      5  C3  UNL d   1       3.221   1.903  -5.758  0.00  0.00    -0.047 A 
ATOM      6  C4  UNL d   1       3.206   3.260  -6.000  0.00  0.00    -0.004 A 
ENDROOT
TORSDOF 0
ENDMDL
