MODEL 1
REMARK minimizedAffinity 4.53579378
REMARK minimizedRMSD -1
REMARK  0 active torsions:
REMARK  status: ('A' for Active; 'I' for Inactive)
ROOT
ATOM      1  C   UNL d   1      -3.861   0.428  -2.078  0.00  0.00     0.172 C 
ATOM      2  N   UNL d   1      -4.572  -0.364  -3.054  0.00  0.00    -0.070 N 
ATOM      3  C1  UNL d   1      -5.548   0.096  -3.898  0.00  0.00    -0.004 A 
ATOM      4  C2  UNL d   1      -5.973  -0.964  -4.669  0.00  0.00    -0.047 A 
ATOM      5  C3  UNL d   1      -5.228  -2.100  -4.275  0.00  0.00    -0.047 A 
ATOM      6  C4  UNL d   1      -4.368  -1.701  -3.274  0.00  0.00    -0.004 A 
ENDROOT
TORSDOF 0
ENDMDL
