MODEL 1
REMARK minimizedAffinity 0.786277592
REMARK minimizedRMSD -1
REMARK  0 active torsions:
REMARK  status: ('A' for Active; 'I' for Inactive)
ROOT
ATOM      1  C   UNL d   1       4.347  -4.091   3.392  0.00  0.00     0.172 C 
ATOM      2  N   UNL d   1       3.731  -3.648   2.163  0.00  0.00    -0.070 N 
ATOM      3  C1  UNL d   1       4.296  -3.715   0.918  0.00  0.00    -0.004 A 
ATOM      4  C2  UNL d   1       3.392  -3.195   0.016  0.00  0.00    -0.047 A 
ATOM      5  C3  UNL d   1       2.245  -2.801   0.745  0.00  0.00    -0.047 A 
ATOM      6  C4  UNL d   1       2.481  -3.093   2.072  0.00  0.00    -0.004 A 
ENDROOT
TORSDOF 0
ENDMDL
