MODEL 1
REMARK minimizedAffinity 5.92417955
REMARK minimizedRMSD -1
REMARK  0 active torsions:
REMARK  status: ('A' for Active; 'I' for Inactive)
ROOT
ATOM      1  C   UNL d   1      -4.123   2.750   5.998  0.00  0.00     0.172 C 
ATOM      2  N   UNL d   1      -4.374   2.274   4.658  0.00  0.00    -0.070 N 
ATOM      3  C1  UNL d   1      -3.420   1.881   3.759  0.00  0.00    -0.004 A 
ATOM      4  C2  UNL d   1      -4.063   1.498   2.602  0.00  0.00    -0.047 A 
ATOM      5  C3  UNL d   1      -5.452   1.668   2.813  0.00  0.00    -0.047 A 
ATOM      6  C4  UNL d   1      -5.616   2.150   4.094  0.00  0.00    -0.004 A 
ENDROOT
TORSDOF 0
ENDMDL
