MODEL 1
REMARK minimizedAffinity -1.76042533
REMARK minimizedRMSD -1
REMARK  1 active torsions:
REMARK  status: ('A' for Active; 'I' for Inactive)
REMARK    1  A    between atoms: C1_2  and  C2_3 
ROOT
ATOM      1  C2  UNL d   1      -0.622   0.182  -0.932  0.00  0.00    -0.073 A 
ATOM      2  C3  UNL d   1       0.604  -0.219  -1.474  0.00  0.00    -0.002 A 
ATOM      3  C4  UNL d   1       1.578  -0.801  -0.661  0.00  0.00     0.004 A 
ATOM      4  C5  UNL d   1       1.333  -0.993   0.699  0.00  0.00    -0.004 A 
ATOM      5  C6  UNL d   1       0.110  -0.609   1.257  0.00  0.00    -0.075 A 
ATOM      6  C7  UNL d   1      -0.168  -0.807   2.719  0.00  0.00     0.076 C 
ATOM      7  C8  UNL d   1      -0.862  -0.023   0.435  0.00  0.00     0.001 A 
ENDROOT
BRANCH   1   8
ATOM      8  C1  UNL d   1      -1.679   0.805  -1.807  0.00  0.00     0.053 C 
ATOM      9  C   UNL d   1      -1.181   2.069  -2.490  0.00  0.00     0.018 C 
ENDBRANCH   1   8
TORSDOF 1
ENDMDL
