MODEL 1
REMARK minimizedAffinity -2.06696463
REMARK minimizedRMSD -1
REMARK  1 active torsions:
REMARK  status: ('A' for Active; 'I' for Inactive)
REMARK    1  A    between atoms: C1_2  and  C2_3 
ROOT
ATOM      1  C2  UNL d   1      -0.661   0.546  -1.438  0.00  0.00    -0.073 A 
ATOM      2  C3  UNL d   1       0.306  -0.299  -1.996  0.00  0.00    -0.002 A 
ATOM      3  C4  UNL d   1       1.092  -1.109  -1.176  0.00  0.00     0.004 A 
ATOM      4  C5  UNL d   1       0.915  -1.090   0.207  0.00  0.00    -0.004 A 
ATOM      5  C6  UNL d   1      -0.053  -0.262   0.783  0.00  0.00    -0.075 A 
ATOM      6  C7  UNL d   1      -0.254  -0.227   2.270  0.00  0.00     0.076 C 
ATOM      7  C8  UNL d   1      -0.837   0.552  -0.046  0.00  0.00     0.001 A 
ENDROOT
BRANCH   1   8
ATOM      8  C1  UNL d   1      -1.516   1.418  -2.319  0.00  0.00     0.053 C 
ATOM      9  C   UNL d   1      -0.864   2.764  -2.595  0.00  0.00     0.018 C 
ENDBRANCH   1   8
TORSDOF 1
ENDMDL
