MODEL 1
REMARK minimizedAffinity -2.3051343
REMARK minimizedRMSD -1
REMARK  1 active torsions:
REMARK  status: ('A' for Active; 'I' for Inactive)
REMARK    1  A    between atoms: C1_2  and  C2_3 
ROOT
ATOM      1  C2  UNL d   1       0.137  -0.013   0.223  0.00  0.00    -0.073 A 
ATOM      2  C3  UNL d   1      -1.196   0.001   0.647  0.00  0.00    -0.002 A 
ATOM      3  C4  UNL d   1      -1.523  -0.353   1.956  0.00  0.00     0.004 A 
ATOM      4  C5  UNL d   1      -0.522  -0.716   2.856  0.00  0.00    -0.004 A 
ATOM      5  C6  UNL d   1       0.818  -0.724   2.455  0.00  0.00    -0.075 A 
ATOM      6  C7  UNL d   1       1.907  -1.115   3.411  0.00  0.00     0.076 C 
ATOM      7  C8  UNL d   1       1.138  -0.371   1.138  0.00  0.00     0.001 A 
ENDROOT
BRANCH   1   8
ATOM      8  C1  UNL d   1       0.496   0.375  -1.188  0.00  0.00     0.053 C 
ATOM      9  C   UNL d   1      -0.726   0.787  -1.994  0.00  0.00     0.018 C 
ENDBRANCH   1   8
TORSDOF 1
ENDMDL
