MODEL 1
REMARK minimizedAffinity -1.02239394
REMARK minimizedRMSD -1
REMARK  1 active torsions:
REMARK  status: ('A' for Active; 'I' for Inactive)
REMARK    1  A    between atoms: C1_2  and  C2_3 
ROOT
ATOM      1  C2  UNL d   1      -0.610   0.783  -1.376  0.00  0.00    -0.073 A 
ATOM      2  C3  UNL d   1       0.569   0.250  -1.910  0.00  0.00    -0.002 A 
ATOM      3  C4  UNL d   1       1.442  -0.480  -1.102  0.00  0.00     0.004 A 
ATOM      4  C5  UNL d   1       1.142  -0.691   0.244  0.00  0.00    -0.004 A 
ATOM      5  C6  UNL d   1      -0.037  -0.176   0.793  0.00  0.00    -0.075 A 
ATOM      6  C7  UNL d   1      -0.372  -0.392   2.240  0.00  0.00     0.076 C 
ATOM      7  C8  UNL d   1      -0.907   0.558  -0.024  0.00  0.00     0.001 A 
ENDROOT
BRANCH   1   8
ATOM      8  C1  UNL d   1      -1.558   1.567  -2.246  0.00  0.00     0.053 C 
ATOM      9  C   UNL d   1      -0.899   2.800  -2.841  0.00  0.00     0.018 C 
ENDBRANCH   1   8
TORSDOF 1
ENDMDL
