MODEL 1
REMARK minimizedAffinity -5.3382616
REMARK minimizedRMSD -1
REMARK  1 active torsions:
REMARK  status: ('A' for Active; 'I' for Inactive)
REMARK    1  A    between atoms: C1_2  and  C2_3 
ROOT
ATOM      1  C2  UNL d   1       0.213   0.273  -0.328  0.00  0.00    -0.073 A 
ATOM      2  C3  UNL d   1      -1.148   0.390  -0.025  0.00  0.00    -0.002 A 
ATOM      3  C4  UNL d   1      -1.617   0.071   1.250  0.00  0.00     0.004 A 
ATOM      4  C5  UNL d   1      -0.730  -0.363   2.236  0.00  0.00    -0.004 A 
ATOM      5  C6  UNL d   1       0.636  -0.475   1.956  0.00  0.00    -0.075 A 
ATOM      6  C7  UNL d   1       1.602  -0.942   3.004  0.00  0.00     0.076 C 
ATOM      7  C8  UNL d   1       1.098  -0.155   0.672  0.00  0.00     0.001 A 
ENDROOT
BRANCH   1   8
ATOM      8  C1  UNL d   1       0.724   0.623  -1.701  0.00  0.00     0.053 C 
ATOM      9  C   UNL d   1      -0.024   1.801  -2.305  0.00  0.00     0.018 C 
ENDBRANCH   1   8
TORSDOF 1
ENDMDL
