MODEL 1
REMARK minimizedAffinity -1.11047292
REMARK minimizedRMSD -1
REMARK  1 active torsions:
REMARK  status: ('A' for Active; 'I' for Inactive)
REMARK    1  A    between atoms: C1_2  and  C2_3 
ROOT
ATOM      1  C2  UNL d   1      -0.706  -0.351   1.853  0.00  0.00    -0.073 A 
ATOM      2  C3  UNL d   1       0.298  -0.794   2.721  0.00  0.00    -0.002 A 
ATOM      3  C4  UNL d   1       1.641  -0.682   2.362  0.00  0.00     0.004 A 
ATOM      4  C5  UNL d   1       1.995  -0.120   1.135  0.00  0.00    -0.004 A 
ATOM      5  C6  UNL d   1       1.007   0.340   0.259  0.00  0.00    -0.075 A 
ATOM      6  C7  UNL d   1       1.372   0.945  -1.065  0.00  0.00     0.076 C 
ATOM      7  C8  UNL d   1      -0.340   0.221   0.626  0.00  0.00     0.001 A 
ENDROOT
BRANCH   1   8
ATOM      8  C1  UNL d   1      -2.158  -0.464   2.239  0.00  0.00     0.053 C 
ATOM      9  C   UNL d   1      -3.037  -0.829   1.054  0.00  0.00     0.018 C 
ENDBRANCH   1   8
TORSDOF 1
ENDMDL
