MODEL 1
REMARK minimizedAffinity -3.25701785
REMARK minimizedRMSD -1
REMARK  0 active torsions:
REMARK  status: ('A' for Active; 'I' for Inactive)
ROOT
ATOM      1  C   UNL d   1      -0.538   0.750  -0.374  0.00  0.00    -0.002 A 
ATOM      2  C1  UNL d   1      -0.108  -0.373   0.318  0.00  0.00     0.010 A 
ATOM      3  C2  UNL d   1       0.570  -1.399  -0.344  0.00  0.00     0.041 A 
ATOM      4  C3  UNL d   1       0.814  -1.274  -1.726  0.00  0.00    -0.075 A 
ATOM      5  S   UNL d   1       1.627  -2.403  -2.744  0.00  0.00     0.015 SA
ATOM      6  C4  UNL d   1       1.424  -1.420  -4.122  0.00  0.00     0.022 A 
ATOM      7  C5  UNL d   1       0.754  -0.255  -3.830  0.00  0.00     0.026 A 
ATOM      8  C6  UNL d   1       0.392  -0.152  -2.444  0.00  0.00    -0.082 A 
ATOM      9  C7  UNL d   1      -0.294   0.870  -1.745  0.00  0.00     0.045 A 
ENDROOT
TORSDOF 0
ENDMDL
