MODEL 1
REMARK minimizedAffinity -1.84262753
REMARK minimizedRMSD -1
REMARK  0 active torsions:
REMARK  status: ('A' for Active; 'I' for Inactive)
ROOT
ATOM      1  C   UNL d   1       1.336  -1.281  -4.010  0.00  0.00    -0.002 A 
ATOM      2  C1  UNL d   1       0.168  -1.944  -3.660  0.00  0.00     0.010 A 
ATOM      3  C2  UNL d   1      -0.518  -1.605  -2.492  0.00  0.00     0.041 A 
ATOM      4  C3  UNL d   1      -0.006  -0.577  -1.675  0.00  0.00    -0.075 A 
ATOM      5  S   UNL d   1      -0.678   0.008  -0.199  0.00  0.00     0.015 SA
ATOM      6  C4  UNL d   1       0.570   1.153   0.001  0.00  0.00     0.022 A 
ATOM      7  C5  UNL d   1       1.484   1.103  -1.024  0.00  0.00     0.026 A 
ATOM      8  C6  UNL d   1       1.167   0.105  -2.007  0.00  0.00    -0.082 A 
ATOM      9  C7  UNL d   1       1.840  -0.262  -3.197  0.00  0.00     0.045 A 
ENDROOT
TORSDOF 0
ENDMDL
