MODEL 1
REMARK minimizedAffinity -1.37668121
REMARK minimizedRMSD -1
REMARK  0 active torsions:
REMARK  status: ('A' for Active; 'I' for Inactive)
ROOT
ATOM      1  C   UNL d   1       1.137  -0.247   2.380  0.00  0.00    -0.002 A 
ATOM      2  C1  UNL d   1      -0.113   0.297   2.640  0.00  0.00     0.010 A 
ATOM      3  C2  UNL d   1      -0.918   0.758   1.597  0.00  0.00     0.041 A 
ATOM      4  C3  UNL d   1      -0.442   0.661   0.275  0.00  0.00    -0.075 A 
ATOM      5  S   UNL d   1      -1.255   1.160  -1.162  0.00  0.00     0.015 SA
ATOM      6  C4  UNL d   1       0.038   0.662  -2.155  0.00  0.00     0.022 A 
ATOM      7  C5  UNL d   1       1.072   0.126  -1.425  0.00  0.00     0.026 A 
ATOM      8  C6  UNL d   1       0.812   0.116  -0.013  0.00  0.00    -0.082 A 
ATOM      9  C7  UNL d   1       1.605  -0.342   1.067  0.00  0.00     0.045 A 
ENDROOT
TORSDOF 0
ENDMDL
