MODEL 1
REMARK minimizedAffinity -2.50563765
REMARK minimizedRMSD -1
REMARK  0 active torsions:
REMARK  status: ('A' for Active; 'I' for Inactive)
ROOT
ATOM      1  C   UNL d   1      -2.636   1.048   2.354  0.00  0.00    -0.002 A 
ATOM      2  C1  UNL d   1      -3.064   1.062   1.033  0.00  0.00     0.010 A 
ATOM      3  C2  UNL d   1      -2.177   0.765  -0.003  0.00  0.00     0.041 A 
ATOM      4  C3  UNL d   1      -0.841   0.448   0.312  0.00  0.00    -0.075 A 
ATOM      5  S   UNL d   1       0.421   0.050  -0.792  0.00  0.00     0.015 SA
ATOM      6  C4  UNL d   1       1.557  -0.150   0.462  0.00  0.00     0.022 A 
ATOM      7  C5  UNL d   1       1.004   0.078   1.700  0.00  0.00     0.026 A 
ATOM      8  C6  UNL d   1      -0.387   0.426   1.634  0.00  0.00    -0.082 A 
ATOM      9  C7  UNL d   1      -1.310   0.733   2.663  0.00  0.00     0.045 A 
ENDROOT
TORSDOF 0
ENDMDL
