MODEL 1
REMARK minimizedAffinity 4.55229282
REMARK minimizedRMSD -1
REMARK  0 active torsions:
REMARK  status: ('A' for Active; 'I' for Inactive)
ROOT
ATOM      1  C   UNL d   1       2.146   0.487   1.109  0.00  0.00    -0.002 A 
ATOM      2  C1  UNL d   1       1.497   0.598   2.330  0.00  0.00     0.010 A 
ATOM      3  C2  UNL d   1       0.104   0.677   2.390  0.00  0.00     0.041 A 
ATOM      4  C3  UNL d   1      -0.633   0.641   1.190  0.00  0.00    -0.075 A 
ATOM      5  S   UNL d   1      -2.347   0.722   1.019  0.00  0.00     0.015 SA
ATOM      6  C4  UNL d   1      -2.258   0.610  -0.679  0.00  0.00     0.022 A 
ATOM      7  C5  UNL d   1      -0.960   0.512  -1.122  0.00  0.00     0.026 A 
ATOM      8  C6  UNL d   1      -0.002   0.528  -0.052  0.00  0.00    -0.082 A 
ATOM      9  C7  UNL d   1       1.411   0.451  -0.080  0.00  0.00     0.045 A 
ENDROOT
TORSDOF 0
ENDMDL
