MODEL 1
REMARK minimizedAffinity -5.93285751
REMARK minimizedRMSD -1
REMARK  0 active torsions:
REMARK  status: ('A' for Active; 'I' for Inactive)
ROOT
ATOM      1  C   UNL d   1      -1.297  -0.116   2.864  0.00  0.00    -0.002 A 
ATOM      2  C1  UNL d   1       0.043   0.219   2.729  0.00  0.00     0.010 A 
ATOM      3  C2  UNL d   1       0.638   0.276   1.467  0.00  0.00     0.041 A 
ATOM      4  C3  UNL d   1      -0.146  -0.010   0.331  0.00  0.00    -0.075 A 
ATOM      5  S   UNL d   1       0.368  -0.001  -1.315  0.00  0.00     0.015 SA
ATOM      6  C4  UNL d   1      -1.179  -0.441  -1.878  0.00  0.00     0.022 A 
ATOM      7  C5  UNL d   1      -2.078  -0.595  -0.849  0.00  0.00     0.026 A 
ATOM      8  C6  UNL d   1      -1.497  -0.349   0.441  0.00  0.00    -0.082 A 
ATOM      9  C7  UNL d   1      -2.070  -0.399   1.735  0.00  0.00     0.045 A 
ENDROOT
TORSDOF 0
ENDMDL
