MODEL 1
REMARK minimizedAffinity -3.80854821
REMARK minimizedRMSD -1
REMARK  0 active torsions:
REMARK  status: ('A' for Active; 'I' for Inactive)
ROOT
ATOM      1  C   UNL d   1      -1.840   0.100   3.524  0.00  0.00    -0.002 A 
ATOM      2  C1  UNL d   1      -2.924   0.327   2.688  0.00  0.00     0.010 A 
ATOM      3  C2  UNL d   1      -2.740   0.483   1.313  0.00  0.00     0.041 A 
ATOM      4  C3  UNL d   1      -1.436   0.405   0.787  0.00  0.00    -0.075 A 
ATOM      5  S   UNL d   1      -0.970   0.564  -0.866  0.00  0.00     0.015 SA
ATOM      6  C4  UNL d   1       0.679   0.333  -0.501  0.00  0.00     0.022 A 
ATOM      7  C5  UNL d   1       0.887   0.138   0.844  0.00  0.00     0.026 A 
ATOM      8  C6  UNL d   1      -0.328   0.176   1.608  0.00  0.00    -0.082 A 
ATOM      9  C7  UNL d   1      -0.547   0.023   2.999  0.00  0.00     0.045 A 
ENDROOT
TORSDOF 0
ENDMDL
