MODEL 1
REMARK minimizedAffinity 1.85557079
REMARK minimizedRMSD -1
REMARK  0 active torsions:
REMARK  status: ('A' for Active; 'I' for Inactive)
ROOT
ATOM      1  C   UNL d   1       1.409  -0.058   2.347  0.00  0.00    -0.002 A 
ATOM      2  C1  UNL d   1       0.069   0.268   2.503  0.00  0.00     0.010 A 
ATOM      3  C2  UNL d   1      -0.755   0.438   1.389  0.00  0.00     0.041 A 
ATOM      4  C3  UNL d   1      -0.204   0.272   0.103  0.00  0.00    -0.075 A 
ATOM      5  S   UNL d   1      -1.023   0.429  -1.407  0.00  0.00     0.015 SA
ATOM      6  C4  UNL d   1       0.387   0.067  -2.294  0.00  0.00     0.022 A 
ATOM      7  C5  UNL d   1       1.465  -0.170  -1.474  0.00  0.00     0.026 A 
ATOM      8  C6  UNL d   1       1.142  -0.057  -0.080  0.00  0.00    -0.082 A 
ATOM      9  C7  UNL d   1       1.951  -0.221   1.070  0.00  0.00     0.045 A 
ENDROOT
TORSDOF 0
ENDMDL
