MODEL 1
REMARK minimizedAffinity -4.50124407
REMARK minimizedRMSD -1
REMARK  0 active torsions:
REMARK  status: ('A' for Active; 'I' for Inactive)
ROOT
ATOM      1  C   UNL d   1      -3.485   0.693   2.808  0.00  0.00    -0.002 A 
ATOM      2  C1  UNL d   1      -3.794   0.780   1.458  0.00  0.00     0.010 A 
ATOM      3  C2  UNL d   1      -2.789   0.693   0.492  0.00  0.00     0.041 A 
ATOM      4  C3  UNL d   1      -1.456   0.513   0.910  0.00  0.00    -0.075 A 
ATOM      5  S   UNL d   1      -0.061   0.379  -0.094  0.00  0.00     0.015 SA
ATOM      6  C4  UNL d   1       0.978   0.201   1.245  0.00  0.00     0.022 A 
ATOM      7  C5  UNL d   1       0.294   0.241   2.437  0.00  0.00     0.026 A 
ATOM      8  C6  UNL d   1      -1.120   0.421   2.264  0.00  0.00    -0.082 A 
ATOM      9  C7  UNL d   1      -2.161   0.514   3.218  0.00  0.00     0.045 A 
ENDROOT
TORSDOF 0
ENDMDL
