MODEL 1
REMARK minimizedAffinity 1.42018235
REMARK minimizedRMSD -1
REMARK  3 active torsions:
REMARK  status: ('A' for Active; 'I' for Inactive)
REMARK    1  A    between atoms: C3'_2  and  C2'_3 
REMARK    2  A    between atoms: C2'_3  and  C1'_4 
REMARK    3  A    between atoms: C1'_4  and  C1_5 
ROOT
ATOM      1  C1  N4B d   1      -0.121  -1.953   1.121  0.00  0.00    -0.075 A 
ATOM      2  C2  N4B d   1      -1.524  -1.865   0.983  0.00  0.00     0.002 A 
ATOM      3  C3  N4B d   1      -2.219  -2.882   0.376  0.00  0.00     0.002 A 
ATOM      4  C4  N4B d   1      -1.534  -3.983  -0.116  0.00  0.00    -0.004 A 
ATOM      5  C5  N4B d   1      -0.182  -4.072   0.044  0.00  0.00     0.002 A 
ATOM      6  C6  N4B d   1       0.529  -3.059   0.656  0.00  0.00     0.002 A 
ENDROOT
BRANCH   1   7
ATOM      7  C1' N4B d   1       0.692  -0.828   1.701  0.00  0.00     0.057 C 
BRANCH   7   8
ATOM      8  C2' N4B d   1       1.806  -1.409   2.566  0.00  0.00     0.009 C 
BRANCH   8   9
ATOM      9  C3' N4B d   1       1.345  -1.665   3.990  0.00  0.00     0.004 C 
ATOM     10  C4' N4B d   1       2.030  -2.841   4.621  0.00  0.00     0.003 C 
ENDBRANCH   8   9
ENDBRANCH   7   8
ENDBRANCH   1   7
TORSDOF 3
ENDMDL
