MODEL 1
REMARK minimizedAffinity 5.34294462
REMARK minimizedRMSD -1
REMARK  3 active torsions:
REMARK  status: ('A' for Active; 'I' for Inactive)
REMARK    1  A    between atoms: C3'_2  and  C2'_3 
REMARK    2  A    between atoms: C2'_3  and  C1'_4 
REMARK    3  A    between atoms: C1'_4  and  C1_5 
ROOT
ATOM      1  C1  N4B d   1       0.003   0.553   1.442  0.00  0.00    -0.075 A 
ATOM      2  C2  N4B d   1      -1.146  -0.267   1.417  0.00  0.00     0.002 A 
ATOM      3  C3  N4B d   1      -1.040  -1.607   1.696  0.00  0.00     0.002 A 
ATOM      4  C4  N4B d   1       0.203  -2.151   1.984  0.00  0.00    -0.004 A 
ATOM      5  C5  N4B d   1       1.305  -1.347   2.032  0.00  0.00     0.002 A 
ATOM      6  C6  N4B d   1       1.212   0.002   1.757  0.00  0.00     0.002 A 
ENDROOT
BRANCH   1   7
ATOM      7  C1' N4B d   1      -0.050   2.007   1.060  0.00  0.00     0.057 C 
BRANCH   7   8
ATOM      8  C2' N4B d   1      -1.486   2.378   0.700  0.00  0.00     0.009 C 
BRANCH   8   9
ATOM      9  C3' N4B d   1      -1.629   2.735  -0.770  0.00  0.00     0.004 C 
ATOM     10  C4' N4B d   1      -0.312   3.006  -1.433  0.00  0.00     0.003 C 
ENDBRANCH   8   9
ENDBRANCH   7   8
ENDBRANCH   1   7
TORSDOF 3
ENDMDL
