MODEL 1
REMARK minimizedAffinity 4.98296118
REMARK minimizedRMSD -1
REMARK  3 active torsions:
REMARK  status: ('A' for Active; 'I' for Inactive)
REMARK    1  A    between atoms: C3'_2  and  C2'_3 
REMARK    2  A    between atoms: C2'_3  and  C1'_4 
REMARK    3  A    between atoms: C1'_4  and  C1_5 
ROOT
ATOM      1  C1  N4B d   1      -0.105  -0.066   1.620  0.00  0.00    -0.075 A 
ATOM      2  C2  N4B d   1      -0.159   1.266   1.156  0.00  0.00     0.002 A 
ATOM      3  C3  N4B d   1      -1.297   1.736   0.547  0.00  0.00     0.002 A 
ATOM      4  C4  N4B d   1      -2.381   0.889   0.374  0.00  0.00    -0.004 A 
ATOM      5  C5  N4B d   1      -2.330  -0.389   0.847  0.00  0.00     0.002 A 
ATOM      6  C6  N4B d   1      -1.195  -0.873   1.465  0.00  0.00     0.002 A 
ENDROOT
BRANCH   1   7
ATOM      7  C1' N4B d   1       1.147  -0.650   2.215  0.00  0.00     0.057 C 
BRANCH   7   8
ATOM      8  C2' N4B d   1       1.015  -0.674   3.735  0.00  0.00     0.009 C 
BRANCH   8   9
ATOM      9  C3' N4B d   1       1.641  -1.918   4.341  0.00  0.00     0.004 C 
ATOM     10  C4' N4B d   1       1.159  -2.192   5.734  0.00  0.00     0.003 C 
ENDBRANCH   8   9
ENDBRANCH   7   8
ENDBRANCH   1   7
TORSDOF 3
ENDMDL
