MODEL 1
REMARK minimizedAffinity 1.19941735
REMARK minimizedRMSD -1
REMARK  3 active torsions:
REMARK  status: ('A' for Active; 'I' for Inactive)
REMARK    1  A    between atoms: C3'_2  and  C2'_3 
REMARK    2  A    between atoms: C2'_3  and  C1'_4 
REMARK    3  A    between atoms: C1'_4  and  C1_5 
ROOT
ATOM      1  C1  N4B d   1      -0.768  -0.536   1.025  0.00  0.00    -0.075 A 
ATOM      2  C2  N4B d   1      -0.438  -1.788   0.461  0.00  0.00     0.002 A 
ATOM      3  C3  N4B d   1      -1.359  -2.459  -0.307  0.00  0.00     0.002 A 
ATOM      4  C4  N4B d   1      -2.615  -1.909  -0.508  0.00  0.00    -0.004 A 
ATOM      5  C5  N4B d   1      -2.917  -0.687   0.020  0.00  0.00     0.002 A 
ATOM      6  C6  N4B d   1      -2.000   0.000   0.790  0.00  0.00     0.002 A 
ENDROOT
BRANCH   1   7
ATOM      7  C1' N4B d   1       0.175   0.194   1.942  0.00  0.00     0.057 C 
BRANCH   7   8
ATOM      8  C2' N4B d   1       0.948  -0.821   2.779  0.00  0.00     0.009 C 
BRANCH   8   9
ATOM      9  C3' N4B d   1       0.985  -0.436   4.248  0.00  0.00     0.004 C 
ATOM     10  C4' N4B d   1       1.347  -1.585   5.140  0.00  0.00     0.003 C 
ENDBRANCH   8   9
ENDBRANCH   7   8
ENDBRANCH   1   7
TORSDOF 3
ENDMDL
