MODEL 1
REMARK minimizedAffinity 3.25477743
REMARK minimizedRMSD -1
REMARK  3 active torsions:
REMARK  status: ('A' for Active; 'I' for Inactive)
REMARK    1  A    between atoms: C3'_2  and  C2'_3 
REMARK    2  A    between atoms: C2'_3  and  C1'_4 
REMARK    3  A    between atoms: C1'_4  and  C1_5 
ROOT
ATOM      1  C1  N4B d   1       4.634   3.372  -3.035  0.00  0.00    -0.075 A 
ATOM      2  C2  N4B d   1       3.584   3.940  -3.790  0.00  0.00     0.002 A 
ATOM      3  C3  N4B d   1       3.770   4.220  -5.122  0.00  0.00     0.002 A 
ATOM      4  C4  N4B d   1       4.997   3.959  -5.713  0.00  0.00    -0.004 A 
ATOM      5  C5  N4B d   1       5.997   3.387  -4.983  0.00  0.00     0.002 A 
ATOM      6  C6  N4B d   1       5.824   3.097  -3.644  0.00  0.00     0.002 A 
ENDROOT
BRANCH   1   7
ATOM      7  C1' N4B d   1       4.506   3.128  -1.556  0.00  0.00     0.057 C 
BRANCH   7   8
ATOM      8  C2' N4B d   1       4.459   4.469  -0.829  0.00  0.00     0.009 C 
BRANCH   8   9
ATOM      9  C3' N4B d   1       5.830   5.119  -0.749  0.00  0.00     0.004 C 
ATOM     10  C4' N4B d   1       6.000   5.966   0.477  0.00  0.00     0.003 C 
ENDBRANCH   8   9
ENDBRANCH   7   8
ENDBRANCH   1   7
TORSDOF 3
ENDMDL
