MODEL 1
REMARK minimizedAffinity 1.45237017
REMARK minimizedRMSD -1
REMARK  0 active torsions:
REMARK  status: ('A' for Active; 'I' for Inactive)
ROOT
ATOM      1  C1  DEN d   1       5.775  -1.876   3.926  0.00  0.00     0.130 A 
ATOM      2  C2  DEN d   1       6.000  -2.293   5.307  0.00  0.00    -0.031 A 
ATOM      3  C3  DEN d   1       4.695  -2.305   5.999  0.00  0.00     0.027 A 
ATOM      4  C4  DEN d   1       2.360  -1.725   5.068  0.00  0.00     0.027 A 
ATOM      5  C5  DEN d   1       1.668  -1.306   3.953  0.00  0.00    -0.003 A 
ATOM      6  C6  DEN d   1       2.296  -1.018   2.770  0.00  0.00     0.001 A 
ATOM      7  C7  DEN d   1       3.651  -1.188   2.661  0.00  0.00     0.017 A 
ATOM      8  C8  DEN d   1       4.356  -1.602   3.784  0.00  0.00    -0.094 A 
ATOM      9  C9  DEN d   1       3.702  -1.901   4.967  0.00  0.00    -0.072 A 
ENDROOT
TORSDOF 0
ENDMDL
