MODEL 1
REMARK minimizedAffinity 8.01557827
REMARK minimizedRMSD -1
REMARK  0 active torsions:
REMARK  status: ('A' for Active; 'I' for Inactive)
ROOT
ATOM      1  C1  DEN d   1       2.386  -3.281   2.977  0.00  0.00     0.130 A 
ATOM      2  C2  DEN d   1       2.184  -2.309   4.048  0.00  0.00    -0.031 A 
ATOM      3  C3  DEN d   1       1.557  -1.107   3.462  0.00  0.00     0.027 A 
ATOM      4  C4  DEN d   1       0.877  -0.662   1.014  0.00  0.00     0.027 A 
ATOM      5  C5  DEN d   1       0.860  -1.187  -0.260  0.00  0.00    -0.003 A 
ATOM      6  C6  DEN d   1       1.377  -2.422  -0.547  0.00  0.00     0.001 A 
ATOM      7  C7  DEN d   1       1.893  -3.194   0.460  0.00  0.00     0.017 A 
ATOM      8  C8  DEN d   1       1.920  -2.669   1.746  0.00  0.00    -0.094 A 
ATOM      9  C9  DEN d   1       1.381  -1.423   2.018  0.00  0.00    -0.072 A 
ENDROOT
TORSDOF 0
ENDMDL
