MODEL 1
REMARK minimizedAffinity 3.95120502
REMARK minimizedRMSD -1
REMARK  0 active torsions:
REMARK  status: ('A' for Active; 'I' for Inactive)
ROOT
ATOM      1  C1  DEN d   1       3.570  -0.867   2.595  0.00  0.00     0.130 A 
ATOM      2  C2  DEN d   1       2.132  -1.010   2.805  0.00  0.00    -0.031 A 
ATOM      3  C3  DEN d   1       1.925  -1.721   4.082  0.00  0.00     0.027 A 
ATOM      4  C4  DEN d   1       3.682  -2.607   5.749  0.00  0.00     0.027 A 
ATOM      5  C5  DEN d   1       5.031  -2.732   5.997  0.00  0.00    -0.003 A 
ATOM      6  C6  DEN d   1       5.980  -2.278   5.120  0.00  0.00     0.001 A 
ATOM      7  C7  DEN d   1       5.593  -1.637   3.973  0.00  0.00     0.017 A 
ATOM      8  C8  DEN d   1       4.234  -1.514   3.713  0.00  0.00    -0.094 A 
ATOM      9  C9  DEN d   1       3.290  -1.968   4.618  0.00  0.00    -0.072 A 
ENDROOT
TORSDOF 0
ENDMDL
