MODEL 1
REMARK minimizedAffinity 4.38966894
REMARK minimizedRMSD -1
REMARK  0 active torsions:
REMARK  status: ('A' for Active; 'I' for Inactive)
ROOT
ATOM      1  C1  DEN d   1       3.530   2.152   2.791  0.00  0.00     0.130 A 
ATOM      2  C2  DEN d   1       3.024   2.636   1.510  0.00  0.00    -0.031 A 
ATOM      3  C3  DEN d   1       2.114   1.610   0.962  0.00  0.00     0.027 A 
ATOM      4  C4  DEN d   1       1.439  -0.666   1.971  0.00  0.00     0.027 A 
ATOM      5  C5  DEN d   1       1.621  -1.520   3.037  0.00  0.00    -0.003 A 
ATOM      6  C6  DEN d   1       2.471  -1.227   4.070  0.00  0.00     0.001 A 
ATOM      7  C7  DEN d   1       3.137  -0.030   4.083  0.00  0.00     0.017 A 
ATOM      8  C8  DEN d   1       2.965   0.833   3.008  0.00  0.00    -0.094 A 
ATOM      9  C9  DEN d   1       2.092   0.524   1.979  0.00  0.00    -0.072 A 
ENDROOT
TORSDOF 0
ENDMDL
