MODEL 1
REMARK minimizedAffinity 16.2553101
REMARK minimizedRMSD -1
REMARK  0 active torsions:
REMARK  status: ('A' for Active; 'I' for Inactive)
ROOT
ATOM      1  C1  DEN d   1       0.384  -4.594   5.712  0.00  0.00     0.130 A 
ATOM      2  C2  DEN d   1       0.839  -5.968   5.517  0.00  0.00    -0.031 A 
ATOM      3  C3  DEN d   1       1.999  -5.940   4.603  0.00  0.00     0.027 A 
ATOM      4  C4  DEN d   1       3.131  -3.912   3.481  0.00  0.00     0.027 A 
ATOM      5  C5  DEN d   1       3.092  -2.543   3.336  0.00  0.00    -0.003 A 
ATOM      6  C6  DEN d   1       2.135  -1.772   3.940  0.00  0.00     0.001 A 
ATOM      7  C7  DEN d   1       1.204  -2.360   4.755  0.00  0.00     0.017 A 
ATOM      8  C8  DEN d   1       1.232  -3.740   4.900  0.00  0.00    -0.094 A 
ATOM      9  C9  DEN d   1       2.215  -4.502   4.291  0.00  0.00    -0.072 A 
ENDROOT
TORSDOF 0
ENDMDL
