MODEL 1
REMARK minimizedAffinity 2.12320566
REMARK minimizedRMSD -1
REMARK  0 active torsions:
REMARK  status: ('A' for Active; 'I' for Inactive)
ROOT
ATOM      1  C1  DEN d   1       1.438  -0.541   3.644  0.00  0.00     0.130 A 
ATOM      2  C2  DEN d   1       2.079  -0.148   2.393  0.00  0.00    -0.031 A 
ATOM      3  C3  DEN d   1       2.667  -1.357   1.781  0.00  0.00     0.027 A 
ATOM      4  C4  DEN d   1       2.642  -3.787   2.644  0.00  0.00     0.027 A 
ATOM      5  C5  DEN d   1       2.229  -4.611   3.668  0.00  0.00    -0.003 A 
ATOM      6  C6  DEN d   1       1.558  -4.134   4.763  0.00  0.00     0.001 A 
ATOM      7  C7  DEN d   1       1.241  -2.804   4.838  0.00  0.00     0.017 A 
ATOM      8  C8  DEN d   1       1.661  -1.966   3.814  0.00  0.00    -0.094 A 
ATOM      9  C9  DEN d   1       2.327  -2.469   2.709  0.00  0.00    -0.072 A 
ENDROOT
TORSDOF 0
ENDMDL
