MODEL 1
REMARK minimizedAffinity 13.0654039
REMARK minimizedRMSD -1
REMARK  0 active torsions:
REMARK  status: ('A' for Active; 'I' for Inactive)
ROOT
ATOM      1  C1  DEN d   1       2.710   2.354   2.882  0.00  0.00     0.130 A 
ATOM      2  C2  DEN d   1       3.364   2.398   1.577  0.00  0.00    -0.031 A 
ATOM      3  C3  DEN d   1       3.442   1.017   1.059  0.00  0.00     0.027 A 
ATOM      4  C4  DEN d   1       2.614  -1.172   2.144  0.00  0.00     0.027 A 
ATOM      5  C5  DEN d   1       2.005  -1.714   3.254  0.00  0.00    -0.003 A 
ATOM      6  C6  DEN d   1       1.622  -0.950   4.323  0.00  0.00     0.001 A 
ATOM      7  C7  DEN d   1       1.804   0.408   4.287  0.00  0.00     0.017 A 
ATOM      8  C8  DEN d   1       2.424   0.961   3.174  0.00  0.00    -0.094 A 
ATOM      9  C9  DEN d   1       2.793   0.173   2.098  0.00  0.00    -0.072 A 
ENDROOT
TORSDOF 0
ENDMDL
