MODEL 1
REMARK minimizedAffinity 1.6600765
REMARK minimizedRMSD -1
REMARK  0 active torsions:
REMARK  status: ('A' for Active; 'I' for Inactive)
ROOT
ATOM      1  C1  DEN d   1       4.679  -2.568   5.998  0.00  0.00     0.130 A 
ATOM      2  C2  DEN d   1       5.999  -2.492   5.377  0.00  0.00    -0.031 A 
ATOM      3  C3  DEN d   1       5.812  -2.227   3.937  0.00  0.00     0.027 A 
ATOM      4  C4  DEN d   1       3.618  -1.922   2.615  0.00  0.00     0.027 A 
ATOM      5  C5  DEN d   1       2.244  -1.912   2.707  0.00  0.00    -0.003 A 
ATOM      6  C6  DEN d   1       1.590  -2.152   3.886  0.00  0.00     0.001 A 
ATOM      7  C7  DEN d   1       2.311  -2.367   5.031  0.00  0.00     0.017 A 
ATOM      8  C8  DEN d   1       3.697  -2.386   4.944  0.00  0.00    -0.094 A 
ATOM      9  C9  DEN d   1       4.340  -2.129   3.745  0.00  0.00    -0.072 A 
ENDROOT
TORSDOF 0
ENDMDL
