MODEL 1
REMARK minimizedAffinity 11.4571953
REMARK minimizedRMSD -1
REMARK  0 active torsions:
REMARK  status: ('A' for Active; 'I' for Inactive)
ROOT
ATOM      1  C1  DEN d   1       1.865  -2.999  -0.532  0.00  0.00     0.130 A 
ATOM      2  C2  DEN d   1       1.297  -1.778  -1.097  0.00  0.00    -0.031 A 
ATOM      3  C3  DEN d   1       1.260  -0.756  -0.032  0.00  0.00     0.027 A 
ATOM      4  C4  DEN d   1       2.027  -0.943   2.424  0.00  0.00     0.027 A 
ATOM      5  C5  DEN d   1       2.565  -1.786   3.370  0.00  0.00    -0.003 A 
ATOM      6  C6  DEN d   1       2.874  -3.092   3.094  0.00  0.00     0.001 A 
ATOM      7  C7  DEN d   1       2.688  -3.580   1.828  0.00  0.00     0.017 A 
ATOM      8  C8  DEN d   1       2.139  -2.738   0.870  0.00  0.00    -0.094 A 
ATOM      9  C9  DEN d   1       1.845  -1.417   1.165  0.00  0.00    -0.072 A 
ENDROOT
TORSDOF 0
ENDMDL
