MODEL 1
REMARK minimizedAffinity 8.41238213
REMARK minimizedRMSD -1
REMARK  0 active torsions:
REMARK  status: ('A' for Active; 'I' for Inactive)
ROOT
ATOM      1  C2' OXE d   1       0.244  -2.575   5.351  0.00  0.00     0.078 C 
ATOM      2  C1' OXE d   1       0.465  -5.364   5.574  0.00  0.00     0.078 C 
ATOM      3  C1  OXE d   1       0.862  -4.729   4.265  0.00  0.00    -0.078 A 
ATOM      4  C2  OXE d   1       0.706  -3.369   4.149  0.00  0.00    -0.078 A 
ATOM      5  C3  OXE d   1       1.109  -2.726   2.982  0.00  0.00     0.003 A 
ATOM      6  C4  OXE d   1       1.526  -3.469   1.871  0.00  0.00    -0.002 A 
ATOM      7  C5  OXE d   1       1.654  -4.859   1.954  0.00  0.00    -0.002 A 
ATOM      8  C6  OXE d   1       1.367  -5.499   3.155  0.00  0.00     0.003 A 
ENDROOT
TORSDOF 0
ENDMDL
