MODEL 1
REMARK minimizedAffinity 16.8111935
REMARK minimizedRMSD -1
REMARK  0 active torsions:
REMARK  status: ('A' for Active; 'I' for Inactive)
ROOT
ATOM      1  C2' OXE d   1       2.577   2.523  -0.011  0.00  0.00     0.078 C 
ATOM      2  C1' OXE d   1       0.054   3.643   0.498  0.00  0.00     0.078 C 
ATOM      3  C1  OXE d   1       0.905   4.283  -0.570  0.00  0.00    -0.078 A 
ATOM      4  C2  OXE d   1       2.157   3.758  -0.780  0.00  0.00    -0.078 A 
ATOM      5  C3  OXE d   1       2.962   4.276  -1.790  0.00  0.00     0.003 A 
ATOM      6  C4  OXE d   1       2.570   5.424  -2.490  0.00  0.00    -0.002 A 
ATOM      7  C5  OXE d   1       1.315   5.999  -2.264  0.00  0.00    -0.002 A 
ATOM      8  C6  OXE d   1       0.455   5.417  -1.339  0.00  0.00     0.003 A 
ENDROOT
TORSDOF 0
ENDMDL
