MODEL 1
REMARK minimizedAffinity -3.06457543
REMARK minimizedRMSD -1
REMARK  0 active torsions:
REMARK  status: ('A' for Active; 'I' for Inactive)
ROOT
ATOM      1  C2' OXE d   1       3.186   4.174  -2.414  0.00  0.00     0.078 C 
ATOM      2  C1' OXE d   1       5.225   6.000  -1.790  0.00  0.00     0.078 C 
ATOM      3  C1  OXE d   1       5.117   5.526  -3.218  0.00  0.00    -0.078 A 
ATOM      4  C2  OXE d   1       4.146   4.597  -3.504  0.00  0.00    -0.078 A 
ATOM      5  C3  OXE d   1       3.968   4.168  -4.817  0.00  0.00     0.003 A 
ATOM      6  C4  OXE d   1       4.867   4.557  -5.817  0.00  0.00    -0.002 A 
ATOM      7  C5  OXE d   1       5.888   5.471  -5.539  0.00  0.00    -0.002 A 
ATOM      8  C6  OXE d   1       6.000   5.997  -4.256  0.00  0.00     0.003 A 
ENDROOT
TORSDOF 0
ENDMDL
