MODEL 1
REMARK minimizedAffinity 15.8539104
REMARK minimizedRMSD -1
REMARK  0 active torsions:
REMARK  status: ('A' for Active; 'I' for Inactive)
ROOT
ATOM      1  C2' OXE d   1      -3.373   1.256  -2.253  0.00  0.00     0.078 C 
ATOM      2  C1' OXE d   1      -2.616   2.413   0.190  0.00  0.00     0.078 C 
ATOM      3  C1  OXE d   1      -3.820   2.986  -0.517  0.00  0.00    -0.078 A 
ATOM      4  C2  OXE d   1      -4.155   2.444  -1.735  0.00  0.00    -0.078 A 
ATOM      5  C3  OXE d   1      -5.288   2.898  -2.403  0.00  0.00     0.003 A 
ATOM      6  C4  OXE d   1      -6.000   4.003  -1.921  0.00  0.00    -0.002 A 
ATOM      7  C5  OXE d   1      -5.651   4.596  -0.702  0.00  0.00    -0.002 A 
ATOM      8  C6  OXE d   1      -4.592   4.073   0.031  0.00  0.00     0.003 A 
ENDROOT
TORSDOF 0
ENDMDL
