MODEL 1
REMARK minimizedAffinity 17.9018917
REMARK minimizedRMSD -1
REMARK  0 active torsions:
REMARK  status: ('A' for Active; 'I' for Inactive)
ROOT
ATOM      1  C2' OXE d   1       2.278  -0.758   0.261  0.00  0.00     0.078 C 
ATOM      2  C1' OXE d   1       0.552   0.832   1.801  0.00  0.00     0.078 C 
ATOM      3  C1  OXE d   1       0.705  -0.618   2.187  0.00  0.00    -0.078 A 
ATOM      4  C2  OXE d   1       1.516  -1.400   1.400  0.00  0.00    -0.078 A 
ATOM      5  C3  OXE d   1       1.735  -2.731   1.744  0.00  0.00     0.003 A 
ATOM      6  C4  OXE d   1       1.018  -3.319   2.793  0.00  0.00    -0.002 A 
ATOM      7  C5  OXE d   1       0.157  -2.550   3.583  0.00  0.00    -0.002 A 
ATOM      8  C6  OXE d   1       0.022  -1.191   3.321  0.00  0.00     0.003 A 
ENDROOT
TORSDOF 0
ENDMDL
