MODEL 1
REMARK minimizedAffinity 11.8211222
REMARK minimizedRMSD -1
REMARK  0 active torsions:
REMARK  status: ('A' for Active; 'I' for Inactive)
ROOT
ATOM      1  C2' OXE d   1      -2.648   3.507  -1.175  0.00  0.00     0.078 C 
ATOM      2  C1' OXE d   1      -1.854   3.600   1.516  0.00  0.00     0.078 C 
ATOM      3  C1  OXE d   1      -3.320   3.774   1.209  0.00  0.00    -0.078 A 
ATOM      4  C2  OXE d   1      -3.694   3.774  -0.114  0.00  0.00    -0.078 A 
ATOM      5  C3  OXE d   1      -5.041   3.876  -0.450  0.00  0.00     0.003 A 
ATOM      6  C4  OXE d   1      -6.000   4.133   0.537  0.00  0.00    -0.002 A 
ATOM      7  C5  OXE d   1      -5.635   4.177   1.887  0.00  0.00    -0.002 A 
ATOM      8  C6  OXE d   1      -4.309   3.957   2.242  0.00  0.00     0.003 A 
ENDROOT
TORSDOF 0
ENDMDL
