MODEL 1
REMARK minimizedAffinity 14.0963879
REMARK minimizedRMSD -1
REMARK  0 active torsions:
REMARK  status: ('A' for Active; 'I' for Inactive)
ROOT
ATOM      1  C2' OXE d   1       2.373  -0.822   0.899  0.00  0.00     0.078 C 
ATOM      2  C1' OXE d   1       0.685   1.000   2.207  0.00  0.00     0.078 C 
ATOM      3  C1  OXE d   1       0.740  -0.412   2.735  0.00  0.00    -0.078 A 
ATOM      4  C2  OXE d   1       1.533  -1.309   2.060  0.00  0.00    -0.078 A 
ATOM      5  C3  OXE d   1       1.662  -2.610   2.538  0.00  0.00     0.003 A 
ATOM      6  C4  OXE d   1       0.874  -3.054   3.606  0.00  0.00    -0.002 A 
ATOM      7  C5  OXE d   1       0.029  -2.167   4.282  0.00  0.00    -0.002 A 
ATOM      8  C6  OXE d   1      -0.017  -0.835   3.887  0.00  0.00     0.003 A 
ENDROOT
TORSDOF 0
ENDMDL
