MODEL 1
REMARK minimizedAffinity 0.176904187
REMARK minimizedRMSD -1
REMARK  0 active torsions:
REMARK  status: ('A' for Active; 'I' for Inactive)
ROOT
ATOM      1  C2' OXE d   1       2.741   0.870   1.132  0.00  0.00     0.078 C 
ATOM      2  C1' OXE d   1       2.343   1.927   3.702  0.00  0.00     0.078 C 
ATOM      3  C1  OXE d   1       1.829   0.536   3.425  0.00  0.00    -0.078 A 
ATOM      4  C2  OXE d   1       1.987   0.045   2.152  0.00  0.00    -0.078 A 
ATOM      5  C3  OXE d   1       1.580  -1.253   1.858  0.00  0.00     0.003 A 
ATOM      6  C4  OXE d   1       0.873  -2.006   2.804  0.00  0.00    -0.002 A 
ATOM      7  C5  OXE d   1       0.666  -1.509   4.095  0.00  0.00    -0.002 A 
ATOM      8  C6  OXE d   1       1.174  -0.260   4.434  0.00  0.00     0.003 A 
ENDROOT
TORSDOF 0
ENDMDL
