MODEL 1
REMARK minimizedAffinity 8.91194344
REMARK minimizedRMSD -1
REMARK  0 active torsions:
REMARK  status: ('A' for Active; 'I' for Inactive)
ROOT
ATOM      1  C2' OXE d   1       2.296   0.098   1.408  0.00  0.00     0.078 C 
ATOM      2  C1' OXE d   1       1.519   0.865   3.994  0.00  0.00     0.078 C 
ATOM      3  C1  OXE d   1       1.442  -0.599   3.642  0.00  0.00    -0.078 A 
ATOM      4  C2  OXE d   1       1.780  -0.960   2.360  0.00  0.00    -0.078 A 
ATOM      5  C3  OXE d   1       1.779  -2.304   1.999  0.00  0.00     0.003 A 
ATOM      6  C4  OXE d   1       1.291  -3.275   2.882  0.00  0.00    -0.002 A 
ATOM      7  C5  OXE d   1       0.904  -2.924   4.180  0.00  0.00    -0.002 A 
ATOM      8  C6  OXE d   1       1.013  -1.599   4.589  0.00  0.00     0.003 A 
ENDROOT
TORSDOF 0
ENDMDL
