MODEL 1
REMARK minimizedAffinity 4.62607431
REMARK minimizedRMSD -1
REMARK  1 active torsions:
REMARK  status: ('A' for Active; 'I' for Inactive)
REMARK    1  A    between atoms: N_2  and  C1_3 
ROOT
ATOM      1  C1  UNL d   1      -0.161   5.070  -1.617  0.00  0.00     0.143 A 
ATOM      2  C2  UNL d   1       1.097   5.682  -1.649  0.00  0.00    -0.057 A 
ATOM      3  C3  UNL d   1       2.187   5.137  -0.960  0.00  0.00     0.033 A 
ATOM      4  C4  UNL d   1       2.031   3.982  -0.200  0.00  0.00    -0.042 A 
ATOM      5  C5  UNL d   1       0.784   3.371  -0.134  0.00  0.00     0.033 A 
ATOM      6  C6  UNL d   1      -0.299   3.917  -0.830  0.00  0.00    -0.057 A 
ENDROOT
BRANCH   1   7
ATOM      7  N   UNL d   1      -1.306   5.617  -2.201  0.00  0.00    -0.732 N 
ATOM      8  C   UNL d   1      -2.529   4.848  -2.286  0.00  0.00     0.284 C 
ATOM      9  H3  UNL d   1      -1.445   6.592  -1.944  0.00  0.00     0.395 HD
ENDBRANCH   1   7
TORSDOF 1
ENDMDL
