MODEL 1
REMARK minimizedAffinity 0.178106979
REMARK minimizedRMSD -1
REMARK  1 active torsions:
REMARK  status: ('A' for Active; 'I' for Inactive)
REMARK    1  A    between atoms: N_2  and  C1_3 
ROOT
ATOM      1  C1  UNL d   1      -1.725   4.929   0.378  0.00  0.00     0.143 A 
ATOM      2  C2  UNL d   1      -1.288   3.765   1.019  0.00  0.00    -0.057 A 
ATOM      3  C3  UNL d   1      -0.620   2.755   0.315  0.00  0.00     0.033 A 
ATOM      4  C4  UNL d   1      -0.403   2.880  -1.054  0.00  0.00    -0.042 A 
ATOM      5  C5  UNL d   1      -0.851   4.018  -1.716  0.00  0.00     0.033 A 
ATOM      6  C6  UNL d   1      -1.511   5.025  -1.006  0.00  0.00    -0.057 A 
ENDROOT
BRANCH   1   7
ATOM      7  N   UNL d   1      -2.481   5.924   1.003  0.00  0.00    -0.732 N 
ATOM      8  C   UNL d   1      -2.893   5.779   2.382  0.00  0.00     0.284 C 
ATOM      9  H3  UNL d   1      -2.167   6.861   0.759  0.00  0.00     0.395 HD
ENDBRANCH   1   7
TORSDOF 1
ENDMDL
