MODEL 1
REMARK minimizedAffinity 3.16465163
REMARK minimizedRMSD -1
REMARK  1 active torsions:
REMARK  status: ('A' for Active; 'I' for Inactive)
REMARK    1  A    between atoms: N_2  and  C1_3 
ROOT
ATOM      1  C1  UNL d   1      -5.149   2.221  -3.197  0.00  0.00     0.143 A 
ATOM      2  C2  UNL d   1      -4.299   2.955  -4.031  0.00  0.00    -0.057 A 
ATOM      3  C3  UNL d   1      -4.314   2.778  -5.419  0.00  0.00     0.033 A 
ATOM      4  C4  UNL d   1      -5.162   1.839  -5.998  0.00  0.00    -0.042 A 
ATOM      5  C5  UNL d   1      -5.998   1.081  -5.186  0.00  0.00     0.033 A 
ATOM      6  C6  UNL d   1      -5.983   1.267  -3.801  0.00  0.00    -0.057 A 
ENDROOT
BRANCH   1   7
ATOM      7  N   UNL d   1      -5.112   2.281  -1.801  0.00  0.00    -0.732 N 
ATOM      8  C   UNL d   1      -6.000   1.462  -1.004  0.00  0.00     0.284 C 
ATOM      9  H3  UNL d   1      -4.163   2.337  -1.440  0.00  0.00     0.395 HD
ENDBRANCH   1   7
TORSDOF 1
ENDMDL
