MODEL 1
REMARK minimizedAffinity 8.96298981
REMARK minimizedRMSD -1
REMARK  1 active torsions:
REMARK  status: ('A' for Active; 'I' for Inactive)
REMARK    1  A    between atoms: N_2  and  C1_3 
ROOT
ATOM      1  C1  UNL d   1       0.091   3.880  -0.469  0.00  0.00     0.143 A 
ATOM      2  C2  UNL d   1      -0.411   3.619  -1.749  0.00  0.00    -0.057 A 
ATOM      3  C3  UNL d   1      -1.233   4.541  -2.408  0.00  0.00     0.033 A 
ATOM      4  C4  UNL d   1      -1.594   5.731  -1.785  0.00  0.00    -0.042 A 
ATOM      5  C5  UNL d   1      -1.128   6.000  -0.503  0.00  0.00     0.033 A 
ATOM      6  C6  UNL d   1      -0.301   5.078   0.148  0.00  0.00    -0.057 A 
ENDROOT
BRANCH   1   7
ATOM      7  N   UNL d   1       0.832   2.961   0.278  0.00  0.00    -0.732 N 
ATOM      8  C   UNL d   1       0.219   2.229   1.366  0.00  0.00     0.284 C 
ATOM      9  H3  UNL d   1       1.454   2.401  -0.301  0.00  0.00     0.395 HD
ENDBRANCH   1   7
TORSDOF 1
ENDMDL
