MODEL 1
REMARK minimizedAffinity 10.5316429
REMARK minimizedRMSD -1
REMARK  1 active torsions:
REMARK  status: ('A' for Active; 'I' for Inactive)
REMARK    1  A    between atoms: N_2  and  C1_3 
ROOT
ATOM      1  C1  UNL d   1      -0.323   2.535  -0.208  0.00  0.00     0.143 A 
ATOM      2  C2  UNL d   1      -0.001   2.766  -1.549  0.00  0.00    -0.057 A 
ATOM      3  C3  UNL d   1      -0.115   4.042  -2.115  0.00  0.00     0.033 A 
ATOM      4  C4  UNL d   1      -0.584   5.107  -1.353  0.00  0.00    -0.042 A 
ATOM      5  C5  UNL d   1      -0.934   4.896  -0.024  0.00  0.00     0.033 A 
ATOM      6  C6  UNL d   1      -0.811   3.621   0.537  0.00  0.00    -0.057 A 
ENDROOT
BRANCH   1   7
ATOM      7  N   UNL d   1      -0.324   1.270   0.385  0.00  0.00    -0.732 N 
ATOM      8  C   UNL d   1      -0.088   0.084  -0.408  0.00  0.00     0.284 C 
ATOM      9  H3  UNL d   1       0.141   1.265   1.290  0.00  0.00     0.395 HD
ENDBRANCH   1   7
TORSDOF 1
ENDMDL
