MODEL 1
REMARK minimizedAffinity 7.19900942
REMARK minimizedRMSD -1
REMARK  1 active torsions:
REMARK  status: ('A' for Active; 'I' for Inactive)
REMARK    1  A    between atoms: N_2  and  C1_3 
ROOT
ATOM      1  C1  UNL d   1       4.377  -5.406  -2.807  0.00  0.00     0.143 A 
ATOM      2  C2  UNL d   1       4.412  -5.985  -1.534  0.00  0.00    -0.057 A 
ATOM      3  C3  UNL d   1       5.204  -5.447  -0.512  0.00  0.00     0.033 A 
ATOM      4  C4  UNL d   1       5.999  -4.332  -0.755  0.00  0.00    -0.042 A 
ATOM      5  C5  UNL d   1       6.000  -3.754  -2.020  0.00  0.00     0.033 A 
ATOM      6  C6  UNL d   1       5.202  -4.293  -3.034  0.00  0.00    -0.057 A 
ENDROOT
BRANCH   1   7
ATOM      7  N   UNL d   1       3.687  -5.952  -3.892  0.00  0.00    -0.732 N 
ATOM      8  C   UNL d   1       4.293  -5.995  -5.205  0.00  0.00     0.284 C 
ATOM      9  H3  UNL d   1       3.176  -6.796  -3.642  0.00  0.00     0.395 HD
ENDBRANCH   1   7
TORSDOF 1
ENDMDL
