MODEL 1
REMARK minimizedAffinity -1.55833673
REMARK minimizedRMSD -1
REMARK  0 active torsions:
REMARK  status: ('A' for Active; 'I' for Inactive)
ROOT
ATOM      1  C   UNL d   1      -5.995  -2.540  -3.793  0.00  0.00    -0.002 A 
ATOM      2  C1  UNL d   1      -5.876  -2.194  -5.132  0.00  0.00     0.010 A 
ATOM      3  C2  UNL d   1      -4.791  -2.643  -5.888  0.00  0.00     0.041 A 
ATOM      4  C3  UNL d   1      -3.819  -3.454  -5.271  0.00  0.00    -0.075 A 
ATOM      5  S   UNL d   1      -2.406  -4.121  -6.000  0.00  0.00     0.015 SA
ATOM      6  C4  UNL d   1      -1.927  -4.881  -4.552  0.00  0.00     0.022 A 
ATOM      7  C5  UNL d   1      -2.812  -4.643  -3.527  0.00  0.00     0.026 A 
ATOM      8  C6  UNL d   1      -3.917  -3.817  -3.924  0.00  0.00    -0.082 A 
ATOM      9  C7  UNL d   1      -5.028  -3.346  -3.184  0.00  0.00     0.045 A 
ENDROOT
TORSDOF 0
ENDMDL
