MODEL 1
REMARK minimizedAffinity -1.0884496
REMARK minimizedRMSD -1
REMARK  0 active torsions:
REMARK  status: ('A' for Active; 'I' for Inactive)
ROOT
ATOM      1  C   UNL d   1      -1.604  -5.732  -5.142  0.00  0.00    -0.002 A 
ATOM      2  C1  UNL d   1      -1.234  -4.519  -5.705  0.00  0.00     0.010 A 
ATOM      3  C2  UNL d   1      -2.196  -3.550  -6.000  0.00  0.00     0.041 A 
ATOM      4  C3  UNL d   1      -3.548  -3.824  -5.714  0.00  0.00    -0.075 A 
ATOM      5  S   UNL d   1      -4.899  -2.787  -5.987  0.00  0.00     0.015 SA
ATOM      6  C4  UNL d   1      -5.997  -3.930  -5.361  0.00  0.00     0.022 A 
ATOM      7  C5  UNL d   1      -5.367  -5.080  -4.949  0.00  0.00     0.026 A 
ATOM      8  C6  UNL d   1      -3.945  -5.037  -5.145  0.00  0.00    -0.082 A 
ATOM      9  C7  UNL d   1      -2.946  -5.999  -4.859  0.00  0.00     0.045 A 
ENDROOT
TORSDOF 0
ENDMDL
