MODEL 1
REMARK minimizedAffinity -1.89392495
REMARK minimizedRMSD -1
REMARK  0 active torsions:
REMARK  status: ('A' for Active; 'I' for Inactive)
ROOT
ATOM      1  C   UNL d   1      -5.165  -0.838  -4.500  0.00  0.00    -0.002 A 
ATOM      2  C1  UNL d   1      -5.579  -1.725  -3.517  0.00  0.00     0.010 A 
ATOM      3  C2  UNL d   1      -4.960  -2.969  -3.375  0.00  0.00     0.041 A 
ATOM      4  C3  UNL d   1      -3.906  -3.308  -4.246  0.00  0.00    -0.075 A 
ATOM      5  S   UNL d   1      -3.000  -4.775  -4.258  0.00  0.00     0.015 SA
ATOM      6  C4  UNL d   1      -2.040  -4.258  -5.569  0.00  0.00     0.022 A 
ATOM      7  C5  UNL d   1      -2.390  -3.000  -5.999  0.00  0.00     0.026 A 
ATOM      8  C6  UNL d   1      -3.471  -2.432  -5.244  0.00  0.00    -0.082 A 
ATOM      9  C7  UNL d   1      -4.119  -1.179  -5.362  0.00  0.00     0.045 A 
ENDROOT
TORSDOF 0
ENDMDL
