MODEL 1
REMARK minimizedAffinity -3.49694729
REMARK minimizedRMSD -1
REMARK  0 active torsions:
REMARK  status: ('A' for Active; 'I' for Inactive)
ROOT
ATOM      1  C   UNL d   1      -5.647  -2.735  -3.556  0.00  0.00    -0.002 A 
ATOM      2  C1  UNL d   1      -5.998  -2.943  -4.882  0.00  0.00     0.010 A 
ATOM      3  C2  UNL d   1      -5.208  -3.744  -5.709  0.00  0.00     0.041 A 
ATOM      4  C3  UNL d   1      -4.049  -4.340  -5.175  0.00  0.00    -0.075 A 
ATOM      5  S   UNL d   1      -2.931  -5.361  -5.999  0.00  0.00     0.015 SA
ATOM      6  C4  UNL d   1      -1.961  -5.546  -4.610  0.00  0.00     0.022 A 
ATOM      7  C5  UNL d   1      -2.463  -4.853  -3.535  0.00  0.00     0.026 A 
ATOM      8  C6  UNL d   1      -3.675  -4.147  -3.842  0.00  0.00    -0.082 A 
ATOM      9  C7  UNL d   1      -4.497  -3.328  -3.030  0.00  0.00     0.045 A 
ENDROOT
TORSDOF 0
ENDMDL
