MODEL 1
REMARK minimizedAffinity -3.04900932
REMARK minimizedRMSD -1
REMARK  0 active torsions:
REMARK  status: ('A' for Active; 'I' for Inactive)
ROOT
ATOM      1  C   UNL d   1      -1.756  -4.916  -5.793  0.00  0.00    -0.002 A 
ATOM      2  C1  UNL d   1      -2.311  -5.999  -5.125  0.00  0.00     0.010 A 
ATOM      3  C2  UNL d   1      -3.622  -5.943  -4.649  0.00  0.00     0.041 A 
ATOM      4  C3  UNL d   1      -4.374  -4.771  -4.859  0.00  0.00    -0.075 A 
ATOM      5  S   UNL d   1      -6.000  -4.477  -4.366  0.00  0.00     0.015 SA
ATOM      6  C4  UNL d   1      -5.997  -2.908  -5.031  0.00  0.00     0.022 A 
ATOM      7  C5  UNL d   1      -4.793  -2.599  -5.619  0.00  0.00     0.026 A 
ATOM      8  C6  UNL d   1      -3.838  -3.668  -5.530  0.00  0.00    -0.082 A 
ATOM      9  C7  UNL d   1      -2.505  -3.755  -6.000  0.00  0.00     0.045 A 
ENDROOT
TORSDOF 0
ENDMDL
