MODEL 1
REMARK minimizedAffinity -1.63586438
REMARK minimizedRMSD -1
REMARK  0 active torsions:
REMARK  status: ('A' for Active; 'I' for Inactive)
ROOT
ATOM      1  C   UNL d   1      -5.832  -4.147  -4.303  0.00  0.00    -0.002 A 
ATOM      2  C1  UNL d   1      -5.996  -5.075  -5.323  0.00  0.00     0.010 A 
ATOM      3  C2  UNL d   1      -4.888  -5.695  -5.904  0.00  0.00     0.041 A 
ATOM      4  C3  UNL d   1      -3.600  -5.365  -5.438  0.00  0.00    -0.075 A 
ATOM      5  S   UNL d   1      -2.098  -5.998  -5.999  0.00  0.00     0.015 SA
ATOM      6  C4  UNL d   1      -1.203  -5.053  -4.899  0.00  0.00     0.022 A 
ATOM      7  C5  UNL d   1      -2.015  -4.268  -4.115  0.00  0.00     0.026 A 
ATOM      8  C6  UNL d   1      -3.409  -4.435  -4.412  0.00  0.00    -0.082 A 
ATOM      9  C7  UNL d   1      -4.553  -3.823  -3.844  0.00  0.00     0.045 A 
ENDROOT
TORSDOF 0
ENDMDL
