MODEL 1
REMARK minimizedAffinity -2.70909548
REMARK minimizedRMSD -1
REMARK  0 active torsions:
REMARK  status: ('A' for Active; 'I' for Inactive)
ROOT
ATOM      1  C   UNL d   1      -5.460  -2.695  -4.567  0.00  0.00    -0.002 A 
ATOM      2  C1  UNL d   1      -5.993  -3.601  -5.473  0.00  0.00     0.010 A 
ATOM      3  C2  UNL d   1      -5.216  -4.651  -5.968  0.00  0.00     0.041 A 
ATOM      4  C3  UNL d   1      -3.884  -4.778  -5.529  0.00  0.00    -0.075 A 
ATOM      5  S   UNL d   1      -2.746  -5.986  -5.998  0.00  0.00     0.015 SA
ATOM      6  C4  UNL d   1      -1.527  -5.329  -5.005  0.00  0.00     0.022 A 
ATOM      7  C5  UNL d   1      -1.960  -4.215  -4.325  0.00  0.00     0.026 A 
ATOM      8  C6  UNL d   1      -3.325  -3.879  -4.616  0.00  0.00    -0.082 A 
ATOM      9  C7  UNL d   1      -4.138  -2.825  -4.134  0.00  0.00     0.045 A 
ENDROOT
TORSDOF 0
ENDMDL
