MODEL 1
REMARK minimizedAffinity -1.47082174
REMARK minimizedRMSD -1
REMARK  0 active torsions:
REMARK  status: ('A' for Active; 'I' for Inactive)
ROOT
ATOM      1  C   UNL d   1      -2.674  -6.000  -5.918  0.00  0.00    -0.002 A 
ATOM      2  C1  UNL d   1      -1.792  -5.058  -5.407  0.00  0.00     0.010 A 
ATOM      3  C2  UNL d   1      -2.266  -3.863  -4.863  0.00  0.00     0.041 A 
ATOM      4  C3  UNL d   1      -3.655  -3.629  -4.838  0.00  0.00    -0.075 A 
ATOM      5  S   UNL d   1      -4.465  -2.239  -4.218  0.00  0.00     0.015 SA
ATOM      6  C4  UNL d   1      -6.000  -2.863  -4.616  0.00  0.00     0.022 A 
ATOM      7  C5  UNL d   1      -5.916  -4.101  -5.208  0.00  0.00     0.026 A 
ATOM      8  C6  UNL d   1      -4.563  -4.563  -5.345  0.00  0.00    -0.082 A 
ATOM      9  C7  UNL d   1      -4.051  -5.765  -5.892  0.00  0.00     0.045 A 
ENDROOT
TORSDOF 0
ENDMDL
