MODEL 1
REMARK minimizedAffinity -1.6793505
REMARK minimizedRMSD -1
REMARK  0 active torsions:
REMARK  status: ('A' for Active; 'I' for Inactive)
ROOT
ATOM      1  C   UNL d   1      -0.717  -5.230  -4.256  0.00  0.00    -0.002 A 
ATOM      2  C1  UNL d   1      -0.946  -5.986  -5.397  0.00  0.00     0.010 A 
ATOM      3  C2  UNL d   1      -2.206  -6.000  -5.999  0.00  0.00     0.041 A 
ATOM      4  C3  UNL d   1      -3.241  -5.232  -5.431  0.00  0.00    -0.075 A 
ATOM      5  S   UNL d   1      -4.864  -5.094  -5.996  0.00  0.00     0.015 SA
ATOM      6  C4  UNL d   1      -5.292  -4.028  -4.737  0.00  0.00     0.022 A 
ATOM      7  C5  UNL d   1      -4.234  -3.773  -3.896  0.00  0.00     0.026 A 
ATOM      8  C6  UNL d   1      -3.035  -4.462  -4.283  0.00  0.00    -0.082 A 
ATOM      9  C7  UNL d   1      -1.747  -4.470  -3.695  0.00  0.00     0.045 A 
ENDROOT
TORSDOF 0
ENDMDL
