MODEL 1
REMARK minimizedAffinity 2.90540266
REMARK minimizedRMSD -1
REMARK  0 active torsions:
REMARK  status: ('A' for Active; 'I' for Inactive)
ROOT
ATOM      1  C   UNL d   1      -1.633  -5.916  -5.291  0.00  0.00    -0.002 A 
ATOM      2  C1  UNL d   1      -1.497  -5.381  -4.018  0.00  0.00     0.010 A 
ATOM      3  C2  UNL d   1      -2.549  -4.680  -3.426  0.00  0.00     0.041 A 
ATOM      4  C3  UNL d   1      -3.753  -4.526  -4.142  0.00  0.00    -0.075 A 
ATOM      5  S   UNL d   1      -5.177  -3.708  -3.617  0.00  0.00     0.015 SA
ATOM      6  C4  UNL d   1      -6.000  -4.050  -5.070  0.00  0.00     0.022 A 
ATOM      7  C5  UNL d   1      -5.222  -4.770  -5.945  0.00  0.00     0.026 A 
ATOM      8  C6  UNL d   1      -3.915  -5.057  -5.425  0.00  0.00    -0.082 A 
ATOM      9  C7  UNL d   1      -2.828  -5.761  -5.998  0.00  0.00     0.045 A 
ENDROOT
TORSDOF 0
ENDMDL
