MODEL 1
REMARK minimizedAffinity -3.27262783
REMARK minimizedRMSD -1
REMARK  0 active torsions:
REMARK  status: ('A' for Active; 'I' for Inactive)
ROOT
ATOM      1  C   UNL d   1      -5.495  -1.731  -4.862  0.00  0.00    -0.002 A 
ATOM      2  C1  UNL d   1      -5.967  -2.514  -3.818  0.00  0.00     0.010 A 
ATOM      3  C2  UNL d   1      -5.370  -3.741  -3.524  0.00  0.00     0.041 A 
ATOM      4  C3  UNL d   1      -4.278  -4.172  -4.303  0.00  0.00    -0.075 A 
ATOM      5  S   UNL d   1      -3.388  -5.638  -4.126  0.00  0.00     0.015 SA
ATOM      6  C4  UNL d   1      -2.359  -5.259  -5.431  0.00  0.00     0.022 A 
ATOM      7  C5  UNL d   1      -2.673  -4.048  -6.000  0.00  0.00     0.026 A 
ATOM      8  C6  UNL d   1      -3.783  -3.401  -5.359  0.00  0.00    -0.082 A 
ATOM      9  C7  UNL d   1      -4.411  -2.162  -5.633  0.00  0.00     0.045 A 
ENDROOT
TORSDOF 0
ENDMDL
