MODEL 1
REMARK minimizedAffinity -0.00419496093
REMARK minimizedRMSD -1
REMARK  0 active torsions:
REMARK  status: ('A' for Active; 'I' for Inactive)
ROOT
ATOM      1  C   UNL d   1      -5.857  -2.342  -3.888  0.00  0.00    -0.002 A 
ATOM      2  C1  UNL d   1      -6.000  -2.457  -5.264  0.00  0.00     0.010 A 
ATOM      3  C2  UNL d   1      -5.175  -3.315  -5.995  0.00  0.00     0.041 A 
ATOM      4  C3  UNL d   1      -4.197  -4.065  -5.313  0.00  0.00    -0.075 A 
ATOM      5  S   UNL d   1      -3.076  -5.180  -6.000  0.00  0.00     0.015 SA
ATOM      6  C4  UNL d   1      -2.382  -5.531  -4.483  0.00  0.00     0.022 A 
ATOM      7  C5  UNL d   1      -2.978  -4.824  -3.467  0.00  0.00     0.026 A 
ATOM      8  C6  UNL d   1      -4.034  -3.967  -3.928  0.00  0.00    -0.082 A 
ATOM      9  C7  UNL d   1      -4.885  -3.088  -3.215  0.00  0.00     0.045 A 
ENDROOT
TORSDOF 0
ENDMDL
