MODEL 1
REMARK minimizedAffinity 5.76396704
REMARK minimizedRMSD -1
REMARK  0 active torsions:
REMARK  status: ('A' for Active; 'I' for Inactive)
ROOT
ATOM      1  C   UNL d   1       0.690  -3.150  -1.871  0.00  0.00     0.077 C 
ATOM      2  C1  UNL d   1       1.678  -2.510  -0.941  0.00  0.00    -0.074 A 
ATOM      3  C2  UNL d   1       2.044  -3.131   0.258  0.00  0.00    -0.005 A 
ATOM      4  C3  UNL d   1       2.971  -2.528   1.107  0.00  0.00     0.006 A 
ATOM      5  C4  UNL d   1       3.540  -1.300   0.768  0.00  0.00    -0.005 A 
ATOM      6  C5  UNL d   1       3.187  -0.665  -0.426  0.00  0.00    -0.074 A 
ATOM      7  C6  UNL d   1       3.797   0.651  -0.810  0.00  0.00     0.077 C 
ATOM      8  C7  UNL d   1       2.260  -1.280  -1.278  0.00  0.00    -0.001 A 
ENDROOT
TORSDOF 0
ENDMDL
