MODEL 1
REMARK minimizedAffinity 3.32117891
REMARK minimizedRMSD -1
REMARK  0 active torsions:
REMARK  status: ('A' for Active; 'I' for Inactive)
ROOT
ATOM      1  C   UNL d   1      -6.000  -0.371  -4.134  0.00  0.00     0.077 C 
ATOM      2  C1  UNL d   1      -4.623   0.204  -4.287  0.00  0.00    -0.074 A 
ATOM      3  C2  UNL d   1      -4.339   1.130  -5.297  0.00  0.00    -0.005 A 
ATOM      4  C3  UNL d   1      -3.057   1.664  -5.421  0.00  0.00     0.006 A 
ATOM      5  C4  UNL d   1      -2.047   1.278  -4.539  0.00  0.00    -0.005 A 
ATOM      6  C5  UNL d   1      -2.312   0.355  -3.523  0.00  0.00    -0.074 A 
ATOM      7  C6  UNL d   1      -1.241  -0.063  -2.560  0.00  0.00     0.077 C 
ATOM      8  C7  UNL d   1      -3.605  -0.172  -3.400  0.00  0.00    -0.001 A 
ENDROOT
TORSDOF 0
ENDMDL
