MODEL 1
REMARK minimizedAffinity -0.248381019
REMARK minimizedRMSD -1
REMARK  0 active torsions:
REMARK  status: ('A' for Active; 'I' for Inactive)
ROOT
ATOM      1  C   UNL d   1       4.126   0.717  -1.156  0.00  0.00     0.077 C 
ATOM      2  C1  UNL d   1       4.775   1.920  -0.540  0.00  0.00    -0.074 A 
ATOM      3  C2  UNL d   1       5.277   1.878   0.765  0.00  0.00    -0.005 A 
ATOM      4  C3  UNL d   1       5.886   3.002   1.321  0.00  0.00     0.006 A 
ATOM      5  C4  UNL d   1       6.000   4.179   0.580  0.00  0.00    -0.005 A 
ATOM      6  C5  UNL d   1       5.505   4.240  -0.727  0.00  0.00    -0.074 A 
ATOM      7  C6  UNL d   1       5.628   5.493  -1.541  0.00  0.00     0.077 C 
ATOM      8  C7  UNL d   1       4.900   3.103  -1.281  0.00  0.00    -0.001 A 
ENDROOT
TORSDOF 0
ENDMDL
