MODEL 1
REMARK minimizedAffinity 12.4993763
REMARK minimizedRMSD -1
REMARK  0 active torsions:
REMARK  status: ('A' for Active; 'I' for Inactive)
ROOT
ATOM      1  C   UNL d   1      -6.000   4.684  -4.122  0.00  0.00     0.077 C 
ATOM      2  C1  UNL d   1      -5.466   3.289  -3.987  0.00  0.00    -0.074 A 
ATOM      3  C2  UNL d   1      -6.000   2.403  -3.047  0.00  0.00    -0.005 A 
ATOM      4  C3  UNL d   1      -5.499   1.105  -2.939  0.00  0.00     0.006 A 
ATOM      5  C4  UNL d   1      -4.460   0.682  -3.770  0.00  0.00    -0.005 A 
ATOM      6  C5  UNL d   1      -3.914   1.555  -4.717  0.00  0.00    -0.074 A 
ATOM      7  C6  UNL d   1      -2.804   1.113  -5.624  0.00  0.00     0.077 C 
ATOM      8  C7  UNL d   1      -4.428   2.854  -4.823  0.00  0.00    -0.001 A 
ENDROOT
TORSDOF 0
ENDMDL
