MODEL 1
REMARK minimizedAffinity 9.62621117
REMARK minimizedRMSD -1
REMARK  0 active torsions:
REMARK  status: ('A' for Active; 'I' for Inactive)
ROOT
ATOM      1  C   UNL d   1       5.209   1.369  -2.144  0.00  0.00     0.077 C 
ATOM      2  C1  UNL d   1       4.559   1.247  -0.798  0.00  0.00    -0.074 A 
ATOM      3  C2  UNL d   1       3.400   0.484  -0.626  0.00  0.00    -0.005 A 
ATOM      4  C3  UNL d   1       2.812   0.372   0.634  0.00  0.00     0.006 A 
ATOM      5  C4  UNL d   1       3.378   1.020   1.733  0.00  0.00    -0.005 A 
ATOM      6  C5  UNL d   1       4.538   1.786   1.581  0.00  0.00    -0.074 A 
ATOM      7  C6  UNL d   1       5.164   2.481   2.753  0.00  0.00     0.077 C 
ATOM      8  C7  UNL d   1       5.126   1.888   0.312  0.00  0.00    -0.001 A 
ENDROOT
TORSDOF 0
ENDMDL
