MODEL 1
REMARK minimizedAffinity 6.74869013
REMARK minimizedRMSD -1
REMARK  0 active torsions:
REMARK  status: ('A' for Active; 'I' for Inactive)
ROOT
ATOM      1  C   UNL d   1       6.000  -1.396   1.914  0.00  0.00     0.077 C 
ATOM      2  C1  UNL d   1       5.037  -0.938   0.859  0.00  0.00    -0.074 A 
ATOM      3  C2  UNL d   1       3.818  -1.596   0.664  0.00  0.00    -0.005 A 
ATOM      4  C3  UNL d   1       2.928  -1.153  -0.314  0.00  0.00     0.006 A 
ATOM      5  C4  UNL d   1       3.247  -0.049  -1.106  0.00  0.00    -0.005 A 
ATOM      6  C5  UNL d   1       4.461   0.623  -0.925  0.00  0.00    -0.074 A 
ATOM      7  C6  UNL d   1       4.815   1.817  -1.760  0.00  0.00     0.077 C 
ATOM      8  C7  UNL d   1       5.346   0.175   0.065  0.00  0.00    -0.001 A 
ENDROOT
TORSDOF 0
ENDMDL
