MODEL 1
REMARK minimizedAffinity 15.1683502
REMARK minimizedRMSD -1
REMARK  0 active torsions:
REMARK  status: ('A' for Active; 'I' for Inactive)
ROOT
ATOM      1  C   UNL d   1      -1.801  -5.999  -5.618  0.00  0.00     0.077 C 
ATOM      2  C1  UNL d   1      -1.818  -5.448  -4.223  0.00  0.00    -0.074 A 
ATOM      3  C2  UNL d   1      -2.844  -4.598  -3.799  0.00  0.00    -0.005 A 
ATOM      4  C3  UNL d   1      -2.852  -4.101  -2.495  0.00  0.00     0.006 A 
ATOM      5  C4  UNL d   1      -1.835  -4.448  -1.605  0.00  0.00    -0.005 A 
ATOM      6  C5  UNL d   1      -0.801  -5.298  -2.011  0.00  0.00    -0.074 A 
ATOM      7  C6  UNL d   1       0.294  -5.689  -1.064  0.00  0.00     0.077 C 
ATOM      8  C7  UNL d   1      -0.804  -5.799  -3.320  0.00  0.00    -0.001 A 
ENDROOT
TORSDOF 0
ENDMDL
