MODEL 1
REMARK minimizedAffinity 6.14441347
REMARK minimizedRMSD -1
REMARK  0 active torsions:
REMARK  status: ('A' for Active; 'I' for Inactive)
ROOT
ATOM      1  C   UNL d   1       3.884   1.877   1.435  0.00  0.00     0.077 C 
ATOM      2  C1  UNL d   1       4.186   1.126   0.172  0.00  0.00    -0.074 A 
ATOM      3  C2  UNL d   1       5.224   1.532  -0.674  0.00  0.00    -0.005 A 
ATOM      4  C3  UNL d   1       5.500   0.818  -1.840  0.00  0.00     0.006 A 
ATOM      5  C4  UNL d   1       4.743  -0.306  -2.172  0.00  0.00    -0.005 A 
ATOM      6  C5  UNL d   1       3.702  -0.727  -1.338  0.00  0.00    -0.074 A 
ATOM      7  C6  UNL d   1       2.885  -1.939  -1.674  0.00  0.00     0.077 C 
ATOM      8  C7  UNL d   1       3.435  -0.009  -0.164  0.00  0.00    -0.001 A 
ENDROOT
TORSDOF 0
ENDMDL
