MODEL 1
REMARK minimizedAffinity 12.6735888
REMARK minimizedRMSD -1
REMARK  0 active torsions:
REMARK  status: ('A' for Active; 'I' for Inactive)
ROOT
ATOM      1  C   UNL d   1       3.675  -0.050   0.411  0.00  0.00     0.077 C 
ATOM      2  C1  UNL d   1       2.228   0.346   0.439  0.00  0.00    -0.074 A 
ATOM      3  C2  UNL d   1       1.603   0.700   1.639  0.00  0.00    -0.005 A 
ATOM      4  C3  UNL d   1       0.260   1.075   1.648  0.00  0.00     0.006 A 
ATOM      5  C4  UNL d   1      -0.471   1.100   0.460  0.00  0.00    -0.005 A 
ATOM      6  C5  UNL d   1       0.137   0.749  -0.749  0.00  0.00    -0.074 A 
ATOM      7  C6  UNL d   1      -0.631   0.780  -2.037  0.00  0.00     0.077 C 
ATOM      8  C7  UNL d   1       1.489   0.380  -0.752  0.00  0.00    -0.001 A 
ENDROOT
TORSDOF 0
ENDMDL
