MODEL 1
REMARK minimizedAffinity 1.42793667
REMARK minimizedRMSD -1
REMARK  0 active torsions:
REMARK  status: ('A' for Active; 'I' for Inactive)
ROOT
ATOM      1  C   UNL d   1       3.203   0.296  -0.592  0.00  0.00     0.077 C 
ATOM      2  C1  UNL d   1       2.555  -1.043  -0.403  0.00  0.00    -0.074 A 
ATOM      3  C2  UNL d   1       3.085  -1.980   0.490  0.00  0.00    -0.005 A 
ATOM      4  C3  UNL d   1       2.466  -3.217   0.663  0.00  0.00     0.006 A 
ATOM      5  C4  UNL d   1       1.311  -3.531  -0.055  0.00  0.00    -0.005 A 
ATOM      6  C5  UNL d   1       0.765  -2.607  -0.952  0.00  0.00    -0.074 A 
ATOM      7  C6  UNL d   1      -0.481  -2.925  -1.724  0.00  0.00     0.077 C 
ATOM      8  C7  UNL d   1       1.390  -1.363  -1.115  0.00  0.00    -0.001 A 
ENDROOT
TORSDOF 0
ENDMDL
