MODEL 1
REMARK minimizedAffinity 8.5571394
REMARK minimizedRMSD -1
REMARK  0 active torsions:
REMARK  status: ('A' for Active; 'I' for Inactive)
ROOT
ATOM      1  C   UNL d   1       0.123   0.910  -0.685  0.00  0.00     0.077 C 
ATOM      2  C1  UNL d   1       0.318  -0.576  -0.639  0.00  0.00    -0.074 A 
ATOM      3  C2  UNL d   1       1.545  -1.128  -0.255  0.00  0.00    -0.005 A 
ATOM      4  C3  UNL d   1       1.709  -2.512  -0.208  0.00  0.00     0.006 A 
ATOM      5  C4  UNL d   1       0.650  -3.357  -0.543  0.00  0.00    -0.005 A 
ATOM      6  C5  UNL d   1      -0.584  -2.824  -0.928  0.00  0.00    -0.074 A 
ATOM      7  C6  UNL d   1      -1.735  -3.718  -1.282  0.00  0.00     0.077 C 
ATOM      8  C7  UNL d   1      -0.743  -1.432  -0.966  0.00  0.00    -0.001 A 
ENDROOT
TORSDOF 0
ENDMDL
