MODEL 1
REMARK minimizedAffinity -0.946227729
REMARK minimizedRMSD -1
REMARK  0 active torsions:
REMARK  status: ('A' for Active; 'I' for Inactive)
ROOT
ATOM      1  C   UNL d   1       4.116   2.414   2.997  0.00  0.00     0.172 C 
ATOM      2  N   UNL d   1       4.460   3.797   2.758  0.00  0.00    -0.070 N 
ATOM      3  C1  UNL d   1       5.202   4.265   1.706  0.00  0.00    -0.004 A 
ATOM      4  C2  UNL d   1       5.304   5.633   1.838  0.00  0.00    -0.047 A 
ATOM      5  C3  UNL d   1       4.600   5.999   3.009  0.00  0.00    -0.047 A 
ATOM      6  C4  UNL d   1       4.087   4.843   3.559  0.00  0.00    -0.004 A 
ENDROOT
TORSDOF 0
ENDMDL
