MODEL 1
REMARK minimizedAffinity -2.05729127
REMARK minimizedRMSD -1
REMARK  0 active torsions:
REMARK  status: ('A' for Active; 'I' for Inactive)
ROOT
ATOM      1  C   UNL d   1       5.700   3.767   3.722  0.00  0.00     0.172 C 
ATOM      2  N   UNL d   1       5.090   4.155   2.471  0.00  0.00    -0.070 N 
ATOM      3  C1  UNL d   1       5.303   5.337   1.813  0.00  0.00    -0.004 A 
ATOM      4  C2  UNL d   1       4.541   5.323   0.664  0.00  0.00    -0.047 A 
ATOM      5  C3  UNL d   1       3.846   4.091   0.632  0.00  0.00    -0.047 A 
ATOM      6  C4  UNL d   1       4.204   3.387   1.763  0.00  0.00    -0.004 A 
ENDROOT
TORSDOF 0
ENDMDL
