MODEL 1
REMARK minimizedAffinity 7.53478003
REMARK minimizedRMSD -1
REMARK  0 active torsions:
REMARK  status: ('A' for Active; 'I' for Inactive)
ROOT
ATOM      1  C   UNL d   1       5.970   3.459   4.140  0.00  0.00     0.172 C 
ATOM      2  N   UNL d   1       5.981   2.437   3.120  0.00  0.00    -0.070 N 
ATOM      3  C1  UNL d   1       5.990   2.658   1.768  0.00  0.00    -0.004 A 
ATOM      4  C2  UNL d   1       5.999   1.431   1.140  0.00  0.00    -0.047 A 
ATOM      5  C3  UNL d   1       5.994   0.439   2.149  0.00  0.00    -0.047 A 
ATOM      6  C4  UNL d   1       5.983   1.089   3.365  0.00  0.00    -0.004 A 
ENDROOT
TORSDOF 0
ENDMDL
