MODEL 1
REMARK minimizedAffinity 5.14934444
REMARK minimizedRMSD -1
REMARK  0 active torsions:
REMARK  status: ('A' for Active; 'I' for Inactive)
ROOT
ATOM      1  C   UNL d   1      -4.500   2.768  -0.290  0.00  0.00     0.172 C 
ATOM      2  N   UNL d   1      -4.321   4.083  -0.860  0.00  0.00    -0.070 N 
ATOM      3  C1  UNL d   1      -3.156   4.802  -0.858  0.00  0.00    -0.004 A 
ATOM      4  C2  UNL d   1      -3.397   5.999  -1.496  0.00  0.00    -0.047 A 
ATOM      5  C3  UNL d   1      -4.755   6.000  -1.895  0.00  0.00    -0.047 A 
ATOM      6  C4  UNL d   1      -5.303   4.802  -1.489  0.00  0.00    -0.004 A 
ENDROOT
TORSDOF 0
ENDMDL
