MODEL 1
REMARK minimizedAffinity 5.20476484
REMARK minimizedRMSD -1
REMARK  0 active torsions:
REMARK  status: ('A' for Active; 'I' for Inactive)
ROOT
ATOM      1  C   UNL d   1       1.531  -2.083   3.932  0.00  0.00     0.172 C 
ATOM      2  N   UNL d   1       0.644  -1.096   3.362  0.00  0.00    -0.070 N 
ATOM      3  C1  UNL d   1       0.864   0.256   3.337  0.00  0.00    -0.004 A 
ATOM      4  C2  UNL d   1      -0.211   0.847   2.709  0.00  0.00    -0.047 A 
ATOM      5  C3  UNL d   1      -1.109  -0.185   2.346  0.00  0.00    -0.047 A 
ATOM      6  C4  UNL d   1      -0.555  -1.377   2.762  0.00  0.00    -0.004 A 
ENDROOT
TORSDOF 0
ENDMDL
