MODEL 1
REMARK minimizedAffinity 6.51067591
REMARK minimizedRMSD -1
REMARK  0 active torsions:
REMARK  status: ('A' for Active; 'I' for Inactive)
ROOT
ATOM      1  C   UNL d   1      -0.787  -1.553  -1.881  0.00  0.00     0.172 C 
ATOM      2  N   UNL d   1      -0.192  -1.318  -3.175  0.00  0.00    -0.070 N 
ATOM      3  C1  UNL d   1       1.129  -1.038  -3.408  0.00  0.00    -0.004 A 
ATOM      4  C2  UNL d   1       1.294  -0.882  -4.767  0.00  0.00    -0.047 A 
ATOM      5  C3  UNL d   1       0.029  -1.072  -5.372  0.00  0.00    -0.047 A 
ATOM      6  C4  UNL d   1      -0.873  -1.341  -4.363  0.00  0.00    -0.004 A 
ENDROOT
TORSDOF 0
ENDMDL
