MODEL 1
REMARK minimizedAffinity 7.43349361
REMARK minimizedRMSD -1
REMARK  0 active torsions:
REMARK  status: ('A' for Active; 'I' for Inactive)
ROOT
ATOM      1  C   UNL d   1      -0.776  -1.991  -1.841  0.00  0.00     0.172 C 
ATOM      2  N   UNL d   1       0.128  -1.445  -2.826  0.00  0.00    -0.070 N 
ATOM      3  C1  UNL d   1       1.398  -1.891  -3.077  0.00  0.00    -0.004 A 
ATOM      4  C2  UNL d   1       1.928  -1.112  -4.083  0.00  0.00    -0.047 A 
ATOM      5  C3  UNL d   1       0.942  -0.165  -4.448  0.00  0.00    -0.047 A 
ATOM      6  C4  UNL d   1      -0.162  -0.393  -3.654  0.00  0.00    -0.004 A 
ENDROOT
TORSDOF 0
ENDMDL
