MODEL 1
REMARK minimizedAffinity 9.34387112
REMARK minimizedRMSD -1
REMARK  0 active torsions:
REMARK  status: ('A' for Active; 'I' for Inactive)
ROOT
ATOM      1  C   UNL d   1       4.302   4.057  -5.987  0.00  0.00     0.172 C 
ATOM      2  N   UNL d   1       4.706   2.672  -5.925  0.00  0.00    -0.070 N 
ATOM      3  C1  UNL d   1       5.997   2.216  -5.919  0.00  0.00    -0.004 A 
ATOM      4  C2  UNL d   1       5.959   0.840  -5.853  0.00  0.00    -0.047 A 
ATOM      5  C3  UNL d   1       4.597   0.456  -5.818  0.00  0.00    -0.047 A 
ATOM      6  C4  UNL d   1       3.843   1.610  -5.865  0.00  0.00    -0.004 A 
ENDROOT
TORSDOF 0
ENDMDL
