MODEL 1
REMARK minimizedAffinity -0.0560836047
REMARK minimizedRMSD -1
REMARK  0 active torsions:
REMARK  status: ('A' for Active; 'I' for Inactive)
ROOT
ATOM      1  C1  DEN d   1      -4.769   0.913   1.381  0.00  0.00     0.130 A 
ATOM      2  C2  DEN d   1      -5.118   0.404   0.058  0.00  0.00    -0.031 A 
ATOM      3  C3  DEN d   1      -4.028  -0.485  -0.392  0.00  0.00     0.027 A 
ATOM      4  C4  DEN d   1      -1.847  -1.122   0.829  0.00  0.00     0.027 A 
ATOM      5  C5  DEN d   1      -1.103  -0.931   1.973  0.00  0.00    -0.003 A 
ATOM      6  C6  DEN d   1      -1.510  -0.091   2.976  0.00  0.00     0.001 A 
ATOM      7  C7  DEN d   1      -2.715   0.553   2.875  0.00  0.00     0.017 A 
ATOM      8  C8  DEN d   1      -3.466   0.370   1.722  0.00  0.00    -0.094 A 
ATOM      9  C9  DEN d   1      -3.044  -0.492   0.724  0.00  0.00    -0.072 A 
ENDROOT
TORSDOF 0
ENDMDL
