MODEL 1
REMARK minimizedAffinity 2.94093108
REMARK minimizedRMSD -1
REMARK  0 active torsions:
REMARK  status: ('A' for Active; 'I' for Inactive)
ROOT
ATOM      1  C1  DEN d   1      -4.490   1.381   1.144  0.00  0.00     0.130 A 
ATOM      2  C2  DEN d   1      -5.138   0.778  -0.017  0.00  0.00    -0.031 A 
ATOM      3  C3  DEN d   1      -4.299  -0.348  -0.475  0.00  0.00     0.027 A 
ATOM      4  C4  DEN d   1      -2.074  -1.215   0.501  0.00  0.00     0.027 A 
ATOM      5  C5  DEN d   1      -1.125  -1.018   1.479  0.00  0.00    -0.003 A 
ATOM      6  C6  DEN d   1      -1.212   0.005   2.386  0.00  0.00     0.001 A 
ATOM      7  C7  DEN d   1      -2.296   0.843   2.361  0.00  0.00     0.017 A 
ATOM      8  C8  DEN d   1      -3.253   0.655   1.373  0.00  0.00    -0.094 A 
ATOM      9  C9  DEN d   1      -3.153  -0.392   0.473  0.00  0.00    -0.072 A 
ENDROOT
TORSDOF 0
ENDMDL
