MODEL 1
REMARK minimizedAffinity -0.398808777
REMARK minimizedRMSD -1
REMARK  0 active torsions:
REMARK  status: ('A' for Active; 'I' for Inactive)
ROOT
ATOM      1  C1  DEN d   1      -4.936  -0.148  -0.743  0.00  0.00     0.130 A 
ATOM      2  C2  DEN d   1      -6.000   0.719  -0.245  0.00  0.00    -0.031 A 
ATOM      3  C3  DEN d   1      -5.541   1.324   1.021  0.00  0.00     0.027 A 
ATOM      4  C4  DEN d   1      -3.296   1.006   2.251  0.00  0.00     0.027 A 
ATOM      5  C5  DEN d   1      -2.082   0.357   2.221  0.00  0.00    -0.003 A 
ATOM      6  C6  DEN d   1      -1.750  -0.525   1.226  0.00  0.00     0.001 A 
ATOM      7  C7  DEN d   1      -2.625  -0.748   0.196  0.00  0.00     0.017 A 
ATOM      8  C8  DEN d   1      -3.854  -0.102   0.224  0.00  0.00    -0.094 A 
ATOM      9  C9  DEN d   1      -4.166   0.795   1.231  0.00  0.00    -0.072 A 
ENDROOT
TORSDOF 0
ENDMDL
