MODEL 1
REMARK minimizedAffinity 1.12232709
REMARK minimizedRMSD -1
REMARK  0 active torsions:
REMARK  status: ('A' for Active; 'I' for Inactive)
ROOT
ATOM      1  C1  DEN d   1      -0.750   0.921  -4.504  0.00  0.00     0.130 A 
ATOM      2  C2  DEN d   1      -0.233   0.786  -5.862  0.00  0.00    -0.031 A 
ATOM      3  C3  DEN d   1       0.347  -0.565  -5.998  0.00  0.00     0.027 A 
ATOM      4  C4  DEN d   1       0.489  -2.453  -4.246  0.00  0.00     0.027 A 
ATOM      5  C5  DEN d   1       0.196  -2.803  -2.947  0.00  0.00    -0.003 A 
ATOM      6  C6  DEN d   1      -0.398  -1.931  -2.072  0.00  0.00     0.001 A 
ATOM      7  C7  DEN d   1      -0.759  -0.681  -2.500  0.00  0.00     0.017 A 
ATOM      8  C8  DEN d   1      -0.459  -0.318  -3.806  0.00  0.00    -0.094 A 
ATOM      9  C9  DEN d   1       0.130  -1.217  -4.679  0.00  0.00    -0.072 A 
ENDROOT
TORSDOF 0
ENDMDL
