MODEL 1
REMARK minimizedAffinity 3.26881242
REMARK minimizedRMSD -1
REMARK  0 active torsions:
REMARK  status: ('A' for Active; 'I' for Inactive)
ROOT
ATOM      1  C1  DEN d   1      -4.283   0.653   0.674  0.00  0.00     0.130 A 
ATOM      2  C2  DEN d   1      -4.227   1.596   1.787  0.00  0.00    -0.031 A 
ATOM      3  C3  DEN d   1      -2.998   1.319   2.559  0.00  0.00     0.027 A 
ATOM      4  C4  DEN d   1      -1.185  -0.466   2.136  0.00  0.00     0.027 A 
ATOM      5  C5  DEN d   1      -0.804  -1.507   1.319  0.00  0.00    -0.003 A 
ATOM      6  C6  DEN d   1      -1.566  -1.920   0.258  0.00  0.00     0.001 A 
ATOM      7  C7  DEN d   1      -2.728  -1.258  -0.041  0.00  0.00     0.017 A 
ATOM      8  C8  DEN d   1      -3.123  -0.213   0.783  0.00  0.00    -0.094 A 
ATOM      9  C9  DEN d   1      -2.332   0.197   1.843  0.00  0.00    -0.072 A 
ENDROOT
TORSDOF 0
ENDMDL
