MODEL 1
REMARK minimizedAffinity 14.7382622
REMARK minimizedRMSD -1
REMARK  0 active torsions:
REMARK  status: ('A' for Active; 'I' for Inactive)
ROOT
ATOM      1  C   UNL d   1       1.594  -1.942   3.415  0.00  0.00    -0.002 A 
ATOM      2  C1  UNL d   1       1.244  -2.069   2.078  0.00  0.00     0.010 A 
ATOM      3  C2  UNL d   1       1.412  -1.000   1.196  0.00  0.00     0.041 A 
ATOM      4  C3  UNL d   1       1.943   0.210   1.684  0.00  0.00    -0.075 A 
ATOM      5  S   UNL d   1       2.238   1.653   0.788  0.00  0.00     0.015 SA
ATOM      6  C4  UNL d   1       2.835   2.471   2.158  0.00  0.00     0.022 A 
ATOM      7  C5  UNL d   1       2.817   1.678   3.281  0.00  0.00     0.026 A 
ATOM      8  C6  UNL d   1       2.304   0.362   3.026  0.00  0.00    -0.082 A 
ATOM      9  C7  UNL d   1       2.121  -0.740   3.896  0.00  0.00     0.045 A 
ENDROOT
TORSDOF 0
ENDMDL
