MODEL 1
REMARK minimizedAffinity 9.72245693
REMARK minimizedRMSD -1
REMARK  0 active torsions:
REMARK  status: ('A' for Active; 'I' for Inactive)
ROOT
ATOM      1  C   UNL d   1       0.758  -3.063   0.676  0.00  0.00    -0.002 A 
ATOM      2  C1  UNL d   1       0.869  -1.764   1.151  0.00  0.00     0.010 A 
ATOM      3  C2  UNL d   1       1.533  -1.500   2.351  0.00  0.00     0.041 A 
ATOM      4  C3  UNL d   1       2.090  -2.574   3.071  0.00  0.00    -0.075 A 
ATOM      5  S   UNL d   1       2.949  -2.490   4.564  0.00  0.00     0.015 SA
ATOM      6  C4  UNL d   1       3.190  -4.177   4.606  0.00  0.00     0.022 A 
ATOM      7  C5  UNL d   1       2.635  -4.805   3.516  0.00  0.00     0.026 A 
ATOM      8  C6  UNL d   1       1.993  -3.891   2.613  0.00  0.00    -0.082 A 
ATOM      9  C7  UNL d   1       1.312  -4.126   1.394  0.00  0.00     0.045 A 
ENDROOT
TORSDOF 0
ENDMDL
