MODEL 1
REMARK minimizedAffinity 7.18828773
REMARK minimizedRMSD -1
REMARK  0 active torsions:
REMARK  status: ('A' for Active; 'I' for Inactive)
ROOT
ATOM      1  C   UNL d   1       1.619  -5.998  -5.294  0.00  0.00    -0.002 A 
ATOM      2  C1  UNL d   1       2.899  -6.000  -5.830  0.00  0.00     0.010 A 
ATOM      3  C2  UNL d   1       4.019  -5.999  -4.996  0.00  0.00     0.041 A 
ATOM      4  C3  UNL d   1       3.829  -5.998  -3.600  0.00  0.00    -0.075 A 
ATOM      5  S   UNL d   1       5.051  -5.998  -2.384  0.00  0.00     0.015 SA
ATOM      6  C4  UNL d   1       3.903  -5.997  -1.124  0.00  0.00     0.022 A 
ATOM      7  C5  UNL d   1       2.614  -5.996  -1.601  0.00  0.00     0.026 A 
ATOM      8  C6  UNL d   1       2.550  -5.998  -3.036  0.00  0.00    -0.082 A 
ATOM      9  C7  UNL d   1       1.435  -5.997  -3.908  0.00  0.00     0.045 A 
ENDROOT
TORSDOF 0
ENDMDL
