MODEL 1
REMARK minimizedAffinity 9.41797161
REMARK minimizedRMSD -1
REMARK  0 active torsions:
REMARK  status: ('A' for Active; 'I' for Inactive)
ROOT
ATOM      1  C   UNL d   1       1.797  -2.234   2.657  0.00  0.00    -0.002 A 
ATOM      2  C1  UNL d   1       1.564  -1.592   3.866  0.00  0.00     0.010 A 
ATOM      3  C2  UNL d   1       1.685  -0.205   3.968  0.00  0.00     0.041 A 
ATOM      4  C3  UNL d   1       2.045   0.534   2.825  0.00  0.00    -0.075 A 
ATOM      5  S   UNL d   1       2.252   2.242   2.713  0.00  0.00     0.015 SA
ATOM      6  C4  UNL d   1       2.653   2.161   1.059  0.00  0.00     0.022 A 
ATOM      7  C5  UNL d   1       2.635   0.870   0.587  0.00  0.00     0.026 A 
ATOM      8  C6  UNL d   1       2.284  -0.089   1.596  0.00  0.00    -0.082 A 
ATOM      9  C7  UNL d   1       2.154  -1.497   1.525  0.00  0.00     0.045 A 
ENDROOT
TORSDOF 0
ENDMDL
