MODEL 1
REMARK minimizedAffinity 13.8759661
REMARK minimizedRMSD -1
REMARK  0 active torsions:
REMARK  status: ('A' for Active; 'I' for Inactive)
ROOT
ATOM      1  C   UNL d   1       2.740  -2.310   3.579  0.00  0.00    -0.002 A 
ATOM      2  C1  UNL d   1       3.738  -2.789   4.416  0.00  0.00     0.010 A 
ATOM      3  C2  UNL d   1       3.526  -3.928   5.195  0.00  0.00     0.041 A 
ATOM      4  C3  UNL d   1       2.283  -4.585   5.116  0.00  0.00    -0.075 A 
ATOM      5  S   UNL d   1       1.798  -5.998   5.977  0.00  0.00     0.015 SA
ATOM      6  C4  UNL d   1       0.255  -6.000   5.253  0.00  0.00     0.022 A 
ATOM      7  C5  UNL d   1       0.096  -4.955   4.374  0.00  0.00     0.026 A 
ATOM      8  C6  UNL d   1       1.262  -4.123   4.280  0.00  0.00    -0.082 A 
ATOM      9  C7  UNL d   1       1.508  -2.965   3.504  0.00  0.00     0.045 A 
ENDROOT
TORSDOF 0
ENDMDL
