MODEL 1
REMARK minimizedAffinity 12.2410393
REMARK minimizedRMSD -1
REMARK  0 active torsions:
REMARK  status: ('A' for Active; 'I' for Inactive)
ROOT
ATOM      1  C   UNL d   1       1.995  -2.235   3.357  0.00  0.00    -0.002 A 
ATOM      2  C1  UNL d   1       1.939  -1.574   4.576  0.00  0.00     0.010 A 
ATOM      3  C2  UNL d   1       2.131  -0.193   4.645  0.00  0.00     0.041 A 
ATOM      4  C3  UNL d   1       2.382   0.520   3.456  0.00  0.00    -0.075 A 
ATOM      5  S   UNL d   1       2.648   2.216   3.298  0.00  0.00     0.015 SA
ATOM      6  C4  UNL d   1       2.842   2.104   1.609  0.00  0.00     0.022 A 
ATOM      7  C5  UNL d   1       2.711   0.812   1.159  0.00  0.00     0.026 A 
ATOM      8  C6  UNL d   1       2.443  -0.123   2.217  0.00  0.00    -0.082 A 
ATOM      9  C7  UNL d   1       2.244  -1.524   2.180  0.00  0.00     0.045 A 
ENDROOT
TORSDOF 0
ENDMDL
