MODEL 1
REMARK minimizedAffinity 2.61753583
REMARK minimizedRMSD -1
REMARK  1 active torsions:
REMARK  status: ('A' for Active; 'I' for Inactive)
REMARK    1  A    between atoms: N_2  and  C1_3 
ROOT
ATOM      1  C1  UNL d   1      -4.663  -3.524  -5.432  0.00  0.00     0.143 A 
ATOM      2  C2  UNL d   1      -3.891  -4.615  -5.846  0.00  0.00    -0.057 A 
ATOM      3  C3  UNL d   1      -3.956  -5.845  -5.180  0.00  0.00     0.033 A 
ATOM      4  C4  UNL d   1      -4.774  -5.997  -4.065  0.00  0.00    -0.042 A 
ATOM      5  C5  UNL d   1      -5.531  -4.918  -3.621  0.00  0.00     0.033 A 
ATOM      6  C6  UNL d   1      -5.468  -3.695  -4.295  0.00  0.00    -0.057 A 
ENDROOT
BRANCH   1   7
ATOM      7  N   UNL d   1      -4.570  -2.248  -5.993  0.00  0.00    -0.732 N 
ATOM      8  C   UNL d   1      -5.679  -1.323  -5.909  0.00  0.00     0.284 C 
ATOM      9  H3  UNL d   1      -3.660  -1.821  -5.836  0.00  0.00     0.395 HD
ENDBRANCH   1   7
TORSDOF 1
ENDMDL
