MODEL 1
REMARK minimizedAffinity -0.637194335
REMARK minimizedRMSD -1
REMARK  1 active torsions:
REMARK  status: ('A' for Active; 'I' for Inactive)
REMARK    1  A    between atoms: N_2  and  C1_3 
ROOT
ATOM      1  C1  UNL d   1      -5.226  -4.125  -4.088  0.00  0.00     0.143 A 
ATOM      2  C2  UNL d   1      -5.626  -3.263  -3.061  0.00  0.00    -0.057 A 
ATOM      3  C3  UNL d   1      -5.988  -3.754  -1.801  0.00  0.00     0.033 A 
ATOM      4  C4  UNL d   1      -5.984  -5.123  -1.553  0.00  0.00    -0.042 A 
ATOM      5  C5  UNL d   1      -5.615  -6.000  -2.567  0.00  0.00     0.033 A 
ATOM      6  C6  UNL d   1      -5.248  -5.503  -3.821  0.00  0.00    -0.057 A 
ENDROOT
BRANCH   1   7
ATOM      7  N   UNL d   1      -4.949  -3.706  -5.392  0.00  0.00    -0.732 N 
ATOM      8  C   UNL d   1      -3.666  -3.986  -5.999  0.00  0.00     0.284 C 
ATOM      9  H3  UNL d   1      -5.742  -3.834  -6.017  0.00  0.00     0.395 HD
ENDBRANCH   1   7
TORSDOF 1
ENDMDL
