MODEL 1
REMARK minimizedAffinity 3.8207345
REMARK minimizedRMSD -1
REMARK  1 active torsions:
REMARK  status: ('A' for Active; 'I' for Inactive)
REMARK    1  A    between atoms: N_2  and  C1_3 
ROOT
ATOM      1  C1  UNL d   1      -5.282  -4.876  -3.715  0.00  0.00     0.143 A 
ATOM      2  C2  UNL d   1      -3.897  -5.075  -3.729  0.00  0.00    -0.057 A 
ATOM      3  C3  UNL d   1      -3.247  -5.573  -4.864  0.00  0.00     0.033 A 
ATOM      4  C4  UNL d   1      -3.976  -5.909  -6.000  0.00  0.00    -0.042 A 
ATOM      5  C5  UNL d   1      -5.357  -5.743  -6.000  0.00  0.00     0.033 A 
ATOM      6  C6  UNL d   1      -6.000  -5.239  -4.865  0.00  0.00    -0.057 A 
ENDROOT
BRANCH   1   7
ATOM      7  N   UNL d   1      -5.999  -4.478  -2.584  0.00  0.00    -0.732 N 
ATOM      8  C   UNL d   1      -5.632  -3.277  -1.864  0.00  0.00     0.284 C 
ATOM      9  H3  UNL d   1      -7.002  -4.605  -2.695  0.00  0.00     0.395 HD
ENDBRANCH   1   7
TORSDOF 1
ENDMDL
