MODEL 1
REMARK minimizedAffinity 0.271700382
REMARK minimizedRMSD -1
REMARK  1 active torsions:
REMARK  status: ('A' for Active; 'I' for Inactive)
REMARK    1  A    between atoms: N_2  and  C1_3 
ROOT
ATOM      1  C1  UNL d   1      -5.003  -4.646  -3.180  0.00  0.00     0.143 A 
ATOM      2  C2  UNL d   1      -5.133  -3.513  -3.991  0.00  0.00    -0.057 A 
ATOM      3  C3  UNL d   1      -5.126  -3.615  -5.388  0.00  0.00     0.033 A 
ATOM      4  C4  UNL d   1      -4.960  -4.853  -6.000  0.00  0.00    -0.042 A 
ATOM      5  C5  UNL d   1      -4.804  -5.989  -5.214  0.00  0.00     0.033 A 
ATOM      6  C6  UNL d   1      -4.818  -5.882  -3.820  0.00  0.00    -0.057 A 
ENDROOT
BRANCH   1   7
ATOM      7  N   UNL d   1      -4.903  -4.598  -1.788  0.00  0.00    -0.732 N 
ATOM      8  C   UNL d   1      -4.165  -5.613  -1.067  0.00  0.00     0.284 C 
ATOM      9  H3  UNL d   1      -4.758  -3.653  -1.441  0.00  0.00     0.395 HD
ENDBRANCH   1   7
TORSDOF 1
ENDMDL
