MODEL 1
REMARK minimizedAffinity -2.79110289
REMARK minimizedRMSD -1
REMARK  1 active torsions:
REMARK  status: ('A' for Active; 'I' for Inactive)
REMARK    1  A    between atoms: N_2  and  C1_3 
ROOT
ATOM      1  C1  UNL d   1      -5.079  -4.982  -3.867  0.00  0.00     0.143 A 
ATOM      2  C2  UNL d   1      -5.981  -4.250  -3.087  0.00  0.00    -0.057 A 
ATOM      3  C3  UNL d   1      -5.997  -4.367  -1.692  0.00  0.00     0.033 A 
ATOM      4  C4  UNL d   1      -5.127  -5.244  -1.052  0.00  0.00    -0.042 A 
ATOM      5  C5  UNL d   1      -4.239  -6.000  -1.809  0.00  0.00     0.033 A 
ATOM      6  C6  UNL d   1      -4.223  -5.873  -3.201  0.00  0.00    -0.057 A 
ENDROOT
BRANCH   1   7
ATOM      7  N   UNL d   1      -5.081  -4.982  -5.264  0.00  0.00    -0.732 N 
ATOM      8  C   UNL d   1      -5.979  -5.846  -6.000  0.00  0.00     0.284 C 
ATOM      9  H3  UNL d   1      -4.993  -4.046  -5.653  0.00  0.00     0.395 HD
ENDBRANCH   1   7
TORSDOF 1
ENDMDL
