MODEL 1
REMARK minimizedAffinity -1.61955667
REMARK minimizedRMSD -1
REMARK  1 active torsions:
REMARK  status: ('A' for Active; 'I' for Inactive)
REMARK    1  A    between atoms: C3_4  and  O_7 
ROOT
ATOM      1  C   UNL d   1       5.065  -0.805   5.244  0.00  0.00    -0.033 A 
ATOM      2  C1  UNL d   1       6.000  -1.524   5.992  0.00  0.00     0.039 A 
ATOM      3  C2  UNL d   1       5.966  -2.919   6.000  0.00  0.00    -0.080 A 
ATOM      4  C3  UNL d   1       4.995  -3.583   5.256  0.00  0.00     0.150 A 
ATOM      5  C4  UNL d   1       4.063  -2.874   4.505  0.00  0.00    -0.007 A 
ATOM      6  C5  UNL d   1       4.098  -1.480   4.499  0.00  0.00     0.039 A 
ENDROOT
BRANCH   4   7
ATOM      7  O   UNL d   1       4.919  -4.944   5.236  0.00  0.00    -0.526 OA
ATOM      8  H5  UNL d   1       5.608  -5.299   5.823  0.00  0.00     0.418 HD
ENDBRANCH   4   7
TORSDOF 1
ENDMDL
