MODEL 1
REMARK minimizedAffinity -3.0239799
REMARK minimizedRMSD -1
REMARK  1 active torsions:
REMARK  status: ('A' for Active; 'I' for Inactive)
REMARK    1  A    between atoms: C3_4  and  O_7 
ROOT
ATOM      1  C   UNL d   1       5.065  -2.640   6.000  0.00  0.00    -0.033 A 
ATOM      2  C1  UNL d   1       5.999  -1.607   5.917  0.00  0.00     0.039 A 
ATOM      3  C2  UNL d   1       5.998  -0.749   4.815  0.00  0.00    -0.080 A 
ATOM      4  C3  UNL d   1       5.058  -0.934   3.806  0.00  0.00     0.150 A 
ATOM      5  C4  UNL d   1       4.121  -1.960   3.884  0.00  0.00    -0.007 A 
ATOM      6  C5  UNL d   1       4.124  -2.816   4.984  0.00  0.00     0.039 A 
ENDROOT
BRANCH   4   7
ATOM      7  O   UNL d   1       5.020  -0.126   2.709  0.00  0.00    -0.526 OA
ATOM      8  H5  UNL d   1       5.744   0.519   2.778  0.00  0.00     0.418 HD
ENDBRANCH   4   7
TORSDOF 1
ENDMDL
