MODEL 1
REMARK minimizedAffinity -3.38933039
REMARK minimizedRMSD -1
REMARK  1 active torsions:
REMARK  status: ('A' for Active; 'I' for Inactive)
REMARK    1  A    between atoms: C3_4  and  O_7 
ROOT
ATOM      1  C   UNL d   1       5.623   1.369   5.027  0.00  0.00    -0.033 A 
ATOM      2  C1  UNL d   1       5.977   0.433   6.000  0.00  0.00     0.039 A 
ATOM      3  C2  UNL d   1       5.797  -0.930   5.757  0.00  0.00    -0.080 A 
ATOM      4  C3  UNL d   1       5.265  -1.343   4.539  0.00  0.00     0.150 A 
ATOM      5  C4  UNL d   1       4.913  -0.416   3.564  0.00  0.00    -0.007 A 
ATOM      6  C5  UNL d   1       5.092   0.945   3.808  0.00  0.00     0.039 A 
ENDROOT
BRANCH   4   7
ATOM      7  O   UNL d   1       5.067  -2.663   4.259  0.00  0.00    -0.526 OA
ATOM      8  H5  UNL d   1       5.328  -3.185   5.035  0.00  0.00     0.418 HD
ENDBRANCH   4   7
TORSDOF 1
ENDMDL
