MODEL 1
REMARK minimizedAffinity -2.3733356
REMARK minimizedRMSD -1
REMARK  1 active torsions:
REMARK  status: ('A' for Active; 'I' for Inactive)
REMARK    1  A    between atoms: C3_4  and  O_7 
ROOT
ATOM      1  C   UNL d   1       5.553   2.101   4.805  0.00  0.00    -0.033 A 
ATOM      2  C1  UNL d   1       5.693   1.394   3.609  0.00  0.00     0.039 A 
ATOM      3  C2  UNL d   1       5.613   0.000   3.607  0.00  0.00    -0.080 A 
ATOM      4  C3  UNL d   1       5.394  -0.673   4.805  0.00  0.00     0.150 A 
ATOM      5  C4  UNL d   1       5.250   0.025   6.000  0.00  0.00    -0.007 A 
ATOM      6  C5  UNL d   1       5.330   1.417   6.000  0.00  0.00     0.039 A 
ENDROOT
BRANCH   4   7
ATOM      7  O   UNL d   1       5.314  -2.034   4.854  0.00  0.00    -0.526 OA
ATOM      8  H5  UNL d   1       5.460  -2.383   3.959  0.00  0.00     0.418 HD
ENDBRANCH   4   7
TORSDOF 1
ENDMDL
