MODEL 1
REMARK minimizedAffinity -3.28575301
REMARK minimizedRMSD -1
REMARK  1 active torsions:
REMARK  status: ('A' for Active; 'I' for Inactive)
REMARK    1  A    between atoms: C3_4  and  O_7 
ROOT
ATOM      1  C   UNL d   1       5.426  -0.568   4.802  0.00  0.00    -0.033 A 
ATOM      2  C1  UNL d   1       5.246   0.134   5.995  0.00  0.00     0.039 A 
ATOM      3  C2  UNL d   1       5.266   1.531   5.995  0.00  0.00    -0.080 A 
ATOM      4  C3  UNL d   1       5.465   2.211   4.796  0.00  0.00     0.150 A 
ATOM      5  C4  UNL d   1       5.640   1.517   3.604  0.00  0.00    -0.007 A 
ATOM      6  C5  UNL d   1       5.621   0.123   3.606  0.00  0.00     0.039 A 
ENDROOT
BRANCH   4   7
ATOM      7  O   UNL d   1       5.496   3.573   4.747  0.00  0.00    -0.526 OA
ATOM      8  H5  UNL d   1       5.390   3.916   5.650  0.00  0.00     0.418 HD
ENDBRANCH   4   7
TORSDOF 1
ENDMDL
