MODEL 1
REMARK minimizedAffinity 7.71673584
REMARK minimizedRMSD -1
REMARK  1 active torsions:
REMARK  status: ('A' for Active; 'I' for Inactive)
REMARK    1  A    between atoms: C3_4  and  O_7 
ROOT
ATOM      1  C   UNL d   1       0.753  -3.126  -0.097  0.00  0.00    -0.033 A 
ATOM      2  C1  UNL d   1       1.922  -2.548  -0.597  0.00  0.00     0.039 A 
ATOM      3  C2  UNL d   1       1.973  -1.174  -0.845  0.00  0.00    -0.080 A 
ATOM      4  C3  UNL d   1       0.850  -0.392  -0.588  0.00  0.00     0.150 A 
ATOM      5  C4  UNL d   1      -0.316  -0.961  -0.086  0.00  0.00    -0.007 A 
ATOM      6  C5  UNL d   1      -0.365  -2.332   0.159  0.00  0.00     0.039 A 
ENDROOT
BRANCH   4   7
ATOM      7  O   UNL d   1       0.850   0.952  -0.818  0.00  0.00    -0.526 OA
ATOM      8  H5  UNL d   1       1.713   1.200  -1.191  0.00  0.00     0.418 HD
ENDBRANCH   4   7
TORSDOF 1
ENDMDL
