MODEL 1
REMARK minimizedAffinity -3.0188601
REMARK minimizedRMSD -1
REMARK  1 active torsions:
REMARK  status: ('A' for Active; 'I' for Inactive)
REMARK    1  A    between atoms: C3_4  and  O_7 
ROOT
ATOM      1  C   UNL d   1       5.969  -3.083   4.812  0.00  0.00    -0.033 A 
ATOM      2  C1  UNL d   1       5.938  -2.349   6.000  0.00  0.00     0.039 A 
ATOM      3  C2  UNL d   1       5.940  -0.953   5.960  0.00  0.00    -0.080 A 
ATOM      4  C3  UNL d   1       5.971  -0.305   4.728  0.00  0.00     0.150 A 
ATOM      5  C4  UNL d   1       5.997  -1.030   3.541  0.00  0.00    -0.007 A 
ATOM      6  C5  UNL d   1       5.997  -2.423   3.583  0.00  0.00     0.039 A 
ENDROOT
BRANCH   4   7
ATOM      7  O   UNL d   1       5.978   1.056   4.639  0.00  0.00    -0.526 OA
ATOM      8  H5  UNL d   1       5.986   1.423   5.539  0.00  0.00     0.418 HD
ENDBRANCH   4   7
TORSDOF 1
ENDMDL
