MODEL 1
REMARK minimizedAffinity -3.28736019
REMARK minimizedRMSD -1
REMARK  1 active torsions:
REMARK  status: ('A' for Active; 'I' for Inactive)
REMARK    1  A    between atoms: C3_4  and  O_7 
ROOT
ATOM      1  C   UNL d   1       5.631   2.626   4.637  0.00  0.00    -0.033 A 
ATOM      2  C1  UNL d   1       5.635   1.839   3.484  0.00  0.00     0.039 A 
ATOM      3  C2  UNL d   1       5.640   0.447   3.587  0.00  0.00    -0.080 A 
ATOM      4  C3  UNL d   1       5.641  -0.145   4.847  0.00  0.00     0.150 A 
ATOM      5  C4  UNL d   1       5.633   0.633   6.000  0.00  0.00    -0.007 A 
ATOM      6  C5  UNL d   1       5.629   2.023   5.895  0.00  0.00     0.039 A 
ENDROOT
BRANCH   4   7
ATOM      7  O   UNL d   1       5.651  -1.500   4.997  0.00  0.00    -0.526 OA
ATOM      8  H5  UNL d   1       5.685  -1.907   4.116  0.00  0.00     0.418 HD
ENDBRANCH   4   7
TORSDOF 1
ENDMDL
