MODEL 1
REMARK minimizedAffinity 5.99010277
REMARK minimizedRMSD -1
REMARK  1 active torsions:
REMARK  status: ('A' for Active; 'I' for Inactive)
REMARK    1  A    between atoms: C3_4  and  O_7 
ROOT
ATOM      1  C   UNL d   1       1.727  -2.656   0.347  0.00  0.00    -0.033 A 
ATOM      2  C1  UNL d   1       0.372  -2.342   0.223  0.00  0.00     0.039 A 
ATOM      3  C2  UNL d   1      -0.018  -1.042  -0.105  0.00  0.00    -0.080 A 
ATOM      4  C3  UNL d   1       0.955  -0.067  -0.307  0.00  0.00     0.150 A 
ATOM      5  C4  UNL d   1       2.306  -0.374  -0.189  0.00  0.00    -0.007 A 
ATOM      6  C5  UNL d   1       2.694  -1.672   0.139  0.00  0.00     0.039 A 
ENDROOT
BRANCH   4   7
ATOM      7  O   UNL d   1       0.622   1.216  -0.625  0.00  0.00    -0.526 OA
ATOM      8  H5  UNL d   1      -0.347   1.288  -0.644  0.00  0.00     0.418 HD
ENDBRANCH   4   7
TORSDOF 1
ENDMDL
