MODEL 1
REMARK minimizedAffinity 2.72895432
REMARK minimizedRMSD -1
REMARK  1 active torsions:
REMARK  status: ('A' for Active; 'I' for Inactive)
REMARK    1  A    between atoms: C3_4  and  O_7 
ROOT
ATOM      1  C   UNL d   1       0.498   1.248  -0.990  0.00  0.00    -0.033 A 
ATOM      2  C1  UNL d   1       0.201  -0.052  -0.576  0.00  0.00     0.039 A 
ATOM      3  C2  UNL d   1      -0.358  -0.275   0.684  0.00  0.00    -0.080 A 
ATOM      4  C3  UNL d   1      -0.617   0.809   1.518  0.00  0.00     0.150 A 
ATOM      5  C4  UNL d   1      -0.327   2.107   1.110  0.00  0.00    -0.007 A 
ATOM      6  C5  UNL d   1       0.232   2.327  -0.147  0.00  0.00     0.039 A 
ENDROOT
BRANCH   4   7
ATOM      7  O   UNL d   1      -1.158   0.641   2.758  0.00  0.00    -0.526 OA
ATOM      8  H5  UNL d   1      -1.278  -0.311   2.915  0.00  0.00     0.418 HD
ENDBRANCH   4   7
TORSDOF 1
ENDMDL
