MODEL 1
REMARK minimizedAffinity -2.31995153
REMARK minimizedRMSD -1
REMARK  1 active torsions:
REMARK  status: ('A' for Active; 'I' for Inactive)
REMARK    1  A    between atoms: C3_4  and  O_7 
ROOT
ATOM      1  C   UNL d   1       5.622   3.014   4.744  0.00  0.00    -0.033 A 
ATOM      2  C1  UNL d   1       5.241   2.260   3.633  0.00  0.00     0.039 A 
ATOM      3  C2  UNL d   1       5.235   0.865   3.703  0.00  0.00    -0.080 A 
ATOM      4  C3  UNL d   1       5.610   0.239   4.888  0.00  0.00     0.150 A 
ATOM      5  C4  UNL d   1       5.987   0.985   6.000  0.00  0.00    -0.007 A 
ATOM      6  C5  UNL d   1       5.994   2.377   5.928  0.00  0.00     0.039 A 
ENDROOT
BRANCH   4   7
ATOM      7  O   UNL d   1       5.625  -1.120   5.002  0.00  0.00    -0.526 OA
ATOM      8  H5  UNL d   1       5.369  -1.503   4.147  0.00  0.00     0.418 HD
ENDBRANCH   4   7
TORSDOF 1
ENDMDL
