MODEL 1
REMARK minimizedAffinity -0.0542632714
REMARK minimizedRMSD -1
REMARK  1 active torsions:
REMARK  status: ('A' for Active; 'I' for Inactive)
REMARK    1  A    between atoms: C3_4  and  O_7 
ROOT
ATOM      1  C   UNL d   1      -0.891  -0.640  -0.256  0.00  0.00    -0.033 A 
ATOM      2  C1  UNL d   1      -0.090   0.184  -1.050  0.00  0.00     0.039 A 
ATOM      3  C2  UNL d   1       1.111  -0.300  -1.572  0.00  0.00    -0.080 A 
ATOM      4  C3  UNL d   1       1.498  -1.608  -1.295  0.00  0.00     0.150 A 
ATOM      5  C4  UNL d   1       0.704  -2.435  -0.508  0.00  0.00    -0.007 A 
ATOM      6  C5  UNL d   1      -0.495  -1.950   0.013  0.00  0.00     0.039 A 
ENDROOT
BRANCH   4   7
ATOM      7  O   UNL d   1       2.664  -2.124  -1.778  0.00  0.00    -0.526 OA
ATOM      8  H5  UNL d   1       3.123  -1.429  -2.281  0.00  0.00     0.418 HD
ENDBRANCH   4   7
TORSDOF 1
ENDMDL
