MODEL 1
REMARK minimizedAffinity 1.93884504
REMARK minimizedRMSD -1
REMARK  1 active torsions:
REMARK  status: ('A' for Active; 'I' for Inactive)
REMARK    1  A    between atoms: C3_4  and  O_7 
ROOT
ATOM      1  C   UNL d   1       5.207   1.005   5.011  0.00  0.00    -0.033 A 
ATOM      2  C1  UNL d   1       4.543   0.274   4.023  0.00  0.00     0.039 A 
ATOM      3  C2  UNL d   1       4.608  -1.120   4.021  0.00  0.00    -0.080 A 
ATOM      4  C3  UNL d   1       5.339  -1.772   5.011  0.00  0.00     0.150 A 
ATOM      5  C4  UNL d   1       6.000  -1.051   6.000  0.00  0.00    -0.007 A 
ATOM      6  C5  UNL d   1       5.934   0.342   6.000  0.00  0.00     0.039 A 
ENDROOT
BRANCH   4   7
ATOM      7  O   UNL d   1       5.435  -3.131   5.048  0.00  0.00    -0.526 OA
ATOM      8  H5  UNL d   1       4.952  -3.494   4.287  0.00  0.00     0.418 HD
ENDBRANCH   4   7
TORSDOF 1
ENDMDL
