MODEL 1
REMARK minimizedAffinity -3.40287781
REMARK minimizedRMSD -1
REMARK  1 active torsions:
REMARK  status: ('A' for Active; 'I' for Inactive)
REMARK    1  A    between atoms: C1_2  and  C2_3 
ROOT
ATOM      1  C2  UNL d   1      -0.172   0.246  -1.094  0.00  0.00    -0.076 A 
ATOM      2  C3  UNL d   1      -0.081   1.299  -2.021  0.00  0.00     0.004 A 
ATOM      3  C4  UNL d   1      -0.069   2.628  -1.599  0.00  0.00    -0.003 A 
ATOM      4  C5  UNL d   1      -0.149   2.925  -0.243  0.00  0.00     0.000 A 
ATOM      5  C6  UNL d   1      -0.222   1.892   0.692  0.00  0.00     0.000 A 
ATOM      6  C7  UNL d   1      -0.218   0.547   0.284  0.00  0.00    -0.073 A 
ATOM      7  C8  UNL d   1      -0.305  -0.526   1.334  0.00  0.00     0.078 C 
ENDROOT
BRANCH   1   8
ATOM      8  C1  UNL d   1      -0.207  -1.174  -1.613  0.00  0.00     0.053 C 
ATOM      9  C   UNL d   1      -1.615  -1.632  -1.962  0.00  0.00     0.018 C 
ENDBRANCH   1   8
TORSDOF 1
ENDMDL
