MODEL 1
REMARK minimizedAffinity -5.74298382
REMARK minimizedRMSD -1
REMARK  1 active torsions:
REMARK  status: ('A' for Active; 'I' for Inactive)
REMARK    1  A    between atoms: C1_2  and  C2_3 
ROOT
ATOM      1  C2  UNL d   1       0.553   0.509   0.129  0.00  0.00    -0.076 A 
ATOM      2  C3  UNL d   1      -0.812   0.841   0.076  0.00  0.00     0.004 A 
ATOM      3  C4  UNL d   1      -1.230   2.169   0.126  0.00  0.00    -0.003 A 
ATOM      4  C5  UNL d   1      -0.289   3.188   0.228  0.00  0.00     0.000 A 
ATOM      5  C6  UNL d   1       1.070   2.879   0.264  0.00  0.00     0.000 A 
ATOM      6  C7  UNL d   1       1.509   1.545   0.199  0.00  0.00    -0.073 A 
ATOM      7  C8  UNL d   1       2.986   1.268   0.247  0.00  0.00     0.078 C 
ENDROOT
BRANCH   1   8
ATOM      8  C1  UNL d   1       0.945  -0.951   0.099  0.00  0.00     0.053 C 
ATOM      9  C   UNL d   1      -0.053  -1.807  -0.666  0.00  0.00     0.018 C 
ENDBRANCH   1   8
TORSDOF 1
ENDMDL
