MODEL 1
REMARK minimizedAffinity -3.87453723
REMARK minimizedRMSD -1
REMARK  1 active torsions:
REMARK  status: ('A' for Active; 'I' for Inactive)
REMARK    1  A    between atoms: C1_2  and  C2_3 
ROOT
ATOM      1  C2  UNL d   1      -0.229   0.409  -0.032  0.00  0.00    -0.076 A 
ATOM      2  C3  UNL d   1       0.642   1.166  -0.835  0.00  0.00     0.004 A 
ATOM      3  C4  UNL d   1       0.543   2.555  -0.890  0.00  0.00    -0.003 A 
ATOM      4  C5  UNL d   1      -0.429   3.211  -0.141  0.00  0.00     0.000 A 
ATOM      5  C6  UNL d   1      -1.290   2.477   0.674  0.00  0.00     0.000 A 
ATOM      6  C7  UNL d   1      -1.193   1.077   0.753  0.00  0.00    -0.073 A 
ATOM      7  C8  UNL d   1      -2.151   0.336   1.645  0.00  0.00     0.078 C 
ENDROOT
BRANCH   1   8
ATOM      8  C1  UNL d   1      -0.091  -1.096  -0.034  0.00  0.00     0.053 C 
ATOM      9  C   UNL d   1      -0.127  -1.683  -1.437  0.00  0.00     0.018 C 
ENDBRANCH   1   8
TORSDOF 1
ENDMDL
