MODEL 1
REMARK minimizedAffinity -1.29531765
REMARK minimizedRMSD -1
REMARK  1 active torsions:
REMARK  status: ('A' for Active; 'I' for Inactive)
REMARK    1  A    between atoms: C1_2  and  C2_3 
ROOT
ATOM      1  C2  UNL d   1       0.708   1.161  -0.227  0.00  0.00    -0.076 A 
ATOM      2  C3  UNL d   1       0.172  -0.121  -0.014  0.00  0.00     0.004 A 
ATOM      3  C4  UNL d   1      -1.043  -0.290   0.647  0.00  0.00    -0.003 A 
ATOM      4  C5  UNL d   1      -1.743   0.821   1.105  0.00  0.00     0.000 A 
ATOM      5  C6  UNL d   1      -1.235   2.101   0.887  0.00  0.00     0.000 A 
ATOM      6  C7  UNL d   1      -0.019   2.289   0.208  0.00  0.00    -0.073 A 
ATOM      7  C8  UNL d   1       0.485   3.692   0.006  0.00  0.00     0.078 C 
ENDROOT
BRANCH   1   8
ATOM      8  C1  UNL d   1       2.044   1.280  -0.925  0.00  0.00     0.053 C 
ATOM      9  C   UNL d   1       3.217   1.131   0.031  0.00  0.00     0.018 C 
ENDBRANCH   1   8
TORSDOF 1
ENDMDL
