MODEL 1
REMARK minimizedAffinity -1.13808501
REMARK minimizedRMSD -1
REMARK  1 active torsions:
REMARK  status: ('A' for Active; 'I' for Inactive)
REMARK    1  A    between atoms: C1_2  and  C2_3 
ROOT
ATOM      1  C2  UNL d   1       0.563   0.991   0.689  0.00  0.00    -0.076 A 
ATOM      2  C3  UNL d   1      -0.149  -0.218   0.782  0.00  0.00     0.004 A 
ATOM      3  C4  UNL d   1      -1.542  -0.228   0.832  0.00  0.00    -0.003 A 
ATOM      4  C5  UNL d   1      -2.246   0.970   0.790  0.00  0.00     0.000 A 
ATOM      5  C6  UNL d   1      -1.557   2.177   0.681  0.00  0.00     0.000 A 
ATOM      6  C7  UNL d   1      -0.153   2.205   0.612  0.00  0.00    -0.073 A 
ATOM      7  C8  UNL d   1       0.538   3.536   0.501  0.00  0.00     0.078 C 
ENDROOT
BRANCH   1   8
ATOM      8  C1  UNL d   1       2.074   0.942   0.665  0.00  0.00     0.053 C 
ATOM      9  C   UNL d   1       2.611  -0.481   0.676  0.00  0.00     0.018 C 
ENDBRANCH   1   8
TORSDOF 1
ENDMDL
