MODEL 1
REMARK minimizedAffinity -3.41752028
REMARK minimizedRMSD -1
REMARK  1 active torsions:
REMARK  status: ('A' for Active; 'I' for Inactive)
REMARK    1  A    between atoms: C1_2  and  C2_3 
ROOT
ATOM      1  C2  UNL d   1       0.104   0.161  -0.032  0.00  0.00    -0.076 A 
ATOM      2  C3  UNL d   1       1.156   0.832  -0.677  0.00  0.00     0.004 A 
ATOM      3  C4  UNL d   1       1.290   2.216  -0.581  0.00  0.00    -0.003 A 
ATOM      4  C5  UNL d   1       0.373   2.951   0.162  0.00  0.00     0.000 A 
ATOM      5  C6  UNL d   1      -0.667   2.299   0.824  0.00  0.00     0.000 A 
ATOM      6  C7  UNL d   1      -0.806   0.903   0.751  0.00  0.00    -0.073 A 
ATOM      7  C8  UNL d   1      -1.950   0.252   1.479  0.00  0.00     0.078 C 
ENDROOT
BRANCH   1   8
ATOM      8  C1  UNL d   1      -0.006  -1.339  -0.194  0.00  0.00     0.053 C 
ATOM      9  C   UNL d   1      -0.341  -1.748  -1.620  0.00  0.00     0.018 C 
ENDBRANCH   1   8
TORSDOF 1
ENDMDL
