MODEL 1
REMARK minimizedAffinity -5.99093819
REMARK minimizedRMSD -1
REMARK  1 active torsions:
REMARK  status: ('A' for Active; 'I' for Inactive)
REMARK    1  A    between atoms: C1_2  and  C2_3 
ROOT
ATOM      1  C2  UNL d   1       0.589   1.271  -0.511  0.00  0.00    -0.076 A 
ATOM      2  C3  UNL d   1       1.900   0.915  -0.149  0.00  0.00     0.004 A 
ATOM      3  C4  UNL d   1       2.212  -0.392   0.221  0.00  0.00    -0.003 A 
ATOM      4  C5  UNL d   1       1.218  -1.365   0.235  0.00  0.00     0.000 A 
ATOM      5  C6  UNL d   1      -0.084  -1.033  -0.138  0.00  0.00     0.000 A 
ATOM      6  C7  UNL d   1      -0.412   0.276  -0.530  0.00  0.00    -0.073 A 
ATOM      7  C8  UNL d   1      -1.834   0.579  -0.917  0.00  0.00     0.078 C 
ENDROOT
BRANCH   1   8
ATOM      8  C1  UNL d   1       0.304   2.710  -0.877  0.00  0.00     0.053 C 
ATOM      9  C   UNL d   1      -0.114   3.545   0.324  0.00  0.00     0.018 C 
ENDBRANCH   1   8
TORSDOF 1
ENDMDL
