MODEL 1
REMARK minimizedAffinity -4.43478918
REMARK minimizedRMSD -1
REMARK  1 active torsions:
REMARK  status: ('A' for Active; 'I' for Inactive)
REMARK    1  A    between atoms: C1_2  and  C2_3 
ROOT
ATOM      1  C2  UNL d   1       0.323   0.432  -0.117  0.00  0.00    -0.076 A 
ATOM      2  C3  UNL d   1       1.171   1.310  -0.814  0.00  0.00     0.004 A 
ATOM      3  C4  UNL d   1       0.939   2.685  -0.812  0.00  0.00    -0.003 A 
ATOM      4  C5  UNL d   1      -0.144   3.203  -0.111  0.00  0.00     0.000 A 
ATOM      5  C6  UNL d   1      -0.985   2.349   0.600  0.00  0.00     0.000 A 
ATOM      6  C7  UNL d   1      -0.756   0.962   0.622  0.00  0.00    -0.073 A 
ATOM      7  C8  UNL d   1      -1.699   0.087   1.401  0.00  0.00     0.078 C 
ENDROOT
BRANCH   1   8
ATOM      8  C1  UNL d   1       0.609  -1.051  -0.178  0.00  0.00     0.053 C 
ATOM      9  C   UNL d   1       0.196  -1.670  -1.505  0.00  0.00     0.018 C 
ENDBRANCH   1   8
TORSDOF 1
ENDMDL
