MODEL 1
REMARK minimizedAffinity -3.97795486
REMARK minimizedRMSD -1
REMARK  1 active torsions:
REMARK  status: ('A' for Active; 'I' for Inactive)
REMARK    1  A    between atoms: C1_2  and  C2_3 
ROOT
ATOM      1  C2  UNL d   1      -0.267  -0.480   0.048  0.00  0.00    -0.076 A 
ATOM      2  C3  UNL d   1       0.990  -0.179  -0.507  0.00  0.00     0.004 A 
ATOM      3  C4  UNL d   1       1.463   1.131  -0.544  0.00  0.00    -0.003 A 
ATOM      4  C5  UNL d   1       0.688   2.163  -0.026  0.00  0.00     0.000 A 
ATOM      5  C6  UNL d   1      -0.553   1.881   0.545  0.00  0.00     0.000 A 
ATOM      6  C7  UNL d   1      -1.038   0.563   0.605  0.00  0.00    -0.073 A 
ATOM      7  C8  UNL d   1      -2.385   0.318   1.226  0.00  0.00     0.078 C 
ENDROOT
BRANCH   1   8
ATOM      8  C1  UNL d   1      -0.739  -1.916   0.036  0.00  0.00     0.053 C 
ATOM      9  C   UNL d   1      -0.777  -2.505  -1.365  0.00  0.00     0.018 C 
ENDBRANCH   1   8
TORSDOF 1
ENDMDL
