MODEL 1
REMARK minimizedAffinity -6.17447186
REMARK minimizedRMSD -1
REMARK  1 active torsions:
REMARK  status: ('A' for Active; 'I' for Inactive)
REMARK    1  A    between atoms: C1_2  and  C2_3 
ROOT
ATOM      1  C2  UNL d   1       0.036   0.102  -0.113  0.00  0.00    -0.076 A 
ATOM      2  C3  UNL d   1       1.271   0.703  -0.411  0.00  0.00     0.004 A 
ATOM      3  C4  UNL d   1       1.459   2.075  -0.248  0.00  0.00    -0.003 A 
ATOM      4  C5  UNL d   1       0.415   2.867   0.217  0.00  0.00     0.000 A 
ATOM      5  C6  UNL d   1      -0.811   2.285   0.535  0.00  0.00     0.000 A 
ATOM      6  C7  UNL d   1      -1.013   0.901   0.391  0.00  0.00    -0.073 A 
ATOM      7  C8  UNL d   1      -2.358   0.327   0.743  0.00  0.00     0.078 C 
ENDROOT
BRANCH   1   8
ATOM      8  C1  UNL d   1      -0.118  -1.386  -0.335  0.00  0.00     0.053 C 
ATOM      9  C   UNL d   1      -0.111  -1.758  -1.810  0.00  0.00     0.018 C 
ENDBRANCH   1   8
TORSDOF 1
ENDMDL
