MODEL 1
REMARK minimizedAffinity 2.81975245
REMARK minimizedRMSD -1
REMARK  1 active torsions:
REMARK  status: ('A' for Active; 'I' for Inactive)
REMARK    1  A    between atoms: C1_2  and  C2_3 
ROOT
ATOM      1  C2  UNL d   1       0.630   1.201   0.565  0.00  0.00    -0.076 A 
ATOM      2  C3  UNL d   1      -0.093   2.382   0.810  0.00  0.00     0.004 A 
ATOM      3  C4  UNL d   1      -1.487   2.378   0.830  0.00  0.00    -0.003 A 
ATOM      4  C5  UNL d   1      -2.180   1.194   0.608  0.00  0.00     0.000 A 
ATOM      5  C6  UNL d   1      -1.479   0.010   0.381  0.00  0.00     0.000 A 
ATOM      6  C7  UNL d   1      -0.074  -0.007   0.373  0.00  0.00    -0.073 A 
ATOM      7  C8  UNL d   1       0.631  -1.311   0.117  0.00  0.00     0.078 C 
ENDROOT
BRANCH   1   8
ATOM      8  C1  UNL d   1       2.140   1.271   0.527  0.00  0.00     0.053 C 
ATOM      9  C   UNL d   1       2.687   2.467   1.292  0.00  0.00     0.018 C 
ENDBRANCH   1   8
TORSDOF 1
ENDMDL
