MODEL 1
REMARK minimizedAffinity -5.44311094
REMARK minimizedRMSD -1
REMARK  1 active torsions:
REMARK  status: ('A' for Active; 'I' for Inactive)
REMARK    1  A    between atoms: C1_2  and  C2_3 
ROOT
ATOM      1  C2  UNL d   1       0.058   0.444   0.226  0.00  0.00    -0.076 A 
ATOM      2  C3  UNL d   1       1.153   1.206  -0.217  0.00  0.00     0.004 A 
ATOM      3  C4  UNL d   1       1.069   2.594  -0.312  0.00  0.00    -0.003 A 
ATOM      4  C5  UNL d   1      -0.111   3.243   0.036  0.00  0.00     0.000 A 
ATOM      5  C6  UNL d   1      -1.201   2.504   0.494  0.00  0.00     0.000 A 
ATOM      6  C7  UNL d   1      -1.128   1.105   0.611  0.00  0.00    -0.073 A 
ATOM      7  C8  UNL d   1      -2.336   0.357   1.105  0.00  0.00     0.078 C 
ENDROOT
BRANCH   1   8
ATOM      8  C1  UNL d   1       0.199  -1.061   0.281  0.00  0.00     0.053 C 
ATOM      9  C   UNL d   1       0.014  -1.714  -1.080  0.00  0.00     0.018 C 
ENDBRANCH   1   8
TORSDOF 1
ENDMDL
