MODEL 1
REMARK minimizedAffinity -6.83162451
REMARK minimizedRMSD -1
REMARK  1 active torsions:
REMARK  status: ('A' for Active; 'I' for Inactive)
REMARK    1  A    between atoms: C1_2  and  C2_3 
ROOT
ATOM      1  C2  UNL d   1       1.222   0.910   0.451  0.00  0.00    -0.076 A 
ATOM      2  C3  UNL d   1       2.565   1.319   0.384  0.00  0.00     0.004 A 
ATOM      3  C4  UNL d   1       2.903   2.671   0.351  0.00  0.00    -0.003 A 
ATOM      4  C5  UNL d   1       1.902   3.636   0.386  0.00  0.00     0.000 A 
ATOM      5  C6  UNL d   1       0.565   3.249   0.470  0.00  0.00     0.000 A 
ATOM      6  C7  UNL d   1       0.209   1.890   0.520  0.00  0.00    -0.073 A 
ATOM      7  C8  UNL d   1      -1.249   1.529   0.604  0.00  0.00     0.078 C 
ENDROOT
BRANCH   1   8
ATOM      8  C1  UNL d   1       0.915  -0.570   0.456  0.00  0.00     0.053 C 
ATOM      9  C   UNL d   1       0.803  -1.147  -0.947  0.00  0.00     0.018 C 
ENDBRANCH   1   8
TORSDOF 1
ENDMDL
