MODEL 1
REMARK minimizedAffinity -4.12852383
REMARK minimizedRMSD -1
REMARK  1 active torsions:
REMARK  status: ('A' for Active; 'I' for Inactive)
REMARK    1  A    between atoms: C1_2  and  C2_3 
ROOT
ATOM      1  C2  UNL d   1      -0.082  -0.383   0.202  0.00  0.00    -0.076 A 
ATOM      2  C3  UNL d   1      -1.230   0.418   0.077  0.00  0.00     0.004 A 
ATOM      3  C4  UNL d   1      -1.201   1.771   0.413  0.00  0.00    -0.003 A 
ATOM      4  C5  UNL d   1      -0.022   2.344   0.877  0.00  0.00     0.000 A 
ATOM      5  C6  UNL d   1       1.131   1.568   0.990  0.00  0.00     0.000 A 
ATOM      6  C7  UNL d   1       1.122   0.207   0.640  0.00  0.00    -0.073 A 
ATOM      7  C8  UNL d   1       2.393  -0.584   0.787  0.00  0.00     0.078 C 
ENDROOT
BRANCH   1   8
ATOM      8  C1  UNL d   1      -0.181  -1.850  -0.151  0.00  0.00     0.053 C 
ATOM      9  C   UNL d   1      -0.387  -2.079  -1.641  0.00  0.00     0.018 C 
ENDBRANCH   1   8
TORSDOF 1
ENDMDL
