MODEL 1
REMARK minimizedAffinity -0.335469991
REMARK minimizedRMSD -1
REMARK  0 active torsions:
REMARK  status: ('A' for Active; 'I' for Inactive)
ROOT
ATOM      1  C   UNL d   1       4.091   1.448   4.335  0.00  0.00     0.023 A 
ATOM      2  C1  UNL d   1       4.021   2.648   3.628  0.00  0.00     0.003 A 
ATOM      3  C2  UNL d   1       3.227   3.694   4.103  0.00  0.00     0.048 A 
ATOM      4  C3  UNL d   1       2.508   3.534   5.287  0.00  0.00     0.023 A 
ATOM      5  C4  UNL d   1       2.577   2.335   5.999  0.00  0.00     0.048 A 
ATOM      6  C5  UNL d   1       3.370   1.291   5.519  0.00  0.00     0.003 A 
ATOM      7  I   UNL d   1       1.327   5.090   5.997  0.00  0.00    -0.146 I 
ENDROOT
TORSDOF 0
ENDMDL
