MODEL 1
REMARK minimizedAffinity 2.95491362
REMARK minimizedRMSD -1
REMARK  0 active torsions:
REMARK  status: ('A' for Active; 'I' for Inactive)
ROOT
ATOM      1  C   UNL d   1       4.980   2.639   5.973  0.00  0.00     0.023 A 
ATOM      2  C1  UNL d   1       3.758   1.966   5.971  0.00  0.00     0.003 A 
ATOM      3  C2  UNL d   1       2.563   2.687   5.979  0.00  0.00     0.048 A 
ATOM      4  C3  UNL d   1       2.596   4.081   5.988  0.00  0.00     0.023 A 
ATOM      5  C4  UNL d   1       3.816   4.759   5.990  0.00  0.00     0.048 A 
ATOM      6  C5  UNL d   1       5.009   4.033   5.983  0.00  0.00     0.003 A 
ATOM      7  I   UNL d   1       0.818   5.157   6.000  0.00  0.00    -0.146 I 
ENDROOT
TORSDOF 0
ENDMDL
