MODEL 1
REMARK minimizedAffinity -0.0525112152
REMARK minimizedRMSD -1
REMARK  0 active torsions:
REMARK  status: ('A' for Active; 'I' for Inactive)
ROOT
ATOM      1  C   UNL d   1       1.282   5.671   5.538  0.00  0.00     0.023 A 
ATOM      2  C1  UNL d   1       2.606   5.637   5.098  0.00  0.00     0.003 A 
ATOM      3  C2  UNL d   1       3.316   4.435   5.108  0.00  0.00     0.048 A 
ATOM      4  C3  UNL d   1       2.696   3.270   5.558  0.00  0.00     0.023 A 
ATOM      5  C4  UNL d   1       1.372   3.299   5.999  0.00  0.00     0.048 A 
ATOM      6  C5  UNL d   1       0.666   4.503   5.988  0.00  0.00     0.003 A 
ATOM      7  I   UNL d   1       3.750   1.479   5.574  0.00  0.00    -0.146 I 
ENDROOT
TORSDOF 0
ENDMDL
