MODEL 1
REMARK minimizedAffinity -2.67114615
REMARK minimizedRMSD -1
REMARK  0 active torsions:
REMARK  status: ('A' for Active; 'I' for Inactive)
ROOT
ATOM      1  C   UNL d   1       5.090   2.567   5.987  0.00  0.00     0.023 A 
ATOM      2  C1  UNL d   1       5.180   3.959   5.985  0.00  0.00     0.003 A 
ATOM      3  C2  UNL d   1       4.020   4.735   5.988  0.00  0.00     0.048 A 
ATOM      4  C3  UNL d   1       2.772   4.114   5.994  0.00  0.00     0.023 A 
ATOM      5  C4  UNL d   1       2.676   2.721   5.997  0.00  0.00     0.048 A 
ATOM      6  C5  UNL d   1       3.839   1.949   5.993  0.00  0.00     0.003 A 
ATOM      7  I   UNL d   1       1.043   5.267   5.999  0.00  0.00    -0.146 I 
ENDROOT
TORSDOF 0
ENDMDL
