MODEL 1
REMARK minimizedAffinity -0.81548202
REMARK minimizedRMSD -1
REMARK  0 active torsions:
REMARK  status: ('A' for Active; 'I' for Inactive)
ROOT
ATOM      1  C   UNL d   1       3.374   5.463   5.972  0.00  0.00     0.023 A 
ATOM      2  C1  UNL d   1       2.118   4.856   5.991  0.00  0.00     0.003 A 
ATOM      3  C2  UNL d   1       2.015   3.463   5.998  0.00  0.00     0.048 A 
ATOM      4  C3  UNL d   1       3.172   2.684   5.987  0.00  0.00     0.023 A 
ATOM      5  C4  UNL d   1       4.430   3.287   5.968  0.00  0.00     0.048 A 
ATOM      6  C5  UNL d   1       4.528   4.680   5.960  0.00  0.00     0.003 A 
ATOM      7  I   UNL d   1       3.020   0.611   5.997  0.00  0.00    -0.146 I 
ENDROOT
TORSDOF 0
ENDMDL
