MODEL 1
REMARK minimizedAffinity 1.59409559
REMARK minimizedRMSD -1
REMARK  0 active torsions:
REMARK  status: ('A' for Active; 'I' for Inactive)
ROOT
ATOM      1  C   UNL d   1      -2.115  -5.999   4.987  0.00  0.00     0.023 A 
ATOM      2  C1  UNL d   1      -1.775  -5.102   6.000  0.00  0.00     0.003 A 
ATOM      3  C2  UNL d   1      -0.824  -4.108   5.764  0.00  0.00     0.048 A 
ATOM      4  C3  UNL d   1      -0.216  -4.015   4.512  0.00  0.00     0.023 A 
ATOM      5  C4  UNL d   1      -0.554  -4.910   3.495  0.00  0.00     0.048 A 
ATOM      6  C5  UNL d   1      -1.506  -5.902   3.736  0.00  0.00     0.003 A 
ATOM      7  I   UNL d   1       1.200  -2.536   4.158  0.00  0.00    -0.146 I 
ENDROOT
TORSDOF 0
ENDMDL
