MODEL 1
REMARK minimizedAffinity 7.69336748
REMARK minimizedRMSD -1
REMARK  0 active torsions:
REMARK  status: ('A' for Active; 'I' for Inactive)
ROOT
ATOM      1  C   UNL d   1       5.129   2.657   0.274  0.00  0.00     0.023 A 
ATOM      2  C1  UNL d   1       5.820   1.550  -0.220  0.00  0.00     0.003 A 
ATOM      3  C2  UNL d   1       5.121   0.403  -0.602  0.00  0.00     0.048 A 
ATOM      4  C3  UNL d   1       3.731   0.370  -0.489  0.00  0.00     0.023 A 
ATOM      5  C4  UNL d   1       3.036   1.476   0.003  0.00  0.00     0.048 A 
ATOM      6  C5  UNL d   1       3.739   2.620   0.386  0.00  0.00     0.003 A 
ATOM      7  I   UNL d   1       2.689  -1.335  -1.059  0.00  0.00    -0.146 I 
ENDROOT
TORSDOF 0
ENDMDL
