MODEL 1
REMARK minimizedAffinity 3.45635176
REMARK minimizedRMSD -1
REMARK  0 active torsions:
REMARK  status: ('A' for Active; 'I' for Inactive)
ROOT
ATOM      1  C   UNL d   1       4.753   3.163   5.999  0.00  0.00     0.023 A 
ATOM      2  C1  UNL d   1       4.532   1.929   5.388  0.00  0.00     0.003 A 
ATOM      3  C2  UNL d   1       4.601   1.815   3.998  0.00  0.00     0.048 A 
ATOM      4  C3  UNL d   1       4.893   2.938   3.225  0.00  0.00     0.023 A 
ATOM      5  C4  UNL d   1       5.116   4.175   3.833  0.00  0.00     0.048 A 
ATOM      6  C5  UNL d   1       5.045   4.284   5.223  0.00  0.00     0.003 A 
ATOM      7  I   UNL d   1       4.998   2.771   1.156  0.00  0.00    -0.146 I 
ENDROOT
TORSDOF 0
ENDMDL
