MODEL 1
REMARK minimizedAffinity 3.89371467
REMARK minimizedRMSD -1
REMARK  0 active torsions:
REMARK  status: ('A' for Active; 'I' for Inactive)
ROOT
ATOM      1  C   UNL d   1       1.524  -4.129   1.572  0.00  0.00     0.023 A 
ATOM      2  C1  UNL d   1       2.240  -3.742   2.705  0.00  0.00     0.003 A 
ATOM      3  C2  UNL d   1       1.785  -4.101   3.975  0.00  0.00     0.048 A 
ATOM      4  C3  UNL d   1       0.615  -4.848   4.106  0.00  0.00     0.023 A 
ATOM      5  C4  UNL d   1      -0.104  -5.237   2.974  0.00  0.00     0.048 A 
ATOM      6  C5  UNL d   1       0.354  -4.875   1.706  0.00  0.00     0.003 A 
ATOM      7  I   UNL d   1      -0.064  -5.384   5.996  0.00  0.00    -0.146 I 
ENDROOT
TORSDOF 0
ENDMDL
