MODEL 1
REMARK minimizedAffinity -3.05548787
REMARK minimizedRMSD -1
REMARK  0 active torsions:
REMARK  status: ('A' for Active; 'I' for Inactive)
ROOT
ATOM      1  C1  BNZ d   1       3.791   4.514  -2.868  0.00  0.00     0.000 A 
ATOM      2  C2  BNZ d   1       3.847   3.752  -4.004  0.00  0.00     0.000 A 
ATOM      3  C3  BNZ d   1       4.958   3.762  -4.800  0.00  0.00     0.000 A 
ATOM      4  C4  BNZ d   1       5.995   4.563  -4.480  0.00  0.00     0.000 A 
ATOM      5  C5  BNZ d   1       5.950   5.344  -3.342  0.00  0.00     0.000 A 
ATOM      6  C6  BNZ d   1       4.846   5.302  -2.523  0.00  0.00     0.000 A 
ENDROOT
TORSDOF 0
ENDMDL
