MODEL 1
REMARK minimizedAffinity -2.2549324
REMARK minimizedRMSD -1
REMARK  0 active torsions:
REMARK  status: ('A' for Active; 'I' for Inactive)
ROOT
ATOM      1  C1  BNZ d   1       3.730   4.635  -3.395  0.00  0.00     0.000 A 
ATOM      2  C2  BNZ d   1       4.911   4.654  -4.087  0.00  0.00     0.000 A 
ATOM      3  C3  BNZ d   1       5.999   5.320  -3.597  0.00  0.00     0.000 A 
ATOM      4  C4  BNZ d   1       5.893   5.999  -2.436  0.00  0.00     0.000 A 
ATOM      5  C5  BNZ d   1       4.706   5.997  -1.731  0.00  0.00     0.000 A 
ATOM      6  C6  BNZ d   1       3.624   5.293  -2.209  0.00  0.00     0.000 A 
ENDROOT
TORSDOF 0
ENDMDL
