MODEL 1
REMARK minimizedAffinity -1.26687014
REMARK minimizedRMSD -1
REMARK  0 active torsions:
REMARK  status: ('A' for Active; 'I' for Inactive)
ROOT
ATOM      1  C1  BNZ d   1       5.190   5.223  -2.255  0.00  0.00     0.000 A 
ATOM      2  C2  BNZ d   1       4.115   4.439  -1.934  0.00  0.00     0.000 A 
ATOM      3  C3  BNZ d   1       3.024   4.376  -2.755  0.00  0.00     0.000 A 
ATOM      4  C4  BNZ d   1       2.994   5.127  -3.875  0.00  0.00     0.000 A 
ATOM      5  C5  BNZ d   1       4.066   5.929  -4.208  0.00  0.00     0.000 A 
ATOM      6  C6  BNZ d   1       5.179   5.960  -3.399  0.00  0.00     0.000 A 
ENDROOT
TORSDOF 0
ENDMDL
