MODEL 1
REMARK minimizedAffinity -0.223828062
REMARK minimizedRMSD -1
REMARK  0 active torsions:
REMARK  status: ('A' for Active; 'I' for Inactive)
ROOT
ATOM      1  C1  BNZ d   1       6.000   6.000  -2.677  0.00  0.00     0.000 A 
ATOM      2  C2  BNZ d   1       5.881   5.999  -4.041  0.00  0.00     0.000 A 
ATOM      3  C3  BNZ d   1       4.788   5.448  -4.648  0.00  0.00     0.000 A 
ATOM      4  C4  BNZ d   1       3.835   4.863  -3.894  0.00  0.00     0.000 A 
ATOM      5  C5  BNZ d   1       3.945   4.847  -2.518  0.00  0.00     0.000 A 
ATOM      6  C6  BNZ d   1       5.028   5.437  -1.908  0.00  0.00     0.000 A 
ENDROOT
TORSDOF 0
ENDMDL
