MODEL 1
REMARK minimizedAffinity -2.28872156
REMARK minimizedRMSD -1
REMARK  0 active torsions:
REMARK  status: ('A' for Active; 'I' for Inactive)
ROOT
ATOM      1  C1  BNZ d   1       6.000   3.396  -4.929  0.00  0.00     0.000 A 
ATOM      2  C2  BNZ d   1       5.192   3.683  -5.997  0.00  0.00     0.000 A 
ATOM      3  C3  BNZ d   1       4.373   4.778  -5.981  0.00  0.00     0.000 A 
ATOM      4  C4  BNZ d   1       4.334   5.560  -4.883  0.00  0.00     0.000 A 
ATOM      5  C5  BNZ d   1       5.135   5.278  -3.794  0.00  0.00     0.000 A 
ATOM      6  C6  BNZ d   1       5.987   4.197  -3.830  0.00  0.00     0.000 A 
ENDROOT
TORSDOF 0
ENDMDL
