MODEL 1
REMARK minimizedAffinity -3.67392707
REMARK minimizedRMSD -1
REMARK  0 active torsions:
REMARK  status: ('A' for Active; 'I' for Inactive)
ROOT
ATOM      1  C1  BNZ d   1       4.220   4.449  -4.129  0.00  0.00     0.000 A 
ATOM      2  C2  BNZ d   1       5.484   4.976  -4.123  0.00  0.00     0.000 A 
ATOM      3  C3  BNZ d   1       5.999   5.547  -2.993  0.00  0.00     0.000 A 
ATOM      4  C4  BNZ d   1       5.236   5.627  -1.884  0.00  0.00     0.000 A 
ATOM      5  C5  BNZ d   1       3.957   5.108  -1.876  0.00  0.00     0.000 A 
ATOM      6  C6  BNZ d   1       3.456   4.499  -3.004  0.00  0.00     0.000 A 
ENDROOT
TORSDOF 0
ENDMDL
