MODEL 1
REMARK minimizedAffinity -3.18971229
REMARK minimizedRMSD -1
REMARK  0 active torsions:
REMARK  status: ('A' for Active; 'I' for Inactive)
ROOT
ATOM      1  C1  BNZ d   1       6.000   5.363  -3.579  0.00  0.00     0.000 A 
ATOM      2  C2  BNZ d   1       6.000   4.522  -4.661  0.00  0.00     0.000 A 
ATOM      3  C3  BNZ d   1       4.906   3.757  -4.952  0.00  0.00     0.000 A 
ATOM      4  C4  BNZ d   1       3.830   3.802  -4.141  0.00  0.00     0.000 A 
ATOM      5  C5  BNZ d   1       3.818   4.637  -3.041  0.00  0.00     0.000 A 
ATOM      6  C6  BNZ d   1       4.906   5.435  -2.773  0.00  0.00     0.000 A 
ENDROOT
TORSDOF 0
ENDMDL
