MODEL 1
REMARK minimizedAffinity -3.55772805
REMARK minimizedRMSD -1
REMARK  0 active torsions:
REMARK  status: ('A' for Active; 'I' for Inactive)
ROOT
ATOM      1  C1  BNZ d   1       5.179   4.003  -4.872  0.00  0.00     0.000 A 
ATOM      2  C2  BNZ d   1       5.999   4.127  -3.782  0.00  0.00     0.000 A 
ATOM      3  C3  BNZ d   1       5.745   5.061  -2.817  0.00  0.00     0.000 A 
ATOM      4  C4  BNZ d   1       4.696   5.896  -2.963  0.00  0.00     0.000 A 
ATOM      5  C5  BNZ d   1       3.865   5.790  -4.061  0.00  0.00     0.000 A 
ATOM      6  C6  BNZ d   1       4.102   4.823  -5.011  0.00  0.00     0.000 A 
ENDROOT
TORSDOF 0
ENDMDL
