MODEL 1
REMARK minimizedAffinity -3.71512938
REMARK minimizedRMSD -1
REMARK  0 active torsions:
REMARK  status: ('A' for Active; 'I' for Inactive)
ROOT
ATOM      1  C1  BNZ d   1       5.077   5.716  -3.826  0.00  0.00     0.000 A 
ATOM      2  C2  BNZ d   1       4.200   4.673  -3.691  0.00  0.00     0.000 A 
ATOM      3  C3  BNZ d   1       4.225   3.621  -4.564  0.00  0.00     0.000 A 
ATOM      4  C4  BNZ d   1       5.098   3.633  -5.592  0.00  0.00     0.000 A 
ATOM      5  C5  BNZ d   1       5.982   4.682  -5.746  0.00  0.00     0.000 A 
ATOM      6  C6  BNZ d   1       5.980   5.721  -4.843  0.00  0.00     0.000 A 
ENDROOT
TORSDOF 0
ENDMDL
