MODEL 1
REMARK minimizedAffinity 0.0530412048
REMARK minimizedRMSD -1
REMARK  0 active torsions:
REMARK  status: ('A' for Active; 'I' for Inactive)
ROOT
ATOM      1  C1  BNZ d   1       3.305   5.211  -3.341  0.00  0.00     0.000 A 
ATOM      2  C2  BNZ d   1       4.508   5.620  -3.852  0.00  0.00     0.000 A 
ATOM      3  C3  BNZ d   1       5.528   5.995  -3.023  0.00  0.00     0.000 A 
ATOM      4  C4  BNZ d   1       5.332   6.000  -1.689  0.00  0.00     0.000 A 
ATOM      5  C5  BNZ d   1       4.121   5.600  -1.160  0.00  0.00     0.000 A 
ATOM      6  C6  BNZ d   1       3.109   5.185  -1.995  0.00  0.00     0.000 A 
ENDROOT
TORSDOF 0
ENDMDL
