MODEL 1
REMARK minimizedAffinity -3.12563729
REMARK minimizedRMSD -1
REMARK  0 active torsions:
REMARK  status: ('A' for Active; 'I' for Inactive)
ROOT
ATOM      1  C1  BNZ d   1       4.881   3.392  -3.948  0.00  0.00     0.000 A 
ATOM      2  C2  BNZ d   1       6.000   3.935  -3.375  0.00  0.00     0.000 A 
ATOM      3  C3  BNZ d   1       5.994   5.219  -2.908  0.00  0.00     0.000 A 
ATOM      4  C4  BNZ d   1       4.883   5.971  -3.050  0.00  0.00     0.000 A 
ATOM      5  C5  BNZ d   1       3.750   5.441  -3.634  0.00  0.00     0.000 A 
ATOM      6  C6  BNZ d   1       3.747   4.136  -4.068  0.00  0.00     0.000 A 
ENDROOT
TORSDOF 0
ENDMDL
