MODEL 1
REMARK minimizedAffinity 0.13100867
REMARK minimizedRMSD -1
REMARK  0 active torsions:
REMARK  status: ('A' for Active; 'I' for Inactive)
ROOT
ATOM      1  C1  BNZ d   1       4.822   3.719  -3.935  0.00  0.00     0.000 A 
ATOM      2  C2  BNZ d   1       3.658   4.163  -3.365  0.00  0.00     0.000 A 
ATOM      3  C3  BNZ d   1       3.641   5.295  -2.599  0.00  0.00     0.000 A 
ATOM      4  C4  BNZ d   1       4.793   5.959  -2.372  0.00  0.00     0.000 A 
ATOM      5  C5  BNZ d   1       5.976   5.519  -2.932  0.00  0.00     0.000 A 
ATOM      6  C6  BNZ d   1       5.982   4.401  -3.734  0.00  0.00     0.000 A 
ENDROOT
TORSDOF 0
ENDMDL
