MODEL 1
REMARK minimizedAffinity -1.92888975
REMARK minimizedRMSD -1
REMARK  0 active torsions:
REMARK  status: ('A' for Active; 'I' for Inactive)
ROOT
ATOM      1  C1  BNZ d   1       3.776   5.098  -2.626  0.00  0.00     0.000 A 
ATOM      2  C2  BNZ d   1       3.788   4.261  -3.710  0.00  0.00     0.000 A 
ATOM      3  C3  BNZ d   1       4.908   4.134  -4.483  0.00  0.00     0.000 A 
ATOM      4  C4  BNZ d   1       6.000   4.872  -4.196  0.00  0.00     0.000 A 
ATOM      5  C5  BNZ d   1       6.000   5.727  -3.112  0.00  0.00     0.000 A 
ATOM      6  C6  BNZ d   1       4.884   5.824  -2.313  0.00  0.00     0.000 A 
ENDROOT
TORSDOF 0
ENDMDL
