MODEL 1
REMARK minimizedAffinity -2.90853381
REMARK minimizedRMSD -1
REMARK  1 active torsions:
REMARK  status: ('A' for Active; 'I' for Inactive)
REMARK    1  A    between atoms: N_2  and  C1_3 
ROOT
ATOM      1  C1  UNL d   1      -0.029   0.035  -0.396  0.00  0.00     0.143 A 
ATOM      2  C2  UNL d   1       0.934  -0.047   0.615  0.00  0.00    -0.057 A 
ATOM      3  C3  UNL d   1       0.594   0.144   1.960  0.00  0.00     0.033 A 
ATOM      4  C4  UNL d   1      -0.716   0.452   2.315  0.00  0.00    -0.042 A 
ATOM      5  C5  UNL d   1      -1.685   0.563   1.324  0.00  0.00     0.033 A 
ATOM      6  C6  UNL d   1      -1.340   0.364  -0.016  0.00  0.00    -0.057 A 
ENDROOT
BRANCH   1   7
ATOM      7  N   UNL d   1       0.265  -0.048  -1.759  0.00  0.00    -0.732 N 
ATOM      8  C   UNL d   1       0.378  -1.334  -2.412  0.00  0.00     0.284 C 
ATOM      9  H3  UNL d   1      -0.228   0.654  -2.307  0.00  0.00     0.395 HD
ENDBRANCH   1   7
TORSDOF 1
ENDMDL
