MODEL 1
REMARK minimizedAffinity -3.37106085
REMARK minimizedRMSD -1
REMARK  1 active torsions:
REMARK  status: ('A' for Active; 'I' for Inactive)
REMARK    1  A    between atoms: N_2  and  C1_3 
ROOT
ATOM      1  C1  UNL d   1      -0.266   0.265   1.764  0.00  0.00     0.143 A 
ATOM      2  C2  UNL d   1       1.039   0.059   1.302  0.00  0.00    -0.057 A 
ATOM      3  C3  UNL d   1       1.319  -0.032  -0.067  0.00  0.00     0.033 A 
ATOM      4  C4  UNL d   1       0.291   0.053  -1.000  0.00  0.00    -0.042 A 
ATOM      5  C5  UNL d   1      -1.017   0.233  -0.563  0.00  0.00     0.033 A 
ATOM      6  C6  UNL d   1      -1.289   0.329   0.805  0.00  0.00    -0.057 A 
ENDROOT
BRANCH   1   7
ATOM      7  N   UNL d   1      -0.622   0.266   3.115  0.00  0.00    -0.732 N 
ATOM      8  C   UNL d   1      -1.982   0.551   3.519  0.00  0.00     0.284 C 
ATOM      9  H3  UNL d   1      -0.185  -0.494   3.632  0.00  0.00     0.395 HD
ENDBRANCH   1   7
TORSDOF 1
ENDMDL
