MODEL 1
REMARK minimizedAffinity -1.82142341
REMARK minimizedRMSD -1
REMARK  1 active torsions:
REMARK  status: ('A' for Active; 'I' for Inactive)
REMARK    1  A    between atoms: N_2  and  C1_3 
ROOT
ATOM      1  C1  UNL d   1      -0.187  -0.029  -0.657  0.00  0.00     0.143 A 
ATOM      2  C2  UNL d   1      -0.039   0.952  -1.643  0.00  0.00    -0.057 A 
ATOM      3  C3  UNL d   1       0.333   0.617  -2.951  0.00  0.00     0.033 A 
ATOM      4  C4  UNL d   1       0.593  -0.706  -3.289  0.00  0.00    -0.042 A 
ATOM      5  C5  UNL d   1       0.477  -1.696  -2.319  0.00  0.00     0.033 A 
ATOM      6  C6  UNL d   1       0.098  -1.356  -1.016  0.00  0.00    -0.057 A 
ENDROOT
BRANCH   1   7
ATOM      7  N   UNL d   1      -0.458   0.251   0.684  0.00  0.00    -0.732 N 
ATOM      8  C   UNL d   1       0.571   0.103   1.691  0.00  0.00     0.284 C 
ATOM      9  H3  UNL d   1      -1.036   1.080   0.799  0.00  0.00     0.395 HD
ENDBRANCH   1   7
TORSDOF 1
ENDMDL
