MODEL 1
REMARK minimizedAffinity -0.0132590951
REMARK minimizedRMSD -1
REMARK  1 active torsions:
REMARK  status: ('A' for Active; 'I' for Inactive)
REMARK    1  A    between atoms: N_2  and  C1_3 
ROOT
ATOM      1  C1  UNL d   1       0.675  -0.327  -0.978  0.00  0.00     0.143 A 
ATOM      2  C2  UNL d   1       1.442  -1.253  -0.263  0.00  0.00    -0.057 A 
ATOM      3  C3  UNL d   1       1.714  -1.074   1.099  0.00  0.00     0.033 A 
ATOM      4  C4  UNL d   1       1.245   0.053   1.765  0.00  0.00    -0.042 A 
ATOM      5  C5  UNL d   1       0.502   1.000   1.069  0.00  0.00     0.033 A 
ATOM      6  C6  UNL d   1       0.228   0.812  -0.289  0.00  0.00    -0.057 A 
ENDROOT
BRANCH   1   7
ATOM      7  N   UNL d   1       0.454  -0.398  -2.355  0.00  0.00    -0.732 N 
ATOM      8  C   UNL d   1       1.385  -1.095  -3.216  0.00  0.00     0.284 C 
ATOM      9  H3  UNL d   1      -0.525  -0.560  -2.584  0.00  0.00     0.395 HD
ENDBRANCH   1   7
TORSDOF 1
ENDMDL
