MODEL 1
REMARK minimizedAffinity -4.12376785
REMARK minimizedRMSD -1
REMARK  1 active torsions:
REMARK  status: ('A' for Active; 'I' for Inactive)
REMARK    1  A    between atoms: N_2  and  C1_3 
ROOT
ATOM      1  C1  UNL d   1      -0.308  -0.150  -0.452  0.00  0.00     0.143 A 
ATOM      2  C2  UNL d   1      -0.402   0.856  -1.420  0.00  0.00    -0.057 A 
ATOM      3  C3  UNL d   1       0.026   0.639  -2.735  0.00  0.00     0.033 A 
ATOM      4  C4  UNL d   1       0.584  -0.581  -3.100  0.00  0.00    -0.042 A 
ATOM      5  C5  UNL d   1       0.710  -1.587  -2.148  0.00  0.00     0.033 A 
ATOM      6  C6  UNL d   1       0.275  -1.367  -0.838  0.00  0.00    -0.057 A 
ENDROOT
BRANCH   1   7
ATOM      7  N   UNL d   1      -0.625   0.036   0.896  0.00  0.00    -0.732 N 
ATOM      8  C   UNL d   1       0.405  -0.021   1.910  0.00  0.00     0.284 C 
ATOM      9  H3  UNL d   1      -1.306   0.779   1.036  0.00  0.00     0.395 HD
ENDBRANCH   1   7
TORSDOF 1
ENDMDL
