MODEL 1
REMARK minimizedAffinity -3.4394176
REMARK minimizedRMSD -1
REMARK  1 active torsions:
REMARK  status: ('A' for Active; 'I' for Inactive)
REMARK    1  A    between atoms: N_2  and  C1_3 
ROOT
ATOM      1  C1  UNL d   1      -0.066   0.493   0.181  0.00  0.00     0.143 A 
ATOM      2  C2  UNL d   1       0.681   0.421   1.361  0.00  0.00    -0.057 A 
ATOM      3  C3  UNL d   1       0.061   0.439   2.616  0.00  0.00     0.033 A 
ATOM      4  C4  UNL d   1      -1.321   0.560   2.714  0.00  0.00    -0.042 A 
ATOM      5  C5  UNL d   1      -2.083   0.659   1.554  0.00  0.00     0.033 A 
ATOM      6  C6  UNL d   1      -1.457   0.634   0.304  0.00  0.00    -0.057 A 
ENDROOT
BRANCH   1   7
ATOM      7  N   UNL d   1       0.499   0.579  -1.094  0.00  0.00    -0.732 N 
ATOM      8  C   UNL d   1       0.765  -0.617  -1.864  0.00  0.00     0.284 C 
ATOM      9  H3  UNL d   1       0.114   1.347  -1.638  0.00  0.00     0.395 HD
ENDBRANCH   1   7
TORSDOF 1
ENDMDL
