MODEL 1
REMARK minimizedAffinity -1.06715941
REMARK minimizedRMSD -1
REMARK  1 active torsions:
REMARK  status: ('A' for Active; 'I' for Inactive)
REMARK    1  A    between atoms: N_2  and  C1_3 
ROOT
ATOM      1  C1  UNL d   1       0.443  -0.436  -0.498  0.00  0.00     0.143 A 
ATOM      2  C2  UNL d   1       1.232  -1.257   0.316  0.00  0.00    -0.057 A 
ATOM      3  C3  UNL d   1       1.501  -0.917   1.647  0.00  0.00     0.033 A 
ATOM      4  C4  UNL d   1       1.008   0.269   2.182  0.00  0.00    -0.042 A 
ATOM      5  C5  UNL d   1       0.242   1.112   1.384  0.00  0.00     0.033 A 
ATOM      6  C6  UNL d   1      -0.029   0.764   0.058  0.00  0.00    -0.057 A 
ENDROOT
BRANCH   1   7
ATOM      7  N   UNL d   1       0.221  -0.670  -1.857  0.00  0.00    -0.732 N 
ATOM      8  C   UNL d   1       1.309  -0.582  -2.807  0.00  0.00     0.284 C 
ATOM      9  H3  UNL d   1      -0.410  -1.451  -2.019  0.00  0.00     0.395 HD
ENDBRANCH   1   7
TORSDOF 1
ENDMDL
