MODEL 1
REMARK minimizedAffinity -3.43888927
REMARK minimizedRMSD -1
REMARK  1 active torsions:
REMARK  status: ('A' for Active; 'I' for Inactive)
REMARK    1  A    between atoms: N_2  and  C1_3 
ROOT
ATOM      1  C1  UNL d   1      -1.923   0.434   1.837  0.00  0.00     0.143 A 
ATOM      2  C2  UNL d   1      -1.619   0.253   0.483  0.00  0.00    -0.057 A 
ATOM      3  C3  UNL d   1      -0.303   0.035   0.057  0.00  0.00     0.033 A 
ATOM      4  C4  UNL d   1       0.740   0.024   0.978  0.00  0.00    -0.042 A 
ATOM      5  C5  UNL d   1       0.464   0.227   2.326  0.00  0.00     0.033 A 
ATOM      6  C6  UNL d   1      -0.853   0.437   2.746  0.00  0.00    -0.057 A 
ENDROOT
BRANCH   1   7
ATOM      7  N   UNL d   1      -3.197   0.753   2.312  0.00  0.00    -0.732 N 
ATOM      8  C   UNL d   1      -3.602   2.134   2.468  0.00  0.00     0.284 C 
ATOM      9  H3  UNL d   1      -3.918   0.150   1.924  0.00  0.00     0.395 HD
ENDBRANCH   1   7
TORSDOF 1
ENDMDL
