MODEL 1
REMARK minimizedAffinity -1.82064629
REMARK minimizedRMSD -1
REMARK  1 active torsions:
REMARK  status: ('A' for Active; 'I' for Inactive)
REMARK    1  A    between atoms: N_2  and  C1_3 
ROOT
ATOM      1  C1  UNL d   1       0.252   0.239   0.058  0.00  0.00     0.143 A 
ATOM      2  C2  UNL d   1       1.299  -0.101   0.921  0.00  0.00    -0.057 A 
ATOM      3  C3  UNL d   1       1.117  -0.126   2.309  0.00  0.00     0.033 A 
ATOM      4  C4  UNL d   1      -0.112   0.218   2.862  0.00  0.00    -0.042 A 
ATOM      5  C5  UNL d   1      -1.160   0.584   2.024  0.00  0.00     0.033 A 
ATOM      6  C6  UNL d   1      -0.974   0.600   0.638  0.00  0.00    -0.057 A 
ENDROOT
BRANCH   1   7
ATOM      7  N   UNL d   1       0.397   0.377  -1.325  0.00  0.00    -0.732 N 
ATOM      8  C   UNL d   1       0.818  -0.744  -2.137  0.00  0.00     0.284 C 
ATOM      9  H3  UNL d   1      -0.345   0.936  -1.739  0.00  0.00     0.395 HD
ENDBRANCH   1   7
TORSDOF 1
ENDMDL
