MODEL 1
REMARK minimizedAffinity -3.08813858
REMARK minimizedRMSD -1
REMARK  1 active torsions:
REMARK  status: ('A' for Active; 'I' for Inactive)
REMARK    1  A    between atoms: N_2  and  C1_3 
ROOT
ATOM      1  C1  UNL d   1       0.438  -0.223  -2.053  0.00  0.00     0.143 A 
ATOM      2  C2  UNL d   1       1.319   0.251  -3.032  0.00  0.00    -0.057 A 
ATOM      3  C3  UNL d   1       1.661  -0.532  -4.141  0.00  0.00     0.033 A 
ATOM      4  C4  UNL d   1       1.149  -1.818  -4.277  0.00  0.00    -0.042 A 
ATOM      5  C5  UNL d   1       0.291  -2.319  -3.304  0.00  0.00     0.033 A 
ATOM      6  C6  UNL d   1      -0.052  -1.530  -2.202  0.00  0.00    -0.057 A 
ENDROOT
BRANCH   1   7
ATOM      7  N   UNL d   1       0.137   0.469  -0.877  0.00  0.00    -0.732 N 
ATOM      8  C   UNL d   1       0.753   0.093   0.377  0.00  0.00     0.284 C 
ATOM      9  H3  UNL d   1       0.071   1.473  -1.024  0.00  0.00     0.395 HD
ENDBRANCH   1   7
TORSDOF 1
ENDMDL
