MODEL 1
REMARK minimizedAffinity -1.19660473
REMARK minimizedRMSD -1
REMARK  1 active torsions:
REMARK  status: ('A' for Active; 'I' for Inactive)
REMARK    1  A    between atoms: N_2  and  C1_3 
ROOT
ATOM      1  C1  UNL d   1       0.370  -0.847  -2.010  0.00  0.00     0.143 A 
ATOM      2  C2  UNL d   1      -0.114   0.458  -1.871  0.00  0.00    -0.057 A 
ATOM      3  C3  UNL d   1      -0.096   1.111  -0.633  0.00  0.00     0.033 A 
ATOM      4  C4  UNL d   1       0.380   0.457   0.499  0.00  0.00    -0.042 A 
ATOM      5  C5  UNL d   1       0.843  -0.850   0.389  0.00  0.00     0.033 A 
ATOM      6  C6  UNL d   1       0.829  -1.494  -0.852  0.00  0.00    -0.057 A 
ENDROOT
BRANCH   1   7
ATOM      7  N   UNL d   1       0.289  -1.585  -3.194  0.00  0.00    -0.732 N 
ATOM      8  C   UNL d   1       1.419  -2.360  -3.658  0.00  0.00     0.284 C 
ATOM      9  H3  UNL d   1      -0.608  -2.054  -3.298  0.00  0.00     0.395 HD
ENDBRANCH   1   7
TORSDOF 1
ENDMDL
