MODEL 1
REMARK minimizedAffinity -2.73690081
REMARK minimizedRMSD -1
REMARK  0 active torsions:
REMARK  status: ('A' for Active; 'I' for Inactive)
ROOT
ATOM      1  O1  BZF d   1      -0.135  -1.346   0.362  0.00  0.00    -0.204 OA
ATOM      2  C2  BZF d   1      -0.597  -0.058   0.551  0.00  0.00     0.174 A 
ATOM      3  C3  BZF d   1       0.130   0.822  -0.168  0.00  0.00    -0.012 A 
ATOM      4  C3A BZF d   1       1.049   0.024  -0.920  0.00  0.00    -0.107 A 
ATOM      5  C4  BZF d   1       2.023   0.321  -1.831  0.00  0.00     0.055 A 
ATOM      6  C5  BZF d   1       2.792  -0.684  -2.326  0.00  0.00    -0.016 A 
ATOM      7  C6  BZF d   1       2.619  -1.994  -1.930  0.00  0.00     0.022 A 
ATOM      8  C7  BZF d   1       1.662  -2.338  -1.034  0.00  0.00     0.029 A 
ATOM      9  C7A BZF d   1       0.862  -1.329  -0.556  0.00  0.00     0.058 A 
ENDROOT
TORSDOF 0
ENDMDL
