MODEL 1
REMARK minimizedAffinity -1.33782423
REMARK minimizedRMSD -1
REMARK  0 active torsions:
REMARK  status: ('A' for Active; 'I' for Inactive)
ROOT
ATOM      1  O1  BZF d   1       0.963  -2.544  -0.447  0.00  0.00    -0.204 OA
ATOM      2  C2  BZF d   1       2.081  -2.877  -1.188  0.00  0.00     0.174 A 
ATOM      3  C3  BZF d   1       2.659  -1.774  -1.704  0.00  0.00    -0.012 A 
ATOM      4  C3A BZF d   1       1.906  -0.675  -1.182  0.00  0.00    -0.107 A 
ATOM      5  C4  BZF d   1       2.004   0.680  -1.319  0.00  0.00     0.055 A 
ATOM      6  C5  BZF d   1       1.066   1.473  -0.736  0.00  0.00    -0.016 A 
ATOM      7  C6  BZF d   1       0.016   0.944  -0.014  0.00  0.00     0.022 A 
ATOM      8  C7  BZF d   1      -0.120  -0.394   0.154  0.00  0.00     0.029 A 
ATOM      9  C7A BZF d   1       0.844  -1.196  -0.406  0.00  0.00     0.058 A 
ENDROOT
TORSDOF 0
ENDMDL
