MODEL 1
REMARK minimizedAffinity 0.406620055
REMARK minimizedRMSD -1
REMARK  0 active torsions:
REMARK  status: ('A' for Active; 'I' for Inactive)
ROOT
ATOM      1  O1  BZF d   1      -0.600  -0.626   0.726  0.00  0.00    -0.204 OA
ATOM      2  C2  BZF d   1      -0.490   0.745   0.597  0.00  0.00     0.174 A 
ATOM      3  C3  BZF d   1       0.605   1.071  -0.119  0.00  0.00    -0.012 A 
ATOM      4  C3A BZF d   1       1.167  -0.176  -0.537  0.00  0.00    -0.107 A 
ATOM      5  C4  BZF d   1       2.257  -0.510  -1.290  0.00  0.00     0.055 A 
ATOM      6  C5  BZF d   1       2.572  -1.822  -1.451  0.00  0.00    -0.016 A 
ATOM      7  C6  BZF d   1       1.824  -2.825  -0.869  0.00  0.00     0.022 A 
ATOM      8  C7  BZF d   1       0.732  -2.543  -0.118  0.00  0.00     0.029 A 
ATOM      9  C7A BZF d   1       0.392  -1.219   0.019  0.00  0.00     0.058 A 
ENDROOT
TORSDOF 0
ENDMDL
