MODEL 1
REMARK minimizedAffinity -4.53608704
REMARK minimizedRMSD -1
REMARK  0 active torsions:
REMARK  status: ('A' for Active; 'I' for Inactive)
ROOT
ATOM      1  O1  BZF d   1      -2.757   0.350   0.635  0.00  0.00    -0.204 OA
ATOM      2  C2  BZF d   1      -2.928   0.079   1.979  0.00  0.00     0.174 A 
ATOM      3  C3  BZF d   1      -1.776   0.264   2.655  0.00  0.00    -0.012 A 
ATOM      4  C3A BZF d   1      -0.849   0.765   1.687  0.00  0.00    -0.107 A 
ATOM      5  C4  BZF d   1       0.459   1.153   1.754  0.00  0.00     0.055 A 
ATOM      6  C5  BZF d   1       1.097   1.523   0.612  0.00  0.00    -0.016 A 
ATOM      7  C6  BZF d   1       0.460   1.512  -0.612  0.00  0.00     0.022 A 
ATOM      8  C7  BZF d   1      -0.838   1.139  -0.727  0.00  0.00     0.029 A 
ATOM      9  C7A BZF d   1      -1.495   0.796   0.430  0.00  0.00     0.058 A 
ENDROOT
TORSDOF 0
ENDMDL
