MODEL 1
REMARK minimizedAffinity -3.07927775
REMARK minimizedRMSD -1
REMARK  0 active torsions:
REMARK  status: ('A' for Active; 'I' for Inactive)
ROOT
ATOM      1  O1  BZF d   1      -0.081  -0.521   1.579  0.00  0.00    -0.204 OA
ATOM      2  C2  BZF d   1      -1.427  -0.285   1.782  0.00  0.00     0.174 A 
ATOM      3  C3  BZF d   1      -1.901   0.595   0.877  0.00  0.00    -0.012 A 
ATOM      4  C3A BZF d   1      -0.801   0.861   0.000  0.00  0.00    -0.107 A 
ATOM      5  C4  BZF d   1      -0.653   1.645  -1.108  0.00  0.00     0.055 A 
ATOM      6  C5  BZF d   1       0.571   1.740  -1.690  0.00  0.00    -0.016 A 
ATOM      7  C6  BZF d   1       1.668   1.070  -1.189  0.00  0.00     0.022 A 
ATOM      8  C7  BZF d   1       1.569   0.277  -0.095  0.00  0.00     0.029 A 
ATOM      9  C7A BZF d   1       0.326   0.152   0.476  0.00  0.00     0.058 A 
ENDROOT
TORSDOF 0
ENDMDL
