MODEL 1
REMARK minimizedAffinity -2.87690306
REMARK minimizedRMSD -1
REMARK  0 active torsions:
REMARK  status: ('A' for Active; 'I' for Inactive)
ROOT
ATOM      1  O1  BZF d   1       1.942   2.075  -1.107  0.00  0.00    -0.204 OA
ATOM      2  C2  BZF d   1       1.281   2.365   0.071  0.00  0.00     0.174 A 
ATOM      3  C3  BZF d   1       0.417   1.380   0.390  0.00  0.00    -0.012 A 
ATOM      4  C3A BZF d   1       0.614   0.370  -0.605  0.00  0.00    -0.107 A 
ATOM      5  C4  BZF d   1       0.058  -0.859  -0.818  0.00  0.00     0.055 A 
ATOM      6  C5  BZF d   1       0.416  -1.563  -1.923  0.00  0.00    -0.016 A 
ATOM      7  C6  BZF d   1       1.323  -1.068  -2.837  0.00  0.00     0.022 A 
ATOM      8  C7  BZF d   1       1.905   0.144  -2.666  0.00  0.00     0.029 A 
ATOM      9  C7A BZF d   1       1.569   0.844  -1.533  0.00  0.00     0.058 A 
ENDROOT
TORSDOF 0
ENDMDL
