MODEL 1
REMARK minimizedAffinity -2.64206743
REMARK minimizedRMSD -1
REMARK  0 active torsions:
REMARK  status: ('A' for Active; 'I' for Inactive)
ROOT
ATOM      1  O1  BZF d   1      -1.118  -0.763   0.872  0.00  0.00    -0.204 OA
ATOM      2  C2  BZF d   1      -1.462   0.564   1.042  0.00  0.00     0.174 A 
ATOM      3  C3  BZF d   1      -0.773   1.350   0.189  0.00  0.00    -0.012 A 
ATOM      4  C3A BZF d   1      -0.016   0.449  -0.624  0.00  0.00    -0.107 A 
ATOM      5  C4  BZF d   1       0.852   0.626  -1.664  0.00  0.00     0.055 A 
ATOM      6  C5  BZF d   1       1.479  -0.458  -2.192  0.00  0.00    -0.016 A 
ATOM      7  C6  BZF d   1       1.267  -1.730  -1.703  0.00  0.00     0.022 A 
ATOM      8  C7  BZF d   1       0.412  -1.956  -0.676  0.00  0.00     0.029 A 
ATOM      9  C7A BZF d   1      -0.249  -0.867  -0.161  0.00  0.00     0.058 A 
ENDROOT
TORSDOF 0
ENDMDL
