MODEL 1
REMARK minimizedAffinity -5.03852367
REMARK minimizedRMSD -1
REMARK  0 active torsions:
REMARK  status: ('A' for Active; 'I' for Inactive)
ROOT
ATOM      1  O1  BZF d   1       0.090  -1.870   0.358  0.00  0.00    -0.204 OA
ATOM      2  C2  BZF d   1      -0.543  -1.119   1.329  0.00  0.00     0.174 A 
ATOM      3  C3  BZF d   1      -0.647   0.170   0.945  0.00  0.00    -0.012 A 
ATOM      4  C3A BZF d   1      -0.124   0.209  -0.387  0.00  0.00    -0.107 A 
ATOM      5  C4  BZF d   1       0.028   1.206  -1.307  0.00  0.00     0.055 A 
ATOM      6  C5  BZF d   1       0.641   0.928  -2.487  0.00  0.00    -0.016 A 
ATOM      7  C6  BZF d   1       1.119  -0.333  -2.778  0.00  0.00     0.022 A 
ATOM      8  C7  BZF d   1       0.987  -1.356  -1.898  0.00  0.00     0.029 A 
ATOM      9  C7A BZF d   1       0.339  -1.086  -0.718  0.00  0.00     0.058 A 
ENDROOT
TORSDOF 0
ENDMDL
