MODEL 1
REMARK minimizedAffinity -0.757288337
REMARK minimizedRMSD -1
REMARK  0 active torsions:
REMARK  status: ('A' for Active; 'I' for Inactive)
ROOT
ATOM      1  O1  BZF d   1      -1.014   0.021   1.858  0.00  0.00    -0.204 OA
ATOM      2  C2  BZF d   1      -1.525   1.236   1.443  0.00  0.00     0.174 A 
ATOM      3  C3  BZF d   1      -1.417   1.369   0.106  0.00  0.00    -0.012 A 
ATOM      4  C3A BZF d   1      -0.884   0.124  -0.355  0.00  0.00    -0.107 A 
ATOM      5  C4  BZF d   1      -0.565  -0.362  -1.591  0.00  0.00     0.055 A 
ATOM      6  C5  BZF d   1       0.005  -1.591  -1.690  0.00  0.00    -0.016 A 
ATOM      7  C6  BZF d   1       0.275  -2.359  -0.577  0.00  0.00     0.022 A 
ATOM      8  C7  BZF d   1      -0.028  -1.922   0.670  0.00  0.00     0.029 A 
ATOM      9  C7A BZF d   1      -0.634  -0.694   0.772  0.00  0.00     0.058 A 
ENDROOT
TORSDOF 0
ENDMDL
