MODEL 1
REMARK minimizedAffinity -1.46060121
REMARK minimizedRMSD -1
REMARK  0 active torsions:
REMARK  status: ('A' for Active; 'I' for Inactive)
ROOT
ATOM      1  O1  BZF d   1       1.028  -2.570  -0.695  0.00  0.00    -0.204 OA
ATOM      2  C2  BZF d   1       2.136  -2.947  -1.429  0.00  0.00     0.174 A 
ATOM      3  C3  BZF d   1       2.768  -1.866  -1.930  0.00  0.00    -0.012 A 
ATOM      4  C3A BZF d   1       2.060  -0.739  -1.405  0.00  0.00    -0.107 A 
ATOM      5  C4  BZF d   1       2.219   0.612  -1.530  0.00  0.00     0.055 A 
ATOM      6  C5  BZF d   1       1.312   1.440  -0.948  0.00  0.00    -0.016 A 
ATOM      7  C6  BZF d   1       0.233   0.953  -0.240  0.00  0.00     0.022 A 
ATOM      8  C7  BZF d   1       0.036  -0.378  -0.084  0.00  0.00     0.029 A 
ATOM      9  C7A BZF d   1       0.969  -1.218  -0.643  0.00  0.00     0.058 A 
ENDROOT
TORSDOF 0
ENDMDL
