MODEL 1
REMARK minimizedAffinity -0.546005309
REMARK minimizedRMSD -1
REMARK  0 active torsions:
REMARK  status: ('A' for Active; 'I' for Inactive)
ROOT
ATOM      1  O1  BZF d   1       1.846  -1.145  -0.863  0.00  0.00    -0.204 OA
ATOM      2  C2  BZF d   1       2.538  -0.190  -1.582  0.00  0.00     0.174 A 
ATOM      3  C3  BZF d   1       1.929   1.010  -1.494  0.00  0.00    -0.012 A 
ATOM      4  C3A BZF d   1       0.836   0.811  -0.592  0.00  0.00    -0.107 A 
ATOM      5  C4  BZF d   1      -0.130   1.637  -0.092  0.00  0.00     0.055 A 
ATOM      6  C5  BZF d   1      -1.095   1.114   0.710  0.00  0.00    -0.016 A 
ATOM      7  C6  BZF d   1      -1.126  -0.227   1.028  0.00  0.00     0.022 A 
ATOM      8  C7  BZF d   1      -0.187  -1.085   0.560  0.00  0.00     0.029 A 
ATOM      9  C7A BZF d   1       0.808  -0.554  -0.224  0.00  0.00     0.058 A 
ENDROOT
TORSDOF 0
ENDMDL
