MODEL 1
REMARK minimizedAffinity -1.29156351
REMARK minimizedRMSD -1
REMARK  0 active torsions:
REMARK  status: ('A' for Active; 'I' for Inactive)
ROOT
ATOM      1  O1  BZF d   1      -0.046  -1.565   0.404  0.00  0.00    -0.204 OA
ATOM      2  C2  BZF d   1      -0.674  -0.444   0.912  0.00  0.00     0.174 A 
ATOM      3  C3  BZF d   1      -0.121   0.681   0.415  0.00  0.00    -0.012 A 
ATOM      4  C3A BZF d   1       0.857   0.233  -0.530  0.00  0.00    -0.107 A 
ATOM      5  C4  BZF d   1       1.725   0.882  -1.361  0.00  0.00     0.055 A 
ATOM      6  C5  BZF d   1       2.598   0.152  -2.103  0.00  0.00    -0.016 A 
ATOM      7  C6  BZF d   1       2.635  -1.225  -2.036  0.00  0.00     0.022 A 
ATOM      8  C7  BZF d   1       1.790  -1.913  -1.230  0.00  0.00     0.029 A 
ATOM      9  C7A BZF d   1       0.883  -1.180  -0.503  0.00  0.00     0.058 A 
ENDROOT
TORSDOF 0
ENDMDL
