MODEL 1
REMARK minimizedAffinity -1.13543808
REMARK minimizedRMSD -1
REMARK  0 active torsions:
REMARK  status: ('A' for Active; 'I' for Inactive)
ROOT
ATOM      1  O1  BZF d   1      -3.532   1.207   0.270  0.00  0.00    -0.204 OA
ATOM      2  C2  BZF d   1      -4.106   0.795   1.458  0.00  0.00     0.174 A 
ATOM      3  C3  BZF d   1      -3.214   0.120   2.211  0.00  0.00    -0.012 A 
ATOM      4  C3A BZF d   1      -1.982   0.188   1.488  0.00  0.00    -0.107 A 
ATOM      5  C4  BZF d   1      -0.723  -0.282   1.731  0.00  0.00     0.055 A 
ATOM      6  C5  BZF d   1       0.240  -0.109   0.788  0.00  0.00    -0.016 A 
ATOM      7  C6  BZF d   1      -0.021   0.524  -0.409  0.00  0.00     0.022 A 
ATOM      8  C7  BZF d   1      -1.253   1.012  -0.694  0.00  0.00     0.029 A 
ATOM      9  C7A BZF d   1      -2.221   0.868   0.271  0.00  0.00     0.058 A 
ENDROOT
TORSDOF 0
ENDMDL
