MODEL 1
REMARK minimizedAffinity -0.311712354
REMARK minimizedRMSD -1
REMARK  0 active torsions:
REMARK  status: ('A' for Active; 'I' for Inactive)
ROOT
ATOM      1  O1  BZF d   1       1.491   1.806  -1.023  0.00  0.00    -0.204 OA
ATOM      2  C2  BZF d   1       2.395   1.346  -1.962  0.00  0.00     0.174 A 
ATOM      3  C3  BZF d   1       2.361  -0.000  -2.038  0.00  0.00    -0.012 A 
ATOM      4  C3A BZF d   1       1.310  -0.402  -1.155  0.00  0.00    -0.107 A 
ATOM      5  C4  BZF d   1       0.783  -1.614  -0.812  0.00  0.00     0.055 A 
ATOM      6  C5  BZF d   1      -0.190  -1.667   0.135  0.00  0.00    -0.016 A 
ATOM      7  C6  BZF d   1      -0.655  -0.530   0.763  0.00  0.00     0.022 A 
ATOM      8  C7  BZF d   1      -0.167   0.696   0.452  0.00  0.00     0.029 A 
ATOM      9  C7A BZF d   1       0.793   0.756  -0.528  0.00  0.00     0.058 A 
ENDROOT
TORSDOF 0
ENDMDL
