MODEL 1
REMARK minimizedAffinity -4.0058341
REMARK minimizedRMSD -1
REMARK  0 active torsions:
REMARK  status: ('A' for Active; 'I' for Inactive)
ROOT
ATOM      1  O1  BZF d   1      -3.055   1.783   0.444  0.00  0.00    -0.204 OA
ATOM      2  C2  BZF d   1      -3.469   0.762   1.276  0.00  0.00     0.174 A 
ATOM      3  C3  BZF d   1      -2.573  -0.247   1.278  0.00  0.00    -0.012 A 
ATOM      4  C3A BZF d   1      -1.490   0.211   0.463  0.00  0.00    -0.107 A 
ATOM      5  C4  BZF d   1      -0.294  -0.337   0.095  0.00  0.00     0.055 A 
ATOM      6  C5  BZF d   1       0.505   0.340  -0.770  0.00  0.00    -0.016 A 
ATOM      7  C6  BZF d   1       0.139   1.564  -1.291  0.00  0.00     0.022 A 
ATOM      8  C7  BZF d   1      -1.035   2.150  -0.952  0.00  0.00     0.029 A 
ATOM      9  C7A BZF d   1      -1.830   1.483  -0.052  0.00  0.00     0.058 A 
ENDROOT
TORSDOF 0
ENDMDL
