MODEL 1
REMARK minimizedAffinity -5.71884775
REMARK minimizedRMSD -1
REMARK  0 active torsions:
REMARK  status: ('A' for Active; 'I' for Inactive)
ROOT
ATOM      1  O1  BZF d   1      -0.136  -1.089   0.125  0.00  0.00    -0.204 OA
ATOM      2  C2  BZF d   1      -0.719   0.127   0.426  0.00  0.00     0.174 A 
ATOM      3  C3  BZF d   1      -0.227   1.102  -0.365  0.00  0.00    -0.012 A 
ATOM      4  C3A BZF d   1       0.655   0.439  -1.276  0.00  0.00    -0.107 A 
ATOM      5  C4  BZF d   1       1.430   0.870  -2.314  0.00  0.00     0.055 A 
ATOM      6  C5  BZF d   1       2.231  -0.021  -2.955  0.00  0.00    -0.016 A 
ATOM      7  C6  BZF d   1       2.284  -1.348  -2.582  0.00  0.00     0.022 A 
ATOM      8  C7  BZF d   1       1.530  -1.824  -1.562  0.00  0.00     0.029 A 
ATOM      9  C7A BZF d   1       0.695  -0.932  -0.933  0.00  0.00     0.058 A 
ENDROOT
TORSDOF 0
ENDMDL
