MODEL 1
REMARK minimizedAffinity -2.34892917
REMARK minimizedRMSD -1
REMARK  0 active torsions:
REMARK  status: ('A' for Active; 'I' for Inactive)
ROOT
ATOM      1  O1  BZF d   1      -0.723  -0.789   0.410  0.00  0.00    -0.204 OA
ATOM      2  C2  BZF d   1      -1.665  -0.005   1.049  0.00  0.00     0.174 A 
ATOM      3  C3  BZF d   1      -1.361   1.304   0.924  0.00  0.00    -0.012 A 
ATOM      4  C3A BZF d   1      -0.206   1.343   0.081  0.00  0.00    -0.107 A 
ATOM      5  C4  BZF d   1       0.557   2.359  -0.420  0.00  0.00     0.055 A 
ATOM      6  C5  BZF d   1       1.662   2.057  -1.152  0.00  0.00    -0.016 A 
ATOM      7  C6  BZF d   1       2.036   0.752  -1.397  0.00  0.00     0.022 A 
ATOM      8  C7  BZF d   1       1.308  -0.289  -0.925  0.00  0.00     0.029 A 
ATOM      9  C7A BZF d   1       0.173   0.013  -0.213  0.00  0.00     0.058 A 
ENDROOT
TORSDOF 0
ENDMDL
