MODEL 1
REMARK minimizedAffinity 2.30894017
REMARK minimizedRMSD -1
REMARK  2 active torsions:
REMARK  status: ('A' for Active; 'I' for Inactive)
REMARK    1  A    between atoms: C1_2  and  C2_3 
REMARK    2  A    between atoms: C2_3  and  C3_4 
ROOT
ATOM      1  C3  UNL d   1       0.027   1.428  -0.585  0.00  0.00    -0.075 A 
ATOM      2  C4  UNL d   1      -0.267   1.790   0.738  0.00  0.00     0.002 A 
ATOM      3  C5  UNL d   1       0.675   1.603   1.750  0.00  0.00     0.002 A 
ATOM      4  C6  UNL d   1       1.917   1.044   1.455  0.00  0.00    -0.004 A 
ATOM      5  C7  UNL d   1       2.213   0.665   0.148  0.00  0.00     0.002 A 
ATOM      6  C8  UNL d   1       1.274   0.854  -0.868  0.00  0.00     0.002 A 
ENDROOT
BRANCH   1   7
ATOM      7  C2  UNL d   1      -0.977   1.654  -1.689  0.00  0.00     0.056 C 
BRANCH   7   8
ATOM      8  C1  UNL d   1      -1.644   0.372  -2.199  0.00  0.00     0.007 C 
ATOM      9  C   UNL d   1      -2.533   0.600  -3.415  0.00  0.00     0.009 C 
ENDBRANCH   7   8
ENDBRANCH   1   7
TORSDOF 2
ENDMDL
