MODEL 1
REMARK minimizedAffinity 8.40166378
REMARK minimizedRMSD -1
REMARK  2 active torsions:
REMARK  status: ('A' for Active; 'I' for Inactive)
REMARK    1  A    between atoms: C1_2  and  C2_3 
REMARK    2  A    between atoms: C2_3  and  C3_4 
ROOT
ATOM      1  C3  UNL d   1       3.874   0.212  -0.754  0.00  0.00    -0.075 A 
ATOM      2  C4  UNL d   1       4.537   0.747  -1.869  0.00  0.00     0.002 A 
ATOM      3  C5  UNL d   1       5.596   1.639  -1.702  0.00  0.00     0.002 A 
ATOM      4  C6  UNL d   1       5.999   2.016  -0.423  0.00  0.00    -0.004 A 
ATOM      5  C7  UNL d   1       5.338   1.504   0.691  0.00  0.00     0.002 A 
ATOM      6  C8  UNL d   1       4.280   0.607   0.528  0.00  0.00     0.002 A 
ENDROOT
BRANCH   1   7
ATOM      7  C2  UNL d   1       2.746  -0.777  -0.927  0.00  0.00     0.056 C 
BRANCH   7   8
ATOM      8  C1  UNL d   1       3.023  -2.153  -0.312  0.00  0.00     0.007 C 
ATOM      9  C   UNL d   1       1.937  -3.176  -0.615  0.00  0.00     0.009 C 
ENDBRANCH   7   8
ENDBRANCH   1   7
TORSDOF 2
ENDMDL
