MODEL 1
REMARK minimizedAffinity 6.1131959
REMARK minimizedRMSD -1
REMARK  2 active torsions:
REMARK  status: ('A' for Active; 'I' for Inactive)
REMARK    1  A    between atoms: C1_2  and  C2_3 
REMARK    2  A    between atoms: C2_3  and  C3_4 
ROOT
ATOM      1  C3  UNL d   1       3.143   3.504   5.774  0.00  0.00    -0.075 A 
ATOM      2  C4  UNL d   1       4.490   3.579   5.390  0.00  0.00     0.002 A 
ATOM      3  C5  UNL d   1       5.107   4.817   5.210  0.00  0.00     0.002 A 
ATOM      4  C6  UNL d   1       4.385   5.993   5.401  0.00  0.00    -0.004 A 
ATOM      5  C7  UNL d   1       3.042   5.930   5.765  0.00  0.00     0.002 A 
ATOM      6  C8  UNL d   1       2.423   4.693   5.951  0.00  0.00     0.002 A 
ENDROOT
BRANCH   1   7
ATOM      7  C2  UNL d   1       2.478   2.167   5.999  0.00  0.00     0.056 C 
BRANCH   7   8
ATOM      8  C1  UNL d   1       2.485   1.251   4.771  0.00  0.00     0.007 C 
ATOM      9  C   UNL d   1       1.166   0.521   4.558  0.00  0.00     0.009 C 
ENDBRANCH   7   8
ENDBRANCH   1   7
TORSDOF 2
ENDMDL
