MODEL 1
REMARK minimizedAffinity 4.00643969
REMARK minimizedRMSD -1
REMARK  2 active torsions:
REMARK  status: ('A' for Active; 'I' for Inactive)
REMARK    1  A    between atoms: C1_2  and  C2_3 
REMARK    2  A    between atoms: C2_3  and  C3_4 
ROOT
ATOM      1  C3  UNL d   1      -4.849   1.909  -4.526  0.00  0.00    -0.075 A 
ATOM      2  C4  UNL d   1      -4.872   3.311  -4.556  0.00  0.00     0.002 A 
ATOM      3  C5  UNL d   1      -5.440   4.032  -3.506  0.00  0.00     0.002 A 
ATOM      4  C6  UNL d   1      -5.999   3.363  -2.419  0.00  0.00    -0.004 A 
ATOM      5  C7  UNL d   1      -5.997   1.971  -2.387  0.00  0.00     0.002 A 
ATOM      6  C8  UNL d   1      -5.426   1.246  -3.434  0.00  0.00     0.002 A 
ENDROOT
BRANCH   1   7
ATOM      7  C2  UNL d   1      -4.210   1.122  -5.646  0.00  0.00     0.056 C 
BRANCH   7   8
ATOM      8  C1  UNL d   1      -2.678   1.106  -5.601  0.00  0.00     0.007 C 
ATOM      9  C   UNL d   1      -2.122   0.683  -4.249  0.00  0.00     0.009 C 
ENDBRANCH   7   8
ENDBRANCH   1   7
TORSDOF 2
ENDMDL
