MODEL 1
REMARK minimizedAffinity 2.99376416
REMARK minimizedRMSD -1
REMARK  2 active torsions:
REMARK  status: ('A' for Active; 'I' for Inactive)
REMARK    1  A    between atoms: C1_2  and  C2_3 
REMARK    2  A    between atoms: C2_3  and  C3_4 
ROOT
ATOM      1  C3  UNL d   1       2.202  -2.273  -0.564  0.00  0.00    -0.075 A 
ATOM      2  C4  UNL d   1       1.729  -3.193   0.382  0.00  0.00     0.002 A 
ATOM      3  C5  UNL d   1       0.583  -3.947   0.126  0.00  0.00     0.002 A 
ATOM      4  C6  UNL d   1      -0.109  -3.783  -1.072  0.00  0.00    -0.004 A 
ATOM      5  C7  UNL d   1       0.343  -2.859  -2.012  0.00  0.00     0.002 A 
ATOM      6  C8  UNL d   1       1.492  -2.107  -1.760  0.00  0.00     0.002 A 
ENDROOT
BRANCH   1   7
ATOM      7  C2  UNL d   1       3.458  -1.476  -0.305  0.00  0.00     0.056 C 
BRANCH   7   8
ATOM      8  C1  UNL d   1       3.264   0.042  -0.397  0.00  0.00     0.007 C 
ATOM      9  C   UNL d   1       4.507   0.778  -0.879  0.00  0.00     0.009 C 
ENDBRANCH   7   8
ENDBRANCH   1   7
TORSDOF 2
ENDMDL
