MODEL 1
REMARK minimizedAffinity 8.90340614
REMARK minimizedRMSD -1
REMARK  2 active torsions:
REMARK  status: ('A' for Active; 'I' for Inactive)
REMARK    1  A    between atoms: C1_2  and  C2_3 
REMARK    2  A    between atoms: C2_3  and  C3_4 
ROOT
ATOM      1  C3  UNL d   1       1.890   0.417   0.221  0.00  0.00    -0.075 A 
ATOM      2  C4  UNL d   1       1.592   0.530   1.587  0.00  0.00     0.002 A 
ATOM      3  C5  UNL d   1       0.315   0.905   2.006  0.00  0.00     0.002 A 
ATOM      4  C6  UNL d   1      -0.676   1.180   1.066  0.00  0.00    -0.004 A 
ATOM      5  C7  UNL d   1      -0.387   1.087  -0.293  0.00  0.00     0.002 A 
ATOM      6  C8  UNL d   1       0.888   0.708  -0.715  0.00  0.00     0.002 A 
ENDROOT
BRANCH   1   7
ATOM      7  C2  UNL d   1       3.261  -0.017  -0.237  0.00  0.00     0.056 C 
BRANCH   7   8
ATOM      8  C1  UNL d   1       3.729   0.660  -1.530  0.00  0.00     0.007 C 
ATOM      9  C   UNL d   1       4.568   1.907  -1.286  0.00  0.00     0.009 C 
ENDBRANCH   7   8
ENDBRANCH   1   7
TORSDOF 2
ENDMDL
