MODEL 1
REMARK minimizedAffinity 3.56974292
REMARK minimizedRMSD -1
REMARK  2 active torsions:
REMARK  status: ('A' for Active; 'I' for Inactive)
REMARK    1  A    between atoms: C1_2  and  C2_3 
REMARK    2  A    between atoms: C2_3  and  C3_4 
ROOT
ATOM      1  C3  UNL d   1       3.774   0.436  -0.672  0.00  0.00    -0.075 A 
ATOM      2  C4  UNL d   1       4.496   0.549   0.525  0.00  0.00     0.002 A 
ATOM      3  C5  UNL d   1       5.574   1.429   0.621  0.00  0.00     0.002 A 
ATOM      4  C6  UNL d   1       5.950   2.198  -0.479  0.00  0.00    -0.004 A 
ATOM      5  C7  UNL d   1       5.250   2.081  -1.677  0.00  0.00     0.002 A 
ATOM      6  C8  UNL d   1       4.168   1.205  -1.775  0.00  0.00     0.002 A 
ENDROOT
BRANCH   1   7
ATOM      7  C2  UNL d   1       2.587  -0.493  -0.774  0.00  0.00     0.056 C 
BRANCH   7   8
ATOM      8  C1  UNL d   1       2.721  -1.769   0.064  0.00  0.00     0.007 C 
ATOM      9  C   UNL d   1       1.897  -2.931  -0.476  0.00  0.00     0.009 C 
ENDBRANCH   7   8
ENDBRANCH   1   7
TORSDOF 2
ENDMDL
