MODEL 1
REMARK minimizedAffinity 7.78992987
REMARK minimizedRMSD -1
REMARK  2 active torsions:
REMARK  status: ('A' for Active; 'I' for Inactive)
REMARK    1  A    between atoms: C1_2  and  C2_3 
REMARK    2  A    between atoms: C2_3  and  C3_4 
ROOT
ATOM      1  C3  UNL d   1       1.136   3.390   2.395  0.00  0.00    -0.075 A 
ATOM      2  C4  UNL d   1       1.262   2.013   2.162  0.00  0.00     0.002 A 
ATOM      3  C5  UNL d   1       0.300   1.329   1.419  0.00  0.00     0.002 A 
ATOM      4  C6  UNL d   1      -0.804   2.009   0.909  0.00  0.00    -0.004 A 
ATOM      5  C7  UNL d   1      -0.949   3.374   1.149  0.00  0.00     0.002 A 
ATOM      6  C8  UNL d   1       0.015   4.062   1.889  0.00  0.00     0.002 A 
ENDROOT
BRANCH   1   7
ATOM      7  C2  UNL d   1       2.189   4.142   3.174  0.00  0.00     0.056 C 
BRANCH   7   8
ATOM      8  C1  UNL d   1       1.882   5.632   3.361  0.00  0.00     0.007 C 
ATOM      9  C   UNL d   1       1.551   6.000   4.801  0.00  0.00     0.009 C 
ENDBRANCH   7   8
ENDBRANCH   1   7
TORSDOF 2
ENDMDL
