MODEL 1
REMARK minimizedAffinity 12.6032257
REMARK minimizedRMSD -1
REMARK  2 active torsions:
REMARK  status: ('A' for Active; 'I' for Inactive)
REMARK    1  A    between atoms: C1_2  and  C2_3 
REMARK    2  A    between atoms: C2_3  and  C3_4 
ROOT
ATOM      1  C3  UNL d   1       3.185   0.331  -0.472  0.00  0.00    -0.075 A 
ATOM      2  C4  UNL d   1       4.174   0.141   0.504  0.00  0.00     0.002 A 
ATOM      3  C5  UNL d   1       5.516   0.387   0.210  0.00  0.00     0.002 A 
ATOM      4  C6  UNL d   1       5.886   0.815  -1.063  0.00  0.00    -0.004 A 
ATOM      5  C7  UNL d   1       4.913   0.991  -2.045  0.00  0.00     0.002 A 
ATOM      6  C8  UNL d   1       3.570   0.750  -1.752  0.00  0.00     0.002 A 
ENDROOT
BRANCH   1   7
ATOM      7  C2  UNL d   1       1.728   0.094  -0.152  0.00  0.00     0.056 C 
BRANCH   7   8
ATOM      8  C1  UNL d   1       1.358   0.370   1.310  0.00  0.00     0.007 C 
ATOM      9  C   UNL d   1       0.054   1.140   1.464  0.00  0.00     0.009 C 
ENDBRANCH   7   8
ENDBRANCH   1   7
TORSDOF 2
ENDMDL
