MODEL 1
REMARK minimizedAffinity -4.52207041
REMARK minimizedRMSD -1
REMARK  2 active torsions:
REMARK  status: ('A' for Active; 'I' for Inactive)
REMARK    1  A    between atoms: C1_2  and  C2_3 
REMARK    2  A    between atoms: C2_3  and  C3_4 
ROOT
ATOM      1  C3  UNL d   1       0.385   0.095  -1.035  0.00  0.00    -0.075 A 
ATOM      2  C4  UNL d   1      -0.927  -0.396  -0.968  0.00  0.00     0.002 A 
ATOM      3  C5  UNL d   1      -1.416  -1.246  -1.961  0.00  0.00     0.002 A 
ATOM      4  C6  UNL d   1      -0.606  -1.608  -3.034  0.00  0.00    -0.004 A 
ATOM      5  C7  UNL d   1       0.694  -1.113  -3.119  0.00  0.00     0.002 A 
ATOM      6  C8  UNL d   1       1.187  -0.265  -2.125  0.00  0.00     0.002 A 
ENDROOT
BRANCH   1   7
ATOM      7  C2  UNL d   1       0.930   0.992   0.051  0.00  0.00     0.056 C 
BRANCH   7   8
ATOM      8  C1  UNL d   1       1.782   0.261   1.094  0.00  0.00     0.007 C 
ATOM      9  C   UNL d   1       1.014  -0.080   2.365  0.00  0.00     0.009 C 
ENDBRANCH   7   8
ENDBRANCH   1   7
TORSDOF 2
ENDMDL
