MODEL 1
REMARK minimizedAffinity -3.6440208
REMARK minimizedRMSD -1
REMARK  2 active torsions:
REMARK  status: ('A' for Active; 'I' for Inactive)
REMARK    1  A    between atoms: C1_2  and  C2_3 
REMARK    2  A    between atoms: C2_3  and  C3_4 
ROOT
ATOM      1  C3  UNL d   1       0.027  -0.316  -1.398  0.00  0.00    -0.075 A 
ATOM      2  C4  UNL d   1      -0.786  -1.399  -1.764  0.00  0.00     0.002 A 
ATOM      3  C5  UNL d   1      -0.467  -2.179  -2.876  0.00  0.00     0.002 A 
ATOM      4  C6  UNL d   1       0.659  -1.881  -3.640  0.00  0.00    -0.004 A 
ATOM      5  C7  UNL d   1       1.464  -0.798  -3.295  0.00  0.00     0.002 A 
ATOM      6  C8  UNL d   1       1.150  -0.018  -2.180  0.00  0.00     0.002 A 
ENDROOT
BRANCH   1   7
ATOM      7  C2  UNL d   1      -0.296   0.514  -0.178  0.00  0.00     0.056 C 
BRANCH   7   8
ATOM      8  C1  UNL d   1       0.908   0.781   0.732  0.00  0.00     0.007 C 
ATOM      9  C   UNL d   1       1.363  -0.452   1.501  0.00  0.00     0.009 C 
ENDBRANCH   7   8
ENDBRANCH   1   7
TORSDOF 2
ENDMDL
