MODEL 1
REMARK minimizedAffinity -4.36538982
REMARK minimizedRMSD -1
REMARK  2 active torsions:
REMARK  status: ('A' for Active; 'I' for Inactive)
REMARK    1  A    between atoms: C1_2  and  C2_3 
REMARK    2  A    between atoms: C2_3  and  C3_4 
ROOT
ATOM      1  C3  UNL d   1      -0.857  -0.582   0.778  0.00  0.00    -0.075 A 
ATOM      2  C4  UNL d   1      -1.047  -0.908   2.128  0.00  0.00     0.002 A 
ATOM      3  C5  UNL d   1      -0.101  -0.540   3.086  0.00  0.00     0.002 A 
ATOM      4  C6  UNL d   1       1.049   0.148   2.705  0.00  0.00    -0.004 A 
ATOM      5  C7  UNL d   1       1.256   0.463   1.363  0.00  0.00     0.002 A 
ATOM      6  C8  UNL d   1       0.309   0.100   0.404  0.00  0.00     0.002 A 
ENDROOT
BRANCH   1   7
ATOM      7  C2  UNL d   1      -1.891  -0.951  -0.259  0.00  0.00     0.056 C 
BRANCH   7   8
ATOM      8  C1  UNL d   1      -3.094  -0.003  -0.305  0.00  0.00     0.007 C 
ATOM      9  C   UNL d   1      -2.965   1.079  -1.369  0.00  0.00     0.009 C 
ENDBRANCH   7   8
ENDBRANCH   1   7
TORSDOF 2
ENDMDL
