MODEL 1
REMARK minimizedAffinity -5.18755865
REMARK minimizedRMSD -1
REMARK  2 active torsions:
REMARK  status: ('A' for Active; 'I' for Inactive)
REMARK    1  A    between atoms: C1_2  and  C2_3 
REMARK    2  A    between atoms: C2_3  and  C3_4 
ROOT
ATOM      1  C3  UNL d   1      -0.796  -0.120   0.968  0.00  0.00    -0.075 A 
ATOM      2  C4  UNL d   1      -2.129  -0.196   1.398  0.00  0.00     0.002 A 
ATOM      3  C5  UNL d   1      -2.429  -0.342   2.752  0.00  0.00     0.002 A 
ATOM      4  C6  UNL d   1      -1.404  -0.424   3.692  0.00  0.00    -0.004 A 
ATOM      5  C7  UNL d   1      -0.076  -0.365   3.275  0.00  0.00     0.002 A 
ATOM      6  C8  UNL d   1       0.228  -0.214   1.920  0.00  0.00     0.002 A 
ENDROOT
BRANCH   1   7
ATOM      7  C2  UNL d   1      -0.464   0.068  -0.493  0.00  0.00     0.056 C 
BRANCH   7   8
ATOM      8  C1  UNL d   1      -1.438  -0.631  -1.448  0.00  0.00     0.007 C 
ATOM      9  C   UNL d   1      -0.769  -1.683  -2.323  0.00  0.00     0.009 C 
ENDBRANCH   7   8
ENDBRANCH   1   7
TORSDOF 2
ENDMDL
