MODEL 1
REMARK minimizedAffinity -6.21209145
REMARK minimizedRMSD -1
REMARK  2 active torsions:
REMARK  status: ('A' for Active; 'I' for Inactive)
REMARK    1  A    between atoms: C1_2  and  C2_3 
REMARK    2  A    between atoms: C2_3  and  C3_4 
ROOT
ATOM      1  C3  UNL d   1      -1.069  -0.154  -0.070  0.00  0.00    -0.075 A 
ATOM      2  C4  UNL d   1      -2.301   0.050   0.570  0.00  0.00     0.002 A 
ATOM      3  C5  UNL d   1      -2.392   0.003   1.961  0.00  0.00     0.002 A 
ATOM      4  C6  UNL d   1      -1.259  -0.259   2.728  0.00  0.00    -0.004 A 
ATOM      5  C7  UNL d   1      -0.034  -0.479   2.102  0.00  0.00     0.002 A 
ATOM      6  C8  UNL d   1       0.061  -0.428   0.711  0.00  0.00     0.002 A 
ENDROOT
BRANCH   1   7
ATOM      7  C2  UNL d   1      -0.958  -0.074  -1.574  0.00  0.00     0.056 C 
BRANCH   7   8
ATOM      8  C1  UNL d   1      -0.695  -1.423  -2.252  0.00  0.00     0.007 C 
ATOM      9  C   UNL d   1       0.726  -1.562  -2.780  0.00  0.00     0.009 C 
ENDBRANCH   7   8
ENDBRANCH   1   7
TORSDOF 2
ENDMDL
