MODEL 1
REMARK minimizedAffinity -6.71038532
REMARK minimizedRMSD -1
REMARK  2 active torsions:
REMARK  status: ('A' for Active; 'I' for Inactive)
REMARK    1  A    between atoms: C1_2  and  C2_3 
REMARK    2  A    between atoms: C2_3  and  C3_4 
ROOT
ATOM      1  C3  UNL d   1      -0.731  -0.098   0.375  0.00  0.00    -0.075 A 
ATOM      2  C4  UNL d   1      -2.092   0.122   0.120  0.00  0.00     0.002 A 
ATOM      3  C5  UNL d   1      -3.002   0.226   1.172  0.00  0.00     0.002 A 
ATOM      4  C6  UNL d   1      -2.567   0.100   2.489  0.00  0.00    -0.004 A 
ATOM      5  C7  UNL d   1      -1.219  -0.136   2.754  0.00  0.00     0.002 A 
ATOM      6  C8  UNL d   1      -0.305  -0.235   1.703  0.00  0.00     0.002 A 
ENDROOT
BRANCH   1   7
ATOM      7  C2  UNL d   1       0.265  -0.182  -0.757  0.00  0.00     0.056 C 
BRANCH   7   8
ATOM      8  C1  UNL d   1      -0.369  -0.108  -2.151  0.00  0.00     0.007 C 
ATOM      9  C   UNL d   1      -0.161  -1.372  -2.973  0.00  0.00     0.009 C 
ENDBRANCH   7   8
ENDBRANCH   1   7
TORSDOF 2
ENDMDL
