MODEL 1
REMARK minimizedAffinity -6.666852
REMARK minimizedRMSD -1
REMARK  2 active torsions:
REMARK  status: ('A' for Active; 'I' for Inactive)
REMARK    1  A    between atoms: C1_2  and  C2_3 
REMARK    2  A    between atoms: C2_3  and  C3_4 
ROOT
ATOM      1  C3  UNL d   1      -1.452   0.080  -0.201  0.00  0.00    -0.075 A 
ATOM      2  C4  UNL d   1      -2.684   0.188   0.460  0.00  0.00     0.002 A 
ATOM      3  C5  UNL d   1      -2.762   0.032   1.844  0.00  0.00     0.002 A 
ATOM      4  C6  UNL d   1      -1.613  -0.243   2.582  0.00  0.00    -0.004 A 
ATOM      5  C7  UNL d   1      -0.386  -0.368   1.934  0.00  0.00     0.002 A 
ATOM      6  C8  UNL d   1      -0.305  -0.208   0.550  0.00  0.00     0.002 A 
ENDROOT
BRANCH   1   7
ATOM      7  C2  UNL d   1      -1.356   0.277  -1.695  0.00  0.00     0.056 C 
BRANCH   7   8
ATOM      8  C1  UNL d   1      -0.069  -0.275  -2.316  0.00  0.00     0.007 C 
ATOM      9  C   UNL d   1      -0.323  -1.240  -3.467  0.00  0.00     0.009 C 
ENDBRANCH   7   8
ENDBRANCH   1   7
TORSDOF 2
ENDMDL
