MODEL 1
REMARK minimizedAffinity -2.44766617
REMARK minimizedRMSD -1
REMARK  2 active torsions:
REMARK  status: ('A' for Active; 'I' for Inactive)
REMARK    1  A    between atoms: C1_2  and  C2_3 
REMARK    2  A    between atoms: C2_3  and  C3_4 
ROOT
ATOM      1  C3  UNL d   1       0.247  -0.062  -1.510  0.00  0.00    -0.075 A 
ATOM      2  C4  UNL d   1      -1.116  -0.149  -1.189  0.00  0.00     0.002 A 
ATOM      3  C5  UNL d   1      -1.966  -0.975  -1.925  0.00  0.00     0.002 A 
ATOM      4  C6  UNL d   1      -1.468  -1.715  -2.995  0.00  0.00    -0.004 A 
ATOM      5  C7  UNL d   1      -0.119  -1.623  -3.333  0.00  0.00     0.002 A 
ATOM      6  C8  UNL d   1       0.734  -0.801  -2.595  0.00  0.00     0.002 A 
ENDROOT
BRANCH   1   7
ATOM      7  C2  UNL d   1       1.177   0.808  -0.698  0.00  0.00     0.056 C 
BRANCH   7   8
ATOM      8  C1  UNL d   1       1.714   0.134   0.569  0.00  0.00     0.007 C 
ATOM      9  C   UNL d   1       1.038   0.626   1.842  0.00  0.00     0.009 C 
ENDBRANCH   7   8
ENDBRANCH   1   7
TORSDOF 2
ENDMDL
