MODEL 1
REMARK minimizedAffinity -3.89937806
REMARK minimizedRMSD -1
REMARK  2 active torsions:
REMARK  status: ('A' for Active; 'I' for Inactive)
REMARK    1  A    between atoms: C1_2  and  C2_3 
REMARK    2  A    between atoms: C2_3  and  C3_4 
ROOT
ATOM      1  C3  UNL d   1       0.369  -0.586  -1.690  0.00  0.00    -0.075 A 
ATOM      2  C4  UNL d   1      -0.974  -0.891  -1.957  0.00  0.00     0.002 A 
ATOM      3  C5  UNL d   1      -1.996  -0.303  -1.211  0.00  0.00     0.002 A 
ATOM      4  C6  UNL d   1      -1.689   0.587  -0.184  0.00  0.00    -0.004 A 
ATOM      5  C7  UNL d   1      -0.358   0.885   0.101  0.00  0.00     0.002 A 
ATOM      6  C8  UNL d   1       0.666   0.302  -0.647  0.00  0.00     0.002 A 
ENDROOT
BRANCH   1   7
ATOM      7  C2  UNL d   1       1.478  -1.195  -2.513  0.00  0.00     0.056 C 
BRANCH   7   8
ATOM      8  C1  UNL d   1       1.925  -0.330  -3.696  0.00  0.00     0.007 C 
ATOM      9  C   UNL d   1       3.083   0.599  -3.357  0.00  0.00     0.009 C 
ENDBRANCH   7   8
ENDBRANCH   1   7
TORSDOF 2
ENDMDL
