MODEL 1
REMARK minimizedAffinity -4.49689341
REMARK minimizedRMSD -1
REMARK  2 active torsions:
REMARK  status: ('A' for Active; 'I' for Inactive)
REMARK    1  A    between atoms: C1_2  and  C2_3 
REMARK    2  A    between atoms: C2_3  and  C3_4 
ROOT
ATOM      1  C3  UNL d   1       0.124  -0.169  -1.387  0.00  0.00    -0.075 A 
ATOM      2  C4  UNL d   1      -1.102  -0.786  -1.678  0.00  0.00     0.002 A 
ATOM      3  C5  UNL d   1      -1.199  -1.716  -2.713  0.00  0.00     0.002 A 
ATOM      4  C6  UNL d   1      -0.077  -2.034  -3.476  0.00  0.00    -0.004 A 
ATOM      5  C7  UNL d   1       1.142  -1.415  -3.206  0.00  0.00     0.002 A 
ATOM      6  C8  UNL d   1       1.243  -0.487  -2.168  0.00  0.00     0.002 A 
ENDROOT
BRANCH   1   7
ATOM      7  C2  UNL d   1       0.242   0.816  -0.249  0.00  0.00     0.056 C 
BRANCH   7   8
ATOM      8  C1  UNL d   1       1.025   0.286   0.956  0.00  0.00     0.007 C 
ATOM      9  C   UNL d   1       0.271   0.427   2.271  0.00  0.00     0.009 C 
ENDBRANCH   7   8
ENDBRANCH   1   7
TORSDOF 2
ENDMDL
