MODEL 1
REMARK minimizedAffinity -2.93022966
REMARK minimizedRMSD -1
REMARK  2 active torsions:
REMARK  status: ('A' for Active; 'I' for Inactive)
REMARK    1  A    between atoms: C1_2  and  C2_3 
REMARK    2  A    between atoms: C2_3  and  C3_4 
ROOT
ATOM      1  C3  UNL d   1       0.610   0.115  -1.056  0.00  0.00    -0.075 A 
ATOM      2  C4  UNL d   1       1.436   0.244   0.070  0.00  0.00     0.002 A 
ATOM      3  C5  UNL d   1       0.883   0.340   1.347  0.00  0.00     0.002 A 
ATOM      4  C6  UNL d   1      -0.500   0.318   1.514  0.00  0.00    -0.004 A 
ATOM      5  C7  UNL d   1      -1.331   0.207   0.401  0.00  0.00     0.002 A 
ATOM      6  C8  UNL d   1      -0.780   0.107  -0.878  0.00  0.00     0.002 A 
ENDROOT
BRANCH   1   7
ATOM      7  C2  UNL d   1       1.203  -0.018  -2.438  0.00  0.00     0.056 C 
BRANCH   7   8
ATOM      8  C1  UNL d   1       0.799  -1.303  -3.169  0.00  0.00     0.007 C 
ATOM      9  C   UNL d   1       1.981  -2.205  -3.496  0.00  0.00     0.009 C 
ENDBRANCH   7   8
ENDBRANCH   1   7
TORSDOF 2
ENDMDL
