MODEL 1
REMARK minimizedAffinity -5.21905661
REMARK minimizedRMSD -1
REMARK  2 active torsions:
REMARK  status: ('A' for Active; 'I' for Inactive)
REMARK    1  A    between atoms: C1_2  and  C2_3 
REMARK    2  A    between atoms: C2_3  and  C3_4 
ROOT
ATOM      1  C3  UNL d   1       0.153  -0.472  -1.253  0.00  0.00    -0.075 A 
ATOM      2  C4  UNL d   1       0.579   0.839  -0.996  0.00  0.00     0.002 A 
ATOM      3  C5  UNL d   1       1.060   1.193   0.264  0.00  0.00     0.002 A 
ATOM      4  C6  UNL d   1       1.112   0.246   1.285  0.00  0.00    -0.004 A 
ATOM      5  C7  UNL d   1       0.676  -1.055   1.045  0.00  0.00     0.002 A 
ATOM      6  C8  UNL d   1       0.198  -1.414  -0.217  0.00  0.00     0.002 A 
ENDROOT
BRANCH   1   7
ATOM      7  C2  UNL d   1      -0.342  -0.869  -2.624  0.00  0.00     0.056 C 
BRANCH   7   8
ATOM      8  C1  UNL d   1       0.719  -0.764  -3.724  0.00  0.00     0.007 C 
ATOM      9  C   UNL d   1       1.912  -1.684  -3.499  0.00  0.00     0.009 C 
ENDBRANCH   7   8
ENDBRANCH   1   7
TORSDOF 2
ENDMDL
