MODEL 1
REMARK minimizedAffinity -4.56449938
REMARK minimizedRMSD -1
REMARK  2 active torsions:
REMARK  status: ('A' for Active; 'I' for Inactive)
REMARK    1  A    between atoms: C1_2  and  C2_3 
REMARK    2  A    between atoms: C2_3  and  C3_4 
ROOT
ATOM      1  C3  UNL d   1      -0.322   0.043   0.593  0.00  0.00    -0.075 A 
ATOM      2  C4  UNL d   1       1.067  -0.013   0.778  0.00  0.00     0.002 A 
ATOM      3  C5  UNL d   1       1.612  -0.009   2.062  0.00  0.00     0.002 A 
ATOM      4  C6  UNL d   1       0.778   0.062   3.176  0.00  0.00    -0.004 A 
ATOM      5  C7  UNL d   1      -0.603   0.135   3.004  0.00  0.00     0.002 A 
ATOM      6  C8  UNL d   1      -1.151   0.126   1.720  0.00  0.00     0.002 A 
ENDROOT
BRANCH   1   7
ATOM      7  C2  UNL d   1      -0.920   0.009  -0.793  0.00  0.00     0.056 C 
BRANCH   7   8
ATOM      8  C1  UNL d   1      -0.495  -1.206  -1.625  0.00  0.00     0.007 C 
ATOM      9  C   UNL d   1       0.613  -0.893  -2.622  0.00  0.00     0.009 C 
ENDBRANCH   7   8
ENDBRANCH   1   7
TORSDOF 2
ENDMDL
