MODEL 1
REMARK minimizedAffinity 2.40572619
REMARK minimizedRMSD -1
REMARK  2 active torsions:
REMARK  status: ('A' for Active; 'I' for Inactive)
REMARK    1  A    between atoms: C2'_3  and  C1'_4 
REMARK    2  A    between atoms: C1'_4  and  C1_5 
ROOT
ATOM      1  C1  I4B d   1      -0.341  -0.139   1.086  0.00  0.00    -0.075 A 
ATOM      2  C2  I4B d   1      -1.105  -0.194  -0.053  0.00  0.00     0.003 A 
ATOM      3  C3  I4B d   1      -0.573  -0.748  -1.242  0.00  0.00     0.002 A 
ATOM      4  C4  I4B d   1       0.736  -1.185  -1.262  0.00  0.00    -0.004 A 
ATOM      5  C5  I4B d   1       1.501  -1.149  -0.100  0.00  0.00     0.002 A 
ATOM      6  C6  I4B d   1       0.956  -0.634   1.085  0.00  0.00     0.003 A 
ENDROOT
BRANCH   1   7
ATOM      7  C1' I4B d   1      -0.924   0.483   2.316  0.00  0.00     0.060 C 
BRANCH   7   8
ATOM      8  C2' I4B d   1      -0.730   1.982   2.218  0.00  0.00    -0.013 C 
ATOM      9  C4' I4B d   1      -2.005   2.672   1.811  0.00  0.00     0.013 C 
ATOM     10  C3' I4B d   1      -0.249   2.475   3.550  0.00  0.00     0.013 C 
ENDBRANCH   7   8
ENDBRANCH   1   7
TORSDOF 2
ENDMDL
