MODEL 1
REMARK minimizedAffinity -0.738121331
REMARK minimizedRMSD -1
REMARK  2 active torsions:
REMARK  status: ('A' for Active; 'I' for Inactive)
REMARK    1  A    between atoms: C2'_3  and  C1'_4 
REMARK    2  A    between atoms: C1'_4  and  C1_5 
ROOT
ATOM      1  C1  I4B d   1       0.470  -0.784  -0.384  0.00  0.00    -0.075 A 
ATOM      2  C2  I4B d   1      -0.078  -1.053   0.845  0.00  0.00     0.003 A 
ATOM      3  C3  I4B d   1      -0.655  -0.012   1.612  0.00  0.00     0.002 A 
ATOM      4  C4  I4B d   1      -0.617   1.283   1.138  0.00  0.00    -0.004 A 
ATOM      5  C5  I4B d   1      -0.082   1.551  -0.119  0.00  0.00     0.002 A 
ATOM      6  C6  I4B d   1       0.454   0.510  -0.890  0.00  0.00     0.003 A 
ENDROOT
BRANCH   1   7
ATOM      7  C1' I4B d   1       1.100  -1.901  -1.153  0.00  0.00     0.060 C 
BRANCH   7   8
ATOM      8  C2' I4B d   1       0.004  -2.622  -1.911  0.00  0.00    -0.013 C 
ATOM      9  C4' I4B d   1       0.153  -2.432  -3.397  0.00  0.00     0.013 C 
ATOM     10  C3' I4B d   1       0.064  -4.075  -1.542  0.00  0.00     0.013 C 
ENDBRANCH   7   8
ENDBRANCH   1   7
TORSDOF 2
ENDMDL
