MODEL 1
REMARK minimizedAffinity -3.43363333
REMARK minimizedRMSD -1
REMARK  2 active torsions:
REMARK  status: ('A' for Active; 'I' for Inactive)
REMARK    1  A    between atoms: C2'_3  and  C1'_4 
REMARK    2  A    between atoms: C1'_4  and  C1_5 
ROOT
ATOM      1  C1  I4B d   1       0.183   0.034  -0.170  0.00  0.00    -0.075 A 
ATOM      2  C2  I4B d   1      -0.388  -0.570   0.922  0.00  0.00     0.003 A 
ATOM      3  C3  I4B d   1      -1.112   0.201   1.864  0.00  0.00     0.002 A 
ATOM      4  C4  I4B d   1      -1.197   1.569   1.702  0.00  0.00    -0.004 A 
ATOM      5  C5  I4B d   1      -0.636   2.175   0.582  0.00  0.00     0.002 A 
ATOM      6  C6  I4B d   1       0.047   1.402  -0.367  0.00  0.00     0.003 A 
ENDROOT
BRANCH   1   7
ATOM      7  C1' I4B d   1       0.969  -0.805  -1.128  0.00  0.00     0.060 C 
BRANCH   7   8
ATOM      8  C2' I4B d   1       0.255  -2.132  -1.281  0.00  0.00    -0.013 C 
ATOM      9  C4' I4B d   1      -0.102  -2.397  -2.720  0.00  0.00     0.013 C 
ATOM     10  C3' I4B d   1       1.151  -3.206  -0.739  0.00  0.00     0.013 C 
ENDBRANCH   7   8
ENDBRANCH   1   7
TORSDOF 2
ENDMDL
