MODEL 1
REMARK minimizedAffinity -4.20044708
REMARK minimizedRMSD -1
REMARK  2 active torsions:
REMARK  status: ('A' for Active; 'I' for Inactive)
REMARK    1  A    between atoms: C2'_3  and  C1'_4 
REMARK    2  A    between atoms: C1'_4  and  C1_5 
ROOT
ATOM      1  C1  I4B d   1       0.096  -0.084   0.182  0.00  0.00    -0.075 A 
ATOM      2  C2  I4B d   1      -0.226   1.178  -0.250  0.00  0.00     0.003 A 
ATOM      3  C3  I4B d   1      -0.878   2.085   0.620  0.00  0.00     0.002 A 
ATOM      4  C4  I4B d   1      -1.233   1.674   1.889  0.00  0.00    -0.004 A 
ATOM      5  C5  I4B d   1      -0.885   0.402   2.333  0.00  0.00     0.002 A 
ATOM      6  C6  I4B d   1      -0.206  -0.479   1.479  0.00  0.00     0.003 A 
ENDROOT
BRANCH   1   7
ATOM      7  C1' I4B d   1       0.754  -1.027  -0.773  0.00  0.00     0.060 C 
BRANCH   7   8
ATOM      8  C2' I4B d   1      -0.317  -1.596  -1.682  0.00  0.00    -0.013 C 
ATOM      9  C4' I4B d   1       0.216  -2.738  -2.506  0.00  0.00     0.013 C 
ATOM     10  C3' I4B d   1      -1.465  -2.037  -0.823  0.00  0.00     0.013 C 
ENDBRANCH   7   8
ENDBRANCH   1   7
TORSDOF 2
ENDMDL
