MODEL 1
REMARK minimizedAffinity -3.55084944
REMARK minimizedRMSD -1
REMARK  2 active torsions:
REMARK  status: ('A' for Active; 'I' for Inactive)
REMARK    1  A    between atoms: C2'_3  and  C1'_4 
REMARK    2  A    between atoms: C1'_4  and  C1_5 
ROOT
ATOM      1  C1  I4B d   1       0.233  -0.180  -0.425  0.00  0.00    -0.075 A 
ATOM      2  C2  I4B d   1      -0.378  -0.882   0.584  0.00  0.00     0.003 A 
ATOM      3  C3  I4B d   1      -1.070  -0.197   1.611  0.00  0.00     0.002 A 
ATOM      4  C4  I4B d   1      -1.084   1.183   1.618  0.00  0.00    -0.004 A 
ATOM      5  C5  I4B d   1      -0.483   1.892   0.582  0.00  0.00     0.002 A 
ATOM      6  C6  I4B d   1       0.169   1.207  -0.453  0.00  0.00     0.003 A 
ENDROOT
BRANCH   1   7
ATOM      7  C1' I4B d   1       0.984  -0.935  -1.476  0.00  0.00     0.060 C 
BRANCH   7   8
ATOM      8  C2' I4B d   1       0.428  -2.343  -1.527  0.00  0.00    -0.013 C 
ATOM      9  C4' I4B d   1      -0.106  -2.670  -2.896  0.00  0.00     0.013 C 
ATOM     10  C3' I4B d   1       1.525  -3.288  -1.134  0.00  0.00     0.013 C 
ENDBRANCH   7   8
ENDBRANCH   1   7
TORSDOF 2
ENDMDL
