MODEL 1
REMARK minimizedAffinity 0.266355246
REMARK minimizedRMSD -1
REMARK  2 active torsions:
REMARK  status: ('A' for Active; 'I' for Inactive)
REMARK    1  A    between atoms: C2'_3  and  C1'_4 
REMARK    2  A    between atoms: C1'_4  and  C1_5 
ROOT
ATOM      1  C1  I4B d   1       1.073  -1.903  -1.484  0.00  0.00    -0.075 A 
ATOM      2  C2  I4B d   1       1.578  -2.907  -0.696  0.00  0.00     0.003 A 
ATOM      3  C3  I4B d   1       1.411  -4.261  -1.072  0.00  0.00     0.002 A 
ATOM      4  C4  I4B d   1       0.692  -4.567  -2.210  0.00  0.00    -0.004 A 
ATOM      5  C5  I4B d   1       0.200  -3.547  -3.020  0.00  0.00     0.002 A 
ATOM      6  C6  I4B d   1       0.403  -2.206  -2.661  0.00  0.00     0.003 A 
ENDROOT
BRANCH   1   7
ATOM      7  C1' I4B d   1       1.240  -0.485  -1.039  0.00  0.00     0.060 C 
BRANCH   7   8
ATOM      8  C2' I4B d   1      -0.140   0.106  -0.835  0.00  0.00    -0.013 C 
ATOM      9  C4' I4B d   1      -0.690  -0.250   0.521  0.00  0.00     0.013 C 
ATOM     10  C3' I4B d   1      -0.037   1.593  -1.005  0.00  0.00     0.013 C 
ENDBRANCH   7   8
ENDBRANCH   1   7
TORSDOF 2
ENDMDL
