MODEL 1
REMARK minimizedAffinity -4.97094631
REMARK minimizedRMSD -1
REMARK  2 active torsions:
REMARK  status: ('A' for Active; 'I' for Inactive)
REMARK    1  A    between atoms: C2'_3  and  C1'_4 
REMARK    2  A    between atoms: C1'_4  and  C1_5 
ROOT
ATOM      1  C1  I4B d   1      -0.702  -1.013   0.123  0.00  0.00    -0.075 A 
ATOM      2  C2  I4B d   1       0.062   0.088  -0.172  0.00  0.00     0.003 A 
ATOM      3  C3  I4B d   1      -0.090   1.282   0.574  0.00  0.00     0.002 A 
ATOM      4  C4  I4B d   1      -1.048   1.346   1.566  0.00  0.00    -0.004 A 
ATOM      5  C5  I4B d   1      -1.806   0.221   1.878  0.00  0.00     0.002 A 
ATOM      6  C6  I4B d   1      -1.624  -0.970   1.161  0.00  0.00     0.003 A 
ENDROOT
BRANCH   1   7
ATOM      7  C1' I4B d   1      -0.538  -2.247  -0.707  0.00  0.00     0.060 C 
BRANCH   7   8
ATOM      8  C2' I4B d   1       0.707  -2.078  -1.554  0.00  0.00    -0.013 C 
ATOM      9  C4' I4B d   1       1.884  -2.791  -0.942  0.00  0.00     0.013 C 
ATOM     10  C3' I4B d   1       0.408  -2.605  -2.926  0.00  0.00     0.013 C 
ENDBRANCH   7   8
ENDBRANCH   1   7
TORSDOF 2
ENDMDL
