MODEL 1
REMARK minimizedAffinity -3.9991715
REMARK minimizedRMSD -1
REMARK  2 active torsions:
REMARK  status: ('A' for Active; 'I' for Inactive)
REMARK    1  A    between atoms: C2'_3  and  C1'_4 
REMARK    2  A    between atoms: C1'_4  and  C1_5 
ROOT
ATOM      1  C1  I4B d   1       0.515  -1.471  -1.220  0.00  0.00    -0.075 A 
ATOM      2  C2  I4B d   1       1.342  -2.565  -1.284  0.00  0.00     0.003 A 
ATOM      3  C3  I4B d   1       0.907  -3.750  -1.926  0.00  0.00     0.002 A 
ATOM      4  C4  I4B d   1      -0.371  -3.814  -2.442  0.00  0.00    -0.004 A 
ATOM      5  C5  I4B d   1      -1.199  -2.696  -2.397  0.00  0.00     0.002 A 
ATOM      6  C6  I4B d   1      -0.749  -1.513  -1.793  0.00  0.00     0.003 A 
ENDROOT
BRANCH   1   7
ATOM      7  C1' I4B d   1       0.993  -0.247  -0.506  0.00  0.00     0.060 C 
BRANCH   7   8
ATOM      8  C2' I4B d   1      -0.220   0.485   0.029  0.00  0.00    -0.013 C 
ATOM      9  C4' I4B d   1      -0.427   0.201   1.494  0.00  0.00     0.013 C 
ATOM     10  C3' I4B d   1      -0.021   1.952  -0.215  0.00  0.00     0.013 C 
ENDBRANCH   7   8
ENDBRANCH   1   7
TORSDOF 2
ENDMDL
