MODEL 1
REMARK minimizedAffinity -3.05743265
REMARK minimizedRMSD -1
REMARK  2 active torsions:
REMARK  status: ('A' for Active; 'I' for Inactive)
REMARK    1  A    between atoms: C2'_3  and  C1'_4 
REMARK    2  A    between atoms: C1'_4  and  C1_5 
ROOT
ATOM      1  C1  I4B d   1      -0.209  -0.455  -0.639  0.00  0.00    -0.075 A 
ATOM      2  C2  I4B d   1       0.125   0.874  -0.703  0.00  0.00     0.003 A 
ATOM      3  C3  I4B d   1      -0.241   1.752   0.346  0.00  0.00     0.002 A 
ATOM      4  C4  I4B d   1      -0.980   1.271   1.408  0.00  0.00    -0.004 A 
ATOM      5  C5  I4B d   1      -1.298  -0.082   1.481  0.00  0.00     0.002 A 
ATOM      6  C6  I4B d   1      -0.900  -0.953   0.458  0.00  0.00     0.003 A 
ENDROOT
BRANCH   1   7
ATOM      7  C1' I4B d   1       0.165  -1.348  -1.780  0.00  0.00     0.060 C 
BRANCH   7   8
ATOM      8  C2' I4B d   1       0.392  -2.740  -1.229  0.00  0.00    -0.013 C 
ATOM      9  C4' I4B d   1      -0.220  -3.787  -2.122  0.00  0.00     0.013 C 
ATOM     10  C3' I4B d   1       1.871  -2.947  -1.087  0.00  0.00     0.013 C 
ENDBRANCH   7   8
ENDBRANCH   1   7
TORSDOF 2
ENDMDL
