MODEL 1
REMARK minimizedAffinity -2.66808772
REMARK minimizedRMSD -1
REMARK  2 active torsions:
REMARK  status: ('A' for Active; 'I' for Inactive)
REMARK    1  A    between atoms: C2'_3  and  C1'_4 
REMARK    2  A    between atoms: C1'_4  and  C1_5 
ROOT
ATOM      1  C1  I4B d   1       0.092   1.103   0.339  0.00  0.00    -0.075 A 
ATOM      2  C2  I4B d   1      -0.674   1.309   1.458  0.00  0.00     0.003 A 
ATOM      3  C3  I4B d   1      -1.120   2.612   1.788  0.00  0.00     0.002 A 
ATOM      4  C4  I4B d   1      -0.737   3.680   1.003  0.00  0.00    -0.004 A 
ATOM      5  C5  I4B d   1       0.022   3.467  -0.144  0.00  0.00     0.002 A 
ATOM      6  C6  I4B d   1       0.429   2.169  -0.486  0.00  0.00     0.003 A 
ENDROOT
BRANCH   1   7
ATOM      7  C1' I4B d   1       0.574  -0.281   0.039  0.00  0.00     0.060 C 
BRANCH   7   8
ATOM      8  C2' I4B d   1      -0.496  -0.981  -0.775  0.00  0.00    -0.013 C 
ATOM      9  C4' I4B d   1       0.062  -2.182  -1.491  0.00  0.00     0.013 C 
ATOM     10  C3' I4B d   1      -1.604  -1.372   0.157  0.00  0.00     0.013 C 
ENDBRANCH   7   8
ENDBRANCH   1   7
TORSDOF 2
ENDMDL
