MODEL 1
REMARK minimizedAffinity -3.4873364
REMARK minimizedRMSD -1
REMARK  2 active torsions:
REMARK  status: ('A' for Active; 'I' for Inactive)
REMARK    1  A    between atoms: C2'_3  and  C1'_4 
REMARK    2  A    between atoms: C1'_4  and  C1_5 
ROOT
ATOM      1  C1  I4B d   1       0.706   0.098  -0.258  0.00  0.00    -0.075 A 
ATOM      2  C2  I4B d   1      -0.095  -0.190   0.819  0.00  0.00     0.003 A 
ATOM      3  C3  I4B d   1      -0.932   0.808   1.372  0.00  0.00     0.002 A 
ATOM      4  C4  I4B d   1      -0.900   2.087   0.853  0.00  0.00    -0.004 A 
ATOM      5  C5  I4B d   1      -0.104   2.371  -0.253  0.00  0.00     0.002 A 
ATOM      6  C6  I4B d   1       0.695   1.368  -0.820  0.00  0.00     0.003 A 
ENDROOT
BRANCH   1   7
ATOM      7  C1' I4B d   1       1.602  -0.972  -0.797  0.00  0.00     0.060 C 
BRANCH   7   8
ATOM      8  C2' I4B d   1       0.733  -2.135  -1.229  0.00  0.00    -0.013 C 
ATOM      9  C4' I4B d   1       0.676  -2.246  -2.729  0.00  0.00     0.013 C 
ATOM     10  C3' I4B d   1       1.292  -3.384  -0.614  0.00  0.00     0.013 C 
ENDBRANCH   7   8
ENDBRANCH   1   7
TORSDOF 2
ENDMDL
