MODEL 1
REMARK minimizedAffinity -3.84068966
REMARK minimizedRMSD -1
REMARK  2 active torsions:
REMARK  status: ('A' for Active; 'I' for Inactive)
REMARK    1  A    between atoms: C2'_3  and  C1'_4 
REMARK    2  A    between atoms: C1'_4  and  C1_5 
ROOT
ATOM      1  C1  I4B d   1       0.598  -1.101  -0.026  0.00  0.00    -0.075 A 
ATOM      2  C2  I4B d   1      -0.770  -1.023  -0.104  0.00  0.00     0.003 A 
ATOM      3  C3  I4B d   1      -1.499  -0.294   0.867  0.00  0.00     0.002 A 
ATOM      4  C4  I4B d   1      -0.828   0.294   1.920  0.00  0.00    -0.004 A 
ATOM      5  C5  I4B d   1       0.561   0.232   1.986  0.00  0.00     0.002 A 
ATOM      6  C6  I4B d   1       1.280  -0.459   1.000  0.00  0.00     0.003 A 
ENDROOT
BRANCH   1   7
ATOM      7  C1' I4B d   1       1.334  -1.907  -1.049  0.00  0.00     0.060 C 
BRANCH   7   8
ATOM      8  C2' I4B d   1       0.310  -2.539  -1.970  0.00  0.00    -0.013 C 
ATOM      9  C4' I4B d   1       0.703  -2.380  -3.415  0.00  0.00     0.013 C 
ATOM     10  C3' I4B d   1       0.186  -3.987  -1.599  0.00  0.00     0.013 C 
ENDBRANCH   7   8
ENDBRANCH   1   7
TORSDOF 2
ENDMDL
