MODEL 1
REMARK minimizedAffinity -4.26644802
REMARK minimizedRMSD -1
REMARK  2 active torsions:
REMARK  status: ('A' for Active; 'I' for Inactive)
REMARK    1  A    between atoms: C2'_3  and  C1'_4 
REMARK    2  A    between atoms: C1'_4  and  C1_5 
ROOT
ATOM      1  C1  I4B d   1       0.483  -1.147  -1.163  0.00  0.00    -0.075 A 
ATOM      2  C2  I4B d   1       1.288  -2.160  -0.705  0.00  0.00     0.003 A 
ATOM      3  C3  I4B d   1       1.439  -3.348  -1.460  0.00  0.00     0.002 A 
ATOM      4  C4  I4B d   1       0.731  -3.501  -2.635  0.00  0.00    -0.004 A 
ATOM      5  C5  I4B d   1      -0.067  -2.464  -3.109  0.00  0.00     0.002 A 
ATOM      6  C6  I4B d   1      -0.183  -1.275  -2.376  0.00  0.00     0.003 A 
ENDROOT
BRANCH   1   7
ATOM      7  C1' I4B d   1       0.320   0.081  -0.324  0.00  0.00     0.060 C 
BRANCH   7   8
ATOM      8  C2' I4B d   1      -0.464  -0.301   0.915  0.00  0.00    -0.013 C 
ATOM      9  C4' I4B d   1      -0.766   0.907   1.762  0.00  0.00     0.013 C 
ATOM     10  C3' I4B d   1      -1.725  -0.982   0.473  0.00  0.00     0.013 C 
ENDBRANCH   7   8
ENDBRANCH   1   7
TORSDOF 2
ENDMDL
