MODEL 1
REMARK minimizedAffinity -2.5052526
REMARK minimizedRMSD -1
REMARK  2 active torsions:
REMARK  status: ('A' for Active; 'I' for Inactive)
REMARK    1  A    between atoms: C2'_3  and  C1'_4 
REMARK    2  A    between atoms: C1'_4  and  C1_5 
ROOT
ATOM      1  C1  I4B d   1       0.835  -0.553  -0.932  0.00  0.00    -0.075 A 
ATOM      2  C2  I4B d   1       1.272   0.592  -1.551  0.00  0.00     0.003 A 
ATOM      3  C3  I4B d   1       0.857   1.861  -1.079  0.00  0.00     0.002 A 
ATOM      4  C4  I4B d   1      -0.030   1.937  -0.025  0.00  0.00    -0.004 A 
ATOM      5  C5  I4B d   1      -0.454   0.776   0.616  0.00  0.00     0.002 A 
ATOM      6  C6  I4B d   1      -0.009  -0.476   0.168  0.00  0.00     0.003 A 
ENDROOT
BRANCH   1   7
ATOM      7  C1' I4B d   1       1.268  -1.877  -1.477  0.00  0.00     0.060 C 
BRANCH   7   8
ATOM      8  C2' I4B d   1       0.081  -2.501  -2.183  0.00  0.00    -0.013 C 
ATOM      9  C4' I4B d   1       0.267  -2.488  -3.677  0.00  0.00     0.013 C 
ATOM     10  C3' I4B d   1      -0.079  -3.901  -1.670  0.00  0.00     0.013 C 
ENDBRANCH   7   8
ENDBRANCH   1   7
TORSDOF 2
ENDMDL
