MODEL 1
REMARK minimizedAffinity -4.64571524
REMARK minimizedRMSD -1
REMARK  0 active torsions:
REMARK  status: ('A' for Active; 'I' for Inactive)
ROOT
ATOM      1  C4' PXY d   1      -2.805   0.457   0.953  0.00  0.00     0.077 C 
ATOM      2  C1' PXY d   1       2.072  -2.441  -0.159  0.00  0.00     0.077 C 
ATOM      3  C1  PXY d   1       0.786  -1.692   0.130  0.00  0.00    -0.082 A 
ATOM      4  C2  PXY d   1       0.758  -0.374   0.019  0.00  0.00     0.003 A 
ATOM      5  C3  PXY d   1      -0.388   0.322   0.308  0.00  0.00     0.003 A 
ATOM      6  C4  PXY d   1      -1.531  -0.342   0.662  0.00  0.00    -0.082 A 
ATOM      7  C5  PXY d   1      -1.514  -1.688   0.767  0.00  0.00     0.003 A 
ATOM      8  C6  PXY d   1      -0.330  -2.372   0.510  0.00  0.00     0.003 A 
ENDROOT
TORSDOF 0
ENDMDL
