MODEL 1
REMARK minimizedAffinity -3.07306218
REMARK minimizedRMSD -1
REMARK  0 active torsions:
REMARK  status: ('A' for Active; 'I' for Inactive)
ROOT
ATOM      1  C4' PXY d   1      -5.997  -2.081  -4.480  0.00  0.00     0.077 C 
ATOM      2  C1' PXY d   1      -1.939  -5.982  -5.796  0.00  0.00     0.077 C 
ATOM      3  C1  PXY d   1      -3.012  -4.968  -5.447  0.00  0.00    -0.082 A 
ATOM      4  C2  PXY d   1      -2.978  -3.765  -5.997  0.00  0.00     0.003 A 
ATOM      5  C3  PXY d   1      -3.922  -2.826  -5.669  0.00  0.00     0.003 A 
ATOM      6  C4  PXY d   1      -4.941  -3.139  -4.810  0.00  0.00    -0.082 A 
ATOM      7  C5  PXY d   1      -4.988  -4.368  -4.253  0.00  0.00     0.003 A 
ATOM      8  C6  PXY d   1      -3.997  -5.293  -4.567  0.00  0.00     0.003 A 
ENDROOT
TORSDOF 0
ENDMDL
