MODEL 1
REMARK minimizedAffinity -3.1582098
REMARK minimizedRMSD -1
REMARK  0 active torsions:
REMARK  status: ('A' for Active; 'I' for Inactive)
ROOT
ATOM      1  C4' PXY d   1      -5.998  -2.611  -4.008  0.00  0.00     0.077 C 
ATOM      2  C1' PXY d   1      -1.534  -5.696  -6.000  0.00  0.00     0.077 C 
ATOM      3  C1  PXY d   1      -2.710  -4.898  -5.473  0.00  0.00    -0.082 A 
ATOM      4  C2  PXY d   1      -2.987  -3.716  -6.000  0.00  0.00     0.003 A 
ATOM      5  C3  PXY d   1      -4.028  -2.967  -5.514  0.00  0.00     0.003 A 
ATOM      6  C4  PXY d   1      -4.826  -3.455  -4.514  0.00  0.00    -0.082 A 
ATOM      7  C5  PXY d   1      -4.556  -4.665  -3.979  0.00  0.00     0.003 A 
ATOM      8  C6  PXY d   1      -3.470  -5.392  -4.458  0.00  0.00     0.003 A 
ENDROOT
TORSDOF 0
ENDMDL
