MODEL 1
REMARK minimizedAffinity -2.9428575
REMARK minimizedRMSD -1
REMARK  0 active torsions:
REMARK  status: ('A' for Active; 'I' for Inactive)
ROOT
ATOM      1  C4' PXY d   1      -5.997  -0.982  -2.653  0.00  0.00     0.077 C 
ATOM      2  C1' PXY d   1      -5.175  -5.636  -5.980  0.00  0.00     0.077 C 
ATOM      3  C1  PXY d   1      -5.392  -4.423  -5.097  0.00  0.00    -0.082 A 
ATOM      4  C2  PXY d   1      -5.829  -3.295  -5.632  0.00  0.00     0.003 A 
ATOM      5  C3  PXY d   1      -6.000  -2.179  -4.853  0.00  0.00     0.003 A 
ATOM      6  C4  PXY d   1      -5.773  -2.234  -3.504  0.00  0.00    -0.082 A 
ATOM      7  C5  PXY d   1      -5.338  -3.385  -2.949  0.00  0.00     0.003 A 
ATOM      8  C6  PXY d   1      -5.131  -4.495  -3.763  0.00  0.00     0.003 A 
ENDROOT
TORSDOF 0
ENDMDL
