MODEL 1
REMARK minimizedAffinity -2.44456601
REMARK minimizedRMSD -1
REMARK  0 active torsions:
REMARK  status: ('A' for Active; 'I' for Inactive)
ROOT
ATOM      1  C4' PXY d   1      -5.996  -2.739  -5.997  0.00  0.00     0.077 C 
ATOM      2  C1' PXY d   1      -1.577  -5.393  -3.382  0.00  0.00     0.077 C 
ATOM      3  C1  PXY d   1      -2.743  -4.697  -4.056  0.00  0.00    -0.082 A 
ATOM      4  C2  PXY d   1      -2.888  -4.787  -5.369  0.00  0.00     0.003 A 
ATOM      5  C3  PXY d   1      -3.918  -4.138  -5.999  0.00  0.00     0.003 A 
ATOM      6  C4  PXY d   1      -4.839  -3.433  -5.272  0.00  0.00    -0.082 A 
ATOM      7  C5  PXY d   1      -4.705  -3.345  -3.932  0.00  0.00     0.003 A 
ATOM      8  C6  PXY d   1      -3.629  -3.977  -3.316  0.00  0.00     0.003 A 
ENDROOT
TORSDOF 0
ENDMDL
