MODEL 1
REMARK minimizedAffinity -4.27730608
REMARK minimizedRMSD -1
REMARK  0 active torsions:
REMARK  status: ('A' for Active; 'I' for Inactive)
ROOT
ATOM      1  C4' PXY d   1      -2.289  -5.761  -5.903  0.00  0.00     0.077 C 
ATOM      2  C1' PXY d   1      -5.957  -1.868  -3.711  0.00  0.00     0.077 C 
ATOM      3  C1  PXY d   1      -4.996  -2.896  -4.275  0.00  0.00    -0.082 A 
ATOM      4  C2  PXY d   1      -4.142  -2.543  -5.221  0.00  0.00     0.003 A 
ATOM      5  C3  PXY d   1      -3.287  -3.467  -5.765  0.00  0.00     0.003 A 
ATOM      6  C4  PXY d   1      -3.271  -4.754  -5.298  0.00  0.00    -0.082 A 
ATOM      7  C5  PXY d   1      -4.133  -5.120  -4.325  0.00  0.00     0.003 A 
ATOM      8  C6  PXY d   1      -5.020  -4.176  -3.815  0.00  0.00     0.003 A 
ENDROOT
TORSDOF 0
ENDMDL
