MODEL 1
REMARK minimizedAffinity -2.63628292
REMARK minimizedRMSD -1
REMARK  0 active torsions:
REMARK  status: ('A' for Active; 'I' for Inactive)
ROOT
ATOM      1  C4' PXY d   1      -5.999  -2.571  -4.457  0.00  0.00     0.077 C 
ATOM      2  C1' PXY d   1      -1.578  -5.998  -5.915  0.00  0.00     0.077 C 
ATOM      3  C1  PXY d   1      -2.730  -5.088  -5.534  0.00  0.00    -0.082 A 
ATOM      4  C2  PXY d   1      -3.696  -5.548  -4.756  0.00  0.00     0.003 A 
ATOM      5  C3  PXY d   1      -4.762  -4.749  -4.428  0.00  0.00     0.003 A 
ATOM      6  C4  PXY d   1      -4.812  -3.450  -4.859  0.00  0.00    -0.082 A 
ATOM      7  C5  PXY d   1      -3.825  -2.971  -5.645  0.00  0.00     0.003 A 
ATOM      8  C6  PXY d   1      -2.773  -3.810  -6.000  0.00  0.00     0.003 A 
ENDROOT
TORSDOF 0
ENDMDL
