MODEL 1
REMARK minimizedAffinity -3.42427635
REMARK minimizedRMSD -1
REMARK  0 active torsions:
REMARK  status: ('A' for Active; 'I' for Inactive)
ROOT
ATOM      1  C4' PXY d   1      -5.998  -2.545  -4.474  0.00  0.00     0.077 C 
ATOM      2  C1' PXY d   1      -1.611  -5.990  -5.989  0.00  0.00     0.077 C 
ATOM      3  C1  PXY d   1      -2.753  -5.077  -5.589  0.00  0.00    -0.082 A 
ATOM      4  C2  PXY d   1      -3.903  -5.601  -5.196  0.00  0.00     0.003 A 
ATOM      5  C3  PXY d   1      -4.956  -4.790  -4.862  0.00  0.00     0.003 A 
ATOM      6  C4  PXY d   1      -4.815  -3.428  -4.878  0.00  0.00    -0.082 A 
ATOM      7  C5  PXY d   1      -3.641  -2.886  -5.267  0.00  0.00     0.003 A 
ATOM      8  C6  PXY d   1      -2.597  -3.727  -5.642  0.00  0.00     0.003 A 
ENDROOT
TORSDOF 0
ENDMDL
