MODEL 1
REMARK minimizedAffinity 1.99217319
REMARK minimizedRMSD -1
REMARK  0 active torsions:
REMARK  status: ('A' for Active; 'I' for Inactive)
ROOT
ATOM      1  C4' PXY d   1      -2.227  -1.283   3.791  0.00  0.00     0.077 C 
ATOM      2  C1' PXY d   1       1.283  -1.131  -0.800  0.00  0.00     0.077 C 
ATOM      3  C1  PXY d   1       0.364  -1.184   0.405  0.00  0.00    -0.082 A 
ATOM      4  C2  PXY d   1      -0.551  -0.243   0.572  0.00  0.00     0.003 A 
ATOM      5  C3  PXY d   1      -1.368  -0.257   1.672  0.00  0.00     0.003 A 
ATOM      6  C4  PXY d   1      -1.284  -1.275   2.584  0.00  0.00    -0.082 A 
ATOM      7  C5  PXY d   1      -0.360  -2.245   2.415  0.00  0.00     0.003 A 
ATOM      8  C6  PXY d   1       0.488  -2.189   1.313  0.00  0.00     0.003 A 
ENDROOT
TORSDOF 0
ENDMDL
