MODEL 1
REMARK minimizedAffinity -3.38640904
REMARK minimizedRMSD -1
REMARK  0 active torsions:
REMARK  status: ('A' for Active; 'I' for Inactive)
ROOT
ATOM      1  C4' PXY d   1      -0.868  -6.000  -5.556  0.00  0.00     0.077 C 
ATOM      2  C1' PXY d   1      -5.999  -3.690  -4.232  0.00  0.00     0.077 C 
ATOM      3  C1  PXY d   1      -4.655  -4.292  -4.591  0.00  0.00    -0.082 A 
ATOM      4  C2  PXY d   1      -4.162  -5.277  -3.858  0.00  0.00     0.003 A 
ATOM      5  C3  PXY d   1      -2.933  -5.811  -4.150  0.00  0.00     0.003 A 
ATOM      6  C4  PXY d   1      -2.226  -5.368  -5.236  0.00  0.00    -0.082 A 
ATOM      7  C5  PXY d   1      -2.727  -4.371  -5.995  0.00  0.00     0.003 A 
ATOM      8  C6  PXY d   1      -3.957  -3.814  -5.657  0.00  0.00     0.003 A 
ENDROOT
TORSDOF 0
ENDMDL
