MODEL 1
REMARK minimizedAffinity -3.24513674
REMARK minimizedRMSD -1
REMARK  0 active torsions:
REMARK  status: ('A' for Active; 'I' for Inactive)
ROOT
ATOM      1  C4' PXY d   1      -5.965  -2.599  -4.529  0.00  0.00     0.077 C 
ATOM      2  C1' PXY d   1      -1.388  -5.817  -5.980  0.00  0.00     0.077 C 
ATOM      3  C1  PXY d   1      -2.596  -4.984  -5.599  0.00  0.00    -0.082 A 
ATOM      4  C2  PXY d   1      -2.654  -3.713  -5.961  0.00  0.00     0.003 A 
ATOM      5  C3  PXY d   1      -3.724  -2.937  -5.597  0.00  0.00     0.003 A 
ATOM      6  C4  PXY d   1      -4.770  -3.481  -4.900  0.00  0.00    -0.082 A 
ATOM      7  C5  PXY d   1      -4.722  -4.780  -4.536  0.00  0.00     0.003 A 
ATOM      8  C6  PXY d   1      -3.608  -5.540  -4.880  0.00  0.00     0.003 A 
ENDROOT
TORSDOF 0
ENDMDL
