MODEL 1
REMARK minimizedAffinity -3.32027078
REMARK minimizedRMSD -1
REMARK  0 active torsions:
REMARK  status: ('A' for Active; 'I' for Inactive)
ROOT
ATOM      1  C4' PXY d   1      -5.991  -3.011  -4.061  0.00  0.00     0.077 C 
ATOM      2  C1' PXY d   1      -1.297  -5.980  -5.663  0.00  0.00     0.077 C 
ATOM      3  C1  PXY d   1      -2.520  -5.193  -5.236  0.00  0.00    -0.082 A 
ATOM      4  C2  PXY d   1      -3.708  -5.776  -5.241  0.00  0.00     0.003 A 
ATOM      5  C3  PXY d   1      -4.829  -5.070  -4.889  0.00  0.00     0.003 A 
ATOM      6  C4  PXY d   1      -4.727  -3.769  -4.475  0.00  0.00    -0.082 A 
ATOM      7  C5  PXY d   1      -3.517  -3.170  -4.456  0.00  0.00     0.003 A 
ATOM      8  C6  PXY d   1      -2.397  -3.892  -4.858  0.00  0.00     0.003 A 
ENDROOT
TORSDOF 0
ENDMDL
