MODEL 1
REMARK minimizedAffinity -3.18438911
REMARK minimizedRMSD -1
REMARK  0 active torsions:
REMARK  status: ('A' for Active; 'I' for Inactive)
ROOT
ATOM      1  C4' PXY d   1      -2.837  -5.995  -5.999  0.00  0.00     0.077 C 
ATOM      2  C1' PXY d   1      -5.999  -1.850  -3.502  0.00  0.00     0.077 C 
ATOM      3  C1  PXY d   1      -5.168  -2.930  -4.167  0.00  0.00    -0.082 A 
ATOM      4  C2  PXY d   1      -5.326  -4.193  -3.806  0.00  0.00     0.003 A 
ATOM      5  C3  PXY d   1      -4.560  -5.178  -4.374  0.00  0.00     0.003 A 
ATOM      6  C4  PXY d   1      -3.661  -4.874  -5.361  0.00  0.00    -0.082 A 
ATOM      7  C5  PXY d   1      -3.501  -3.589  -5.743  0.00  0.00     0.003 A 
ATOM      8  C6  PXY d   1      -4.259  -2.598  -5.124  0.00  0.00     0.003 A 
ENDROOT
TORSDOF 0
ENDMDL
