MODEL 1
REMARK minimizedAffinity -4.34414816
REMARK minimizedRMSD -1
REMARK  0 active torsions:
REMARK  status: ('A' for Active; 'I' for Inactive)
ROOT
ATOM      1  C4' PXY d   1      -6.000  -2.718  -3.466  0.00  0.00     0.077 C 
ATOM      2  C1' PXY d   1      -1.903  -5.995  -5.895  0.00  0.00     0.077 C 
ATOM      3  C1  PXY d   1      -2.987  -5.142  -5.264  0.00  0.00    -0.082 A 
ATOM      4  C2  PXY d   1      -2.697  -3.921  -4.845  0.00  0.00     0.003 A 
ATOM      5  C3  PXY d   1      -3.657  -3.149  -4.243  0.00  0.00     0.003 A 
ATOM      6  C4  PXY d   1      -4.940  -3.611  -4.117  0.00  0.00    -0.082 A 
ATOM      7  C5  PXY d   1      -5.246  -4.851  -4.553  0.00  0.00     0.003 A 
ATOM      8  C6  PXY d   1      -4.247  -5.635  -5.123  0.00  0.00     0.003 A 
ENDROOT
TORSDOF 0
ENDMDL
