MODEL 1
REMARK minimizedAffinity 1.6198262
REMARK minimizedRMSD -1
REMARK  0 active torsions:
REMARK  status: ('A' for Active; 'I' for Inactive)
ROOT
ATOM      1  C4' PXY d   1      -5.499  -1.340  -2.720  0.00  0.00     0.077 C 
ATOM      2  C1' PXY d   1      -4.363  -5.963  -5.999  0.00  0.00     0.077 C 
ATOM      3  C1  PXY d   1      -4.654  -4.756  -5.130  0.00  0.00    -0.082 A 
ATOM      4  C2  PXY d   1      -5.738  -4.032  -5.357  0.00  0.00     0.003 A 
ATOM      5  C3  PXY d   1      -5.999  -2.918  -4.601  0.00  0.00     0.003 A 
ATOM      6  C4  PXY d   1      -5.171  -2.573  -3.567  0.00  0.00    -0.082 A 
ATOM      7  C5  PXY d   1      -4.069  -3.313  -3.322  0.00  0.00     0.003 A 
ATOM      8  C6  PXY d   1      -3.799  -4.416  -4.127  0.00  0.00     0.003 A 
ENDROOT
TORSDOF 0
ENDMDL
