MODEL 1
REMARK minimizedAffinity -3.82049155
REMARK minimizedRMSD -1
REMARK  0 active torsions:
REMARK  status: ('A' for Active; 'I' for Inactive)
ROOT
ATOM      1  C4' PXY d   1      -5.996  -3.597  -4.128  0.00  0.00     0.077 C 
ATOM      2  C1' PXY d   1      -0.771  -5.798  -5.259  0.00  0.00     0.077 C 
ATOM      3  C1  PXY d   1      -2.142  -5.216  -4.975  0.00  0.00    -0.082 A 
ATOM      4  C2  PXY d   1      -2.503  -4.973  -3.725  0.00  0.00     0.003 A 
ATOM      5  C3  PXY d   1      -3.750  -4.476  -3.448  0.00  0.00     0.003 A 
ATOM      6  C4  PXY d   1      -4.618  -4.176  -4.463  0.00  0.00    -0.082 A 
ATOM      7  C5  PXY d   1      -4.253  -4.411  -5.741  0.00  0.00     0.003 A 
ATOM      8  C6  PXY d   1      -2.998  -4.953  -5.999  0.00  0.00     0.003 A 
ENDROOT
TORSDOF 0
ENDMDL
