MODEL 1
REMARK minimizedAffinity -3.07107306
REMARK minimizedRMSD -1
REMARK  0 active torsions:
REMARK  status: ('A' for Active; 'I' for Inactive)
ROOT
ATOM      1  C4' PXY d   1      -6.000  -1.937  -3.379  0.00  0.00     0.077 C 
ATOM      2  C1' PXY d   1      -2.742  -5.937  -5.988  0.00  0.00     0.077 C 
ATOM      3  C1  PXY d   1      -3.599  -4.883  -5.315  0.00  0.00    -0.082 A 
ATOM      4  C2  PXY d   1      -3.357  -4.547  -4.059  0.00  0.00     0.003 A 
ATOM      5  C3  PXY d   1      -4.143  -3.619  -3.425  0.00  0.00     0.003 A 
ATOM      6  C4  PXY d   1      -5.154  -2.990  -4.101  0.00  0.00    -0.082 A 
ATOM      7  C5  PXY d   1      -5.401  -3.320  -5.387  0.00  0.00     0.003 A 
ATOM      8  C6  PXY d   1      -4.618  -4.294  -5.999  0.00  0.00     0.003 A 
ENDROOT
TORSDOF 0
ENDMDL
