MODEL 1
REMARK minimizedAffinity -2.35422492
REMARK minimizedRMSD -1
REMARK  0 active torsions:
REMARK  status: ('A' for Active; 'I' for Inactive)
ROOT
ATOM      1  C4' PXY d   1      -6.000  -3.481  -3.637  0.00  0.00     0.077 C 
ATOM      2  C1' PXY d   1      -1.293  -5.999  -5.854  0.00  0.00     0.077 C 
ATOM      3  C1  PXY d   1      -2.523  -5.342  -5.261  0.00  0.00    -0.082 A 
ATOM      4  C2  PXY d   1      -3.612  -5.204  -6.000  0.00  0.00     0.003 A 
ATOM      5  C3  PXY d   1      -4.723  -4.583  -5.489  0.00  0.00     0.003 A 
ATOM      6  C4  PXY d   1      -4.738  -4.147  -4.192  0.00  0.00    -0.082 A 
ATOM      7  C5  PXY d   1      -3.634  -4.294  -3.428  0.00  0.00     0.003 A 
ATOM      8  C6  PXY d   1      -2.503  -4.889  -3.978  0.00  0.00     0.003 A 
ENDROOT
TORSDOF 0
ENDMDL
