MODEL 1
REMARK minimizedAffinity -3.13384008
REMARK minimizedRMSD -1
REMARK  0 active torsions:
REMARK  status: ('A' for Active; 'I' for Inactive)
ROOT
ATOM      1  C4' PXY d   1      -5.947  -4.606  -5.656  0.00  0.00     0.077 C 
ATOM      2  C1' PXY d   1      -0.545  -5.460  -3.784  0.00  0.00     0.077 C 
ATOM      3  C1  PXY d   1      -1.966  -5.242  -4.264  0.00  0.00    -0.082 A 
ATOM      4  C2  PXY d   1      -2.199  -5.049  -5.553  0.00  0.00     0.003 A 
ATOM      5  C3  PXY d   1      -3.474  -4.819  -6.000  0.00  0.00     0.003 A 
ATOM      6  C4  PXY d   1      -4.529  -4.839  -5.127  0.00  0.00    -0.082 A 
ATOM      7  C5  PXY d   1      -4.301  -5.046  -3.813  0.00  0.00     0.003 A 
ATOM      8  C6  PXY d   1      -2.994  -5.237  -3.373  0.00  0.00     0.003 A 
ENDROOT
TORSDOF 0
ENDMDL
