MODEL 1
REMARK minimizedAffinity -4.0367837
REMARK minimizedRMSD -1
REMARK  0 active torsions:
REMARK  status: ('A' for Active; 'I' for Inactive)
ROOT
ATOM      1  C4' PXY d   1      -1.493  -5.456  -5.610  0.00  0.00     0.077 C 
ATOM      2  C1' PXY d   1      -5.897  -2.029  -4.101  0.00  0.00     0.077 C 
ATOM      3  C1  PXY d   1      -4.734  -2.921  -4.488  0.00  0.00    -0.082 A 
ATOM      4  C2  PXY d   1      -4.757  -3.559  -5.648  0.00  0.00     0.003 A 
ATOM      5  C3  PXY d   1      -3.729  -4.395  -6.000  0.00  0.00     0.003 A 
ATOM      6  C4  PXY d   1      -2.641  -4.538  -5.181  0.00  0.00    -0.082 A 
ATOM      7  C5  PXY d   1      -2.605  -3.882  -4.002  0.00  0.00     0.003 A 
ATOM      8  C6  PXY d   1      -3.677  -3.071  -3.644  0.00  0.00     0.003 A 
ENDROOT
TORSDOF 0
ENDMDL
