MODEL 1
REMARK minimizedAffinity 16.8433781
REMARK minimizedRMSD -1
REMARK  1 active torsions:
REMARK  status: ('A' for Active; 'I' for Inactive)
REMARK    1  A    between atoms: C1_2  and  C2_3 
ROOT
ATOM      1  C2  UNL d   1      -4.730   5.526  -0.907  0.00  0.00    -0.081 A 
ATOM      2  C3  UNL d   1      -3.528   5.380  -0.204  0.00  0.00     0.006 A 
ATOM      3  C4  UNL d   1      -3.496   5.537   1.184  0.00  0.00     0.002 A 
ATOM      4  C5  UNL d   1      -4.665   5.835   1.892  0.00  0.00    -0.080 A 
ATOM      5  C6  UNL d   1      -4.650   5.977   3.385  0.00  0.00     0.076 C 
ATOM      6  C7  UNL d   1      -5.863   5.999   1.187  0.00  0.00     0.002 A 
ATOM      7  C8  UNL d   1      -5.896   5.842  -0.200  0.00  0.00     0.006 A 
ENDROOT
BRANCH   1   8
ATOM      8  C1  UNL d   1      -4.780   5.293  -2.396  0.00  0.00     0.054 C 
ATOM      9  C   UNL d   1      -3.515   5.793  -3.077  0.00  0.00     0.018 C 
ENDBRANCH   1   8
TORSDOF 1
ENDMDL
