MODEL 1
REMARK minimizedAffinity 7.44582653
REMARK minimizedRMSD -1
REMARK  1 active torsions:
REMARK  status: ('A' for Active; 'I' for Inactive)
REMARK    1  A    between atoms: C1_2  and  C2_3 
ROOT
ATOM      1  C2  UNL d   1      -1.480   1.643   1.142  0.00  0.00    -0.081 A 
ATOM      2  C3  UNL d   1      -2.810   1.299   1.412  0.00  0.00     0.006 A 
ATOM      3  C4  UNL d   1      -3.111   0.350   2.393  0.00  0.00     0.002 A 
ATOM      4  C5  UNL d   1      -2.088  -0.263   3.125  0.00  0.00    -0.080 A 
ATOM      5  C6  UNL d   1      -2.399  -1.260   4.201  0.00  0.00     0.076 C 
ATOM      6  C7  UNL d   1      -0.759   0.068   2.843  0.00  0.00     0.002 A 
ATOM      7  C8  UNL d   1      -0.457   1.015   1.862  0.00  0.00     0.006 A 
ENDROOT
BRANCH   1   8
ATOM      8  C1  UNL d   1      -1.155   2.712   0.130  0.00  0.00     0.054 C 
ATOM      9  C   UNL d   1      -0.107   2.234  -0.863  0.00  0.00     0.018 C 
ENDBRANCH   1   8
TORSDOF 1
ENDMDL
