MODEL 1
REMARK minimizedAffinity 15.5455379
REMARK minimizedRMSD -1
REMARK  1 active torsions:
REMARK  status: ('A' for Active; 'I' for Inactive)
REMARK    1  A    between atoms: C1_2  and  C2_3 
ROOT
ATOM      1  C2  UNL d   1      -1.921  -3.671   4.483  0.00  0.00    -0.081 A 
ATOM      2  C3  UNL d   1      -2.195  -2.870   5.598  0.00  0.00     0.006 A 
ATOM      3  C4  UNL d   1      -3.513  -2.639   5.997  0.00  0.00     0.002 A 
ATOM      4  C5  UNL d   1      -4.578  -3.212   5.294  0.00  0.00    -0.080 A 
ATOM      5  C6  UNL d   1      -5.997  -2.998   5.731  0.00  0.00     0.076 C 
ATOM      6  C7  UNL d   1      -4.306  -3.999   4.170  0.00  0.00     0.002 A 
ATOM      7  C8  UNL d   1      -2.987  -4.229   3.770  0.00  0.00     0.006 A 
ENDROOT
BRANCH   1   8
ATOM      8  C1  UNL d   1      -0.498  -3.974   4.088  0.00  0.00     0.054 C 
ATOM      9  C   UNL d   1       0.183  -4.867   5.116  0.00  0.00     0.018 C 
ENDBRANCH   1   8
TORSDOF 1
ENDMDL
