MODEL 1
REMARK minimizedAffinity 23.2886448
REMARK minimizedRMSD -1
REMARK  1 active torsions:
REMARK  status: ('A' for Active; 'I' for Inactive)
REMARK    1  A    between atoms: C1_2  and  C2_3 
ROOT
ATOM      1  C2  UNL d   1      -0.886   3.001  -2.550  0.00  0.00    -0.081 A 
ATOM      2  C3  UNL d   1       0.449   3.148  -2.152  0.00  0.00     0.006 A 
ATOM      3  C4  UNL d   1       0.867   2.702  -0.896  0.00  0.00     0.002 A 
ATOM      4  C5  UNL d   1      -0.040   2.094  -0.021  0.00  0.00    -0.080 A 
ATOM      5  C6  UNL d   1       0.403   1.583   1.318  0.00  0.00     0.076 C 
ATOM      6  C7  UNL d   1      -1.377   1.962  -0.411  0.00  0.00     0.002 A 
ATOM      7  C8  UNL d   1      -1.795   2.409  -1.666  0.00  0.00     0.006 A 
ENDROOT
BRANCH   1   8
ATOM      8  C1  UNL d   1      -1.326   3.422  -3.928  0.00  0.00     0.054 C 
ATOM      9  C   UNL d   1      -0.924   4.861  -4.221  0.00  0.00     0.018 C 
ENDBRANCH   1   8
TORSDOF 1
ENDMDL
