MODEL 1
REMARK minimizedAffinity 21.1125412
REMARK minimizedRMSD -1
REMARK  1 active torsions:
REMARK  status: ('A' for Active; 'I' for Inactive)
REMARK    1  A    between atoms: C1_2  and  C2_3 
ROOT
ATOM      1  C2  UNL d   1      -5.208   5.580   1.071  0.00  0.00    -0.081 A 
ATOM      2  C3  UNL d   1      -3.955   5.010   0.812  0.00  0.00     0.006 A 
ATOM      3  C4  UNL d   1      -3.498   4.871  -0.500  0.00  0.00     0.002 A 
ATOM      4  C5  UNL d   1      -4.281   5.307  -1.575  0.00  0.00    -0.080 A 
ATOM      5  C6  UNL d   1      -3.789   5.191  -2.987  0.00  0.00     0.076 C 
ATOM      6  C7  UNL d   1      -5.540   5.860  -1.317  0.00  0.00     0.002 A 
ATOM      7  C8  UNL d   1      -5.998   5.998  -0.005  0.00  0.00     0.006 A 
ENDROOT
BRANCH   1   8
ATOM      8  C1  UNL d   1      -5.676   5.790   2.488  0.00  0.00     0.054 C 
ATOM      9  C   UNL d   1      -4.502   6.000   3.434  0.00  0.00     0.018 C 
ENDBRANCH   1   8
TORSDOF 1
ENDMDL
