MODEL 1
REMARK minimizedAffinity 17.5908127
REMARK minimizedRMSD -1
REMARK  1 active torsions:
REMARK  status: ('A' for Active; 'I' for Inactive)
REMARK    1  A    between atoms: C1_2  and  C2_3 
ROOT
ATOM      1  C2  UNL d   1      -4.920   5.879   3.006  0.00  0.00    -0.081 A 
ATOM      2  C3  UNL d   1      -3.623   5.980   2.488  0.00  0.00     0.006 A 
ATOM      3  C4  UNL d   1      -3.406   5.929   1.109  0.00  0.00     0.002 A 
ATOM      4  C5  UNL d   1      -4.481   5.785   0.225  0.00  0.00    -0.080 A 
ATOM      5  C6  UNL d   1      -4.264   5.759  -1.258  0.00  0.00     0.076 C 
ATOM      6  C7  UNL d   1      -5.775   5.666   0.744  0.00  0.00     0.002 A 
ATOM      7  C8  UNL d   1      -5.993   5.717   2.122  0.00  0.00     0.006 A 
ENDROOT
BRANCH   1   8
ATOM      8  C1  UNL d   1      -5.165   5.999   4.489  0.00  0.00     0.054 C 
ATOM      9  C   UNL d   1      -3.861   5.938   5.271  0.00  0.00     0.018 C 
ENDBRANCH   1   8
TORSDOF 1
ENDMDL
