MODEL 1
REMARK minimizedAffinity 19.2150879
REMARK minimizedRMSD -1
REMARK  1 active torsions:
REMARK  status: ('A' for Active; 'I' for Inactive)
REMARK    1  A    between atoms: C1_2  and  C2_3 
ROOT
ATOM      1  C2  UNL d   1      -5.070   5.929   1.582  0.00  0.00    -0.081 A 
ATOM      2  C3  UNL d   1      -5.969   5.869   0.511  0.00  0.00     0.006 A 
ATOM      3  C4  UNL d   1      -5.502   5.742  -0.799  0.00  0.00     0.002 A 
ATOM      4  C5  UNL d   1      -4.130   5.666  -1.060  0.00  0.00    -0.080 A 
ATOM      5  C6  UNL d   1      -3.617   5.499  -2.459  0.00  0.00     0.076 C 
ATOM      6  C7  UNL d   1      -3.230   5.743   0.009  0.00  0.00     0.002 A 
ATOM      7  C8  UNL d   1      -3.697   5.870   1.319  0.00  0.00     0.006 A 
ENDROOT
BRANCH   1   8
ATOM      8  C1  UNL d   1      -5.572   6.000   3.002  0.00  0.00     0.054 C 
ATOM      9  C   UNL d   1      -4.423   5.954   3.998  0.00  0.00     0.018 C 
ENDBRANCH   1   8
TORSDOF 1
ENDMDL
