MODEL 1
REMARK minimizedAffinity 17.9698677
REMARK minimizedRMSD -1
REMARK  1 active torsions:
REMARK  status: ('A' for Active; 'I' for Inactive)
REMARK    1  A    between atoms: C1_2  and  C2_3 
ROOT
ATOM      1  C2  UNL d   1      -0.334   3.564  -1.172  0.00  0.00    -0.081 A 
ATOM      2  C3  UNL d   1       0.101   4.870  -1.431  0.00  0.00     0.006 A 
ATOM      3  C4  UNL d   1      -0.470   5.615  -2.466  0.00  0.00     0.002 A 
ATOM      4  C5  UNL d   1      -1.489   5.070  -3.253  0.00  0.00    -0.080 A 
ATOM      5  C6  UNL d   1      -2.132   5.869  -4.348  0.00  0.00     0.076 C 
ATOM      6  C7  UNL d   1      -1.912   3.759  -3.006  0.00  0.00     0.002 A 
ATOM      7  C8  UNL d   1      -1.341   3.014  -1.972  0.00  0.00     0.006 A 
ENDROOT
BRANCH   1   8
ATOM      8  C1  UNL d   1       0.235   2.782  -0.016  0.00  0.00     0.054 C 
ATOM      9  C   UNL d   1      -0.817   1.877   0.610  0.00  0.00     0.018 C 
ENDBRANCH   1   8
TORSDOF 1
ENDMDL
