MODEL 1
REMARK minimizedAffinity 5.43612528
REMARK minimizedRMSD -1
REMARK  1 active torsions:
REMARK  status: ('A' for Active; 'I' for Inactive)
REMARK    1  A    between atoms: C1_2  and  C2_3 
ROOT
ATOM      1  C2  UNL d   1      -0.369   3.520  -1.294  0.00  0.00    -0.081 A 
ATOM      2  C3  UNL d   1      -0.617   2.152  -1.131  0.00  0.00     0.006 A 
ATOM      3  C4  UNL d   1      -0.697   1.594   0.147  0.00  0.00     0.002 A 
ATOM      4  C5  UNL d   1      -0.539   2.395   1.283  0.00  0.00    -0.080 A 
ATOM      5  C6  UNL d   1      -0.653   1.814   2.661  0.00  0.00     0.076 C 
ATOM      6  C7  UNL d   1      -0.274   3.759   1.120  0.00  0.00     0.002 A 
ATOM      7  C8  UNL d   1      -0.192   4.317  -0.158  0.00  0.00     0.006 A 
ENDROOT
BRANCH   1   8
ATOM      8  C1  UNL d   1      -0.346   4.136  -2.669  0.00  0.00     0.054 C 
ATOM      9  C   UNL d   1      -1.301   3.419  -3.613  0.00  0.00     0.018 C 
ENDBRANCH   1   8
TORSDOF 1
ENDMDL
