MODEL 1
REMARK minimizedAffinity 10.67346
REMARK minimizedRMSD -1
REMARK  1 active torsions:
REMARK  status: ('A' for Active; 'I' for Inactive)
REMARK    1  A    between atoms: C1_2  and  C2_3 
ROOT
ATOM      1  C2  UNL d   1      -0.986   3.909  -2.316  0.00  0.00    -0.081 A 
ATOM      2  C3  UNL d   1      -1.010   5.301  -2.167  0.00  0.00     0.006 A 
ATOM      3  C4  UNL d   1      -0.530   5.895  -0.997  0.00  0.00     0.002 A 
ATOM      4  C5  UNL d   1      -0.013   5.109   0.038  0.00  0.00    -0.080 A 
ATOM      5  C6  UNL d   1       0.533   5.737   1.286  0.00  0.00     0.076 C 
ATOM      6  C7  UNL d   1      -0.005   3.718  -0.104  0.00  0.00     0.002 A 
ATOM      7  C8  UNL d   1      -0.485   3.123  -1.273  0.00  0.00     0.006 A 
ENDROOT
BRANCH   1   8
ATOM      8  C1  UNL d   1      -1.443   3.268  -3.602  0.00  0.00     0.054 C 
ATOM      9  C   UNL d   1      -2.736   2.490  -3.404  0.00  0.00     0.018 C 
ENDBRANCH   1   8
TORSDOF 1
ENDMDL
