MODEL 1
REMARK minimizedAffinity 6.46757936
REMARK minimizedRMSD -1
REMARK  1 active torsions:
REMARK  status: ('A' for Active; 'I' for Inactive)
REMARK    1  A    between atoms: C1_2  and  C2_3 
ROOT
ATOM      1  C2  UNL d   1      -1.160   3.367  -2.271  0.00  0.00    -0.081 A 
ATOM      2  C3  UNL d   1      -0.726   2.703  -1.117  0.00  0.00     0.006 A 
ATOM      3  C4  UNL d   1       0.014   3.382  -0.146  0.00  0.00     0.002 A 
ATOM      4  C5  UNL d   1       0.326   4.736  -0.309  0.00  0.00    -0.080 A 
ATOM      5  C6  UNL d   1       1.094   5.485   0.740  0.00  0.00     0.076 C 
ATOM      6  C7  UNL d   1      -0.093   5.395  -1.470  0.00  0.00     0.002 A 
ATOM      7  C8  UNL d   1      -0.833   4.716  -2.441  0.00  0.00     0.006 A 
ENDROOT
BRANCH   1   8
ATOM      8  C1  UNL d   1      -2.014   2.654  -3.289  0.00  0.00     0.054 C 
ATOM      9  C   UNL d   1      -3.103   1.829  -2.618  0.00  0.00     0.018 C 
ENDBRANCH   1   8
TORSDOF 1
ENDMDL
