MODEL 1
REMARK minimizedAffinity 5.13591433
REMARK minimizedRMSD -1
REMARK  1 active torsions:
REMARK  status: ('A' for Active; 'I' for Inactive)
REMARK    1  A    between atoms: C1_2  and  C2_3 
ROOT
ATOM      1  C2  UNL d   1      -0.798   2.976  -0.004  0.00  0.00    -0.081 A 
ATOM      2  C3  UNL d   1      -0.909   3.066  -1.396  0.00  0.00     0.006 A 
ATOM      3  C4  UNL d   1      -0.211   4.052  -2.100  0.00  0.00     0.002 A 
ATOM      4  C5  UNL d   1       0.614   4.957  -1.424  0.00  0.00    -0.080 A 
ATOM      5  C6  UNL d   1       1.391   6.000  -2.170  0.00  0.00     0.076 C 
ATOM      6  C7  UNL d   1       0.711   4.877  -0.030  0.00  0.00     0.002 A 
ATOM      7  C8  UNL d   1       0.014   3.893   0.673  0.00  0.00     0.006 A 
ENDROOT
BRANCH   1   8
ATOM      8  C1  UNL d   1      -1.497   1.874   0.751  0.00  0.00     0.054 C 
ATOM      9  C   UNL d   1      -0.735   1.497   2.013  0.00  0.00     0.018 C 
ENDBRANCH   1   8
TORSDOF 1
ENDMDL
