MODEL 1
REMARK minimizedAffinity 10.551671
REMARK minimizedRMSD -1
REMARK  1 active torsions:
REMARK  status: ('A' for Active; 'I' for Inactive)
REMARK    1  A    between atoms: C1_2  and  C2_3 
ROOT
ATOM      1  C2  UNL d   1      -2.065   1.858  -1.617  0.00  0.00    -0.081 A 
ATOM      2  C3  UNL d   1      -1.395   1.806  -0.389  0.00  0.00     0.006 A 
ATOM      3  C4  UNL d   1      -0.464   2.790  -0.047  0.00  0.00     0.002 A 
ATOM      4  C5  UNL d   1      -0.193   3.845  -0.924  0.00  0.00    -0.080 A 
ATOM      5  C6  UNL d   1       0.782   4.924  -0.557  0.00  0.00     0.076 C 
ATOM      6  C7  UNL d   1      -0.849   3.888  -2.159  0.00  0.00     0.002 A 
ATOM      7  C8  UNL d   1      -1.780   2.905  -2.501  0.00  0.00     0.006 A 
ENDROOT
BRANCH   1   8
ATOM      8  C1  UNL d   1      -3.117   0.835  -1.960  0.00  0.00     0.054 C 
ATOM      9  C   UNL d   1      -3.199  -0.252  -0.898  0.00  0.00     0.018 C 
ENDBRANCH   1   8
TORSDOF 1
ENDMDL
