MODEL 1
REMARK minimizedAffinity 4.7904582
REMARK minimizedRMSD -1
REMARK  0 active torsions:
REMARK  status: ('A' for Active; 'I' for Inactive)
ROOT
ATOM      1  C1  DEN d   1      -0.841  -1.100   4.110  0.00  0.00     0.130 A 
ATOM      2  C2  DEN d   1       0.566  -1.446   4.293  0.00  0.00    -0.031 A 
ATOM      3  C3  DEN d   1       1.282  -1.123   3.043  0.00  0.00     0.027 A 
ATOM      4  C4  DEN d   1       0.354  -0.120   0.855  0.00  0.00     0.027 A 
ATOM      5  C5  DEN d   1      -0.782   0.329   0.219  0.00  0.00    -0.003 A 
ATOM      6  C6  DEN d   1      -2.013   0.302   0.818  0.00  0.00     0.001 A 
ATOM      7  C7  DEN d   1      -2.130  -0.143   2.109  0.00  0.00     0.017 A 
ATOM      8  C8  DEN d   1      -0.990  -0.604   2.754  0.00  0.00    -0.094 A 
ATOM      9  C9  DEN d   1       0.247  -0.557   2.135  0.00  0.00    -0.072 A 
ENDROOT
TORSDOF 0
ENDMDL
