MODEL 1
REMARK minimizedAffinity 2.08366609
REMARK minimizedRMSD -1
REMARK  0 active torsions:
REMARK  status: ('A' for Active; 'I' for Inactive)
ROOT
ATOM      1  C1  DEN d   1       0.568  -0.466   2.612  0.00  0.00     0.130 A 
ATOM      2  C2  DEN d   1       0.457   0.182   1.308  0.00  0.00    -0.031 A 
ATOM      3  C3  DEN d   1      -0.974   0.233   0.944  0.00  0.00     0.027 A 
ATOM      4  C4  DEN d   1      -3.016  -0.619   2.269  0.00  0.00     0.027 A 
ATOM      5  C5  DEN d   1      -3.421  -1.251   3.424  0.00  0.00    -0.003 A 
ATOM      6  C6  DEN d   1      -2.529  -1.693   4.365  0.00  0.00     0.001 A 
ATOM      7  C7  DEN d   1      -1.190  -1.468   4.190  0.00  0.00     0.017 A 
ATOM      8  C8  DEN d   1      -0.773  -0.838   3.024  0.00  0.00    -0.094 A 
ATOM      9  C9  DEN d   1      -1.691  -0.387   2.090  0.00  0.00    -0.072 A 
ENDROOT
TORSDOF 0
ENDMDL
