MODEL 1
REMARK minimizedAffinity 8.79357338
REMARK minimizedRMSD -1
REMARK  0 active torsions:
REMARK  status: ('A' for Active; 'I' for Inactive)
ROOT
ATOM      1  C1  DEN d   1       2.248   5.796  -1.122  0.00  0.00     0.130 A 
ATOM      2  C2  DEN d   1       3.122   5.611   0.033  0.00  0.00    -0.031 A 
ATOM      3  C3  DEN d   1       2.273   5.514   1.237  0.00  0.00     0.027 A 
ATOM      4  C4  DEN d   1      -0.297   5.627   1.423  0.00  0.00     0.027 A 
ATOM      5  C5  DEN d   1      -1.468   5.786   0.715  0.00  0.00    -0.003 A 
ATOM      6  C6  DEN d   1      -1.481   5.992  -0.639  0.00  0.00     0.001 A 
ATOM      7  C7  DEN d   1      -0.301   5.999  -1.335  0.00  0.00     0.017 A 
ATOM      8  C8  DEN d   1       0.884   5.847  -0.627  0.00  0.00    -0.094 A 
ATOM      9  C9  DEN d   1       0.875   5.628   0.740  0.00  0.00    -0.072 A 
ENDROOT
TORSDOF 0
ENDMDL
