MODEL 1
REMARK minimizedAffinity 10.0571232
REMARK minimizedRMSD -1
REMARK  0 active torsions:
REMARK  status: ('A' for Active; 'I' for Inactive)
ROOT
ATOM      1  C1  DEN d   1       0.961  -0.699   2.306  0.00  0.00     0.130 A 
ATOM      2  C2  DEN d   1       1.118  -1.493   3.521  0.00  0.00    -0.031 A 
ATOM      3  C3  DEN d   1      -0.215  -1.659   4.133  0.00  0.00     0.027 A 
ATOM      4  C4  DEN d   1      -2.496  -0.773   3.319  0.00  0.00     0.027 A 
ATOM      5  C5  DEN d   1      -3.131  -0.037   2.343  0.00  0.00    -0.003 A 
ATOM      6  C6  DEN d   1      -2.448   0.553   1.313  0.00  0.00     0.001 A 
ATOM      7  C7  DEN d   1      -1.093   0.380   1.210  0.00  0.00     0.017 A 
ATOM      8  C8  DEN d   1      -0.445  -0.354   2.195  0.00  0.00    -0.094 A 
ATOM      9  C9  DEN d   1      -1.155  -0.953   3.221  0.00  0.00    -0.072 A 
ENDROOT
TORSDOF 0
ENDMDL
