MODEL 1
REMARK minimizedAffinity 3.38736677
REMARK minimizedRMSD -1
REMARK  0 active torsions:
REMARK  status: ('A' for Active; 'I' for Inactive)
ROOT
ATOM      1  C1  DEN d   1       0.300  -0.997   0.287  0.00  0.00     0.130 A 
ATOM      2  C2  DEN d   1      -0.772  -0.467  -0.551  0.00  0.00    -0.031 A 
ATOM      3  C3  DEN d   1      -1.891  -0.078   0.330  0.00  0.00     0.027 A 
ATOM      4  C4  DEN d   1      -2.065  -0.240   2.899  0.00  0.00     0.027 A 
ATOM      5  C5  DEN d   1      -1.412  -0.634   4.045  0.00  0.00    -0.003 A 
ATOM      6  C6  DEN d   1      -0.166  -1.204   4.017  0.00  0.00     0.001 A 
ATOM      7  C7  DEN d   1       0.484  -1.354   2.821  0.00  0.00     0.017 A 
ATOM      8  C8  DEN d   1      -0.171  -0.966   1.660  0.00  0.00    -0.094 A 
ATOM      9  C9  DEN d   1      -1.425  -0.380   1.710  0.00  0.00    -0.072 A 
ENDROOT
TORSDOF 0
ENDMDL
