MODEL 1
REMARK minimizedAffinity 9.26966286
REMARK minimizedRMSD -1
REMARK  0 active torsions:
REMARK  status: ('A' for Active; 'I' for Inactive)
ROOT
ATOM      1  C1  DEN d   1      -0.046  -1.502   5.012  0.00  0.00     0.130 A 
ATOM      2  C2  DEN d   1      -0.381  -2.525   6.000  0.00  0.00    -0.031 A 
ATOM      3  C3  DEN d   1      -1.833  -2.782   5.916  0.00  0.00     0.027 A 
ATOM      4  C4  DEN d   1      -3.585  -1.705   4.359  0.00  0.00     0.027 A 
ATOM      5  C5  DEN d   1      -3.778  -0.778   3.359  0.00  0.00    -0.003 A 
ATOM      6  C6  DEN d   1      -2.756  -0.010   2.867  0.00  0.00     0.001 A 
ATOM      7  C7  DEN d   1      -1.484  -0.186   3.344  0.00  0.00     0.017 A 
ATOM      8  C8  DEN d   1      -1.283  -1.114   4.358  0.00  0.00    -0.094 A 
ATOM      9  C9  DEN d   1      -2.326  -1.890   4.832  0.00  0.00    -0.072 A 
ENDROOT
TORSDOF 0
ENDMDL
