MODEL 1
REMARK minimizedAffinity -1.628286
REMARK minimizedRMSD -1
REMARK  0 active torsions:
REMARK  status: ('A' for Active; 'I' for Inactive)
ROOT
ATOM      1  C   UNL d   1       0.991   1.280   0.647  0.00  0.00     0.023 A 
ATOM      2  C1  UNL d   1       1.307   1.341  -0.711  0.00  0.00     0.003 A 
ATOM      3  C2  UNL d   1       0.407   0.854  -1.661  0.00  0.00     0.048 A 
ATOM      4  C3  UNL d   1      -0.807   0.308  -1.247  0.00  0.00     0.023 A 
ATOM      5  C4  UNL d   1      -1.128   0.245   0.110  0.00  0.00     0.048 A 
ATOM      6  C5  UNL d   1      -0.225   0.732   1.056  0.00  0.00     0.003 A 
ATOM      7  I   UNL d   1      -2.148  -0.417  -2.660  0.00  0.00    -0.146 I 
ENDROOT
TORSDOF 0
ENDMDL
