MODEL 1
REMARK minimizedAffinity -4.34906244
REMARK minimizedRMSD -1
REMARK  0 active torsions:
REMARK  status: ('A' for Active; 'I' for Inactive)
ROOT
ATOM      1  C   UNL d   1       2.615  -0.181   0.932  0.00  0.00     0.023 A 
ATOM      2  C1  UNL d   1       2.185   1.043   0.419  0.00  0.00     0.003 A 
ATOM      3  C2  UNL d   1       0.942   1.140  -0.211  0.00  0.00     0.048 A 
ATOM      4  C3  UNL d   1       0.133   0.010  -0.322  0.00  0.00     0.023 A 
ATOM      5  C4  UNL d   1       0.559  -1.217   0.190  0.00  0.00     0.048 A 
ATOM      6  C5  UNL d   1       1.803  -1.310   0.818  0.00  0.00     0.003 A 
ATOM      7  I   UNL d   1      -1.717   0.152  -1.258  0.00  0.00    -0.146 I 
ENDROOT
TORSDOF 0
ENDMDL
