MODEL 1
REMARK minimizedAffinity -0.971346617
REMARK minimizedRMSD -1
REMARK  0 active torsions:
REMARK  status: ('A' for Active; 'I' for Inactive)
ROOT
ATOM      1  C   UNL d   1      -2.221  -0.323  -0.213  0.00  0.00     0.023 A 
ATOM      2  C1  UNL d   1      -1.900   0.949  -0.689  0.00  0.00     0.003 A 
ATOM      3  C2  UNL d   1      -0.626   1.476  -0.471  0.00  0.00     0.048 A 
ATOM      4  C3  UNL d   1       0.324   0.726   0.223  0.00  0.00     0.023 A 
ATOM      5  C4  UNL d   1       0.007  -0.547   0.699  0.00  0.00     0.048 A 
ATOM      6  C5  UNL d   1      -1.268  -1.070   0.480  0.00  0.00     0.003 A 
ATOM      7  I   UNL d   1       2.221   1.509   0.548  0.00  0.00    -0.146 I 
ENDROOT
TORSDOF 0
ENDMDL
