MODEL 1
REMARK minimizedAffinity -4.51255941
REMARK minimizedRMSD -1
REMARK  0 active torsions:
REMARK  status: ('A' for Active; 'I' for Inactive)
ROOT
ATOM      1  C   UNL d   1       3.073  -1.689   1.506  0.00  0.00     0.023 A 
ATOM      2  C1  UNL d   1       3.025  -0.773   0.455  0.00  0.00     0.003 A 
ATOM      3  C2  UNL d   1       1.793  -0.333  -0.034  0.00  0.00     0.048 A 
ATOM      4  C3  UNL d   1       0.613  -0.812   0.534  0.00  0.00     0.023 A 
ATOM      5  C4  UNL d   1       0.657  -1.728   1.587  0.00  0.00     0.048 A 
ATOM      6  C5  UNL d   1       1.891  -2.165   2.072  0.00  0.00     0.003 A 
ATOM      7  I   UNL d   1      -1.222  -0.159  -0.191  0.00  0.00    -0.146 I 
ENDROOT
TORSDOF 0
ENDMDL
