MODEL 1
REMARK minimizedAffinity -0.258878559
REMARK minimizedRMSD -1
REMARK  0 active torsions:
REMARK  status: ('A' for Active; 'I' for Inactive)
ROOT
ATOM      1  C   UNL d   1       0.999   0.501   0.676  0.00  0.00     0.023 A 
ATOM      2  C1  UNL d   1       1.188   1.320  -0.437  0.00  0.00     0.003 A 
ATOM      3  C2  UNL d   1       0.269   1.295  -1.488  0.00  0.00     0.048 A 
ATOM      4  C3  UNL d   1      -0.838   0.449  -1.418  0.00  0.00     0.023 A 
ATOM      5  C4  UNL d   1      -1.031  -0.371  -0.305  0.00  0.00     0.048 A 
ATOM      6  C5  UNL d   1      -0.109  -0.343   0.742  0.00  0.00     0.003 A 
ATOM      7  I   UNL d   1      -2.207   0.410  -2.981  0.00  0.00    -0.146 I 
ENDROOT
TORSDOF 0
ENDMDL
