MODEL 1
REMARK minimizedAffinity -2.94507551
REMARK minimizedRMSD -1
REMARK  1 active torsions:
REMARK  status: ('A' for Active; 'I' for Inactive)
REMARK    1  A    between atoms: C1_2  and  C2_3 
ROOT
ATOM      1  C2  UNL d   1      -0.153   0.140   0.718  0.00  0.00    -0.077 A 
ATOM      2  C3  UNL d   1      -0.709   1.071   1.608  0.00  0.00     0.002 A 
ATOM      3  C4  UNL d   1       0.117   1.879   2.391  0.00  0.00     0.002 A 
ATOM      4  C5  UNL d   1       1.502   1.769   2.289  0.00  0.00    -0.004 A 
ATOM      5  C6  UNL d   1       2.064   0.845   1.409  0.00  0.00     0.002 A 
ATOM      6  C7  UNL d   1       1.240   0.035   0.627  0.00  0.00     0.002 A 
ENDROOT
BRANCH   1   7
ATOM      7  C1  UNL d   1      -1.042  -0.698  -0.163  0.00  0.00     0.055 C 
ATOM      8  C   UNL d   1      -2.293   0.065  -0.574  0.00  0.00     0.019 C 
ENDBRANCH   1   7
TORSDOF 1
ENDMDL
