MODEL 1
REMARK minimizedAffinity -4.53033972
REMARK minimizedRMSD -1
REMARK  1 active torsions:
REMARK  status: ('A' for Active; 'I' for Inactive)
REMARK    1  A    between atoms: C1_2  and  C2_3 
ROOT
ATOM      1  C2  UNL d   1       0.563   1.249   1.003  0.00  0.00    -0.077 A 
ATOM      2  C3  UNL d   1       0.207   1.776   2.253  0.00  0.00     0.002 A 
ATOM      3  C4  UNL d   1      -0.879   1.251   2.957  0.00  0.00     0.002 A 
ATOM      4  C5  UNL d   1      -1.613   0.194   2.422  0.00  0.00    -0.004 A 
ATOM      5  C6  UNL d   1      -1.267  -0.335   1.179  0.00  0.00     0.002 A 
ATOM      6  C7  UNL d   1      -0.184   0.189   0.474  0.00  0.00     0.002 A 
ENDROOT
BRANCH   1   7
ATOM      7  C1  UNL d   1       1.764   1.781   0.265  0.00  0.00     0.055 C 
ATOM      8  C   UNL d   1       3.042   1.571   1.063  0.00  0.00     0.019 C 
ENDBRANCH   1   7
TORSDOF 1
ENDMDL
