MODEL 1
REMARK minimizedAffinity -1.27361917
REMARK minimizedRMSD -1
REMARK  1 active torsions:
REMARK  status: ('A' for Active; 'I' for Inactive)
REMARK    1  A    between atoms: C1_2  and  C2_3 
ROOT
ATOM      1  C2  UNL d   1      -0.966   0.086   0.823  0.00  0.00    -0.077 A 
ATOM      2  C3  UNL d   1       0.073   0.942   0.431  0.00  0.00     0.002 A 
ATOM      3  C4  UNL d   1       0.701   1.765   1.368  0.00  0.00     0.002 A 
ATOM      4  C5  UNL d   1       0.300   1.738   2.702  0.00  0.00    -0.004 A 
ATOM      5  C6  UNL d   1      -0.734   0.892   3.101  0.00  0.00     0.002 A 
ATOM      6  C7  UNL d   1      -1.364   0.069   2.165  0.00  0.00     0.002 A 
ENDROOT
BRANCH   1   7
ATOM      7  C1  UNL d   1      -1.611  -0.838  -0.177  0.00  0.00     0.055 C 
ATOM      8  C   UNL d   1      -3.124  -0.860  -0.014  0.00  0.00     0.019 C 
ENDBRANCH   1   7
TORSDOF 1
ENDMDL
