MODEL 1
REMARK minimizedAffinity 0.841998994
REMARK minimizedRMSD -1
REMARK  1 active torsions:
REMARK  status: ('A' for Active; 'I' for Inactive)
REMARK    1  A    between atoms: C1_2  and  C2_3 
ROOT
ATOM      1  C2  UNL d   1      -1.128  -0.942  -5.239  0.00  0.00    -0.077 A 
ATOM      2  C3  UNL d   1      -0.739   0.173  -5.995  0.00  0.00     0.002 A 
ATOM      3  C4  UNL d   1       0.400   0.901  -5.645  0.00  0.00     0.002 A 
ATOM      4  C5  UNL d   1       1.160   0.519  -4.542  0.00  0.00    -0.004 A 
ATOM      5  C6  UNL d   1       0.780  -0.587  -3.783  0.00  0.00     0.002 A 
ATOM      6  C7  UNL d   1      -0.358  -1.315  -4.130  0.00  0.00     0.002 A 
ENDROOT
BRANCH   1   7
ATOM      7  C1  UNL d   1      -2.328  -1.757  -5.645  0.00  0.00     0.055 C 
ATOM      8  C   UNL d   1      -1.934  -3.184  -5.998  0.00  0.00     0.019 C 
ENDBRANCH   1   7
TORSDOF 1
ENDMDL
