MODEL 1
REMARK minimizedAffinity -2.85934901
REMARK minimizedRMSD -1
REMARK  1 active torsions:
REMARK  status: ('A' for Active; 'I' for Inactive)
REMARK    1  A    between atoms: C1_2  and  C2_3 
ROOT
ATOM      1  C2  UNL d   1       0.390   1.067   1.057  0.00  0.00    -0.077 A 
ATOM      2  C3  UNL d   1       0.067   1.232   2.411  0.00  0.00     0.002 A 
ATOM      3  C4  UNL d   1      -1.131   0.727   2.919  0.00  0.00     0.002 A 
ATOM      4  C5  UNL d   1      -2.014   0.048   2.081  0.00  0.00    -0.004 A 
ATOM      5  C6  UNL d   1      -1.703  -0.120   0.733  0.00  0.00     0.002 A 
ATOM      6  C7  UNL d   1      -0.506   0.386   0.223  0.00  0.00     0.002 A 
ENDROOT
BRANCH   1   7
ATOM      7  C1  UNL d   1       1.704   1.568   0.518  0.00  0.00     0.055 C 
ATOM      8  C   UNL d   1       2.874   0.785   1.095  0.00  0.00     0.019 C 
ENDBRANCH   1   7
TORSDOF 1
ENDMDL
