MODEL 1
REMARK minimizedAffinity 0.106097959
REMARK minimizedRMSD -1
REMARK  1 active torsions:
REMARK  status: ('A' for Active; 'I' for Inactive)
REMARK    1  A    between atoms: C1_2  and  C2_3 
ROOT
ATOM      1  C2  UNL d   1       0.172   1.228   1.096  0.00  0.00    -0.077 A 
ATOM      2  C3  UNL d   1      -0.096   0.682  -0.168  0.00  0.00     0.002 A 
ATOM      3  C4  UNL d   1      -1.086  -0.290  -0.322  0.00  0.00     0.002 A 
ATOM      4  C5  UNL d   1      -1.820  -0.720   0.782  0.00  0.00    -0.004 A 
ATOM      5  C6  UNL d   1      -1.561  -0.184   2.043  0.00  0.00     0.002 A 
ATOM      6  C7  UNL d   1      -0.570   0.786   2.199  0.00  0.00     0.002 A 
ENDROOT
BRANCH   1   7
ATOM      7  C1  UNL d   1       1.206   2.311   1.256  0.00  0.00     0.055 C 
ATOM      8  C   UNL d   1       2.511   1.754   1.805  0.00  0.00     0.019 C 
ENDBRANCH   1   7
TORSDOF 1
ENDMDL
