MODEL 1
REMARK minimizedAffinity -0.22978431
REMARK minimizedRMSD -1
REMARK  1 active torsions:
REMARK  status: ('A' for Active; 'I' for Inactive)
REMARK    1  A    between atoms: C1_2  and  C2_3 
ROOT
ATOM      1  C2  UNL d   1       0.557   1.327   1.422  0.00  0.00    -0.077 A 
ATOM      2  C3  UNL d   1       0.172   1.532   2.755  0.00  0.00     0.002 A 
ATOM      3  C4  UNL d   1      -0.953   0.887   3.272  0.00  0.00     0.002 A 
ATOM      4  C5  UNL d   1      -1.699   0.030   2.465  0.00  0.00    -0.004 A 
ATOM      5  C6  UNL d   1      -1.326  -0.179   1.138  0.00  0.00     0.002 A 
ATOM      6  C7  UNL d   1      -0.202   0.466   0.619  0.00  0.00     0.002 A 
ENDROOT
BRANCH   1   7
ATOM      7  C1  UNL d   1       1.799   1.983   0.877  0.00  0.00     0.055 C 
ATOM      8  C   UNL d   1       3.057   1.357   1.460  0.00  0.00     0.019 C 
ENDBRANCH   1   7
TORSDOF 1
ENDMDL
