MODEL 1
REMARK minimizedAffinity -4.59669304
REMARK minimizedRMSD -1
REMARK  1 active torsions:
REMARK  status: ('A' for Active; 'I' for Inactive)
REMARK    1  A    between atoms: C3_4  and  O_7 
ROOT
ATOM      1  C   UNL d   1       2.766   2.243   0.736  0.00  0.00    -0.033 A 
ATOM      2  C1  UNL d   1       2.950   1.112  -0.062  0.00  0.00     0.039 A 
ATOM      3  C2  UNL d   1       1.848   0.368  -0.487  0.00  0.00    -0.080 A 
ATOM      4  C3  UNL d   1       0.568   0.766  -0.109  0.00  0.00     0.150 A 
ATOM      5  C4  UNL d   1       0.377   1.894   0.682  0.00  0.00    -0.007 A 
ATOM      6  C5  UNL d   1       1.480   2.635   1.107  0.00  0.00     0.039 A 
ENDROOT
BRANCH   4   7
ATOM      7  O   UNL d   1      -0.538   0.070  -0.496  0.00  0.00    -0.526 OA
ATOM      8  H5  UNL d   1      -0.251  -0.701  -1.014  0.00  0.00     0.418 HD
ENDBRANCH   4   7
TORSDOF 1
ENDMDL
