MODEL 1
REMARK minimizedAffinity -5.45261812
REMARK minimizedRMSD -1
REMARK  1 active torsions:
REMARK  status: ('A' for Active; 'I' for Inactive)
REMARK    1  A    between atoms: C3_4  and  O_7 
ROOT
ATOM      1  C   UNL d   1       2.602   2.845   0.978  0.00  0.00    -0.033 A 
ATOM      2  C1  UNL d   1       1.244   2.744   1.289  0.00  0.00     0.039 A 
ATOM      3  C2  UNL d   1       0.516   1.623   0.888  0.00  0.00    -0.080 A 
ATOM      4  C3  UNL d   1       1.156   0.610   0.178  0.00  0.00     0.150 A 
ATOM      5  C4  UNL d   1       2.509   0.702  -0.132  0.00  0.00    -0.007 A 
ATOM      6  C5  UNL d   1       3.234   1.824   0.269  0.00  0.00     0.039 A 
ENDROOT
BRANCH   4   7
ATOM      7  O   UNL d   1       0.486  -0.501  -0.239  0.00  0.00    -0.526 OA
ATOM      8  H5  UNL d   1      -0.447  -0.414   0.021  0.00  0.00     0.418 HD
ENDBRANCH   4   7
TORSDOF 1
ENDMDL
