MODEL 1
REMARK minimizedAffinity -2.04119229
REMARK minimizedRMSD -1
REMARK  1 active torsions:
REMARK  status: ('A' for Active; 'I' for Inactive)
REMARK    1  A    between atoms: C3_4  and  O_7 
ROOT
ATOM      1  C   UNL d   1      -0.377  -0.246  -2.512  0.00  0.00    -0.033 A 
ATOM      2  C1  UNL d   1      -1.305  -0.742  -3.429  0.00  0.00     0.039 A 
ATOM      3  C2  UNL d   1      -2.235  -1.705  -3.033  0.00  0.00    -0.080 A 
ATOM      4  C3  UNL d   1      -2.227  -2.163  -1.719  0.00  0.00     0.150 A 
ATOM      5  C4  UNL d   1      -1.308  -1.671  -0.798  0.00  0.00    -0.007 A 
ATOM      6  C5  UNL d   1      -0.379  -0.710  -1.196  0.00  0.00     0.039 A 
ENDROOT
BRANCH   4   7
ATOM      7  O   UNL d   1      -3.113  -3.105  -1.287  0.00  0.00    -0.526 OA
ATOM      8  H5  UNL d   1      -3.668  -3.373  -2.038  0.00  0.00     0.418 HD
ENDBRANCH   4   7
TORSDOF 1
ENDMDL
