MODEL 1
REMARK minimizedAffinity -5.48467779
REMARK minimizedRMSD -1
REMARK  1 active torsions:
REMARK  status: ('A' for Active; 'I' for Inactive)
REMARK    1  A    between atoms: C3_4  and  O_7 
ROOT
ATOM      1  C   UNL d   1       1.374   2.732   1.179  0.00  0.00    -0.033 A 
ATOM      2  C1  UNL d   1       2.693   2.285   1.275  0.00  0.00     0.039 A 
ATOM      3  C2  UNL d   1       3.066   1.074   0.689  0.00  0.00    -0.080 A 
ATOM      4  C3  UNL d   1       2.112   0.320   0.011  0.00  0.00     0.150 A 
ATOM      5  C4  UNL d   1       0.797   0.761  -0.091  0.00  0.00    -0.007 A 
ATOM      6  C5  UNL d   1       0.426   1.971   0.495  0.00  0.00     0.039 A 
ENDROOT
BRANCH   4   7
ATOM      7  O   UNL d   1       2.428  -0.871  -0.572  0.00  0.00    -0.526 OA
ATOM      8  H5  UNL d   1       3.364  -1.061  -0.396  0.00  0.00     0.418 HD
ENDBRANCH   4   7
TORSDOF 1
ENDMDL
