MODEL 1
REMARK minimizedAffinity -1.40767086
REMARK minimizedRMSD -1
REMARK  1 active torsions:
REMARK  status: ('A' for Active; 'I' for Inactive)
REMARK    1  A    between atoms: C3_4  and  O_7 
ROOT
ATOM      1  C   UNL d   1       0.279  -0.629  -0.659  0.00  0.00    -0.033 A 
ATOM      2  C1  UNL d   1      -0.455  -0.095   0.402  0.00  0.00     0.039 A 
ATOM      3  C2  UNL d   1      -0.027   1.077   1.029  0.00  0.00    -0.080 A 
ATOM      4  C3  UNL d   1       1.134   1.705   0.585  0.00  0.00     0.150 A 
ATOM      5  C4  UNL d   1       1.868   1.180  -0.474  0.00  0.00    -0.007 A 
ATOM      6  C5  UNL d   1       1.440   0.009  -1.098  0.00  0.00     0.039 A 
ENDROOT
BRANCH   4   7
ATOM      7  O   UNL d   1       1.594   2.848   1.169  0.00  0.00    -0.526 OA
ATOM      8  H5  UNL d   1       1.001   3.077   1.904  0.00  0.00     0.418 HD
ENDBRANCH   4   7
TORSDOF 1
ENDMDL
