MODEL 1
REMARK minimizedAffinity -5.68810368
REMARK minimizedRMSD -1
REMARK  1 active torsions:
REMARK  status: ('A' for Active; 'I' for Inactive)
REMARK    1  A    between atoms: C3_4  and  O_7 
ROOT
ATOM      1  C   UNL d   1       2.535   0.622  -0.371  0.00  0.00    -0.033 A 
ATOM      2  C1  UNL d   1       3.220   1.500   0.471  0.00  0.00     0.039 A 
ATOM      3  C2  UNL d   1       2.512   2.386   1.285  0.00  0.00    -0.080 A 
ATOM      4  C3  UNL d   1       1.120   2.383   1.249  0.00  0.00     0.150 A 
ATOM      5  C4  UNL d   1       0.431   1.508   0.416  0.00  0.00    -0.007 A 
ATOM      6  C5  UNL d   1       1.140   0.625  -0.397  0.00  0.00     0.039 A 
ENDROOT
BRANCH   4   7
ATOM      7  O   UNL d   1       0.385   3.232   2.022  0.00  0.00    -0.526 OA
ATOM      8  H5  UNL d   1       0.996   3.797   2.524  0.00  0.00     0.418 HD
ENDBRANCH   4   7
TORSDOF 1
ENDMDL
