MODEL 1
REMARK minimizedAffinity -5.06022501
REMARK minimizedRMSD -1
REMARK  1 active torsions:
REMARK  status: ('A' for Active; 'I' for Inactive)
REMARK    1  A    between atoms: C3_4  and  O_7 
ROOT
ATOM      1  C   UNL d   1       0.357   2.363   1.379  0.00  0.00    -0.033 A 
ATOM      2  C1  UNL d   1      -0.069   1.365   0.501  0.00  0.00     0.039 A 
ATOM      3  C2  UNL d   1       0.867   0.612  -0.210  0.00  0.00    -0.080 A 
ATOM      4  C3  UNL d   1       2.224   0.866  -0.034  0.00  0.00     0.150 A 
ATOM      5  C4  UNL d   1       2.656   1.857   0.842  0.00  0.00    -0.007 A 
ATOM      6  C5  UNL d   1       1.720   2.608   1.551  0.00  0.00     0.039 A 
ENDROOT
BRANCH   4   7
ATOM      7  O   UNL d   1       3.175   0.161  -0.710  0.00  0.00    -0.526 OA
ATOM      8  H5  UNL d   1       2.729  -0.469  -1.300  0.00  0.00     0.418 HD
ENDBRANCH   4   7
TORSDOF 1
ENDMDL
