MODEL 1
REMARK minimizedAffinity -3.13524055
REMARK minimizedRMSD -1
REMARK  1 active torsions:
REMARK  status: ('A' for Active; 'I' for Inactive)
REMARK    1  A    between atoms: C3_4  and  O_7 
ROOT
ATOM      1  C   UNL d   1       0.740   2.760   1.507  0.00  0.00    -0.033 A 
ATOM      2  C1  UNL d   1      -0.343   1.997   1.949  0.00  0.00     0.039 A 
ATOM      3  C2  UNL d   1      -0.632   0.774   1.342  0.00  0.00    -0.080 A 
ATOM      4  C3  UNL d   1       0.169   0.323   0.297  0.00  0.00     0.150 A 
ATOM      5  C4  UNL d   1       1.252   1.075  -0.146  0.00  0.00    -0.007 A 
ATOM      6  C5  UNL d   1       1.539   2.298   0.460  0.00  0.00     0.039 A 
ENDROOT
BRANCH   4   7
ATOM      7  O   UNL d   1      -0.076  -0.863  -0.329  0.00  0.00    -0.526 OA
ATOM      8  H5  UNL d   1      -0.872  -1.259   0.063  0.00  0.00     0.418 HD
ENDBRANCH   4   7
TORSDOF 1
ENDMDL
