MODEL 1
REMARK minimizedAffinity -4.66325378
REMARK minimizedRMSD -1
REMARK  1 active torsions:
REMARK  status: ('A' for Active; 'I' for Inactive)
REMARK    1  A    between atoms: C3_4  and  O_7 
ROOT
ATOM      1  C   UNL d   1       2.064   2.260   1.210  0.00  0.00    -0.033 A 
ATOM      2  C1  UNL d   1       2.557   1.399   0.228  0.00  0.00     0.039 A 
ATOM      3  C2  UNL d   1       1.684   0.562  -0.470  0.00  0.00    -0.080 A 
ATOM      4  C3  UNL d   1       0.324   0.597  -0.179  0.00  0.00     0.150 A 
ATOM      5  C4  UNL d   1      -0.175   1.455   0.796  0.00  0.00    -0.007 A 
ATOM      6  C5  UNL d   1       0.698   2.289   1.493  0.00  0.00     0.039 A 
ENDROOT
BRANCH   4   7
ATOM      7  O   UNL d   1      -0.566  -0.204  -0.831  0.00  0.00    -0.526 OA
ATOM      8  H5  UNL d   1      -0.075  -0.764  -1.456  0.00  0.00     0.418 HD
ENDBRANCH   4   7
TORSDOF 1
ENDMDL
