MODEL 1
REMARK minimizedAffinity -4.77890968
REMARK minimizedRMSD -1
REMARK  1 active torsions:
REMARK  status: ('A' for Active; 'I' for Inactive)
REMARK    1  A    between atoms: C3_4  and  O_7 
ROOT
ATOM      1  C   UNL d   1      -0.416  -0.082   0.507  0.00  0.00    -0.033 A 
ATOM      2  C1  UNL d   1       0.821   0.223  -0.064  0.00  0.00     0.039 A 
ATOM      3  C2  UNL d   1       1.488   1.396   0.297  0.00  0.00    -0.080 A 
ATOM      4  C3  UNL d   1       0.909   2.252   1.229  0.00  0.00     0.150 A 
ATOM      5  C4  UNL d   1      -0.322   1.952   1.805  0.00  0.00    -0.007 A 
ATOM      6  C5  UNL d   1      -0.987   0.781   1.442  0.00  0.00     0.039 A 
ENDROOT
BRANCH   4   7
ATOM      7  O   UNL d   1       1.520   3.410   1.609  0.00  0.00    -0.526 OA
ATOM      8  H5  UNL d   1       2.347   3.500   1.108  0.00  0.00     0.418 HD
ENDBRANCH   4   7
TORSDOF 1
ENDMDL
