MODEL 1
REMARK minimizedAffinity -4.95643663
REMARK minimizedRMSD -1
REMARK  1 active torsions:
REMARK  status: ('A' for Active; 'I' for Inactive)
REMARK    1  A    between atoms: C3_4  and  O_7 
ROOT
ATOM      1  C   UNL d   1       1.508   2.607   1.436  0.00  0.00    -0.033 A 
ATOM      2  C1  UNL d   1       2.304   1.931   0.509  0.00  0.00     0.039 A 
ATOM      3  C2  UNL d   1       1.796   0.824  -0.174  0.00  0.00    -0.080 A 
ATOM      4  C3  UNL d   1       0.493   0.404   0.078  0.00  0.00     0.150 A 
ATOM      5  C4  UNL d   1      -0.307   1.075   0.998  0.00  0.00    -0.007 A 
ATOM      6  C5  UNL d   1       0.202   2.179   1.680  0.00  0.00     0.039 A 
ENDROOT
BRANCH   4   7
ATOM      7  O   UNL d   1      -0.045  -0.674  -0.560  0.00  0.00    -0.526 OA
ATOM      8  H5  UNL d   1       0.632  -1.054  -1.145  0.00  0.00     0.418 HD
ENDBRANCH   4   7
TORSDOF 1
ENDMDL
