MODEL 1
REMARK minimizedAffinity -4.98299026
REMARK minimizedRMSD -1
REMARK  1 active torsions:
REMARK  status: ('A' for Active; 'I' for Inactive)
REMARK    1  A    between atoms: C3_4  and  O_7 
ROOT
ATOM      1  C   UNL d   1       2.480   0.795   0.024  0.00  0.00    -0.033 A 
ATOM      2  C1  UNL d   1       3.175   1.915   0.485  0.00  0.00     0.039 A 
ATOM      3  C2  UNL d   1       2.474   3.028   0.956  0.00  0.00    -0.080 A 
ATOM      4  C3  UNL d   1       1.082   3.007   0.961  0.00  0.00     0.150 A 
ATOM      5  C4  UNL d   1       0.384   1.892   0.506  0.00  0.00    -0.007 A 
ATOM      6  C5  UNL d   1       1.085   0.783   0.036  0.00  0.00     0.039 A 
ENDROOT
BRANCH   4   7
ATOM      7  O   UNL d   1       0.355   4.070   1.406  0.00  0.00    -0.526 OA
ATOM      8  H5  UNL d   1       0.970   4.778   1.662  0.00  0.00     0.418 HD
ENDBRANCH   4   7
TORSDOF 1
ENDMDL
