MODEL 1
REMARK minimizedAffinity -2.72233152
REMARK minimizedRMSD -1
REMARK  1 active torsions:
REMARK  status: ('A' for Active; 'I' for Inactive)
REMARK    1  A    between atoms: C3_4  and  O_7 
ROOT
ATOM      1  C   UNL d   1       2.087  -0.050  -0.769  0.00  0.00    -0.033 A 
ATOM      2  C1  UNL d   1       0.862   0.552  -0.474  0.00  0.00     0.039 A 
ATOM      3  C2  UNL d   1       0.821   1.707   0.310  0.00  0.00    -0.080 A 
ATOM      4  C3  UNL d   1       2.009   2.249   0.790  0.00  0.00     0.150 A 
ATOM      5  C4  UNL d   1       3.233   1.657   0.497  0.00  0.00    -0.007 A 
ATOM      6  C5  UNL d   1       3.273   0.503  -0.284  0.00  0.00     0.039 A 
ENDROOT
BRANCH   4   7
ATOM      7  O   UNL d   1       2.019   3.373   1.563  0.00  0.00    -0.526 OA
ATOM      8  H5  UNL d   1       1.100   3.655   1.707  0.00  0.00     0.418 HD
ENDBRANCH   4   7
TORSDOF 1
ENDMDL
