MODEL 1
REMARK minimizedAffinity -5.24674082
REMARK minimizedRMSD -1
REMARK  1 active torsions:
REMARK  status: ('A' for Active; 'I' for Inactive)
REMARK    1  A    between atoms: C3_4  and  O_7 
ROOT
ATOM      1  C   UNL d   1       2.106   2.500   1.145  0.00  0.00    -0.033 A 
ATOM      2  C1  UNL d   1       2.999   1.636   0.508  0.00  0.00     0.039 A 
ATOM      3  C2  UNL d   1       2.547   0.420  -0.009  0.00  0.00    -0.080 A 
ATOM      4  C3  UNL d   1       1.203   0.081   0.117  0.00  0.00     0.150 A 
ATOM      5  C4  UNL d   1       0.307   0.939   0.747  0.00  0.00    -0.007 A 
ATOM      6  C5  UNL d   1       0.760   2.153   1.263  0.00  0.00     0.039 A 
ENDROOT
BRANCH   4   7
ATOM      7  O   UNL d   1       0.716  -1.096  -0.368  0.00  0.00    -0.526 OA
ATOM      8  H5  UNL d   1       1.454  -1.600  -0.751  0.00  0.00     0.418 HD
ENDBRANCH   4   7
TORSDOF 1
ENDMDL
