MODEL 1
REMARK minimizedAffinity -1.22501802
REMARK minimizedRMSD -1
REMARK  0 active torsions:
REMARK  status: ('A' for Active; 'I' for Inactive)
ROOT
ATOM      1  C1  BNZ d   1      -0.815  -0.534   0.602  0.00  0.00     0.000 A 
ATOM      2  C2  BNZ d   1       0.163  -1.331   0.068  0.00  0.00     0.000 A 
ATOM      3  C3  BNZ d   1       1.135  -0.802  -0.735  0.00  0.00     0.000 A 
ATOM      4  C4  BNZ d   1       1.105   0.513  -1.034  0.00  0.00     0.000 A 
ATOM      5  C5  BNZ d   1       0.121   1.327  -0.511  0.00  0.00     0.000 A 
ATOM      6  C6  BNZ d   1      -0.834   0.798   0.328  0.00  0.00     0.000 A 
ENDROOT
TORSDOF 0
ENDMDL
