MODEL 1
REMARK minimizedAffinity -3.65923166
REMARK minimizedRMSD -1
REMARK  0 active torsions:
REMARK  status: ('A' for Active; 'I' for Inactive)
ROOT
ATOM      1  C1  BNZ d   1      -0.402   0.051   1.469  0.00  0.00     0.000 A 
ATOM      2  C2  BNZ d   1       0.154  -0.029   0.220  0.00  0.00     0.000 A 
ATOM      3  C3  BNZ d   1       0.041   1.008  -0.664  0.00  0.00     0.000 A 
ATOM      4  C4  BNZ d   1      -0.661   2.105  -0.313  0.00  0.00     0.000 A 
ATOM      5  C5  BNZ d   1      -1.236   2.196   0.938  0.00  0.00     0.000 A 
ATOM      6  C6  BNZ d   1      -1.087   1.167   1.840  0.00  0.00     0.000 A 
ENDROOT
TORSDOF 0
ENDMDL
