MODEL 1
REMARK minimizedAffinity -1.17287743
REMARK minimizedRMSD -1
REMARK  0 active torsions:
REMARK  status: ('A' for Active; 'I' for Inactive)
ROOT
ATOM      1  C1  BNZ d   1       0.770  -0.032  -0.653  0.00  0.00     0.000 A 
ATOM      2  C2  BNZ d   1       1.791  -0.655  -1.320  0.00  0.00     0.000 A 
ATOM      3  C3  BNZ d   1       1.608  -1.886  -1.886  0.00  0.00     0.000 A 
ATOM      4  C4  BNZ d   1       0.419  -2.509  -1.749  0.00  0.00     0.000 A 
ATOM      5  C5  BNZ d   1      -0.617  -1.897  -1.071  0.00  0.00     0.000 A 
ATOM      6  C6  BNZ d   1      -0.441  -0.641  -0.537  0.00  0.00     0.000 A 
ENDROOT
TORSDOF 0
ENDMDL
