MODEL 1
REMARK minimizedAffinity -2.78637338
REMARK minimizedRMSD -1
REMARK  0 active torsions:
REMARK  status: ('A' for Active; 'I' for Inactive)
ROOT
ATOM      1  C1  BNZ d   1      -1.088   1.639  -0.653  0.00  0.00     0.000 A 
ATOM      2  C2  BNZ d   1      -1.302   0.388  -0.138  0.00  0.00     0.000 A 
ATOM      3  C3  BNZ d   1      -0.309  -0.551  -0.143  0.00  0.00     0.000 A 
ATOM      4  C4  BNZ d   1       0.883  -0.252  -0.699  0.00  0.00     0.000 A 
ATOM      5  C5  BNZ d   1       1.112   1.001  -1.232  0.00  0.00     0.000 A 
ATOM      6  C6  BNZ d   1       0.122   1.956  -1.189  0.00  0.00     0.000 A 
ENDROOT
TORSDOF 0
ENDMDL
