MODEL 1
REMARK minimizedAffinity -1.92545927
REMARK minimizedRMSD -1
REMARK  0 active torsions:
REMARK  status: ('A' for Active; 'I' for Inactive)
ROOT
ATOM      1  C1  BNZ d   1       1.358   0.087  -1.450  0.00  0.00     0.000 A 
ATOM      2  C2  BNZ d   1       1.039   1.403  -1.656  0.00  0.00     0.000 A 
ATOM      3  C3  BNZ d   1      -0.003   1.983  -0.988  0.00  0.00     0.000 A 
ATOM      4  C4  BNZ d   1      -0.749   1.238  -0.148  0.00  0.00     0.000 A 
ATOM      5  C5  BNZ d   1      -0.446  -0.093   0.063  0.00  0.00     0.000 A 
ATOM      6  C6  BNZ d   1       0.628  -0.663  -0.581  0.00  0.00     0.000 A 
ENDROOT
TORSDOF 0
ENDMDL
