MODEL 1
REMARK minimizedAffinity -3.07033491
REMARK minimizedRMSD -1
REMARK  0 active torsions:
REMARK  status: ('A' for Active; 'I' for Inactive)
ROOT
ATOM      1  C1  BNZ d   1       0.580  -0.764   0.053  0.00  0.00     0.000 A 
ATOM      2  C2  BNZ d   1      -0.031  -0.822   1.277  0.00  0.00     0.000 A 
ATOM      3  C3  BNZ d   1      -0.702   0.259   1.776  0.00  0.00     0.000 A 
ATOM      4  C4  BNZ d   1      -0.727   1.408   1.071  0.00  0.00     0.000 A 
ATOM      5  C5  BNZ d   1      -0.108   1.485  -0.161  0.00  0.00     0.000 A 
ATOM      6  C6  BNZ d   1       0.533   0.383  -0.678  0.00  0.00     0.000 A 
ENDROOT
TORSDOF 0
ENDMDL
