MODEL 1
REMARK minimizedAffinity -3.94224548
REMARK minimizedRMSD -1
REMARK  0 active torsions:
REMARK  status: ('A' for Active; 'I' for Inactive)
ROOT
ATOM      1  C1  BNZ d   1      -1.353  -1.986  -1.885  0.00  0.00     0.000 A 
ATOM      2  C2  BNZ d   1      -0.646  -2.960  -2.538  0.00  0.00     0.000 A 
ATOM      3  C3  BNZ d   1       0.707  -3.070  -2.376  0.00  0.00     0.000 A 
ATOM      4  C4  BNZ d   1       1.356  -2.182  -1.595  0.00  0.00     0.000 A 
ATOM      5  C5  BNZ d   1       0.658  -1.189  -0.937  0.00  0.00     0.000 A 
ATOM      6  C6  BNZ d   1      -0.709  -1.106  -1.072  0.00  0.00     0.000 A 
ENDROOT
TORSDOF 0
ENDMDL
