MODEL 1
REMARK minimizedAffinity -4.39612818
REMARK minimizedRMSD -1
REMARK  0 active torsions:
REMARK  status: ('A' for Active; 'I' for Inactive)
ROOT
ATOM      1  C1  BNZ d   1      -1.227   0.242   1.368  0.00  0.00     0.000 A 
ATOM      2  C2  BNZ d   1      -1.842   1.233   2.086  0.00  0.00     0.000 A 
ATOM      3  C3  BNZ d   1      -1.845   2.524   1.637  0.00  0.00     0.000 A 
ATOM      4  C4  BNZ d   1      -1.199   2.829   0.493  0.00  0.00     0.000 A 
ATOM      5  C5  BNZ d   1      -0.566   1.843  -0.237  0.00  0.00     0.000 A 
ATOM      6  C6  BNZ d   1      -0.599   0.538   0.198  0.00  0.00     0.000 A 
ENDROOT
TORSDOF 0
ENDMDL
