MODEL 1
REMARK minimizedAffinity -3.9142313
REMARK minimizedRMSD -1
REMARK  0 active torsions:
REMARK  status: ('A' for Active; 'I' for Inactive)
ROOT
ATOM      1  C1  BNZ d   1      -1.518   3.062   1.279  0.00  0.00     0.000 A 
ATOM      2  C2  BNZ d   1      -1.591   1.790   1.783  0.00  0.00     0.000 A 
ATOM      3  C3  BNZ d   1      -0.930   0.759   1.176  0.00  0.00     0.000 A 
ATOM      4  C4  BNZ d   1      -0.231   0.992   0.047  0.00  0.00     0.000 A 
ATOM      5  C5  BNZ d   1      -0.155   2.267  -0.478  0.00  0.00     0.000 A 
ATOM      6  C6  BNZ d   1      -0.790   3.310   0.157  0.00  0.00     0.000 A 
ENDROOT
TORSDOF 0
ENDMDL
