MODEL 1
REMARK minimizedAffinity -3.91438079
REMARK minimizedRMSD -1
REMARK  0 active torsions:
REMARK  status: ('A' for Active; 'I' for Inactive)
ROOT
ATOM      1  C1  BNZ d   1      -2.066   1.500  -0.003  0.00  0.00     0.000 A 
ATOM      2  C2  BNZ d   1      -1.201   0.520  -0.412  0.00  0.00     0.000 A 
ATOM      3  C3  BNZ d   1      -0.335  -0.062   0.471  0.00  0.00     0.000 A 
ATOM      4  C4  BNZ d   1      -0.306   0.364   1.750  0.00  0.00     0.000 A 
ATOM      5  C5  BNZ d   1      -1.165   1.358   2.175  0.00  0.00     0.000 A 
ATOM      6  C6  BNZ d   1      -2.063   1.914   1.293  0.00  0.00     0.000 A 
ENDROOT
TORSDOF 0
ENDMDL
