MODEL 1
REMARK minimizedAffinity -2.34737897
REMARK minimizedRMSD -1
REMARK  0 active torsions:
REMARK  status: ('A' for Active; 'I' for Inactive)
ROOT
ATOM      1  C1  BNZ d   1      -1.156  -0.185   0.440  0.00  0.00     0.000 A 
ATOM      2  C2  BNZ d   1      -2.134   0.689   0.834  0.00  0.00     0.000 A 
ATOM      3  C3  BNZ d   1      -1.954   1.496   1.923  0.00  0.00     0.000 A 
ATOM      4  C4  BNZ d   1      -0.815   1.399   2.638  0.00  0.00     0.000 A 
ATOM      5  C5  BNZ d   1       0.176   0.516   2.259  0.00  0.00     0.000 A 
ATOM      6  C6  BNZ d   1       0.008  -0.266   1.140  0.00  0.00     0.000 A 
ENDROOT
TORSDOF 0
ENDMDL
