MODEL 1
REMARK minimizedAffinity -5.05790234
REMARK minimizedRMSD -1
REMARK  0 active torsions:
REMARK  status: ('A' for Active; 'I' for Inactive)
ROOT
ATOM      1  C1  BNZ d   1       0.052   1.138  -0.275  0.00  0.00     0.000 A 
ATOM      2  C2  BNZ d   1      -0.813   2.175  -0.047  0.00  0.00     0.000 A 
ATOM      3  C3  BNZ d   1      -1.660   2.156   1.025  0.00  0.00     0.000 A 
ATOM      4  C4  BNZ d   1      -1.670   1.085   1.844  0.00  0.00     0.000 A 
ATOM      5  C5  BNZ d   1      -0.811   0.027   1.622  0.00  0.00     0.000 A 
ATOM      6  C6  BNZ d   1       0.068   0.067   0.564  0.00  0.00     0.000 A 
ENDROOT
TORSDOF 0
ENDMDL
