MODEL 1
REMARK minimizedAffinity -3.51259041
REMARK minimizedRMSD -1
REMARK  0 active torsions:
REMARK  status: ('A' for Active; 'I' for Inactive)
ROOT
ATOM      1  C1  BNZ d   1      -1.643   2.575   1.376  0.00  0.00     0.000 A 
ATOM      2  C2  BNZ d   1      -0.834   1.643   1.968  0.00  0.00     0.000 A 
ATOM      3  C3  BNZ d   1      -0.553   0.461   1.343  0.00  0.00     0.000 A 
ATOM      4  C4  BNZ d   1      -1.113   0.195   0.145  0.00  0.00     0.000 A 
ATOM      5  C5  BNZ d   1      -1.939   1.121  -0.461  0.00  0.00     0.000 A 
ATOM      6  C6  BNZ d   1      -2.188   2.326   0.154  0.00  0.00     0.000 A 
ENDROOT
TORSDOF 0
ENDMDL
