MODEL 1
REMARK minimizedAffinity -4.69915104
REMARK minimizedRMSD -1
REMARK  0 active torsions:
REMARK  status: ('A' for Active; 'I' for Inactive)
ROOT
ATOM      1  C1  BNZ d   1       0.080  -0.160  -0.375  0.00  0.00     0.000 A 
ATOM      2  C2  BNZ d   1      -1.077  -0.827  -0.679  0.00  0.00     0.000 A 
ATOM      3  C3  BNZ d   1      -1.552  -0.856  -1.961  0.00  0.00     0.000 A 
ATOM      4  C4  BNZ d   1      -0.892  -0.185  -2.927  0.00  0.00     0.000 A 
ATOM      5  C5  BNZ d   1       0.270   0.500  -2.634  0.00  0.00     0.000 A 
ATOM      6  C6  BNZ d   1       0.766   0.494  -1.351  0.00  0.00     0.000 A 
ENDROOT
TORSDOF 0
ENDMDL
