MODEL 1
REMARK minimizedAffinity -4.10606956
REMARK minimizedRMSD -1
REMARK  0 active torsions:
REMARK  status: ('A' for Active; 'I' for Inactive)
ROOT
ATOM      1  C1  BNZ d   1       0.277   1.315  -0.254  0.00  0.00     0.000 A 
ATOM      2  C2  BNZ d   1       0.540   0.089  -0.803  0.00  0.00     0.000 A 
ATOM      3  C3  BNZ d   1      -0.209  -1.004  -0.465  0.00  0.00     0.000 A 
ATOM      4  C4  BNZ d   1      -1.192  -0.877   0.449  0.00  0.00     0.000 A 
ATOM      5  C5  BNZ d   1      -1.463   0.351   1.019  0.00  0.00     0.000 A 
ATOM      6  C6  BNZ d   1      -0.733   1.457   0.647  0.00  0.00     0.000 A 
ENDROOT
TORSDOF 0
ENDMDL
