MODEL 1
REMARK minimizedAffinity 17.0157642
REMARK minimizedRMSD -1
REMARK  0 active torsions:
REMARK  status: ('A' for Active; 'I' for Inactive)
ROOT
ATOM      1  N1  IND d   1       2.651   1.759   4.537  0.00  0.00    -0.196 N 
ATOM      2  C2  IND d   1       3.716   1.804   3.681  0.00  0.00     0.054 A 
ATOM      3  C3  IND d   1       3.493   1.010   2.610  0.00  0.00    -0.031 A 
ATOM      4  C4  IND d   1       1.409  -0.376   2.007  0.00  0.00     0.051 A 
ATOM      5  C5  IND d   1       0.193  -0.762   2.498  0.00  0.00    -0.031 A 
ATOM      6  C6  IND d   1      -0.276  -0.316   3.717  0.00  0.00     0.015 A 
ATOM      7  C7  IND d   1       0.451   0.545   4.489  0.00  0.00    -0.016 A 
ATOM      8  C8  IND d   1       1.689   0.934   3.997  0.00  0.00    -0.047 A 
ATOM      9  C9  IND d   1       2.189   0.451   2.780  0.00  0.00    -0.096 A 
ATOM     10  HN1 IND d   1       2.592   2.176   5.287  0.00  0.00     0.298 HD
ENDROOT
TORSDOF 0
ENDMDL
