MODEL 1
REMARK minimizedAffinity 6.60227919
REMARK minimizedRMSD -1
REMARK  0 active torsions:
REMARK  status: ('A' for Active; 'I' for Inactive)
ROOT
ATOM      1  N1  IND d   1       0.114  -1.860   3.650  0.00  0.00    -0.196 N 
ATOM      2  C2  IND d   1       0.939  -0.810   3.357  0.00  0.00     0.054 A 
ATOM      3  C3  IND d   1       0.230   0.210   2.823  0.00  0.00    -0.031 A 
ATOM      4  C4  IND d   1      -2.306   0.411   2.434  0.00  0.00     0.051 A 
ATOM      5  C5  IND d   1      -3.468  -0.305   2.511  0.00  0.00    -0.031 A 
ATOM      6  C6  IND d   1      -3.496  -1.601   2.984  0.00  0.00     0.015 A 
ATOM      7  C7  IND d   1      -2.360  -2.228   3.410  0.00  0.00    -0.016 A 
ATOM      8  C8  IND d   1      -1.177  -1.507   3.326  0.00  0.00    -0.047 A 
ATOM      9  C9  IND d   1      -1.136  -0.206   2.808  0.00  0.00    -0.096 A 
ATOM     10  HN1 IND d   1       0.361  -2.615   3.981  0.00  0.00     0.298 HD
ENDROOT
TORSDOF 0
ENDMDL
