MODEL 1
REMARK minimizedAffinity 15.6938
REMARK minimizedRMSD -1
REMARK  0 active torsions:
REMARK  status: ('A' for Active; 'I' for Inactive)
ROOT
ATOM      1  N1  IND d   1       2.374   0.524  -5.623  0.00  0.00    -0.196 N 
ATOM      2  C2  IND d   1       3.666   0.295  -5.240  0.00  0.00     0.054 A 
ATOM      3  C3  IND d   1       3.865  -1.025  -5.024  0.00  0.00    -0.031 A 
ATOM      4  C4  IND d   1       2.241  -2.997  -5.336  0.00  0.00     0.051 A 
ATOM      5  C5  IND d   1       0.938  -3.283  -5.635  0.00  0.00    -0.031 A 
ATOM      6  C6  IND d   1       0.030  -2.295  -5.956  0.00  0.00     0.015 A 
ATOM      7  C7  IND d   1       0.395  -0.979  -5.999  0.00  0.00    -0.016 A 
ATOM      8  C8  IND d   1       1.715  -0.684  -5.688  0.00  0.00    -0.047 A 
ATOM      9  C9  IND d   1       2.631  -1.679  -5.321  0.00  0.00    -0.096 A 
ATOM     10  HN1 IND d   1       2.030   1.293  -5.795  0.00  0.00     0.298 HD
ENDROOT
TORSDOF 0
ENDMDL
