MODEL 1
REMARK minimizedAffinity 11.0075674
REMARK minimizedRMSD -1
REMARK  0 active torsions:
REMARK  status: ('A' for Active; 'I' for Inactive)
ROOT
ATOM      1  N1  IND d   1       4.337   3.019   4.577  0.00  0.00    -0.196 N 
ATOM      2  C2  IND d   1       4.394   1.661   4.429  0.00  0.00     0.054 A 
ATOM      3  C3  IND d   1       4.144   1.317   3.145  0.00  0.00    -0.031 A 
ATOM      4  C4  IND d   1       3.716   2.824   1.102  0.00  0.00     0.051 A 
ATOM      5  C5  IND d   1       3.532   4.131   0.747  0.00  0.00    -0.031 A 
ATOM      6  C6  IND d   1       3.612   5.155   1.669  0.00  0.00     0.015 A 
ATOM      7  C7  IND d   1       3.890   4.910   2.984  0.00  0.00    -0.016 A 
ATOM      8  C8  IND d   1       4.070   3.583   3.349  0.00  0.00    -0.047 A 
ATOM      9  C9  IND d   1       3.949   2.536   2.426  0.00  0.00    -0.096 A 
ATOM     10  HN1 IND d   1       4.449   3.448   5.314  0.00  0.00     0.298 HD
ENDROOT
TORSDOF 0
ENDMDL
