MODEL 1
REMARK minimizedAffinity 16.939539
REMARK minimizedRMSD -1
REMARK  0 active torsions:
REMARK  status: ('A' for Active; 'I' for Inactive)
ROOT
ATOM      1  N1  IND d   1       0.265  -3.770  -6.000  0.00  0.00    -0.196 N 
ATOM      2  C2  IND d   1       1.179  -4.786  -5.996  0.00  0.00     0.054 A 
ATOM      3  C3  IND d   1       2.379  -4.338  -5.564  0.00  0.00    -0.031 A 
ATOM      4  C4  IND d   1       3.042  -2.000  -4.715  0.00  0.00     0.051 A 
ATOM      5  C5  IND d   1       2.558  -0.731  -4.565  0.00  0.00    -0.031 A 
ATOM      6  C6  IND d   1       1.257  -0.404  -4.890  0.00  0.00     0.015 A 
ATOM      7  C7  IND d   1       0.386  -1.340  -5.368  0.00  0.00    -0.016 A 
ATOM      8  C8  IND d   1       0.876  -2.629  -5.528  0.00  0.00    -0.047 A 
ATOM      9  C9  IND d   1       2.207  -2.957  -5.240  0.00  0.00    -0.096 A 
ATOM     10  HN1 IND d   1      -0.554  -3.832  -6.254  0.00  0.00     0.298 HD
ENDROOT
TORSDOF 0
ENDMDL
