MODEL 1
REMARK minimizedAffinity 20.7506466
REMARK minimizedRMSD -1
REMARK  0 active torsions:
REMARK  status: ('A' for Active; 'I' for Inactive)
ROOT
ATOM      1  N1  IND d   1      -0.717  -2.962  -5.643  0.00  0.00    -0.196 N 
ATOM      2  C2  IND d   1      -0.264  -4.201  -6.000  0.00  0.00     0.054 A 
ATOM      3  C3  IND d   1       1.088  -4.226  -5.998  0.00  0.00    -0.031 A 
ATOM      4  C4  IND d   1       2.757  -2.379  -5.344  0.00  0.00     0.051 A 
ATOM      5  C5  IND d   1       2.820  -1.062  -4.984  0.00  0.00    -0.031 A 
ATOM      6  C6  IND d   1       1.684  -0.296  -4.819  0.00  0.00     0.015 A 
ATOM      7  C7  IND d   1       0.437  -0.825  -4.998  0.00  0.00    -0.016 A 
ATOM      8  C8  IND d   1       0.369  -2.160  -5.370  0.00  0.00    -0.047 A 
ATOM      9  C9  IND d   1       1.520  -2.930  -5.580  0.00  0.00    -0.096 A 
ATOM     10  HN1 IND d   1      -1.542  -2.723  -5.596  0.00  0.00     0.298 HD
ENDROOT
TORSDOF 0
ENDMDL
