MODEL 1
REMARK minimizedAffinity 7.85742426
REMARK minimizedRMSD -1
REMARK  0 active torsions:
REMARK  status: ('A' for Active; 'I' for Inactive)
ROOT
ATOM      1  N1  IND d   1      -0.343   2.587   4.769  0.00  0.00    -0.196 N 
ATOM      2  C2  IND d   1       0.414   2.707   5.901  0.00  0.00     0.054 A 
ATOM      3  C3  IND d   1       1.283   1.676   5.997  0.00  0.00    -0.031 A 
ATOM      4  C4  IND d   1       1.705  -0.266   4.361  0.00  0.00     0.051 A 
ATOM      5  C5  IND d   1       1.233  -0.822   3.205  0.00  0.00    -0.031 A 
ATOM      6  C6  IND d   1       0.193  -0.257   2.495  0.00  0.00     0.015 A 
ATOM      7  C7  IND d   1      -0.410   0.896   2.911  0.00  0.00    -0.016 A 
ATOM      8  C8  IND d   1       0.062   1.460   4.089  0.00  0.00    -0.047 A 
ATOM      9  C9  IND d   1       1.089   0.868   4.835  0.00  0.00    -0.096 A 
ATOM     10  HN1 IND d   1      -0.967   3.125   4.524  0.00  0.00     0.298 HD
ENDROOT
TORSDOF 0
ENDMDL
