MODEL 1
REMARK minimizedAffinity 10.8011646
REMARK minimizedRMSD -1
REMARK  0 active torsions:
REMARK  status: ('A' for Active; 'I' for Inactive)
ROOT
ATOM      1  N1  IND d   1       5.975   2.413   4.180  0.00  0.00    -0.196 N 
ATOM      2  C2  IND d   1       5.193   1.497   4.826  0.00  0.00     0.054 A 
ATOM      3  C3  IND d   1       4.181   2.116   5.474  0.00  0.00    -0.031 A 
ATOM      4  C4  IND d   1       3.559   4.614   5.528  0.00  0.00     0.051 A 
ATOM      5  C5  IND d   1       3.998   5.842   5.119  0.00  0.00    -0.031 A 
ATOM      6  C6  IND d   1       5.139   5.993   4.359  0.00  0.00     0.015 A 
ATOM      7  C7  IND d   1       5.882   4.915   3.968  0.00  0.00    -0.016 A 
ATOM      8  C8  IND d   1       5.444   3.667   4.387  0.00  0.00    -0.047 A 
ATOM      9  C9  IND d   1       4.310   3.511   5.194  0.00  0.00    -0.096 A 
ATOM     10  HN1 IND d   1       6.681   2.236   3.722  0.00  0.00     0.298 HD
ENDROOT
TORSDOF 0
ENDMDL
