MODEL 1
REMARK minimizedAffinity 19.0494137
REMARK minimizedRMSD -1
REMARK  0 active torsions:
REMARK  status: ('A' for Active; 'I' for Inactive)
ROOT
ATOM      1  N1  IND d   1      -2.041  -3.813  -4.032  0.00  0.00    -0.196 N 
ATOM      2  C2  IND d   1      -1.883  -4.265  -5.312  0.00  0.00     0.054 A 
ATOM      3  C3  IND d   1      -1.051  -3.451  -6.000  0.00  0.00    -0.031 A 
ATOM      4  C4  IND d   1       0.244  -1.378  -5.193  0.00  0.00     0.051 A 
ATOM      5  C5  IND d   1       0.395  -0.555  -4.112  0.00  0.00    -0.031 A 
ATOM      6  C6  IND d   1      -0.270  -0.782  -2.924  0.00  0.00     0.015 A 
ATOM      7  C7  IND d   1      -1.106  -1.852  -2.769  0.00  0.00    -0.016 A 
ATOM      8  C8  IND d   1      -1.266  -2.686  -3.867  0.00  0.00    -0.047 A 
ATOM      9  C9  IND d   1      -0.627  -2.436  -5.088  0.00  0.00    -0.096 A 
ATOM     10  HN1 IND d   1      -2.540  -4.172  -3.431  0.00  0.00     0.298 HD
ENDROOT
TORSDOF 0
ENDMDL
