MODEL 1
REMARK minimizedAffinity -1.75798666
REMARK minimizedRMSD -1
REMARK  0 active torsions:
REMARK  status: ('A' for Active; 'I' for Inactive)
ROOT
ATOM      1  C   UNL d   1       0.609   1.731  -0.331  0.00  0.00     0.020 A 
ATOM      2  C1  UNL d   1      -0.617   1.270   0.146  0.00  0.00     0.020 A 
ATOM      3  C2  UNL d   1      -0.890  -0.100   0.161  0.00  0.00     0.034 A 
ATOM      4  C3  UNL d   1       0.065  -1.012  -0.303  0.00  0.00     0.017 A 
ATOM      5  C4  UNL d   1       1.295  -0.548  -0.782  0.00  0.00     0.017 A 
ATOM      6  C5  UNL d   1       1.563   0.824  -0.794  0.00  0.00     0.034 A 
ATOM      7 Cl   UNL d   1       2.522  -1.614  -1.370  0.00  0.00    -0.070 Cl
ATOM      8 Cl1  UNL d   1      -0.340  -2.692  -0.255  0.00  0.00    -0.070 Cl
ENDROOT
TORSDOF 0
ENDMDL
