MODEL 1
REMARK minimizedAffinity -2.17273188
REMARK minimizedRMSD -1
REMARK  0 active torsions:
REMARK  status: ('A' for Active; 'I' for Inactive)
ROOT
ATOM      1  C   UNL d   1       3.021  -0.464  -1.071  0.00  0.00     0.020 A 
ATOM      2  C1  UNL d   1       2.518   0.827  -0.915  0.00  0.00     0.020 A 
ATOM      3  C2  UNL d   1       1.212   1.017  -0.458  0.00  0.00     0.034 A 
ATOM      4  C3  UNL d   1       0.404  -0.085  -0.157  0.00  0.00     0.017 A 
ATOM      5  C4  UNL d   1       0.910  -1.381  -0.314  0.00  0.00     0.017 A 
ATOM      6  C5  UNL d   1       2.218  -1.565  -0.771  0.00  0.00     0.034 A 
ATOM      7 Cl   UNL d   1      -0.027  -2.790   0.037  0.00  0.00    -0.070 Cl
ATOM      8 Cl1  UNL d   1      -1.201   0.224   0.403  0.00  0.00    -0.070 Cl
ENDROOT
TORSDOF 0
ENDMDL
