MODEL 1
REMARK minimizedAffinity -3.15033746
REMARK minimizedRMSD -1
REMARK  0 active torsions:
REMARK  status: ('A' for Active; 'I' for Inactive)
ROOT
ATOM      1  C   UNL d   1       3.121  -0.605  -0.828  0.00  0.00     0.020 A 
ATOM      2  C1  UNL d   1       3.208   0.786  -0.778  0.00  0.00     0.020 A 
ATOM      3  C2  UNL d   1       2.050   1.553  -0.629  0.00  0.00     0.034 A 
ATOM      4  C3  UNL d   1       0.801   0.930  -0.531  0.00  0.00     0.017 A 
ATOM      5  C4  UNL d   1       0.714  -0.466  -0.582  0.00  0.00     0.017 A 
ATOM      6  C5  UNL d   1       1.876  -1.229  -0.731  0.00  0.00     0.034 A 
ATOM      7 Cl   UNL d   1      -0.792  -1.306  -0.467  0.00  0.00    -0.070 Cl
ATOM      8 Cl1  UNL d   1      -0.589   1.941  -0.348  0.00  0.00    -0.070 Cl
ENDROOT
TORSDOF 0
ENDMDL
