MODEL 1
REMARK minimizedAffinity -2.24238896
REMARK minimizedRMSD -1
REMARK  0 active torsions:
REMARK  status: ('A' for Active; 'I' for Inactive)
ROOT
ATOM      1  C   UNL d   1      -1.133  -0.021  -0.210  0.00  0.00     0.020 A 
ATOM      2  C1  UNL d   1      -0.304   1.077  -0.438  0.00  0.00     0.020 A 
ATOM      3  C2  UNL d   1       1.078   0.900  -0.537  0.00  0.00     0.034 A 
ATOM      4  C3  UNL d   1       1.634  -0.378  -0.407  0.00  0.00     0.017 A 
ATOM      5  C4  UNL d   1       0.801  -1.479  -0.179  0.00  0.00     0.017 A 
ATOM      6  C5  UNL d   1      -0.581  -1.296  -0.081  0.00  0.00     0.034 A 
ATOM      7 Cl   UNL d   1       1.415  -3.086  -0.008  0.00  0.00    -0.070 Cl
ATOM      8 Cl1  UNL d   1       3.351  -0.523  -0.541  0.00  0.00    -0.070 Cl
ENDROOT
TORSDOF 0
ENDMDL
