MODEL 1
REMARK minimizedAffinity -3.69905305
REMARK minimizedRMSD -1
REMARK  0 active torsions:
REMARK  status: ('A' for Active; 'I' for Inactive)
ROOT
ATOM      1  C   UNL d   1       2.168  -1.256  -1.201  0.00  0.00     0.020 A 
ATOM      2  C1  UNL d   1       1.413  -1.875  -0.205  0.00  0.00     0.020 A 
ATOM      3  C2  UNL d   1       0.313  -1.216   0.348  0.00  0.00     0.034 A 
ATOM      4  C3  UNL d   1      -0.034   0.067  -0.092  0.00  0.00     0.017 A 
ATOM      5  C4  UNL d   1       0.725   0.687  -1.091  0.00  0.00     0.017 A 
ATOM      6  C5  UNL d   1       1.825   0.022  -1.643  0.00  0.00     0.034 A 
ATOM      7 Cl   UNL d   1       0.358   2.268  -1.687  0.00  0.00    -0.070 Cl
ATOM      8 Cl1  UNL d   1      -1.406   0.823   0.637  0.00  0.00    -0.070 Cl
ENDROOT
TORSDOF 0
ENDMDL
