MODEL 1
REMARK minimizedAffinity -0.961401999
REMARK minimizedRMSD -1
REMARK  0 active torsions:
REMARK  status: ('A' for Active; 'I' for Inactive)
ROOT
ATOM      1  C   UNL d   1       5.909  -1.565   6.000  0.00  0.00     0.020 A 
ATOM      2  C1  UNL d   1       5.559  -2.252   4.837  0.00  0.00     0.020 A 
ATOM      3  C2  UNL d   1       5.285  -1.545   3.665  0.00  0.00     0.034 A 
ATOM      4  C3  UNL d   1       5.360  -0.147   3.652  0.00  0.00     0.017 A 
ATOM      5  C4  UNL d   1       5.711   0.541   4.819  0.00  0.00     0.017 A 
ATOM      6  C5  UNL d   1       5.985  -0.172   5.990  0.00  0.00     0.034 A 
ATOM      7 Cl   UNL d   1       5.825   2.264   4.880  0.00  0.00    -0.070 Cl
ATOM      8 Cl1  UNL d   1       5.008   0.662   2.166  0.00  0.00    -0.070 Cl
ENDROOT
TORSDOF 0
ENDMDL
