MODEL 1
REMARK minimizedAffinity -3.34693646
REMARK minimizedRMSD -1
REMARK  0 active torsions:
REMARK  status: ('A' for Active; 'I' for Inactive)
ROOT
ATOM      1  C   UNL d   1       2.590  -1.183  -0.329  0.00  0.00     0.020 A 
ATOM      2  C1  UNL d   1       1.502  -1.819   0.267  0.00  0.00     0.020 A 
ATOM      3  C2  UNL d   1       0.288  -1.144   0.404  0.00  0.00     0.034 A 
ATOM      4  C3  UNL d   1       0.158   0.172  -0.055  0.00  0.00     0.017 A 
ATOM      5  C4  UNL d   1       1.251   0.810  -0.653  0.00  0.00     0.017 A 
ATOM      6  C5  UNL d   1       2.465   0.129  -0.788  0.00  0.00     0.034 A 
ATOM      7 Cl   UNL d   1       1.168   2.432  -1.245  0.00  0.00    -0.070 Cl
ATOM      8 Cl1  UNL d   1      -1.373   0.946   0.146  0.00  0.00    -0.070 Cl
ENDROOT
TORSDOF 0
ENDMDL
