MODEL 1
REMARK minimizedAffinity -2.87268519
REMARK minimizedRMSD -1
REMARK  0 active torsions:
REMARK  status: ('A' for Active; 'I' for Inactive)
ROOT
ATOM      1  C   UNL d   1      -1.059  -0.153   0.216  0.00  0.00     0.020 A 
ATOM      2  C1  UNL d   1      -0.501  -1.430   0.159  0.00  0.00     0.020 A 
ATOM      3  C2  UNL d   1       0.822  -1.596  -0.254  0.00  0.00     0.034 A 
ATOM      4  C3  UNL d   1       1.593  -0.484  -0.613  0.00  0.00     0.017 A 
ATOM      5  C4  UNL d   1       1.032   0.797  -0.556  0.00  0.00     0.017 A 
ATOM      6  C5  UNL d   1      -0.293   0.958  -0.141  0.00  0.00     0.034 A 
ATOM      7 Cl   UNL d   1       1.921   2.217  -0.982  0.00  0.00    -0.070 Cl
ATOM      8 Cl1  UNL d   1       3.222  -0.764  -1.114  0.00  0.00    -0.070 Cl
ENDROOT
TORSDOF 0
ENDMDL
