MODEL 1
REMARK minimizedAffinity -4.59805346
REMARK minimizedRMSD -1
REMARK  0 active torsions:
REMARK  status: ('A' for Active; 'I' for Inactive)
ROOT
ATOM      1  C   UNL d   1       2.417  -0.717  -1.574  0.00  0.00     0.020 A 
ATOM      2  C1  UNL d   1       1.997   0.585  -1.301  0.00  0.00     0.020 A 
ATOM      3  C2  UNL d   1       0.934   0.807  -0.424  0.00  0.00     0.034 A 
ATOM      4  C3  UNL d   1       0.286  -0.275   0.184  0.00  0.00     0.017 A 
ATOM      5  C4  UNL d   1       0.707  -1.581  -0.090  0.00  0.00     0.017 A 
ATOM      6  C5  UNL d   1       1.773  -1.797  -0.969  0.00  0.00     0.034 A 
ATOM      7 Cl   UNL d   1      -0.043  -2.965   0.622  0.00  0.00    -0.070 Cl
ATOM      8 Cl1  UNL d   1      -1.022   0.073   1.259  0.00  0.00    -0.070 Cl
ENDROOT
TORSDOF 0
ENDMDL
