MODEL 1
REMARK minimizedAffinity 0.0262366869
REMARK minimizedRMSD -1
REMARK  0 active torsions:
REMARK  status: ('A' for Active; 'I' for Inactive)
ROOT
ATOM      1  C   UNL d   1      -0.844   1.081   0.223  0.00  0.00     0.020 A 
ATOM      2  C1  UNL d   1       0.105   1.493  -0.712  0.00  0.00     0.020 A 
ATOM      3  C2  UNL d   1       1.031   0.578  -1.216  0.00  0.00     0.034 A 
ATOM      4  C3  UNL d   1       1.011  -0.754  -0.785  0.00  0.00     0.017 A 
ATOM      5  C4  UNL d   1       0.059  -1.166   0.154  0.00  0.00     0.017 A 
ATOM      6  C5  UNL d   1      -0.867  -0.246   0.655  0.00  0.00     0.034 A 
ATOM      7 Cl   UNL d   1      -0.028  -2.792   0.734  0.00  0.00    -0.070 Cl
ATOM      8 Cl1  UNL d   1       2.187  -1.831  -1.450  0.00  0.00    -0.070 Cl
ENDROOT
TORSDOF 0
ENDMDL
