MODEL 1
REMARK minimizedAffinity -5.65303659
REMARK minimizedRMSD -1
REMARK  0 active torsions:
REMARK  status: ('A' for Active; 'I' for Inactive)
ROOT
ATOM      1  C   UNL d   1       2.475  -0.381  -1.225  0.00  0.00     0.020 A 
ATOM      2  C1  UNL d   1       1.987   0.913  -1.043  0.00  0.00     0.020 A 
ATOM      3  C2  UNL d   1       0.742   1.111  -0.444  0.00  0.00     0.034 A 
ATOM      4  C3  UNL d   1      -0.020   0.015  -0.024  0.00  0.00     0.017 A 
ATOM      5  C4  UNL d   1       0.470  -1.283  -0.207  0.00  0.00     0.017 A 
ATOM      6  C5  UNL d   1       1.718  -1.476  -0.807  0.00  0.00     0.034 A 
ATOM      7 Cl   UNL d   1      -0.412  -2.686   0.285  0.00  0.00    -0.070 Cl
ATOM      8 Cl1  UNL d   1      -1.552   0.334   0.710  0.00  0.00    -0.070 Cl
ENDROOT
TORSDOF 0
ENDMDL
