MODEL 1
REMARK minimizedAffinity -3.91366029
REMARK minimizedRMSD -1
REMARK  0 active torsions:
REMARK  status: ('A' for Active; 'I' for Inactive)
ROOT
ATOM      1  C   UNL d   1       2.572   0.432  -0.933  0.00  0.00     0.020 A 
ATOM      2  C1  UNL d   1       2.923  -0.917  -0.885  0.00  0.00     0.020 A 
ATOM      3  C2  UNL d   1       1.960  -1.879  -0.572  0.00  0.00     0.034 A 
ATOM      4  C3  UNL d   1       0.641  -1.494  -0.307  0.00  0.00     0.017 A 
ATOM      5  C4  UNL d   1       0.289  -0.140  -0.355  0.00  0.00     0.017 A 
ATOM      6  C5  UNL d   1       1.257   0.819  -0.669  0.00  0.00     0.034 A 
ATOM      7 Cl   UNL d   1      -1.318   0.412  -0.040  0.00  0.00    -0.070 Cl
ATOM      8 Cl1  UNL d   1      -0.498  -2.736   0.073  0.00  0.00    -0.070 Cl
ENDROOT
TORSDOF 0
ENDMDL
