MODEL 1
REMARK minimizedAffinity -3.24454808
REMARK minimizedRMSD -1
REMARK  0 active torsions:
REMARK  status: ('A' for Active; 'I' for Inactive)
ROOT
ATOM      1  C   UNL d   1      -0.314  -0.425   0.191  0.00  0.00     0.020 A 
ATOM      2  C1  UNL d   1       0.642   0.525   0.548  0.00  0.00     0.020 A 
ATOM      3  C2  UNL d   1       1.873   0.559  -0.111  0.00  0.00     0.034 A 
ATOM      4  C3  UNL d   1       2.151  -0.360  -1.130  0.00  0.00     0.017 A 
ATOM      5  C4  UNL d   1       1.191  -1.313  -1.488  0.00  0.00     0.017 A 
ATOM      6  C5  UNL d   1      -0.040  -1.342  -0.825  0.00  0.00     0.034 A 
ATOM      7 Cl   UNL d   1       1.462  -2.478  -2.735  0.00  0.00    -0.070 Cl
ATOM      8 Cl1  UNL d   1       3.694  -0.260  -1.902  0.00  0.00    -0.070 Cl
ENDROOT
TORSDOF 0
ENDMDL
