MODEL 1
REMARK minimizedAffinity -2.96180201
REMARK minimizedRMSD -1
REMARK  0 active torsions:
REMARK  status: ('A' for Active; 'I' for Inactive)
ROOT
ATOM      1  C   UNL d   1       2.946  -0.373  -0.932  0.00  0.00     0.020 A 
ATOM      2  C1  UNL d   1       2.504   0.942  -0.786  0.00  0.00     0.020 A 
ATOM      3  C2  UNL d   1       1.168   1.199  -0.474  0.00  0.00     0.034 A 
ATOM      4  C3  UNL d   1       0.267   0.140  -0.309  0.00  0.00     0.017 A 
ATOM      5  C4  UNL d   1       0.711  -1.179  -0.456  0.00  0.00     0.017 A 
ATOM      6  C5  UNL d   1       2.051  -1.431  -0.768  0.00  0.00     0.034 A 
ATOM      7 Cl   UNL d   1      -0.340  -2.538  -0.267  0.00  0.00    -0.070 Cl
ATOM      8 Cl1  UNL d   1      -1.371   0.531   0.076  0.00  0.00    -0.070 Cl
ENDROOT
TORSDOF 0
ENDMDL
