MODEL 1
REMARK minimizedAffinity -2.24148178
REMARK minimizedRMSD -1
REMARK  0 active torsions:
REMARK  status: ('A' for Active; 'I' for Inactive)
ROOT
ATOM      1  C   UNL d   1      -1.046  -0.920   0.284  0.00  0.00     0.020 A 
ATOM      2  C1  UNL d   1      -0.124  -1.926   0.567  0.00  0.00     0.020 A 
ATOM      3  C2  UNL d   1       1.195  -1.811   0.121  0.00  0.00     0.034 A 
ATOM      4  C3  UNL d   1       1.594  -0.686  -0.610  0.00  0.00     0.017 A 
ATOM      5  C4  UNL d   1       0.668   0.324  -0.894  0.00  0.00     0.017 A 
ATOM      6  C5  UNL d   1      -0.651   0.203  -0.445  0.00  0.00     0.034 A 
ATOM      7 Cl   UNL d   1       1.086   1.741  -1.790  0.00  0.00    -0.070 Cl
ATOM      8 Cl1  UNL d   1       3.241  -0.609  -1.129  0.00  0.00    -0.070 Cl
ENDROOT
TORSDOF 0
ENDMDL
