MODEL 1
REMARK minimizedAffinity -2.47022796
REMARK minimizedRMSD -1
REMARK  0 active torsions:
REMARK  status: ('A' for Active; 'I' for Inactive)
ROOT
ATOM      1  C   UNL d   1       2.769  -0.475  -1.550  0.00  0.00     0.020 A 
ATOM      2  C1  UNL d   1       2.512   0.858  -1.231  0.00  0.00     0.020 A 
ATOM      3  C2  UNL d   1       1.374   1.192  -0.494  0.00  0.00     0.034 A 
ATOM      4  C3  UNL d   1       0.490   0.193  -0.072  0.00  0.00     0.017 A 
ATOM      5  C4  UNL d   1       0.749  -1.145  -0.392  0.00  0.00     0.017 A 
ATOM      6  C5  UNL d   1       1.890  -1.474  -1.131  0.00  0.00     0.034 A 
ATOM      7 Cl   UNL d   1      -0.296  -2.433   0.094  0.00  0.00    -0.070 Cl
ATOM      8 Cl1  UNL d   1      -0.897   0.678   0.837  0.00  0.00    -0.070 Cl
ENDROOT
TORSDOF 0
ENDMDL
