MODEL 1
REMARK minimizedAffinity -1.02622461
REMARK minimizedRMSD -1
REMARK  0 active torsions:
REMARK  status: ('A' for Active; 'I' for Inactive)
ROOT
ATOM      1  C2' OXE d   1       0.105   0.559   0.762  0.00  0.00     0.078 C 
ATOM      2  C1' OXE d   1       1.854  -1.626   0.550  0.00  0.00     0.078 C 
ATOM      3  C1  OXE d   1       1.229  -1.100  -0.717  0.00  0.00    -0.078 A 
ATOM      4  C2  OXE d   1       0.338  -0.061  -0.599  0.00  0.00    -0.078 A 
ATOM      5  C3  OXE d   1      -0.225   0.498  -1.743  0.00  0.00     0.003 A 
ATOM      6  C4  OXE d   1      -0.012  -0.087  -2.996  0.00  0.00    -0.002 A 
ATOM      7  C5  OXE d   1       0.860  -1.172  -3.134  0.00  0.00    -0.002 A 
ATOM      8  C6  OXE d   1       1.520  -1.662  -2.013  0.00  0.00     0.003 A 
ENDROOT
TORSDOF 0
ENDMDL
