MODEL 1
REMARK minimizedAffinity -2.71906066
REMARK minimizedRMSD -1
REMARK  0 active torsions:
REMARK  status: ('A' for Active; 'I' for Inactive)
ROOT
ATOM      1  C2' OXE d   1      -1.897   0.797  -1.047  0.00  0.00     0.078 C 
ATOM      2  C1' OXE d   1       0.181  -0.846  -1.976  0.00  0.00     0.078 C 
ATOM      3  C1  OXE d   1       0.181  -0.472  -0.515  0.00  0.00    -0.078 A 
ATOM      4  C2  OXE d   1      -0.814   0.371  -0.079  0.00  0.00    -0.078 A 
ATOM      5  C3  OXE d   1      -0.892   0.704   1.270  0.00  0.00     0.003 A 
ATOM      6  C4  OXE d   1       0.119   0.314   2.156  0.00  0.00    -0.002 A 
ATOM      7  C5  OXE d   1       1.163  -0.512   1.724  0.00  0.00    -0.002 A 
ATOM      8  C6  OXE d   1       1.185  -0.947   0.404  0.00  0.00     0.003 A 
ENDROOT
TORSDOF 0
ENDMDL
