MODEL 1
REMARK minimizedAffinity -2.77957511
REMARK minimizedRMSD -1
REMARK  0 active torsions:
REMARK  status: ('A' for Active; 'I' for Inactive)
ROOT
ATOM      1  C2' OXE d   1       1.223   0.869  -3.885  0.00  0.00     0.078 C 
ATOM      2  C1' OXE d   1       1.438  -1.902  -3.494  0.00  0.00     0.078 C 
ATOM      3  C1  OXE d   1       0.970  -1.062  -2.332  0.00  0.00    -0.078 A 
ATOM      4  C2  OXE d   1       0.912   0.298  -2.518  0.00  0.00    -0.078 A 
ATOM      5  C3  OXE d   1       0.435   1.114  -1.497  0.00  0.00     0.003 A 
ATOM      6  C4  OXE d   1       0.159   0.579  -0.232  0.00  0.00    -0.002 A 
ATOM      7  C5  OXE d   1       0.249  -0.799  -0.010  0.00  0.00    -0.002 A 
ATOM      8  C6  OXE d   1       0.611  -1.637  -1.059  0.00  0.00     0.003 A 
ENDROOT
TORSDOF 0
ENDMDL
