MODEL 1
REMARK minimizedAffinity -3.50605917
REMARK minimizedRMSD -1
REMARK  0 active torsions:
REMARK  status: ('A' for Active; 'I' for Inactive)
ROOT
ATOM      1  C2' OXE d   1       1.540   0.033   1.249  0.00  0.00     0.078 C 
ATOM      2  C1' OXE d   1       0.043  -0.091  -1.122  0.00  0.00     0.078 C 
ATOM      3  C1  OXE d   1      -0.690   0.228   0.156  0.00  0.00    -0.078 A 
ATOM      4  C2  OXE d   1       0.042   0.241   1.319  0.00  0.00    -0.078 A 
ATOM      5  C3  OXE d   1      -0.575   0.584   2.519  0.00  0.00     0.003 A 
ATOM      6  C4  OXE d   1      -1.962   0.764   2.576  0.00  0.00    -0.002 A 
ATOM      7  C5  OXE d   1      -2.733   0.716   1.410  0.00  0.00    -0.002 A 
ATOM      8  C6  OXE d   1      -2.108   0.492   0.188  0.00  0.00     0.003 A 
ENDROOT
TORSDOF 0
ENDMDL
