MODEL 1
REMARK minimizedAffinity -2.83716512
REMARK minimizedRMSD -1
REMARK  0 active torsions:
REMARK  status: ('A' for Active; 'I' for Inactive)
ROOT
ATOM      1  C2' OXE d   1      -0.016   0.381   0.171  0.00  0.00     0.078 C 
ATOM      2  C1' OXE d   1       2.057  -1.508   0.272  0.00  0.00     0.078 C 
ATOM      3  C1  OXE d   1       1.460  -1.191  -1.076  0.00  0.00    -0.078 A 
ATOM      4  C2  OXE d   1       0.414  -0.300  -1.110  0.00  0.00    -0.078 A 
ATOM      5  C3  OXE d   1      -0.137   0.069  -2.334  0.00  0.00     0.003 A 
ATOM      6  C4  OXE d   1       0.261  -0.574  -3.513  0.00  0.00    -0.002 A 
ATOM      7  C5  OXE d   1       1.297  -1.513  -3.495  0.00  0.00    -0.002 A 
ATOM      8  C6  OXE d   1       1.935  -1.801  -2.293  0.00  0.00     0.003 A 
ENDROOT
TORSDOF 0
ENDMDL
