MODEL 1
REMARK minimizedAffinity -2.89304662
REMARK minimizedRMSD -1
REMARK  0 active torsions:
REMARK  status: ('A' for Active; 'I' for Inactive)
ROOT
ATOM      1  C2' OXE d   1       0.604  -1.338  -2.592  0.00  0.00     0.078 C 
ATOM      2  C1' OXE d   1      -0.159   1.295  -1.991  0.00  0.00     0.078 C 
ATOM      3  C1  OXE d   1       0.365   0.440  -0.865  0.00  0.00    -0.078 A 
ATOM      4  C2  OXE d   1       0.692  -0.861  -1.158  0.00  0.00    -0.078 A 
ATOM      5  C3  OXE d   1       1.231  -1.677  -0.168  0.00  0.00     0.003 A 
ATOM      6  C4  OXE d   1       1.300  -1.231   1.158  0.00  0.00    -0.002 A 
ATOM      7  C5  OXE d   1       0.934   0.078   1.486  0.00  0.00    -0.002 A 
ATOM      8  C6  OXE d   1       0.506   0.939   0.481  0.00  0.00     0.003 A 
ENDROOT
TORSDOF 0
ENDMDL
