MODEL 1
REMARK minimizedAffinity 0.935804963
REMARK minimizedRMSD -1
REMARK  0 active torsions:
REMARK  status: ('A' for Active; 'I' for Inactive)
ROOT
ATOM      1  C2' OXE d   1       0.557  -0.346  -1.689  0.00  0.00     0.078 C 
ATOM      2  C1' OXE d   1      -1.842   0.246  -0.358  0.00  0.00     0.078 C 
ATOM      3  C1  OXE d   1      -0.572   0.235   0.454  0.00  0.00    -0.078 A 
ATOM      4  C2  OXE d   1       0.591  -0.101  -0.195  0.00  0.00    -0.078 A 
ATOM      5  C3  OXE d   1       1.800  -0.073   0.495  0.00  0.00     0.003 A 
ATOM      6  C4  OXE d   1       1.821   0.145   1.878  0.00  0.00    -0.002 A 
ATOM      7  C5  OXE d   1       0.642   0.450   2.567  0.00  0.00    -0.002 A 
ATOM      8  C6  OXE d   1      -0.554   0.541   1.864  0.00  0.00     0.003 A 
ENDROOT
TORSDOF 0
ENDMDL
