MODEL 1
REMARK minimizedAffinity -4.0631237
REMARK minimizedRMSD -1
REMARK  0 active torsions:
REMARK  status: ('A' for Active; 'I' for Inactive)
ROOT
ATOM      1  C2' OXE d   1       0.113  -1.281  -2.890  0.00  0.00     0.078 C 
ATOM      2  C1' OXE d   1      -1.041   1.142  -2.067  0.00  0.00     0.078 C 
ATOM      3  C1  OXE d   1      -0.381   0.284  -1.016  0.00  0.00    -0.078 A 
ATOM      4  C2  OXE d   1       0.140  -0.921  -1.420  0.00  0.00    -0.078 A 
ATOM      5  C3  OXE d   1       0.807  -1.726  -0.501  0.00  0.00     0.003 A 
ATOM      6  C4  OXE d   1       0.818  -1.391   0.858  0.00  0.00    -0.002 A 
ATOM      7  C5  OXE d   1       0.259  -0.186   1.297  0.00  0.00    -0.002 A 
ATOM      8  C6  OXE d   1      -0.306   0.681   0.368  0.00  0.00     0.003 A 
ENDROOT
TORSDOF 0
ENDMDL
