MODEL 1
REMARK minimizedAffinity -3.52109265
REMARK minimizedRMSD -1
REMARK  0 active torsions:
REMARK  status: ('A' for Active; 'I' for Inactive)
ROOT
ATOM      1  C2' OXE d   1       1.896   0.412   0.934  0.00  0.00     0.078 C 
ATOM      2  C1' OXE d   1       0.048   0.531  -1.176  0.00  0.00     0.078 C 
ATOM      3  C1  OXE d   1      -0.489   0.568   0.233  0.00  0.00    -0.078 A 
ATOM      4  C2  OXE d   1       0.419   0.462   1.259  0.00  0.00    -0.078 A 
ATOM      5  C3  OXE d   1      -0.018   0.545   2.578  0.00  0.00     0.003 A 
ATOM      6  C4  OXE d   1      -1.387   0.581   2.870  0.00  0.00    -0.002 A 
ATOM      7  C5  OXE d   1      -2.331   0.650   1.840  0.00  0.00    -0.002 A 
ATOM      8  C6  OXE d   1      -1.897   0.687   0.520  0.00  0.00     0.003 A 
ENDROOT
TORSDOF 0
ENDMDL
