MODEL 1
REMARK minimizedAffinity 0.40180856
REMARK minimizedRMSD -1
REMARK  0 active torsions:
REMARK  status: ('A' for Active; 'I' for Inactive)
ROOT
ATOM      1  C2' OXE d   1       0.043   0.240  -0.794  0.00  0.00     0.078 C 
ATOM      2  C1' OXE d   1       1.909   0.042   1.295  0.00  0.00     0.078 C 
ATOM      3  C1  OXE d   1       0.461   0.248   1.662  0.00  0.00    -0.078 A 
ATOM      4  C2  OXE d   1      -0.439   0.391   0.633  0.00  0.00    -0.078 A 
ATOM      5  C3  OXE d   1      -1.794   0.529   0.917  0.00  0.00     0.003 A 
ATOM      6  C4  OXE d   1      -2.230   0.678   2.239  0.00  0.00    -0.002 A 
ATOM      7  C5  OXE d   1      -1.326   0.575   3.301  0.00  0.00    -0.002 A 
ATOM      8  C6  OXE d   1       0.014   0.319   3.032  0.00  0.00     0.003 A 
ENDROOT
TORSDOF 0
ENDMDL
