MODEL 1
REMARK minimizedAffinity -0.73695755
REMARK minimizedRMSD -1
REMARK  0 active torsions:
REMARK  status: ('A' for Active; 'I' for Inactive)
ROOT
ATOM      1  C2' OXE d   1      -2.759   0.472   0.828  0.00  0.00     0.078 C 
ATOM      2  C1' OXE d   1      -1.185   0.531   3.152  0.00  0.00     0.078 C 
ATOM      3  C1  OXE d   1      -0.497   0.234   1.843  0.00  0.00    -0.078 A 
ATOM      4  C2  OXE d   1      -1.282   0.161   0.718  0.00  0.00    -0.078 A 
ATOM      5  C3  OXE d   1      -0.690  -0.056  -0.523  0.00  0.00     0.003 A 
ATOM      6  C4  OXE d   1       0.676  -0.353  -0.615  0.00  0.00    -0.002 A 
ATOM      7  C5  OXE d   1       1.487  -0.323   0.525  0.00  0.00    -0.002 A 
ATOM      8  C6  OXE d   1       0.925   0.010   1.752  0.00  0.00     0.003 A 
ENDROOT
TORSDOF 0
ENDMDL
