MODEL 1
REMARK minimizedAffinity -1.44663692
REMARK minimizedRMSD -1
REMARK  0 active torsions:
REMARK  status: ('A' for Active; 'I' for Inactive)
ROOT
ATOM      1  C2' OXE d   1      -1.467   1.033  -0.833  0.00  0.00     0.078 C 
ATOM      2  C1' OXE d   1       0.542  -0.699  -1.751  0.00  0.00     0.078 C 
ATOM      3  C1  OXE d   1       0.582  -0.281  -0.302  0.00  0.00    -0.078 A 
ATOM      4  C2  OXE d   1      -0.378   0.604   0.127  0.00  0.00    -0.078 A 
ATOM      5  C3  OXE d   1      -0.420   0.980   1.467  0.00  0.00     0.003 A 
ATOM      6  C4  OXE d   1       0.597   0.586   2.345  0.00  0.00    -0.002 A 
ATOM      7  C5  OXE d   1       1.606  -0.283   1.919  0.00  0.00    -0.002 A 
ATOM      8  C6  OXE d   1       1.589  -0.759   0.612  0.00  0.00     0.003 A 
ENDROOT
TORSDOF 0
ENDMDL
