MODEL 1
REMARK minimizedAffinity -3.94705701
REMARK minimizedRMSD -1
REMARK  0 active torsions:
REMARK  status: ('A' for Active; 'I' for Inactive)
ROOT
ATOM      1  C2' OXE d   1       1.297   0.028   1.521  0.00  0.00     0.078 C 
ATOM      2  C1' OXE d   1      -0.059   0.356  -0.915  0.00  0.00     0.078 C 
ATOM      3  C1  OXE d   1      -0.869   0.424   0.356  0.00  0.00    -0.078 A 
ATOM      4  C2  OXE d   1      -0.204   0.216   1.540  0.00  0.00    -0.078 A 
ATOM      5  C3  OXE d   1      -0.893   0.323   2.745  0.00  0.00     0.003 A 
ATOM      6  C4  OXE d   1      -2.284   0.487   2.754  0.00  0.00    -0.002 A 
ATOM      7  C5  OXE d   1      -2.986   0.662   1.557  0.00  0.00    -0.002 A 
ATOM      8  C6  OXE d   1      -2.289   0.675   0.354  0.00  0.00     0.003 A 
ENDROOT
TORSDOF 0
ENDMDL
