MODEL 1
REMARK minimizedAffinity -1.08616889
REMARK minimizedRMSD -1
REMARK  0 active torsions:
REMARK  status: ('A' for Active; 'I' for Inactive)
ROOT
ATOM      1  C2' OXE d   1      -0.004   0.364  -1.643  0.00  0.00     0.078 C 
ATOM      2  C1' OXE d   1      -1.991   0.219   0.335  0.00  0.00     0.078 C 
ATOM      3  C1  OXE d   1      -0.551   0.233   0.784  0.00  0.00    -0.078 A 
ATOM      4  C2  OXE d   1       0.415   0.257  -0.193  0.00  0.00    -0.078 A 
ATOM      5  C3  OXE d   1       1.758   0.327   0.168  0.00  0.00     0.003 A 
ATOM      6  C4  OXE d   1       2.138   0.217   1.511  0.00  0.00    -0.002 A 
ATOM      7  C5  OXE d   1       1.170   0.152   2.519  0.00  0.00    -0.002 A 
ATOM      8  C6  OXE d   1      -0.176   0.202   2.176  0.00  0.00     0.003 A 
ENDROOT
TORSDOF 0
ENDMDL
