MODEL 1
REMARK minimizedAffinity -2.13513637
REMARK minimizedRMSD -1
REMARK  0 active torsions:
REMARK  status: ('A' for Active; 'I' for Inactive)
ROOT
ATOM      1  C2' OXE d   1       1.622   0.047   1.437  0.00  0.00     0.078 C 
ATOM      2  C1' OXE d   1       0.403   0.104  -1.090  0.00  0.00     0.078 C 
ATOM      3  C1  OXE d   1      -0.475   0.310   0.119  0.00  0.00    -0.078 A 
ATOM      4  C2  OXE d   1       0.123   0.234   1.354  0.00  0.00    -0.078 A 
ATOM      5  C3  OXE d   1      -0.631   0.471   2.500  0.00  0.00     0.003 A 
ATOM      6  C4  OXE d   1      -2.019   0.633   2.415  0.00  0.00    -0.002 A 
ATOM      7  C5  OXE d   1      -2.653   0.674   1.169  0.00  0.00    -0.002 A 
ATOM      8  C6  OXE d   1      -1.891   0.557   0.012  0.00  0.00     0.003 A 
ENDROOT
TORSDOF 0
ENDMDL
