MODEL 1
REMARK minimizedAffinity -3.68884802
REMARK minimizedRMSD -1
REMARK  0 active torsions:
REMARK  status: ('A' for Active; 'I' for Inactive)
ROOT
ATOM      1  C2' OXE d   1       1.565   0.111   1.554  0.00  0.00     0.078 C 
ATOM      2  C1' OXE d   1       0.179   0.004  -0.885  0.00  0.00     0.078 C 
ATOM      3  C1  OXE d   1      -0.626   0.212   0.374  0.00  0.00    -0.078 A 
ATOM      4  C2  OXE d   1       0.056   0.216   1.567  0.00  0.00    -0.078 A 
ATOM      5  C3  OXE d   1      -0.632   0.459   2.752  0.00  0.00     0.003 A 
ATOM      6  C4  OXE d   1      -2.029   0.546   2.757  0.00  0.00    -0.002 A 
ATOM      7  C5  OXE d   1      -2.747   0.504   1.556  0.00  0.00    -0.002 A 
ATOM      8  C6  OXE d   1      -2.058   0.381   0.355  0.00  0.00     0.003 A 
ENDROOT
TORSDOF 0
ENDMDL
