MODEL 1
REMARK minimizedAffinity -0.367465764
REMARK minimizedRMSD -1
REMARK  0 active torsions:
REMARK  status: ('A' for Active; 'I' for Inactive)
ROOT
ATOM      1  C2' OXE d   1      -0.882   1.219  -1.880  0.00  0.00     0.078 C 
ATOM      2  C1' OXE d   1       0.389  -1.165  -2.642  0.00  0.00     0.078 C 
ATOM      3  C1  OXE d   1       0.598  -0.676  -1.230  0.00  0.00    -0.078 A 
ATOM      4  C2  OXE d   1       0.010   0.516  -0.881  0.00  0.00    -0.078 A 
ATOM      5  C3  OXE d   1       0.126   0.985   0.425  0.00  0.00     0.003 A 
ATOM      6  C4  OXE d   1       0.962   0.333   1.341  0.00  0.00    -0.002 A 
ATOM      7  C5  OXE d   1       1.602  -0.861   0.992  0.00  0.00    -0.002 A 
ATOM      8  C6  OXE d   1       1.397  -1.400  -0.273  0.00  0.00     0.003 A 
ENDROOT
TORSDOF 0
ENDMDL
