MODEL 1
REMARK minimizedAffinity -4.80352259
REMARK minimizedRMSD -1
REMARK  0 active torsions:
REMARK  status: ('A' for Active; 'I' for Inactive)
ROOT
ATOM      1  C2' OXE d   1      -1.052   1.064  -2.244  0.00  0.00     0.078 C 
ATOM      2  C1' OXE d   1       1.343  -0.050  -3.194  0.00  0.00     0.078 C 
ATOM      3  C1  OXE d   1       1.023  -0.213  -1.729  0.00  0.00    -0.078 A 
ATOM      4  C2  OXE d   1      -0.128   0.376  -1.264  0.00  0.00    -0.078 A 
ATOM      5  C3  OXE d   1      -0.497   0.210   0.068  0.00  0.00     0.003 A 
ATOM      6  C4  OXE d   1       0.369  -0.419   0.971  0.00  0.00    -0.002 A 
ATOM      7  C5  OXE d   1       1.565  -0.991   0.526  0.00  0.00    -0.002 A 
ATOM      8  C6  OXE d   1       1.886  -0.934  -0.826  0.00  0.00     0.003 A 
ENDROOT
TORSDOF 0
ENDMDL
