MODEL 1
REMARK minimizedAffinity 14.1721649
REMARK minimizedRMSD -1
REMARK  0 active torsions:
REMARK  status: ('A' for Active; 'I' for Inactive)
ROOT
ATOM      1  C   UNL d   1      -3.690   0.340   0.789  0.00  0.00    -0.002 A 
ATOM      2  C1  UNL d   1      -2.760  -0.689   0.745  0.00  0.00     0.010 A 
ATOM      3  C2  UNL d   1      -1.392  -0.410   0.712  0.00  0.00     0.041 A 
ATOM      4  C3  UNL d   1      -0.971   0.934   0.725  0.00  0.00    -0.075 A 
ATOM      5  S   UNL d   1       0.652   1.515   0.692  0.00  0.00     0.015 SA
ATOM      6  C4  UNL d   1       0.150   3.143   0.734  0.00  0.00     0.022 A 
ATOM      7  C5  UNL d   1      -1.219   3.259   0.774  0.00  0.00     0.026 A 
ATOM      8  C6  UNL d   1      -1.888   1.988   0.770  0.00  0.00    -0.082 A 
ATOM      9  C7  UNL d   1      -3.268   1.672   0.801  0.00  0.00     0.045 A 
ENDROOT
TORSDOF 0
ENDMDL
