MODEL 1
REMARK minimizedAffinity 5.37517405
REMARK minimizedRMSD -1
REMARK  0 active torsions:
REMARK  status: ('A' for Active; 'I' for Inactive)
ROOT
ATOM      1  C   UNL d   1      -2.962   0.048   0.452  0.00  0.00    -0.002 A 
ATOM      2  C1  UNL d   1      -1.901  -0.844   0.514  0.00  0.00     0.010 A 
ATOM      3  C2  UNL d   1      -0.604  -0.388   0.758  0.00  0.00     0.041 A 
ATOM      4  C3  UNL d   1      -0.390   0.992   0.943  0.00  0.00    -0.075 A 
ATOM      5  S   UNL d   1       1.112   1.779   1.255  0.00  0.00     0.015 SA
ATOM      6  C4  UNL d   1       0.380   3.317   1.315  0.00  0.00     0.022 A 
ATOM      7  C5  UNL d   1      -0.977   3.250   1.103  0.00  0.00     0.026 A 
ATOM      8  C6  UNL d   1      -1.443   1.910   0.886  0.00  0.00    -0.082 A 
ATOM      9  C7  UNL d   1      -2.746   1.416   0.635  0.00  0.00     0.045 A 
ENDROOT
TORSDOF 0
ENDMDL
