MODEL 1
REMARK minimizedAffinity 6.22248316
REMARK minimizedRMSD -1
REMARK  0 active torsions:
REMARK  status: ('A' for Active; 'I' for Inactive)
ROOT
ATOM      1  C   UNL d   1      -2.827   1.915   0.337  0.00  0.00    -0.002 A 
ATOM      2  C1  UNL d   1      -2.861   0.528   0.296  0.00  0.00     0.010 A 
ATOM      3  C2  UNL d   1      -1.702  -0.218   0.519  0.00  0.00     0.041 A 
ATOM      4  C3  UNL d   1      -0.497   0.460   0.789  0.00  0.00    -0.075 A 
ATOM      5  S   UNL d   1       1.047  -0.246   1.094  0.00  0.00     0.015 SA
ATOM      6  C4  UNL d   1       1.787   1.277   1.287  0.00  0.00     0.022 A 
ATOM      7  C5  UNL d   1       0.894   2.309   1.125  0.00  0.00     0.026 A 
ATOM      8  C6  UNL d   1      -0.437   1.855   0.836  0.00  0.00    -0.082 A 
ATOM      9  C7  UNL d   1      -1.629   2.583   0.604  0.00  0.00     0.045 A 
ENDROOT
TORSDOF 0
ENDMDL
