MODEL 1
REMARK minimizedAffinity 7.2423749
REMARK minimizedRMSD -1
REMARK  0 active torsions:
REMARK  status: ('A' for Active; 'I' for Inactive)
ROOT
ATOM      1  C   UNL d   1      -2.356   0.417   1.335  0.00  0.00    -0.002 A 
ATOM      2  C1  UNL d   1      -2.144  -0.954   1.364  0.00  0.00     0.010 A 
ATOM      3  C2  UNL d   1      -0.925  -1.493   0.950  0.00  0.00     0.041 A 
ATOM      4  C3  UNL d   1       0.089  -0.622   0.503  0.00  0.00    -0.075 A 
ATOM      5  S   UNL d   1       1.663  -1.056  -0.051  0.00  0.00     0.015 SA
ATOM      6  C4  UNL d   1       2.091   0.568  -0.340  0.00  0.00     0.022 A 
ATOM      7  C5  UNL d   1       1.070   1.434  -0.026  0.00  0.00     0.026 A 
ATOM      8  C6  UNL d   1      -0.101   0.762   0.465  0.00  0.00    -0.082 A 
ATOM      9  C7  UNL d   1      -1.349   1.278   0.891  0.00  0.00     0.045 A 
ENDROOT
TORSDOF 0
ENDMDL
