MODEL 1
REMARK minimizedAffinity 3.32450867
REMARK minimizedRMSD -1
REMARK  0 active torsions:
REMARK  status: ('A' for Active; 'I' for Inactive)
ROOT
ATOM      1  C   UNL d   1      -2.158   2.096   0.955  0.00  0.00    -0.002 A 
ATOM      2  C1  UNL d   1      -1.970   0.839   0.397  0.00  0.00     0.010 A 
ATOM      3  C2  UNL d   1      -0.694   0.276   0.328  0.00  0.00     0.041 A 
ATOM      4  C3  UNL d   1       0.400   1.004   0.836  0.00  0.00    -0.075 A 
ATOM      5  S   UNL d   1       2.053   0.514   0.860  0.00  0.00     0.015 SA
ATOM      6  C4  UNL d   1       2.549   1.961   1.612  0.00  0.00     0.022 A 
ATOM      7  C5  UNL d   1       1.492   2.808   1.846  0.00  0.00     0.026 A 
ATOM      8  C6  UNL d   1       0.236   2.271   1.403  0.00  0.00    -0.082 A 
ATOM      9  C7  UNL d   1      -1.070   2.814   1.458  0.00  0.00     0.045 A 
ENDROOT
TORSDOF 0
ENDMDL
