MODEL 1
REMARK minimizedAffinity 11.7655087
REMARK minimizedRMSD -1
REMARK  0 active torsions:
REMARK  status: ('A' for Active; 'I' for Inactive)
ROOT
ATOM      1  C   UNL d   1      -2.727   1.561   0.955  0.00  0.00    -0.002 A 
ATOM      2  C1  UNL d   1      -2.381   0.339   0.397  0.00  0.00     0.010 A 
ATOM      3  C2  UNL d   1      -1.047  -0.071   0.355  0.00  0.00     0.041 A 
ATOM      4  C3  UNL d   1      -0.057   0.775   0.891  0.00  0.00    -0.075 A 
ATOM      5  S   UNL d   1       1.641   0.481   0.952  0.00  0.00     0.015 SA
ATOM      6  C4  UNL d   1       1.947   1.971   1.721  0.00  0.00     0.022 A 
ATOM      7  C5  UNL d   1       0.793   2.688   1.934  0.00  0.00     0.026 A 
ATOM      8  C6  UNL d   1      -0.381   2.010   1.460  0.00  0.00    -0.082 A 
ATOM      9  C7  UNL d   1      -1.742   2.398   1.486  0.00  0.00     0.045 A 
ENDROOT
TORSDOF 0
ENDMDL
