MODEL 1
REMARK minimizedAffinity 10.0220156
REMARK minimizedRMSD -1
REMARK  0 active torsions:
REMARK  status: ('A' for Active; 'I' for Inactive)
ROOT
ATOM      1  C   UNL d   1      -1.766   1.837   1.095  0.00  0.00    -0.002 A 
ATOM      2  C1  UNL d   1      -1.898   0.628   0.427  0.00  0.00     0.010 A 
ATOM      3  C2  UNL d   1      -0.772  -0.132   0.104  0.00  0.00     0.041 A 
ATOM      4  C3  UNL d   1       0.501   0.347   0.470  0.00  0.00    -0.075 A 
ATOM      5  S   UNL d   1       2.021  -0.414   0.180  0.00  0.00     0.015 SA
ATOM      6  C4  UNL d   1       2.881   0.848   0.936  0.00  0.00     0.022 A 
ATOM      7  C5  UNL d   1       2.045   1.834   1.404  0.00  0.00     0.026 A 
ATOM      8  C6  UNL d   1       0.660   1.562   1.143  0.00  0.00    -0.082 A 
ATOM      9  C7  UNL d   1      -0.501   2.309   1.455  0.00  0.00     0.045 A 
ENDROOT
TORSDOF 0
ENDMDL
