MODEL 1
REMARK minimizedAffinity 4.93724489
REMARK minimizedRMSD -1
REMARK  0 active torsions:
REMARK  status: ('A' for Active; 'I' for Inactive)
ROOT
ATOM      1  C   UNL d   1       4.680   3.443   2.287  0.00  0.00    -0.002 A 
ATOM      2  C1  UNL d   1       3.364   3.421   2.728  0.00  0.00     0.010 A 
ATOM      3  C2  UNL d   1       2.386   2.731   2.010  0.00  0.00     0.041 A 
ATOM      4  C3  UNL d   1       2.756   2.054   0.831  0.00  0.00    -0.075 A 
ATOM      5  S   UNL d   1       1.729   1.141  -0.210  0.00  0.00     0.015 SA
ATOM      6  C4  UNL d   1       3.012   0.758  -1.264  0.00  0.00     0.022 A 
ATOM      7  C5  UNL d   1       4.203   1.305  -0.847  0.00  0.00     0.026 A 
ATOM      8  C6  UNL d   1       4.075   2.060   0.367  0.00  0.00    -0.082 A 
ATOM      9  C7  UNL d   1       5.043   2.771   1.117  0.00  0.00     0.045 A 
ENDROOT
TORSDOF 0
ENDMDL
