MODEL 1
REMARK minimizedAffinity 3.46628094
REMARK minimizedRMSD -1
REMARK  0 active torsions:
REMARK  status: ('A' for Active; 'I' for Inactive)
ROOT
ATOM      1  C   UNL d   1       1.889   2.660   1.471  0.00  0.00    -0.002 A 
ATOM      2  C1  UNL d   1       2.208   1.380   1.039  0.00  0.00     0.010 A 
ATOM      3  C2  UNL d   1       1.202   0.472   0.703  0.00  0.00     0.041 A 
ATOM      4  C3  UNL d   1      -0.144   0.876   0.808  0.00  0.00    -0.075 A 
ATOM      5  S   UNL d   1      -1.543  -0.065   0.451  0.00  0.00     0.015 SA
ATOM      6  C4  UNL d   1      -2.597   1.209   0.861  0.00  0.00     0.022 A 
ATOM      7  C5  UNL d   1      -1.915   2.333   1.264  0.00  0.00     0.026 A 
ATOM      8  C6  UNL d   1      -0.490   2.160   1.240  0.00  0.00    -0.082 A 
ATOM      9  C7  UNL d   1       0.553   3.057   1.573  0.00  0.00     0.045 A 
ENDROOT
TORSDOF 0
ENDMDL
