MODEL 1
REMARK minimizedAffinity 10.9753695
REMARK minimizedRMSD -1
REMARK  0 active torsions:
REMARK  status: ('A' for Active; 'I' for Inactive)
ROOT
ATOM      1  C   UNL d   1      -2.318  -0.272   0.110  0.00  0.00    -0.002 A 
ATOM      2  C1  UNL d   1      -1.050  -0.815  -0.038  0.00  0.00     0.010 A 
ATOM      3  C2  UNL d   1       0.085  -0.067   0.279  0.00  0.00     0.041 A 
ATOM      4  C3  UNL d   1      -0.078   1.249   0.756  0.00  0.00    -0.075 A 
ATOM      5  S   UNL d   1       1.167   2.352   1.209  0.00  0.00     0.015 SA
ATOM      6  C4  UNL d   1       0.045   3.570   1.611  0.00  0.00     0.022 A 
ATOM      7  C5  UNL d   1      -1.253   3.162   1.411  0.00  0.00     0.026 A 
ATOM      8  C6  UNL d   1      -1.345   1.818   0.915  0.00  0.00    -0.082 A 
ATOM      9  C7  UNL d   1      -2.476   1.033   0.583  0.00  0.00     0.045 A 
ENDROOT
TORSDOF 0
ENDMDL
