MODEL 1
REMARK minimizedAffinity 7.47309685
REMARK minimizedRMSD -1
REMARK  0 active torsions:
REMARK  status: ('A' for Active; 'I' for Inactive)
ROOT
ATOM      1  C1  DEN d   1       0.962  -4.023   1.418  0.00  0.00     0.130 A 
ATOM      2  C2  DEN d   1       2.205  -3.561   0.807  0.00  0.00    -0.031 A 
ATOM      3  C3  DEN d   1       2.390  -2.141   1.168  0.00  0.00     0.027 A 
ATOM      4  C4  DEN d   1       0.883  -0.623   2.609  0.00  0.00     0.027 A 
ATOM      5  C5  DEN d   1      -0.286  -0.566   3.335  0.00  0.00    -0.003 A 
ATOM      6  C6  DEN d   1      -1.131  -1.639   3.444  0.00  0.00     0.001 A 
ATOM      7  C7  DEN d   1      -0.797  -2.829   2.853  0.00  0.00     0.017 A 
ATOM      8  C8  DEN d   1       0.377  -2.892   2.114  0.00  0.00    -0.094 A 
ATOM      9  C9  DEN d   1       1.224  -1.800   2.026  0.00  0.00    -0.072 A 
ENDROOT
TORSDOF 0
ENDMDL
