MODEL 1
REMARK minimizedAffinity 8.99568176
REMARK minimizedRMSD -1
REMARK  0 active torsions:
REMARK  status: ('A' for Active; 'I' for Inactive)
ROOT
ATOM      1  C1  DEN d   1       4.801  -1.852   5.129  0.00  0.00     0.130 A 
ATOM      2  C2  DEN d   1       3.737  -1.650   4.149  0.00  0.00    -0.031 A 
ATOM      3  C3  DEN d   1       3.319  -2.976   3.650  0.00  0.00     0.027 A 
ATOM      4  C4  DEN d   1       4.206  -5.308   4.301  0.00  0.00     0.027 A 
ATOM      5  C5  DEN d   1       5.115  -5.985   5.084  0.00  0.00    -0.003 A 
ATOM      6  C6  DEN d   1       5.999  -5.336   5.904  0.00  0.00     0.001 A 
ATOM      7  C7  DEN d   1       5.962  -3.970   5.995  0.00  0.00     0.017 A 
ATOM      8  C8  DEN d   1       5.053  -3.280   5.203  0.00  0.00    -0.094 A 
ATOM      9  C9  DEN d   1       4.160  -3.955   4.389  0.00  0.00    -0.072 A 
ENDROOT
TORSDOF 0
ENDMDL
