MODEL 1
REMARK minimizedAffinity 14.8556652
REMARK minimizedRMSD -1
REMARK  0 active torsions:
REMARK  status: ('A' for Active; 'I' for Inactive)
ROOT
ATOM      1  C1  DEN d   1       1.559  -4.429  -1.281  0.00  0.00     0.130 A 
ATOM      2  C2  DEN d   1       2.875  -4.889  -0.845  0.00  0.00    -0.031 A 
ATOM      3  C3  DEN d   1       3.474  -3.831  -0.007  0.00  0.00     0.027 A 
ATOM      4  C4  DEN d   1       2.496  -1.539   0.658  0.00  0.00     0.027 A 
ATOM      5  C5  DEN d   1       1.414  -0.697   0.519  0.00  0.00    -0.003 A 
ATOM      6  C6  DEN d   1       0.329  -1.023  -0.251  0.00  0.00     0.001 A 
ATOM      7  C7  DEN d   1       0.281  -2.241  -0.875  0.00  0.00     0.017 A 
ATOM      8  C8  DEN d   1       1.371  -3.092  -0.746  0.00  0.00    -0.094 A 
ATOM      9  C9  DEN d   1       2.453  -2.750   0.046  0.00  0.00    -0.072 A 
ENDROOT
TORSDOF 0
ENDMDL
