MODEL 1
REMARK minimizedAffinity 5.70549726
REMARK minimizedRMSD -1
REMARK  0 active torsions:
REMARK  status: ('A' for Active; 'I' for Inactive)
ROOT
ATOM      1  C1  DEN d   1       5.628  -3.784   0.378  0.00  0.00     0.130 A 
ATOM      2  C2  DEN d   1       6.000  -5.191   0.255  0.00  0.00    -0.031 A 
ATOM      3  C3  DEN d   1       4.768  -6.000   0.361  0.00  0.00     0.027 A 
ATOM      4  C4  DEN d   1       2.335  -5.213   0.697  0.00  0.00     0.027 A 
ATOM      5  C5  DEN d   1       1.524  -4.113   0.868  0.00  0.00    -0.003 A 
ATOM      6  C6  DEN d   1       2.024  -2.839   0.921  0.00  0.00     0.001 A 
ATOM      7  C7  DEN d   1       3.368  -2.630   0.756  0.00  0.00     0.017 A 
ATOM      8  C8  DEN d   1       4.193  -3.735   0.591  0.00  0.00    -0.094 A 
ATOM      9  C9  DEN d   1       3.667  -5.014   0.528  0.00  0.00    -0.072 A 
ENDROOT
TORSDOF 0
ENDMDL
