MODEL 1
REMARK minimizedAffinity 12.1156378
REMARK minimizedRMSD -1
REMARK  0 active torsions:
REMARK  status: ('A' for Active; 'I' for Inactive)
ROOT
ATOM      1  C1  DEN d   1      -4.449   0.620   2.024  0.00  0.00     0.130 A 
ATOM      2  C2  DEN d   1      -4.381   1.537   3.158  0.00  0.00    -0.031 A 
ATOM      3  C3  DEN d   1      -3.194   1.182   3.962  0.00  0.00     0.027 A 
ATOM      4  C4  DEN d   1      -1.462  -0.686   3.560  0.00  0.00     0.027 A 
ATOM      5  C5  DEN d   1      -1.107  -1.729   2.733  0.00  0.00    -0.003 A 
ATOM      6  C6  DEN d   1      -1.854  -2.081   1.640  0.00  0.00     0.001 A 
ATOM      7  C7  DEN d   1      -2.970  -1.355   1.318  0.00  0.00     0.017 A 
ATOM      8  C8  DEN d   1      -3.338  -0.307   2.151  0.00  0.00    -0.094 A 
ATOM      9  C9  DEN d   1      -2.563   0.041   3.245  0.00  0.00    -0.072 A 
ENDROOT
TORSDOF 0
ENDMDL
