MODEL 1
REMARK minimizedAffinity 10.1144028
REMARK minimizedRMSD -1
REMARK  0 active torsions:
REMARK  status: ('A' for Active; 'I' for Inactive)
ROOT
ATOM      1  C1  DEN d   1      -0.490  -0.603   3.553  0.00  0.00     0.130 A 
ATOM      2  C2  DEN d   1      -1.594  -1.425   3.066  0.00  0.00    -0.031 A 
ATOM      3  C3  DEN d   1      -1.092  -2.247   1.947  0.00  0.00     0.027 A 
ATOM      4  C4  DEN d   1       1.276  -2.331   0.929  0.00  0.00     0.027 A 
ATOM      5  C5  DEN d   1       2.548  -1.806   1.000  0.00  0.00    -0.003 A 
ATOM      6  C6  DEN d   1       2.884  -0.827   1.898  0.00  0.00     0.001 A 
ATOM      7  C7  DEN d   1       1.950  -0.374   2.791  0.00  0.00     0.017 A 
ATOM      8  C8  DEN d   1       0.663  -0.893   2.720  0.00  0.00    -0.094 A 
ATOM      9  C9  DEN d   1       0.346  -1.891   1.814  0.00  0.00    -0.072 A 
ENDROOT
TORSDOF 0
ENDMDL
