MODEL 1
REMARK minimizedAffinity 3.8405757
REMARK minimizedRMSD -1
REMARK  0 active torsions:
REMARK  status: ('A' for Active; 'I' for Inactive)
ROOT
ATOM      1  C1  DEN d   1       1.673  -4.060   1.404  0.00  0.00     0.130 A 
ATOM      2  C2  DEN d   1       3.006  -3.602   1.024  0.00  0.00    -0.031 A 
ATOM      3  C3  DEN d   1       3.122  -2.177   1.393  0.00  0.00     0.027 A 
ATOM      4  C4  DEN d   1       1.377  -0.645   2.516  0.00  0.00     0.027 A 
ATOM      5  C5  DEN d   1       0.095  -0.582   3.015  0.00  0.00    -0.003 A 
ATOM      6  C6  DEN d   1      -0.756  -1.655   2.982  0.00  0.00     0.001 A 
ATOM      7  C7  DEN d   1      -0.319  -2.852   2.479  0.00  0.00     0.017 A 
ATOM      8  C8  DEN d   1       0.970  -2.921   1.966  0.00  0.00    -0.094 A 
ATOM      9  C9  DEN d   1       1.819  -1.829   2.020  0.00  0.00    -0.072 A 
ENDROOT
TORSDOF 0
ENDMDL
