MODEL 1
REMARK minimizedAffinity 5.8965807
REMARK minimizedRMSD -1
REMARK  0 active torsions:
REMARK  status: ('A' for Active; 'I' for Inactive)
ROOT
ATOM      1  C   UNL d   1       1.842  -1.763  -1.125  0.00  0.00     0.124 A 
ATOM      2  C1  UNL d   1       0.505  -1.891  -0.776  0.00  0.00     0.062 A 
ATOM      3  C2  UNL d   1      -0.199  -0.796  -0.285  0.00  0.00     0.162 A 
ATOM      4  C3  UNL d   1       0.433   0.440  -0.141  0.00  0.00    -0.034 A 
ATOM      5  C4  UNL d   1       1.778   0.561  -0.494  0.00  0.00     0.162 A 
ATOM      6  C5  UNL d   1       2.477  -0.537  -0.984  0.00  0.00     0.062 A 
ATOM      7  F   UNL d   1       3.769  -0.411  -1.321  0.00  0.00    -0.097 F 
ATOM      8  F1  UNL d   1       2.416   1.734  -0.369  0.00  0.00    -0.096 F 
ATOM      9  I   UNL d   1      -0.616   2.081   0.592  0.00  0.00    -0.060 I 
ATOM     10  F2  UNL d   1      -1.490  -0.949   0.045  0.00  0.00    -0.096 F 
ATOM     11  F3  UNL d   1      -0.111  -3.075  -0.910  0.00  0.00    -0.097 F 
ATOM     12  F4  UNL d   1       2.517  -2.819  -1.596  0.00  0.00    -0.092 F 
ENDROOT
TORSDOF 0
ENDMDL
