MODEL 1
REMARK minimizedAffinity 2.58443904
REMARK minimizedRMSD -1
REMARK  0 active torsions:
REMARK  status: ('A' for Active; 'I' for Inactive)
ROOT
ATOM      1  C   UNL d   1       4.108  -1.427  -2.463  0.00  0.00     0.124 A 
ATOM      2  C1  UNL d   1       3.253  -2.520  -2.433  0.00  0.00     0.062 A 
ATOM      3  C2  UNL d   1       2.043  -2.444  -1.750  0.00  0.00     0.162 A 
ATOM      4  C3  UNL d   1       1.680  -1.270  -1.090  0.00  0.00    -0.034 A 
ATOM      5  C4  UNL d   1       2.545  -0.175  -1.124  0.00  0.00     0.162 A 
ATOM      6  C5  UNL d   1       3.753  -0.256  -1.808  0.00  0.00     0.062 A 
ATOM      7  F   UNL d   1       4.578   0.801  -1.836  0.00  0.00    -0.097 F 
ATOM      8  F1  UNL d   1       2.227   0.969  -0.501  0.00  0.00    -0.096 F 
ATOM      9  I   UNL d   1      -0.129  -1.152  -0.067  0.00  0.00    -0.060 I 
ATOM     10  F2  UNL d   1       1.237  -3.516  -1.738  0.00  0.00    -0.096 F 
ATOM     11  F3  UNL d   1       3.594  -3.653  -3.064  0.00  0.00    -0.097 F 
ATOM     12  F4  UNL d   1       5.272  -1.504  -3.120  0.00  0.00    -0.092 F 
ENDROOT
TORSDOF 0
ENDMDL
