MODEL 1
REMARK minimizedAffinity 6.3362689
REMARK minimizedRMSD -1
REMARK  0 active torsions:
REMARK  status: ('A' for Active; 'I' for Inactive)
ROOT
ATOM      1  C   UNL d   1       4.587  -0.163  -2.421  0.00  0.00     0.124 A 
ATOM      2  C1  UNL d   1       3.991  -1.402  -2.615  0.00  0.00     0.062 A 
ATOM      3  C2  UNL d   1       2.727  -1.661  -2.094  0.00  0.00     0.162 A 
ATOM      4  C3  UNL d   1       2.049  -0.678  -1.372  0.00  0.00    -0.034 A 
ATOM      5  C4  UNL d   1       2.654   0.565  -1.180  0.00  0.00     0.162 A 
ATOM      6  C5  UNL d   1       3.918   0.819  -1.703  0.00  0.00     0.062 A 
ATOM      7  F   UNL d   1       4.491   2.016  -1.514  0.00  0.00    -0.097 F 
ATOM      8  F1  UNL d   1       2.030   1.532  -0.491  0.00  0.00    -0.096 F 
ATOM      9  I   UNL d   1       0.158  -1.061  -0.591  0.00  0.00    -0.060 I 
ATOM     10  F2  UNL d   1       2.176  -2.866  -2.297  0.00  0.00    -0.096 F 
ATOM     11  F3  UNL d   1       4.636  -2.352  -3.307  0.00  0.00    -0.097 F 
ATOM     12  F4  UNL d   1       5.803   0.083  -2.923  0.00  0.00    -0.092 F 
ENDROOT
TORSDOF 0
ENDMDL
