MODEL 1
REMARK minimizedAffinity 8.39999771
REMARK minimizedRMSD -1
REMARK  0 active torsions:
REMARK  status: ('A' for Active; 'I' for Inactive)
ROOT
ATOM      1  C   UNL d   1       0.049  -1.320  -0.529  0.00  0.00     0.124 A 
ATOM      2  C1  UNL d   1       0.429  -0.046  -0.130  0.00  0.00     0.062 A 
ATOM      3  C2  UNL d   1       1.703   0.430  -0.427  0.00  0.00     0.162 A 
ATOM      4  C3  UNL d   1       2.606  -0.369  -1.129  0.00  0.00    -0.034 A 
ATOM      5  C4  UNL d   1       2.217  -1.649  -1.526  0.00  0.00     0.162 A 
ATOM      6  C5  UNL d   1       0.943  -2.120  -1.226  0.00  0.00     0.062 A 
ATOM      7  F   UNL d   1       0.577  -3.351  -1.612  0.00  0.00    -0.097 F 
ATOM      8  F1  UNL d   1       3.061  -2.444  -2.201  0.00  0.00    -0.096 F 
ATOM      9  I   UNL d   1       4.512   0.339  -1.575  0.00  0.00    -0.060 I 
ATOM     10  F2  UNL d   1       2.043   1.665  -0.030  0.00  0.00    -0.096 F 
ATOM     11  F3  UNL d   1      -0.432   0.729   0.544  0.00  0.00    -0.097 F 
ATOM     12  F4  UNL d   1      -1.177  -1.775  -0.240  0.00  0.00    -0.092 F 
ENDROOT
TORSDOF 0
ENDMDL
