MODEL 1
REMARK minimizedAffinity 0.365285069
REMARK minimizedRMSD -1
REMARK  0 active torsions:
REMARK  status: ('A' for Active; 'I' for Inactive)
ROOT
ATOM      1  C   UNL d   1      -0.593   1.993   0.394  0.00  0.00     0.124 A 
ATOM      2  C1  UNL d   1       0.246   1.401   1.329  0.00  0.00     0.062 A 
ATOM      3  C2  UNL d   1       0.672   0.088   1.154  0.00  0.00     0.162 A 
ATOM      4  C3  UNL d   1       0.261  -0.643   0.040  0.00  0.00    -0.034 A 
ATOM      5  C4  UNL d   1      -0.583  -0.042  -0.895  0.00  0.00     0.162 A 
ATOM      6  C5  UNL d   1      -1.006   1.271  -0.717  0.00  0.00     0.062 A 
ATOM      7  F   UNL d   1      -1.817   1.841  -1.620  0.00  0.00    -0.097 F 
ATOM      8  F1  UNL d   1      -0.997  -0.716  -1.979  0.00  0.00    -0.096 F 
ATOM      9  I   UNL d   1       0.897  -2.608  -0.225  0.00  0.00    -0.060 I 
ATOM     10  F2  UNL d   1       1.482  -0.459   2.073  0.00  0.00    -0.096 F 
ATOM     11  F3  UNL d   1       0.646   2.096   2.403  0.00  0.00    -0.097 F 
ATOM     12  F4  UNL d   1      -1.002   3.256   0.565  0.00  0.00    -0.092 F 
ENDROOT
TORSDOF 0
ENDMDL
