MODEL 1
REMARK minimizedAffinity 5.95990038
REMARK minimizedRMSD -1
REMARK  0 active torsions:
REMARK  status: ('A' for Active; 'I' for Inactive)
ROOT
ATOM      1  C   UNL d   1       2.160  -1.787  -1.406  0.00  0.00     0.124 A 
ATOM      2  C1  UNL d   1       0.775  -1.767  -1.306  0.00  0.00     0.062 A 
ATOM      3  C2  UNL d   1       0.129  -0.668  -0.749  0.00  0.00     0.162 A 
ATOM      4  C3  UNL d   1       0.867   0.422  -0.287  0.00  0.00    -0.034 A 
ATOM      5  C4  UNL d   1       2.259   0.395  -0.390  0.00  0.00     0.162 A 
ATOM      6  C5  UNL d   1       2.900  -0.707  -0.947  0.00  0.00     0.062 A 
ATOM      7  F   UNL d   1       4.238  -0.724  -1.042  0.00  0.00    -0.097 F 
ATOM      8  F1  UNL d   1       2.999   1.426   0.045  0.00  0.00    -0.096 F 
ATOM      9  I   UNL d   1      -0.095   2.069   0.547  0.00  0.00    -0.060 I 
ATOM     10  F2  UNL d   1      -1.209  -0.676  -0.666  0.00  0.00    -0.096 F 
ATOM     11  F3  UNL d   1       0.058  -2.811  -1.748  0.00  0.00    -0.097 F 
ATOM     12  F4  UNL d   1       2.779  -2.847  -1.941  0.00  0.00    -0.092 F 
ENDROOT
TORSDOF 0
ENDMDL
