MODEL 1
REMARK minimizedAffinity 12.0297785
REMARK minimizedRMSD -1
REMARK  0 active torsions:
REMARK  status: ('A' for Active; 'I' for Inactive)
ROOT
ATOM      1  N1  IND d   1      -0.322  -2.925  -1.589  0.00  0.00    -0.196 N 
ATOM      2  C2  IND d   1      -1.271  -3.147  -0.630  0.00  0.00     0.054 A 
ATOM      3  C3  IND d   1      -1.656  -1.978  -0.071  0.00  0.00    -0.031 A 
ATOM      4  C4  IND d   1      -0.935   0.426  -0.644  0.00  0.00     0.051 A 
ATOM      5  C5  IND d   1      -0.063   1.132  -1.425  0.00  0.00    -0.031 A 
ATOM      6  C6  IND d   1       0.782   0.509  -2.321  0.00  0.00     0.015 A 
ATOM      7  C7  IND d   1       0.779  -0.848  -2.477  0.00  0.00    -0.016 A 
ATOM      8  C8  IND d   1      -0.100  -1.569  -1.681  0.00  0.00    -0.047 A 
ATOM      9  C9  IND d   1      -0.930  -0.946  -0.740  0.00  0.00    -0.096 A 
ATOM     10  HN1 IND d   1       0.071  -3.531  -2.056  0.00  0.00     0.298 HD
ENDROOT
TORSDOF 0
ENDMDL
