MODEL 1
REMARK minimizedAffinity -2.12786841
REMARK minimizedRMSD -1
REMARK  0 active torsions:
REMARK  status: ('A' for Active; 'I' for Inactive)
ROOT
ATOM      1  N1  IND d   1       5.999   0.062   2.052  0.00  0.00    -0.196 N 
ATOM      2  C2  IND d   1       5.903  -1.182   1.493  0.00  0.00     0.054 A 
ATOM      3  C3  IND d   1       5.798  -2.124   2.457  0.00  0.00    -0.031 A 
ATOM      4  C4  IND d   1       5.659  -1.842   5.012  0.00  0.00     0.051 A 
ATOM      5  C5  IND d   1       5.741  -0.898   5.998  0.00  0.00    -0.031 A 
ATOM      6  C6  IND d   1       5.913   0.441   5.713  0.00  0.00     0.015 A 
ATOM      7  C7  IND d   1       6.000   0.890   4.425  0.00  0.00    -0.016 A 
ATOM      8  C8  IND d   1       5.925  -0.066   3.422  0.00  0.00    -0.047 A 
ATOM      9  C9  IND d   1       5.792  -1.432   3.707  0.00  0.00    -0.096 A 
ATOM     10  HN1 IND d   1       6.091   0.800   1.621  0.00  0.00     0.298 HD
ENDROOT
TORSDOF 0
ENDMDL
