MODEL 1
REMARK minimizedAffinity -4.67285872
REMARK minimizedRMSD -1
REMARK  0 active torsions:
REMARK  status: ('A' for Active; 'I' for Inactive)
ROOT
ATOM      1  N1  IND d   1       5.253   1.498   5.979  0.00  0.00    -0.196 N 
ATOM      2  C2  IND d   1       5.606   0.216   5.662  0.00  0.00     0.054 A 
ATOM      3  C3  IND d   1       5.909   0.123   4.348  0.00  0.00    -0.031 A 
ATOM      4  C4  IND d   1       5.994   1.968   2.554  0.00  0.00     0.051 A 
ATOM      5  C5  IND d   1       5.719   3.292   2.357  0.00  0.00    -0.031 A 
ATOM      6  C6  IND d   1       5.269   4.103   3.378  0.00  0.00     0.015 A 
ATOM      7  C7  IND d   1       5.086   3.620   4.643  0.00  0.00    -0.016 A 
ATOM      8  C8  IND d   1       5.357   2.275   4.845  0.00  0.00    -0.047 A 
ATOM      9  C9  IND d   1       5.774   1.437   3.803  0.00  0.00    -0.096 A 
ATOM     10  HN1 IND d   1       5.007   1.774   6.755  0.00  0.00     0.298 HD
ENDROOT
TORSDOF 0
ENDMDL
