MODEL 1
REMARK minimizedAffinity -1.44061208
REMARK minimizedRMSD -1
REMARK  0 active torsions:
REMARK  status: ('A' for Active; 'I' for Inactive)
ROOT
ATOM      1  N1  IND d   1       5.885   4.233   5.406  0.00  0.00    -0.196 N 
ATOM      2  C2  IND d   1       5.916   4.912   4.220  0.00  0.00     0.054 A 
ATOM      3  C3  IND d   1       5.991   4.046   3.184  0.00  0.00    -0.031 A 
ATOM      4  C4  IND d   1       5.974   1.471   3.201  0.00  0.00     0.051 A 
ATOM      5  C5  IND d   1       5.994   0.399   4.048  0.00  0.00    -0.031 A 
ATOM      6  C6  IND d   1       5.976   0.553   5.419  0.00  0.00     0.015 A 
ATOM      7  C7  IND d   1       5.925   1.791   5.996  0.00  0.00    -0.016 A 
ATOM      8  C8  IND d   1       5.912   2.882   5.139  0.00  0.00    -0.047 A 
ATOM      9  C9  IND d   1       5.973   2.733   3.747  0.00  0.00    -0.096 A 
ATOM     10  HN1 IND d   1       5.855   4.590   6.188  0.00  0.00     0.298 HD
ENDROOT
TORSDOF 0
ENDMDL
