MODEL 1
REMARK minimizedAffinity -0.859866381
REMARK minimizedRMSD -1
REMARK  0 active torsions:
REMARK  status: ('A' for Active; 'I' for Inactive)
ROOT
ATOM      1  N1  IND d   1       4.649   3.750   4.964  0.00  0.00    -0.196 N 
ATOM      2  C2  IND d   1       5.267   4.477   3.984  0.00  0.00     0.054 A 
ATOM      3  C3  IND d   1       5.912   3.655   3.125  0.00  0.00    -0.031 A 
ATOM      4  C4  IND d   1       6.000   1.083   3.077  0.00  0.00     0.051 A 
ATOM      5  C5  IND d   1       5.619  -0.021   3.786  0.00  0.00    -0.031 A 
ATOM      6  C6  IND d   1       4.878   0.077   4.946  0.00  0.00     0.015 A 
ATOM      7  C7  IND d   1       4.479   1.288   5.436  0.00  0.00    -0.016 A 
ATOM      8  C8  IND d   1       4.870   2.412   4.722  0.00  0.00    -0.047 A 
ATOM      9  C9  IND d   1       5.658   2.321   3.567  0.00  0.00    -0.096 A 
ATOM     10  HN1 IND d   1       4.198   4.075   5.620  0.00  0.00     0.298 HD
ENDROOT
TORSDOF 0
ENDMDL
