MODEL 1
REMARK minimizedAffinity -4.54035664
REMARK minimizedRMSD -1
REMARK  0 active torsions:
REMARK  status: ('A' for Active; 'I' for Inactive)
ROOT
ATOM      1  N1  IND d   1       5.973   1.451   2.154  0.00  0.00    -0.196 N 
ATOM      2  C2  IND d   1       6.000   2.810   2.304  0.00  0.00     0.054 A 
ATOM      3  C3  IND d   1       5.766   3.146   3.592  0.00  0.00    -0.031 A 
ATOM      4  C4  IND d   1       5.414   1.627   5.641  0.00  0.00     0.051 A 
ATOM      5  C5  IND d   1       5.270   0.316   5.997  0.00  0.00    -0.031 A 
ATOM      6  C6  IND d   1       5.357  -0.705   5.073  0.00  0.00     0.015 A 
ATOM      7  C7  IND d   1       5.604  -0.452   3.753  0.00  0.00    -0.016 A 
ATOM      8  C8  IND d   1       5.744   0.879   3.387  0.00  0.00    -0.047 A 
ATOM      9  C9  IND d   1       5.615   1.922   4.313  0.00  0.00    -0.096 A 
ATOM     10  HN1 IND d   1       6.081   1.026   1.415  0.00  0.00     0.298 HD
ENDROOT
TORSDOF 0
ENDMDL
