MODEL 1
REMARK minimizedAffinity -1.57984495
REMARK minimizedRMSD -1
REMARK  0 active torsions:
REMARK  status: ('A' for Active; 'I' for Inactive)
ROOT
ATOM      1  N1  IND d   1       5.632   0.176   3.826  0.00  0.00    -0.196 N 
ATOM      2  C2  IND d   1       5.723  -0.370   5.076  0.00  0.00     0.054 A 
ATOM      3  C3  IND d   1       5.911   0.599   6.000  0.00  0.00    -0.031 A 
ATOM      4  C4  IND d   1       5.998   3.154   5.697  0.00  0.00     0.051 A 
ATOM      5  C5  IND d   1       5.999   4.125   4.736  0.00  0.00    -0.031 A 
ATOM      6  C6  IND d   1       5.872   3.824   3.395  0.00  0.00     0.015 A 
ATOM      7  C7  IND d   1       5.728   2.535   2.965  0.00  0.00    -0.016 A 
ATOM      8  C8  IND d   1       5.734   1.546   3.938  0.00  0.00    -0.047 A 
ATOM      9  C9  IND d   1       5.905   1.842   5.296  0.00  0.00    -0.096 A 
ATOM     10  HN1 IND d   1       5.529  -0.262   3.093  0.00  0.00     0.298 HD
ENDROOT
TORSDOF 0
ENDMDL
