MODEL 1
REMARK minimizedAffinity -5.27594948
REMARK minimizedRMSD -1
REMARK  0 active torsions:
REMARK  status: ('A' for Active; 'I' for Inactive)
ROOT
ATOM      1  N1  IND d   1       5.881   1.220   6.000  0.00  0.00    -0.196 N 
ATOM      2  C2  IND d   1       5.866   2.297   5.157  0.00  0.00     0.054 A 
ATOM      3  C3  IND d   1       5.835   1.886   3.870  0.00  0.00    -0.031 A 
ATOM      4  C4  IND d   1       5.699  -0.502   2.918  0.00  0.00     0.051 A 
ATOM      5  C5  IND d   1       5.723  -1.815   3.296  0.00  0.00    -0.031 A 
ATOM      6  C6  IND d   1       5.800  -2.191   4.621  0.00  0.00     0.015 A 
ATOM      7  C7  IND d   1       5.844  -1.264   5.623  0.00  0.00    -0.016 A 
ATOM      8  C8  IND d   1       5.827   0.071   5.243  0.00  0.00    -0.047 A 
ATOM      9  C9  IND d   1       5.792   0.458   3.897  0.00  0.00    -0.096 A 
ATOM     10  HN1 IND d   1       5.917   1.256   6.858  0.00  0.00     0.298 HD
ENDROOT
TORSDOF 0
ENDMDL
