MODEL 1
REMARK minimizedAffinity 1.31635225
REMARK minimizedRMSD -1
REMARK  0 active torsions:
REMARK  status: ('A' for Active; 'I' for Inactive)
ROOT
ATOM      1  N1  IND d   1       5.960   0.399   3.777  0.00  0.00    -0.196 N 
ATOM      2  C2  IND d   1       5.966  -0.160   5.025  0.00  0.00     0.054 A 
ATOM      3  C3  IND d   1       5.999   0.804   5.972  0.00  0.00    -0.031 A 
ATOM      4  C4  IND d   1       5.946   3.364   5.702  0.00  0.00     0.051 A 
ATOM      5  C5  IND d   1       5.976   4.348   4.755  0.00  0.00    -0.031 A 
ATOM      6  C6  IND d   1       6.000   4.060   3.405  0.00  0.00     0.015 A 
ATOM      7  C7  IND d   1       5.983   2.772   2.951  0.00  0.00    -0.016 A 
ATOM      8  C8  IND d   1       5.960   1.770   3.911  0.00  0.00    -0.047 A 
ATOM      9  C9  IND d   1       5.979   2.055   5.282  0.00  0.00    -0.096 A 
ATOM     10  HN1 IND d   1       5.957  -0.034   3.034  0.00  0.00     0.298 HD
ENDROOT
TORSDOF 0
ENDMDL
