MODEL 1
REMARK minimizedAffinity -4.33872223
REMARK minimizedRMSD -1
REMARK  0 active torsions:
REMARK  status: ('A' for Active; 'I' for Inactive)
ROOT
ATOM      1  N1  IND d   1       5.976   0.506   3.746  0.00  0.00    -0.196 N 
ATOM      2  C2  IND d   1       5.960  -0.160   4.939  0.00  0.00     0.054 A 
ATOM      3  C3  IND d   1       5.967   0.717   5.968  0.00  0.00    -0.031 A 
ATOM      4  C4  IND d   1       5.903   3.290   5.923  0.00  0.00     0.051 A 
ATOM      5  C5  IND d   1       5.946   4.354   5.066  0.00  0.00    -0.031 A 
ATOM      6  C6  IND d   1       5.999   4.186   3.698  0.00  0.00     0.015 A 
ATOM      7  C7  IND d   1       6.000   2.943   3.132  0.00  0.00    -0.016 A 
ATOM      8  C8  IND d   1       5.964   1.860   3.999  0.00  0.00    -0.047 A 
ATOM      9  C9  IND d   1       5.953   2.024   5.391  0.00  0.00    -0.096 A 
ATOM     10  HN1 IND d   1       5.991   0.141   2.967  0.00  0.00     0.298 HD
ENDROOT
TORSDOF 0
ENDMDL
