MODEL 1
REMARK minimizedAffinity -2.56286192
REMARK minimizedRMSD -1
REMARK  0 active torsions:
REMARK  status: ('A' for Active; 'I' for Inactive)
ROOT
ATOM      1  N1  IND d   1       5.561   1.172   3.550  0.00  0.00    -0.196 N 
ATOM      2  C2  IND d   1       5.663   0.845   4.873  0.00  0.00     0.054 A 
ATOM      3  C3  IND d   1       5.880   1.953   5.616  0.00  0.00    -0.031 A 
ATOM      4  C4  IND d   1       6.000   4.417   4.881  0.00  0.00     0.051 A 
ATOM      5  C5  IND d   1       6.000   5.210   3.768  0.00  0.00    -0.031 A 
ATOM      6  C6  IND d   1       5.848   4.688   2.500  0.00  0.00     0.015 A 
ATOM      7  C7  IND d   1       5.678   3.347   2.298  0.00  0.00    -0.016 A 
ATOM      8  C8  IND d   1       5.685   2.538   3.425  0.00  0.00    -0.047 A 
ATOM      9  C9  IND d   1       5.881   3.058   4.711  0.00  0.00    -0.096 A 
ATOM     10  HN1 IND d   1       5.440   0.617   2.904  0.00  0.00     0.298 HD
ENDROOT
TORSDOF 0
ENDMDL
