MODEL 1
REMARK minimizedAffinity 0.208553106
REMARK minimizedRMSD -1
REMARK  0 active torsions:
REMARK  status: ('A' for Active; 'I' for Inactive)
ROOT
ATOM      1  N1  IND d   1       6.000   3.608   4.890  0.00  0.00    -0.196 N 
ATOM      2  C2  IND d   1       5.503   4.196   3.760  0.00  0.00     0.054 A 
ATOM      3  C3  IND d   1       4.906   3.274   2.973  0.00  0.00    -0.031 A 
ATOM      4  C4  IND d   1       4.539   0.760   3.388  0.00  0.00     0.051 A 
ATOM      5  C5  IND d   1       4.847  -0.243   4.264  0.00  0.00    -0.031 A 
ATOM      6  C6  IND d   1       5.567  -0.009   5.417  0.00  0.00     0.015 A 
ATOM      7  C7  IND d   1       5.998   1.245   5.745  0.00  0.00    -0.016 A 
ATOM      8  C8  IND d   1       5.694   2.265   4.855  0.00  0.00    -0.047 A 
ATOM      9  C9  IND d   1       5.000   2.026   3.662  0.00  0.00    -0.096 A 
ATOM     10  HN1 IND d   1       6.431   4.009   5.516  0.00  0.00     0.298 HD
ENDROOT
TORSDOF 0
ENDMDL
