MODEL 1
REMARK minimizedAffinity -2.71141863
REMARK minimizedRMSD -1
REMARK  0 active torsions:
REMARK  status: ('A' for Active; 'I' for Inactive)
ROOT
ATOM      1  N1  IND d   1       5.921   5.079   5.253  0.00  0.00    -0.196 N 
ATOM      2  C2  IND d   1       5.938   5.892   4.154  0.00  0.00     0.054 A 
ATOM      3  C3  IND d   1       5.997   5.154   3.023  0.00  0.00    -0.031 A 
ATOM      4  C4  IND d   1       5.972   2.596   2.737  0.00  0.00     0.051 A 
ATOM      5  C5  IND d   1       5.999   1.431   3.453  0.00  0.00    -0.031 A 
ATOM      6  C6  IND d   1       6.000   1.423   4.833  0.00  0.00     0.015 A 
ATOM      7  C7  IND d   1       5.961   2.585   5.552  0.00  0.00    -0.016 A 
ATOM      8  C8  IND d   1       5.940   3.769   4.829  0.00  0.00    -0.047 A 
ATOM      9  C9  IND d   1       5.982   3.784   3.429  0.00  0.00    -0.096 A 
ATOM     10  HN1 IND d   1       5.902   5.342   6.071  0.00  0.00     0.298 HD
ENDROOT
TORSDOF 0
ENDMDL
