MODEL 1
REMARK minimizedAffinity -2.43533325
REMARK minimizedRMSD -1
REMARK  0 active torsions:
REMARK  status: ('A' for Active; 'I' for Inactive)
ROOT
ATOM      1  N1  IND d   1       5.113   3.406   3.039  0.00  0.00    -0.196 N 
ATOM      2  C2  IND d   1       5.612   4.456   3.758  0.00  0.00     0.054 A 
ATOM      3  C3  IND d   1       6.000   4.043   4.986  0.00  0.00    -0.031 A 
ATOM      4  C4  IND d   1       6.000   1.672   5.989  0.00  0.00     0.051 A 
ATOM      5  C5  IND d   1       5.604   0.391   5.726  0.00  0.00    -0.031 A 
ATOM      6  C6  IND d   1       5.015   0.041   4.528  0.00  0.00     0.015 A 
ATOM      7  C7  IND d   1       4.809   0.962   3.540  0.00  0.00    -0.016 A 
ATOM      8  C8  IND d   1       5.203   2.266   3.807  0.00  0.00    -0.047 A 
ATOM      9  C9  IND d   1       5.763   2.635   5.037  0.00  0.00    -0.096 A 
ATOM     10  HN1 IND d   1       4.796   3.450   2.241  0.00  0.00     0.298 HD
ENDROOT
TORSDOF 0
ENDMDL
