MODEL 1
REMARK minimizedAffinity -4.63921976
REMARK minimizedRMSD -1
REMARK  0 active torsions:
REMARK  status: ('A' for Active; 'I' for Inactive)
ROOT
ATOM      1  N1  IND d   1       5.999   0.596   3.345  0.00  0.00    -0.196 N 
ATOM      2  C2  IND d   1       6.000   1.379   4.465  0.00  0.00     0.054 A 
ATOM      3  C3  IND d   1       5.706   0.638   5.557  0.00  0.00    -0.031 A 
ATOM      4  C4  IND d   1       5.291  -1.896   5.751  0.00  0.00     0.051 A 
ATOM      5  C5  IND d   1       5.150  -3.025   4.994  0.00  0.00    -0.031 A 
ATOM      6  C6  IND d   1       5.291  -3.005   3.621  0.00  0.00     0.015 A 
ATOM      7  C7  IND d   1       5.591  -1.852   2.953  0.00  0.00    -0.016 A 
ATOM      8  C8  IND d   1       5.727  -0.702   3.717  0.00  0.00    -0.047 A 
ATOM      9  C9  IND d   1       5.543  -0.708   5.106  0.00  0.00    -0.096 A 
ATOM     10  HN1 IND d   1       6.145   0.869   2.542  0.00  0.00     0.298 HD
ENDROOT
TORSDOF 0
ENDMDL
