MODEL 1
REMARK minimizedAffinity -0.842421174
REMARK minimizedRMSD -1
REMARK  0 active torsions:
REMARK  status: ('A' for Active; 'I' for Inactive)
ROOT
ATOM      1  N1  IND d   1       6.000   4.198   2.685  0.00  0.00    -0.196 N 
ATOM      2  C2  IND d   1       5.999   5.255   3.553  0.00  0.00     0.054 A 
ATOM      3  C3  IND d   1       5.962   4.814   4.831  0.00  0.00    -0.031 A 
ATOM      4  C4  IND d   1       6.000   2.402   5.730  0.00  0.00     0.051 A 
ATOM      5  C5  IND d   1       5.963   1.099   5.321  0.00  0.00    -0.031 A 
ATOM      6  C6  IND d   1       5.939   0.755   3.984  0.00  0.00     0.015 A 
ATOM      7  C7  IND d   1       5.962   1.706   3.004  0.00  0.00    -0.016 A 
ATOM      8  C8  IND d   1       5.992   3.031   3.416  0.00  0.00    -0.047 A 
ATOM      9  C9  IND d   1       5.974   3.387   4.771  0.00  0.00    -0.096 A 
ATOM     10  HN1 IND d   1       6.004   4.254   1.827  0.00  0.00     0.298 HD
ENDROOT
TORSDOF 0
ENDMDL
