MODEL 1
REMARK minimizedAffinity -2.08742285
REMARK minimizedRMSD -1
REMARK  0 active torsions:
REMARK  status: ('A' for Active; 'I' for Inactive)
ROOT
ATOM      1  N1  IND d   1       5.936   1.914   2.576  0.00  0.00    -0.196 N 
ATOM      2  C2  IND d   1       5.950   1.410   3.847  0.00  0.00     0.054 A 
ATOM      3  C3  IND d   1       6.000   2.414   4.751  0.00  0.00    -0.031 A 
ATOM      4  C4  IND d   1       5.965   4.960   4.371  0.00  0.00     0.051 A 
ATOM      5  C5  IND d   1       5.992   5.902   3.381  0.00  0.00    -0.031 A 
ATOM      6  C6  IND d   1       6.000   5.556   2.045  0.00  0.00     0.015 A 
ATOM      7  C7  IND d   1       5.969   4.249   1.648  0.00  0.00    -0.016 A 
ATOM      8  C8  IND d   1       5.948   3.290   2.650  0.00  0.00    -0.047 A 
ATOM      9  C9  IND d   1       5.983   3.634   4.008  0.00  0.00    -0.096 A 
ATOM     10  HN1 IND d   1       5.922   1.450   1.852  0.00  0.00     0.298 HD
ENDROOT
TORSDOF 0
ENDMDL
