MODEL 1
REMARK minimizedAffinity -3.06307292
REMARK minimizedRMSD -1
REMARK  0 active torsions:
REMARK  status: ('A' for Active; 'I' for Inactive)
ROOT
ATOM      1  N1  IND d   1       4.554   1.832   4.500  0.00  0.00    -0.196 N 
ATOM      2  C2  IND d   1       5.344   0.903   3.882  0.00  0.00     0.054 A 
ATOM      3  C3  IND d   1       5.998   1.461   2.839  0.00  0.00    -0.031 A 
ATOM      4  C4  IND d   1       6.000   3.905   2.028  0.00  0.00     0.051 A 
ATOM      5  C5  IND d   1       5.405   5.115   2.253  0.00  0.00    -0.031 A 
ATOM      6  C6  IND d   1       4.480   5.296   3.260  0.00  0.00     0.015 A 
ATOM      7  C7  IND d   1       4.122   4.273   4.091  0.00  0.00    -0.016 A 
ATOM      8  C8  IND d   1       4.718   3.041   3.862  0.00  0.00    -0.047 A 
ATOM      9  C9  IND d   1       5.626   2.840   2.814  0.00  0.00    -0.096 A 
ATOM     10  HN1 IND d   1       4.041   1.685   5.175  0.00  0.00     0.298 HD
ENDROOT
TORSDOF 0
ENDMDL
