MODEL 1
REMARK minimizedAffinity 9.3569212
REMARK minimizedRMSD -1
REMARK  1 active torsions:
REMARK  status: ('A' for Active; 'I' for Inactive)
REMARK    1  A    between atoms: N_2  and  C1_3 
ROOT
ATOM      1  C1  UNL d   1      -0.734  -4.309   0.818  0.00  0.00     0.143 A 
ATOM      2  C2  UNL d   1      -0.746  -3.977  -0.541  0.00  0.00    -0.057 A 
ATOM      3  C3  UNL d   1      -1.289  -2.767  -0.988  0.00  0.00     0.033 A 
ATOM      4  C4  UNL d   1      -1.859  -1.877  -0.083  0.00  0.00    -0.042 A 
ATOM      5  C5  UNL d   1      -1.881  -2.198   1.270  0.00  0.00     0.033 A 
ATOM      6  C6  UNL d   1      -1.331  -3.405   1.711  0.00  0.00    -0.057 A 
ENDROOT
BRANCH   1   7
ATOM      7  N   UNL d   1      -0.298  -5.540   1.314  0.00  0.00    -0.732 N 
ATOM      8  C   UNL d   1      -0.708  -5.994   2.626  0.00  0.00     0.284 C 
ATOM      9  H3  UNL d   1      -0.299  -6.268   0.603  0.00  0.00     0.395 HD
ENDBRANCH   1   7
TORSDOF 1
ENDMDL
