MODEL 1
REMARK minimizedAffinity 10.660305
REMARK minimizedRMSD -1
REMARK  1 active torsions:
REMARK  status: ('A' for Active; 'I' for Inactive)
REMARK    1  A    between atoms: N_2  and  C1_3 
ROOT
ATOM      1  C1  UNL d   1      -1.057  -3.478  -0.013  0.00  0.00     0.143 A 
ATOM      2  C2  UNL d   1      -0.674  -3.600   1.327  0.00  0.00    -0.057 A 
ATOM      3  C3  UNL d   1      -0.352  -4.845   1.880  0.00  0.00     0.033 A 
ATOM      4  C4  UNL d   1      -0.436  -5.999   1.107  0.00  0.00    -0.042 A 
ATOM      5  C5  UNL d   1      -0.838  -5.905  -0.221  0.00  0.00     0.033 A 
ATOM      6  C6  UNL d   1      -1.152  -4.657  -0.769  0.00  0.00    -0.057 A 
ENDROOT
BRANCH   1   7
ATOM      7  N   UNL d   1      -1.485  -2.282  -0.594  0.00  0.00    -0.732 N 
ATOM      8  C   UNL d   1      -2.537  -1.500   0.018  0.00  0.00     0.284 C 
ATOM      9  H3  UNL d   1      -0.712  -1.728  -0.956  0.00  0.00     0.395 HD
ENDBRANCH   1   7
TORSDOF 1
ENDMDL
