MODEL 1
REMARK minimizedAffinity 7.82625771
REMARK minimizedRMSD -1
REMARK  1 active torsions:
REMARK  status: ('A' for Active; 'I' for Inactive)
REMARK    1  A    between atoms: N_2  and  C1_3 
ROOT
ATOM      1  C1  UNL d   1       2.551   1.245  -0.511  0.00  0.00     0.143 A 
ATOM      2  C2  UNL d   1       2.581   1.825  -1.784  0.00  0.00    -0.057 A 
ATOM      3  C3  UNL d   1       2.775   1.047  -2.932  0.00  0.00     0.033 A 
ATOM      4  C4  UNL d   1       2.973  -0.325  -2.824  0.00  0.00    -0.042 A 
ATOM      5  C5  UNL d   1       2.972  -0.920  -1.567  0.00  0.00     0.033 A 
ATOM      6  C6  UNL d   1       2.771  -0.139  -0.425  0.00  0.00    -0.057 A 
ENDROOT
BRANCH   1   7
ATOM      7  N   UNL d   1       2.460   1.976   0.676  0.00  0.00    -0.732 N 
ATOM      8  C   UNL d   1       3.647   2.293   1.440  0.00  0.00     0.284 C 
ATOM      9  H3  UNL d   1       1.792   2.741   0.610  0.00  0.00     0.395 HD
ENDBRANCH   1   7
TORSDOF 1
ENDMDL
