MODEL 1
REMARK minimizedAffinity 3.73251963
REMARK minimizedRMSD -1
REMARK  1 active torsions:
REMARK  status: ('A' for Active; 'I' for Inactive)
REMARK    1  A    between atoms: N_2  and  C1_3 
ROOT
ATOM      1  C1  UNL d   1      -1.758  -2.617  -0.895  0.00  0.00     0.143 A 
ATOM      2  C2  UNL d   1      -0.901  -3.660  -0.528  0.00  0.00    -0.057 A 
ATOM      3  C3  UNL d   1      -0.600  -3.914   0.815  0.00  0.00     0.033 A 
ATOM      4  C4  UNL d   1      -1.130  -3.108   1.817  0.00  0.00    -0.042 A 
ATOM      5  C5  UNL d   1      -1.964  -2.050   1.474  0.00  0.00     0.033 A 
ATOM      6  C6  UNL d   1      -2.266  -1.805   0.131  0.00  0.00    -0.057 A 
ENDROOT
BRANCH   1   7
ATOM      7  N   UNL d   1      -2.017  -2.253  -2.219  0.00  0.00    -0.732 N 
ATOM      8  C   UNL d   1      -1.449  -3.006  -3.316  0.00  0.00     0.284 C 
ATOM      9  H3  UNL d   1      -2.985  -1.975  -2.363  0.00  0.00     0.395 HD
ENDBRANCH   1   7
TORSDOF 1
ENDMDL
