MODEL 1
REMARK minimizedAffinity 5.05504751
REMARK minimizedRMSD -1
REMARK  1 active torsions:
REMARK  status: ('A' for Active; 'I' for Inactive)
REMARK    1  A    between atoms: N_2  and  C1_3 
ROOT
ATOM      1  C1  UNL d   1       6.000   1.283  -1.606  0.00  0.00     0.143 A 
ATOM      2  C2  UNL d   1       5.974  -0.009  -1.069  0.00  0.00    -0.057 A 
ATOM      3  C3  UNL d   1       5.989  -1.139  -1.896  0.00  0.00     0.033 A 
ATOM      4  C4  UNL d   1       6.000  -0.997  -3.279  0.00  0.00    -0.042 A 
ATOM      5  C5  UNL d   1       6.000   0.278  -3.835  0.00  0.00     0.033 A 
ATOM      6  C6  UNL d   1       5.992   1.402  -3.005  0.00  0.00    -0.057 A 
ENDROOT
BRANCH   1   7
ATOM      7  N   UNL d   1       5.887   2.446  -0.841  0.00  0.00    -0.732 N 
ATOM      8  C   UNL d   1       4.587   2.981  -0.499  0.00  0.00     0.284 C 
ATOM      9  H3  UNL d   1       6.562   2.477  -0.080  0.00  0.00     0.395 HD
ENDBRANCH   1   7
TORSDOF 1
ENDMDL
