MODEL 1
REMARK minimizedAffinity 9.56465435
REMARK minimizedRMSD -1
REMARK  1 active torsions:
REMARK  status: ('A' for Active; 'I' for Inactive)
REMARK    1  A    between atoms: N_2  and  C1_3 
ROOT
ATOM      1  C1  UNL d   1      -1.778  -2.253   2.369  0.00  0.00     0.143 A 
ATOM      2  C2  UNL d   1      -0.893  -3.218   1.875  0.00  0.00    -0.057 A 
ATOM      3  C3  UNL d   1      -0.492  -3.216   0.534  0.00  0.00     0.033 A 
ATOM      4  C4  UNL d   1      -0.993  -2.264  -0.347  0.00  0.00    -0.042 A 
ATOM      5  C5  UNL d   1      -1.893  -1.310   0.116  0.00  0.00     0.033 A 
ATOM      6  C6  UNL d   1      -2.285  -1.313   1.458  0.00  0.00    -0.057 A 
ENDROOT
BRANCH   1   7
ATOM      7  N   UNL d   1      -2.291  -2.260   3.668  0.00  0.00    -0.732 N 
ATOM      8  C   UNL d   1      -1.845  -1.288   4.643  0.00  0.00     0.284 C 
ATOM      9  H3  UNL d   1      -3.292  -2.441   3.690  0.00  0.00     0.395 HD
ENDBRANCH   1   7
TORSDOF 1
ENDMDL
