MODEL 1
REMARK minimizedAffinity 6.49104786
REMARK minimizedRMSD -1
REMARK  1 active torsions:
REMARK  status: ('A' for Active; 'I' for Inactive)
REMARK    1  A    between atoms: N_2  and  C1_3 
ROOT
ATOM      1  C1  UNL d   1      -2.969  -0.485   5.497  0.00  0.00     0.143 A 
ATOM      2  C2  UNL d   1      -2.582   0.858   5.539  0.00  0.00    -0.057 A 
ATOM      3  C3  UNL d   1      -3.509   1.874   5.802  0.00  0.00     0.033 A 
ATOM      4  C4  UNL d   1      -4.851   1.564   6.000  0.00  0.00    -0.042 A 
ATOM      5  C5  UNL d   1      -5.263   0.238   5.938  0.00  0.00     0.033 A 
ATOM      6  C6  UNL d   1      -4.331  -0.772   5.682  0.00  0.00    -0.057 A 
ENDROOT
BRANCH   1   7
ATOM      7  N   UNL d   1      -2.113  -1.531   5.143  0.00  0.00    -0.732 N 
ATOM      8  C   UNL d   1      -2.616  -2.687   4.433  0.00  0.00     0.284 C 
ATOM      9  H3  UNL d   1      -1.211  -1.198   4.810  0.00  0.00     0.395 HD
ENDBRANCH   1   7
TORSDOF 1
ENDMDL
