MODEL 1
REMARK minimizedAffinity 18.8882141
REMARK minimizedRMSD -1
REMARK  1 active torsions:
REMARK  status: ('A' for Active; 'I' for Inactive)
REMARK    1  A    between atoms: N_2  and  C1_3 
ROOT
ATOM      1  C1  UNL d   1      -2.337  -0.018   5.580  0.00  0.00     0.143 A 
ATOM      2  C2  UNL d   1      -1.109  -0.544   5.996  0.00  0.00    -0.057 A 
ATOM      3  C3  UNL d   1      -0.707  -1.832   5.624  0.00  0.00     0.033 A 
ATOM      4  C4  UNL d   1      -1.542  -2.631   4.850  0.00  0.00    -0.042 A 
ATOM      5  C5  UNL d   1      -2.778  -2.139   4.446  0.00  0.00     0.033 A 
ATOM      6  C6  UNL d   1      -3.171  -0.849   4.815  0.00  0.00    -0.057 A 
ENDROOT
BRANCH   1   7
ATOM      7  N   UNL d   1      -2.836   1.218   5.998  0.00  0.00    -0.732 N 
ATOM      8  C   UNL d   1      -4.260   1.476   5.997  0.00  0.00     0.284 C 
ATOM      9  H3  UNL d   1      -2.349   1.577   6.816  0.00  0.00     0.395 HD
ENDBRANCH   1   7
TORSDOF 1
ENDMDL
