MODEL 1
REMARK minimizedAffinity 15.0422688
REMARK minimizedRMSD -1
REMARK  1 active torsions:
REMARK  status: ('A' for Active; 'I' for Inactive)
REMARK    1  A    between atoms: N_2  and  C1_3 
ROOT
ATOM      1  C1  UNL d   1       3.927   4.238   5.394  0.00  0.00     0.143 A 
ATOM      2  C2  UNL d   1       3.122   3.099   5.505  0.00  0.00    -0.057 A 
ATOM      3  C3  UNL d   1       3.419   1.929   4.797  0.00  0.00     0.033 A 
ATOM      4  C4  UNL d   1       4.513   1.886   3.939  0.00  0.00    -0.042 A 
ATOM      5  C5  UNL d   1       5.312   3.014   3.794  0.00  0.00     0.033 A 
ATOM      6  C6  UNL d   1       5.015   4.178   4.509  0.00  0.00    -0.057 A 
ENDROOT
BRANCH   1   7
ATOM      7  N   UNL d   1       3.628   5.463   5.995  0.00  0.00    -0.732 N 
ATOM      8  C   UNL d   1       2.278   5.983   5.979  0.00  0.00     0.284 C 
ATOM      9  H3  UNL d   1       4.111   5.588   6.882  0.00  0.00     0.395 HD
ENDBRANCH   1   7
TORSDOF 1
ENDMDL
