MODEL 1
REMARK minimizedAffinity 13.3453445
REMARK minimizedRMSD -1
REMARK  1 active torsions:
REMARK  status: ('A' for Active; 'I' for Inactive)
REMARK    1  A    between atoms: N_2  and  C1_3 
ROOT
ATOM      1  C1  UNL d   1       4.384   3.440   0.300  0.00  0.00     0.143 A 
ATOM      2  C2  UNL d   1       4.851   2.681   1.378  0.00  0.00    -0.057 A 
ATOM      3  C3  UNL d   1       4.275   1.446   1.701  0.00  0.00     0.033 A 
ATOM      4  C4  UNL d   1       3.198   0.962   0.966  0.00  0.00    -0.042 A 
ATOM      5  C5  UNL d   1       2.701   1.711  -0.094  0.00  0.00     0.033 A 
ATOM      6  C6  UNL d   1       3.285   2.940  -0.416  0.00  0.00    -0.057 A 
ENDROOT
BRANCH   1   7
ATOM      7  N   UNL d   1       4.851   4.720  -0.009  0.00  0.00    -0.732 N 
ATOM      8  C   UNL d   1       4.857   5.765   0.992  0.00  0.00     0.284 C 
ATOM      9  H3  UNL d   1       5.684   4.699  -0.593  0.00  0.00     0.395 HD
ENDBRANCH   1   7
TORSDOF 1
ENDMDL
