MODEL 1
REMARK minimizedAffinity 10.7846279
REMARK minimizedRMSD -1
REMARK  1 active torsions:
REMARK  status: ('A' for Active; 'I' for Inactive)
REMARK    1  A    between atoms: N_2  and  C1_3 
ROOT
ATOM      1  C1  UNL d   1       4.495   2.239   0.834  0.00  0.00     0.143 A 
ATOM      2  C2  UNL d   1       3.749   3.422   0.878  0.00  0.00    -0.057 A 
ATOM      3  C3  UNL d   1       4.103   4.533   0.102  0.00  0.00     0.033 A 
ATOM      4  C4  UNL d   1       5.229   4.489  -0.713  0.00  0.00    -0.042 A 
ATOM      5  C5  UNL d   1       5.999   3.332  -0.754  0.00  0.00     0.033 A 
ATOM      6  C6  UNL d   1       5.637   2.224   0.018  0.00  0.00    -0.057 A 
ENDROOT
BRANCH   1   7
ATOM      7  N   UNL d   1       4.252   1.136   1.655  0.00  0.00    -0.732 N 
ATOM      8  C   UNL d   1       5.245   0.696   2.612  0.00  0.00     0.284 C 
ATOM      9  H3  UNL d   1       3.298   1.116   2.007  0.00  0.00     0.395 HD
ENDBRANCH   1   7
TORSDOF 1
ENDMDL
