MODEL 1
REMARK minimizedAffinity 8.32249737
REMARK minimizedRMSD -1
REMARK  1 active torsions:
REMARK  status: ('A' for Active; 'I' for Inactive)
REMARK    1  A    between atoms: N_2  and  C1_3 
ROOT
ATOM      1  C1  UNL d   1      -1.183  -3.600   0.128  0.00  0.00     0.143 A 
ATOM      2  C2  UNL d   1      -2.427  -3.333   0.709  0.00  0.00    -0.057 A 
ATOM      3  C3  UNL d   1      -3.025  -2.071   0.599  0.00  0.00     0.033 A 
ATOM      4  C4  UNL d   1      -2.372  -1.043  -0.073  0.00  0.00    -0.042 A 
ATOM      5  C5  UNL d   1      -1.124  -1.278  -0.637  0.00  0.00     0.033 A 
ATOM      6  C6  UNL d   1      -0.535  -2.542  -0.529  0.00  0.00    -0.057 A 
ENDROOT
BRANCH   1   7
ATOM      7  N   UNL d   1      -0.493  -4.804   0.287  0.00  0.00    -0.732 N 
ATOM      8  C   UNL d   1       0.244  -5.077   1.502  0.00  0.00     0.284 C 
ATOM      9  H3  UNL d   1      -1.015  -5.601  -0.070  0.00  0.00     0.395 HD
ENDBRANCH   1   7
TORSDOF 1
ENDMDL
