MODEL 1
REMARK minimizedAffinity 6.29007816
REMARK minimizedRMSD -1
REMARK  1 active torsions:
REMARK  status: ('A' for Active; 'I' for Inactive)
REMARK    1  A    between atoms: N_2  and  C1_3 
ROOT
ATOM      1  C1  UNL d   1       3.124   2.566   2.354  0.00  0.00     0.143 A 
ATOM      2  C2  UNL d   1       4.204   3.155   1.687  0.00  0.00    -0.057 A 
ATOM      3  C3  UNL d   1       4.256   3.201   0.288  0.00  0.00     0.033 A 
ATOM      4  C4  UNL d   1       3.239   2.630  -0.471  0.00  0.00    -0.042 A 
ATOM      5  C5  UNL d   1       2.169   2.017   0.171  0.00  0.00     0.033 A 
ATOM      6  C6  UNL d   1       2.120   1.980   1.568  0.00  0.00    -0.057 A 
ENDROOT
BRANCH   1   7
ATOM      7  N   UNL d   1       3.062   2.401   3.740  0.00  0.00    -0.732 N 
ATOM      8  C   UNL d   1       3.803   3.279   4.620  0.00  0.00     0.284 C 
ATOM      9  H3  UNL d   1       2.122   2.185   4.063  0.00  0.00     0.395 HD
ENDBRANCH   1   7
TORSDOF 1
ENDMDL
