MODEL 1
REMARK minimizedAffinity -4.10793018
REMARK minimizedRMSD -1
REMARK  0 active torsions:
REMARK  status: ('A' for Active; 'I' for Inactive)
ROOT
ATOM      1  N1  IND d   1       3.046   6.000   5.955  0.00  0.00    -0.196 N 
ATOM      2  C2  IND d   1       1.718   5.745   5.748  0.00  0.00     0.054 A 
ATOM      3  C3  IND d   1       1.560   4.879   4.722  0.00  0.00    -0.031 A 
ATOM      4  C4  IND d   1       3.343   3.676   3.308  0.00  0.00     0.051 A 
ATOM      5  C5  IND d   1       4.693   3.615   3.100  0.00  0.00    -0.031 A 
ATOM      6  C6  IND d   1       5.580   4.359   3.850  0.00  0.00     0.015 A 
ATOM      7  C7  IND d   1       5.150   5.187   4.848  0.00  0.00    -0.016 A 
ATOM      8  C8  IND d   1       3.780   5.256   5.057  0.00  0.00    -0.047 A 
ATOM      9  C9  IND d   1       2.872   4.536   4.271  0.00  0.00    -0.096 A 
ATOM     10  HN1 IND d   1       3.367   6.535   6.546  0.00  0.00     0.298 HD
ENDROOT
TORSDOF 0
ENDMDL
