MODEL 1
REMARK minimizedAffinity 0.352862298
REMARK minimizedRMSD -1
REMARK  0 active torsions:
REMARK  status: ('A' for Active; 'I' for Inactive)
ROOT
ATOM      1  N1  IND d   1       2.869   5.925   4.405  0.00  0.00    -0.196 N 
ATOM      2  C2  IND d   1       2.971   6.000   3.043  0.00  0.00     0.054 A 
ATOM      3  C3  IND d   1       1.742   5.996   2.479  0.00  0.00    -0.031 A 
ATOM      4  C4  IND d   1      -0.574   5.975   3.603  0.00  0.00     0.051 A 
ATOM      5  C5  IND d   1      -1.177   5.872   4.825  0.00  0.00    -0.031 A 
ATOM      6  C6  IND d   1      -0.448   5.782   5.993  0.00  0.00     0.015 A 
ATOM      7  C7  IND d   1       0.918   5.803   5.984  0.00  0.00    -0.016 A 
ATOM      8  C8  IND d   1       1.534   5.901   4.744  0.00  0.00    -0.047 A 
ATOM      9  C9  IND d   1       0.800   5.950   3.552  0.00  0.00    -0.096 A 
ATOM     10  HN1 IND d   1       3.528   5.897   4.956  0.00  0.00     0.298 HD
ENDROOT
TORSDOF 0
ENDMDL
