MODEL 1
REMARK minimizedAffinity 3.75517726
REMARK minimizedRMSD -1
REMARK  0 active torsions:
REMARK  status: ('A' for Active; 'I' for Inactive)
ROOT
ATOM      1  N1  IND d   1       5.199   1.323   2.637  0.00  0.00    -0.196 N 
ATOM      2  C2  IND d   1       4.770   2.610   2.805  0.00  0.00     0.054 A 
ATOM      3  C3  IND d   1       3.718   2.864   1.994  0.00  0.00    -0.031 A 
ATOM      4  C4  IND d   1       2.474   1.286   0.386  0.00  0.00     0.051 A 
ATOM      5  C5  IND d   1       2.521   0.023  -0.136  0.00  0.00    -0.031 A 
ATOM      6  C6  IND d   1       3.481  -0.890   0.250  0.00  0.00     0.015 A 
ATOM      7  C7  IND d   1       4.427  -0.577   1.185  0.00  0.00    -0.016 A 
ATOM      8  C8  IND d   1       4.387   0.707   1.711  0.00  0.00    -0.047 A 
ATOM      9  C9  IND d   1       3.441   1.651   1.292  0.00  0.00    -0.096 A 
ATOM     10  HN1 IND d   1       5.865   0.959   3.042  0.00  0.00     0.298 HD
ENDROOT
TORSDOF 0
ENDMDL
