MODEL 1
REMARK minimizedAffinity 7.50421143
REMARK minimizedRMSD -1
REMARK  0 active torsions:
REMARK  status: ('A' for Active; 'I' for Inactive)
ROOT
ATOM      1  N1  IND d   1      -5.041   2.509   1.853  0.00  0.00    -0.196 N 
ATOM      2  C2  IND d   1      -4.094   3.257   2.494  0.00  0.00     0.054 A 
ATOM      3  C3  IND d   1      -2.858   2.921   2.061  0.00  0.00    -0.031 A 
ATOM      4  C4  IND d   1      -2.163   1.243   0.237  0.00  0.00     0.051 A 
ATOM      5  C5  IND d   1      -2.673   0.295  -0.605  0.00  0.00    -0.031 A 
ATOM      6  C6  IND d   1      -4.026   0.033  -0.674  0.00  0.00     0.015 A 
ATOM      7  C7  IND d   1      -4.925   0.720   0.092  0.00  0.00    -0.016 A 
ATOM      8  C8  IND d   1      -4.410   1.679   0.953  0.00  0.00    -0.047 A 
ATOM      9  C9  IND d   1      -3.034   1.920   1.058  0.00  0.00    -0.096 A 
ATOM     10  HN1 IND d   1      -5.889   2.550   1.989  0.00  0.00     0.298 HD
ENDROOT
TORSDOF 0
ENDMDL
