MODEL 1
REMARK minimizedAffinity 8.39110565
REMARK minimizedRMSD -1
REMARK  0 active torsions:
REMARK  status: ('A' for Active; 'I' for Inactive)
ROOT
ATOM      1  N1  IND d   1       0.994   1.228  -1.499  0.00  0.00    -0.196 N 
ATOM      2  C2  IND d   1       1.464   2.247  -0.718  0.00  0.00     0.054 A 
ATOM      3  C3  IND d   1       2.410   1.791   0.133  0.00  0.00    -0.031 A 
ATOM      4  C4  IND d   1       3.416  -0.570   0.346  0.00  0.00     0.051 A 
ATOM      5  C5  IND d   1       3.282  -1.845  -0.128  0.00  0.00    -0.031 A 
ATOM      6  C6  IND d   1       2.362  -2.166  -1.105  0.00  0.00     0.015 A 
ATOM      7  C7  IND d   1       1.546  -1.218  -1.654  0.00  0.00    -0.016 A 
ATOM      8  C8  IND d   1       1.674   0.076  -1.170  0.00  0.00    -0.047 A 
ATOM      9  C9  IND d   1       2.576   0.400  -0.149  0.00  0.00    -0.096 A 
ATOM     10  HN1 IND d   1       0.378   1.296  -2.094  0.00  0.00     0.298 HD
ENDROOT
TORSDOF 0
ENDMDL
