MODEL 1
REMARK minimizedAffinity 7.06212091
REMARK minimizedRMSD -1
REMARK  0 active torsions:
REMARK  status: ('A' for Active; 'I' for Inactive)
ROOT
ATOM      1  N1  IND d   1       3.812   2.484  -1.126  0.00  0.00    -0.196 N 
ATOM      2  C2  IND d   1       4.876   2.245  -1.950  0.00  0.00     0.054 A 
ATOM      3  C3  IND d   1       5.087   0.915  -2.073  0.00  0.00    -0.031 A 
ATOM      4  C4  IND d   1       3.745  -1.051  -1.093  0.00  0.00     0.051 A 
ATOM      5  C5  IND d   1       2.709  -1.333  -0.247  0.00  0.00    -0.031 A 
ATOM      6  C6  IND d   1       1.972  -0.337   0.360  0.00  0.00     0.015 A 
ATOM      7  C7  IND d   1       2.236   0.984   0.133  0.00  0.00    -0.016 A 
ATOM      8  C8  IND d   1       3.292   1.274  -0.720  0.00  0.00    -0.047 A 
ATOM      9  C9  IND d   1       4.071   0.268  -1.305  0.00  0.00    -0.096 A 
ATOM     10  HN1 IND d   1       3.517   3.259  -0.899  0.00  0.00     0.298 HD
ENDROOT
TORSDOF 0
ENDMDL
