MODEL 1
REMARK minimizedAffinity -4.90228939
REMARK minimizedRMSD -1
REMARK  0 active torsions:
REMARK  status: ('A' for Active; 'I' for Inactive)
ROOT
ATOM      1  N1  IND d   1       2.126   3.092   5.998  0.00  0.00    -0.196 N 
ATOM      2  C2  IND d   1       3.377   3.003   5.455  0.00  0.00     0.054 A 
ATOM      3  C3  IND d   1       3.502   3.860   4.417  0.00  0.00    -0.031 A 
ATOM      4  C4  IND d   1       1.816   5.575   3.500  0.00  0.00     0.051 A 
ATOM      5  C5  IND d   1       0.525   6.000   3.645  0.00  0.00    -0.031 A 
ATOM      6  C6  IND d   1      -0.314   5.469   4.603  0.00  0.00     0.015 A 
ATOM      7  C7  IND d   1       0.112   4.496   5.463  0.00  0.00    -0.016 A 
ATOM      8  C8  IND d   1       1.419   4.057   5.314  0.00  0.00    -0.047 A 
ATOM      9  C9  IND d   1       2.263   4.562   4.315  0.00  0.00    -0.096 A 
ATOM     10  HN1 IND d   1       1.829   2.624   6.655  0.00  0.00     0.298 HD
ENDROOT
TORSDOF 0
ENDMDL
