MODEL 1
REMARK minimizedAffinity 2.65580153
REMARK minimizedRMSD -1
REMARK  0 active torsions:
REMARK  status: ('A' for Active; 'I' for Inactive)
ROOT
ATOM      1  N1  IND d   1       3.202  -1.930  -0.730  0.00  0.00    -0.196 N 
ATOM      2  C2  IND d   1       1.938  -2.166  -0.266  0.00  0.00     0.054 A 
ATOM      3  C3  IND d   1       1.354  -1.009   0.117  0.00  0.00    -0.031 A 
ATOM      4  C4  IND d   1       2.250   1.400  -0.023  0.00  0.00     0.051 A 
ATOM      5  C5  IND d   1       3.370   2.116  -0.342  0.00  0.00    -0.031 A 
ATOM      6  C6  IND d   1       4.513   1.508  -0.819  0.00  0.00     0.015 A 
ATOM      7  C7  IND d   1       4.575   0.156  -1.006  0.00  0.00    -0.016 A 
ATOM      8  C8  IND d   1       3.442  -0.575  -0.676  0.00  0.00    -0.047 A 
ATOM      9  C9  IND d   1       2.294   0.032  -0.152  0.00  0.00    -0.096 A 
ATOM     10  HN1 IND d   1       3.754  -2.528  -1.008  0.00  0.00     0.298 HD
ENDROOT
TORSDOF 0
ENDMDL
