MODEL 1
REMARK minimizedAffinity -2.48796034
REMARK minimizedRMSD -1
REMARK  0 active torsions:
REMARK  status: ('A' for Active; 'I' for Inactive)
ROOT
ATOM      1  C   UNL d   1      -4.968  -0.921  -5.998  0.00  0.00     0.077 C 
ATOM      2  C1  UNL d   1      -4.428   0.478  -5.954  0.00  0.00    -0.074 A 
ATOM      3  C2  UNL d   1      -3.051   0.719  -6.000  0.00  0.00    -0.005 A 
ATOM      4  C3  UNL d   1      -2.564   2.025  -5.968  0.00  0.00     0.006 A 
ATOM      5  C4  UNL d   1      -3.448   3.103  -5.889  0.00  0.00    -0.005 A 
ATOM      6  C5  UNL d   1      -4.828   2.881  -5.843  0.00  0.00    -0.074 A 
ATOM      7  C6  UNL d   1      -5.791   4.028  -5.769  0.00  0.00     0.077 C 
ATOM      8  C7  UNL d   1      -5.310   1.566  -5.883  0.00  0.00    -0.001 A 
ENDROOT
TORSDOF 0
ENDMDL
