MODEL 1
REMARK minimizedAffinity 0.723306596
REMARK minimizedRMSD -1
REMARK  0 active torsions:
REMARK  status: ('A' for Active; 'I' for Inactive)
ROOT
ATOM      1  C   UNL d   1      -0.747  -0.093   2.244  0.00  0.00     0.077 C 
ATOM      2  C1  UNL d   1      -0.176   0.033   0.863  0.00  0.00    -0.074 A 
ATOM      3  C2  UNL d   1      -0.600  -0.809  -0.170  0.00  0.00    -0.005 A 
ATOM      4  C3  UNL d   1      -0.066  -0.674  -1.452  0.00  0.00     0.006 A 
ATOM      5  C4  UNL d   1       0.895   0.303  -1.713  0.00  0.00    -0.005 A 
ATOM      6  C5  UNL d   1       1.330   1.155  -0.693  0.00  0.00    -0.074 A 
ATOM      7  C6  UNL d   1       2.356   2.217  -0.959  0.00  0.00     0.077 C 
ATOM      8  C7  UNL d   1       0.785   1.017   0.590  0.00  0.00    -0.001 A 
ENDROOT
TORSDOF 0
ENDMDL
