MODEL 1
REMARK minimizedAffinity -0.875701725
REMARK minimizedRMSD -1
REMARK  0 active torsions:
REMARK  status: ('A' for Active; 'I' for Inactive)
ROOT
ATOM      1  C   UNL d   1      -3.033   0.205  -5.937  0.00  0.00     0.077 C 
ATOM      2  C1  UNL d   1      -3.259   1.687  -5.965  0.00  0.00    -0.074 A 
ATOM      3  C2  UNL d   1      -4.554   2.217  -5.971  0.00  0.00    -0.005 A 
ATOM      4  C3  UNL d   1      -4.749   3.598  -5.988  0.00  0.00     0.006 A 
ATOM      5  C4  UNL d   1      -3.654   4.462  -5.999  0.00  0.00    -0.005 A 
ATOM      6  C5  UNL d   1      -2.352   3.951  -5.993  0.00  0.00    -0.074 A 
ATOM      7  C6  UNL d   1      -1.164   4.866  -5.996  0.00  0.00     0.077 C 
ATOM      8  C7  UNL d   1      -2.164   2.562  -5.969  0.00  0.00    -0.001 A 
ENDROOT
TORSDOF 0
ENDMDL
