MODEL 1
REMARK minimizedAffinity 0.567836761
REMARK minimizedRMSD -1
REMARK  0 active torsions:
REMARK  status: ('A' for Active; 'I' for Inactive)
ROOT
ATOM      1  C   UNL d   1      -5.976   4.481  -5.988  0.00  0.00     0.077 C 
ATOM      2  C1  UNL d   1      -4.867   3.472  -5.998  0.00  0.00    -0.074 A 
ATOM      3  C2  UNL d   1      -3.528   3.875  -5.994  0.00  0.00    -0.005 A 
ATOM      4  C3  UNL d   1      -2.507   2.924  -5.993  0.00  0.00     0.006 A 
ATOM      5  C4  UNL d   1      -2.815   1.563  -5.997  0.00  0.00    -0.005 A 
ATOM      6  C5  UNL d   1      -4.148   1.141  -6.000  0.00  0.00    -0.074 A 
ATOM      7  C6  UNL d   1      -4.496  -0.318  -5.994  0.00  0.00     0.077 C 
ATOM      8  C7  UNL d   1      -5.168   2.102  -5.993  0.00  0.00    -0.001 A 
ENDROOT
TORSDOF 0
ENDMDL
