MODEL 1
REMARK minimizedAffinity 1.88664293
REMARK minimizedRMSD -1
REMARK  0 active torsions:
REMARK  status: ('A' for Active; 'I' for Inactive)
ROOT
ATOM      1  C   UNL d   1      -5.959  -0.558  -5.819  0.00  0.00     0.077 C 
ATOM      2  C1  UNL d   1      -5.163   0.712  -5.876  0.00  0.00    -0.074 A 
ATOM      3  C2  UNL d   1      -3.766   0.683  -5.925  0.00  0.00    -0.005 A 
ATOM      4  C3  UNL d   1      -3.039   1.872  -5.987  0.00  0.00     0.006 A 
ATOM      5  C4  UNL d   1      -3.701   3.100  -6.000  0.00  0.00    -0.005 A 
ATOM      6  C5  UNL d   1      -5.098   3.149  -5.951  0.00  0.00    -0.074 A 
ATOM      7  C6  UNL d   1      -5.825   4.460  -5.974  0.00  0.00     0.077 C 
ATOM      8  C7  UNL d   1      -5.821   1.950  -5.897  0.00  0.00    -0.001 A 
ENDROOT
TORSDOF 0
ENDMDL
