MODEL 1
REMARK minimizedAffinity 1.48426735
REMARK minimizedRMSD -1
REMARK  0 active torsions:
REMARK  status: ('A' for Active; 'I' for Inactive)
ROOT
ATOM      1  C   UNL d   1      -2.291   5.283  -5.957  0.00  0.00     0.077 C 
ATOM      2  C1  UNL d   1      -3.578   4.513  -5.965  0.00  0.00    -0.074 A 
ATOM      3  C2  UNL d   1      -4.811   5.173  -5.979  0.00  0.00    -0.005 A 
ATOM      4  C3  UNL d   1      -5.999   4.444  -5.996  0.00  0.00     0.006 A 
ATOM      5  C4  UNL d   1      -5.967   3.049  -5.999  0.00  0.00    -0.005 A 
ATOM      6  C5  UNL d   1      -4.744   2.371  -5.987  0.00  0.00    -0.074 A 
ATOM      7  C6  UNL d   1      -4.692   0.872  -6.000  0.00  0.00     0.077 C 
ATOM      8  C7  UNL d   1      -3.554   3.111  -5.976  0.00  0.00    -0.001 A 
ENDROOT
TORSDOF 0
ENDMDL
