MODEL 1
REMARK minimizedAffinity -2.29554415
REMARK minimizedRMSD -1
REMARK  0 active torsions:
REMARK  status: ('A' for Active; 'I' for Inactive)
ROOT
ATOM      1  C   UNL d   1      -5.961   5.650  -5.978  0.00  0.00     0.077 C 
ATOM      2  C1  UNL d   1      -4.969   4.525  -5.991  0.00  0.00    -0.074 A 
ATOM      3  C2  UNL d   1      -3.594   4.780  -5.987  0.00  0.00    -0.005 A 
ATOM      4  C3  UNL d   1      -2.683   3.724  -5.990  0.00  0.00     0.006 A 
ATOM      5  C4  UNL d   1      -3.137   2.405  -5.996  0.00  0.00    -0.005 A 
ATOM      6  C5  UNL d   1      -4.508   2.130  -5.999  0.00  0.00    -0.074 A 
ATOM      7  C6  UNL d   1      -5.013   0.718  -5.996  0.00  0.00     0.077 C 
ATOM      8  C7  UNL d   1      -5.417   3.197  -5.990  0.00  0.00    -0.001 A 
ENDROOT
TORSDOF 0
ENDMDL
