MODEL 1
REMARK minimizedAffinity -2.04081297
REMARK minimizedRMSD -1
REMARK  0 active torsions:
REMARK  status: ('A' for Active; 'I' for Inactive)
ROOT
ATOM      1  C   UNL d   1      -5.783   3.967  -5.971  0.00  0.00     0.077 C 
ATOM      2  C1  UNL d   1      -4.854   2.790  -5.988  0.00  0.00    -0.074 A 
ATOM      3  C2  UNL d   1      -3.466   2.969  -5.988  0.00  0.00    -0.005 A 
ATOM      4  C3  UNL d   1      -2.615   1.864  -5.994  0.00  0.00     0.006 A 
ATOM      5  C4  UNL d   1      -3.141   0.572  -6.000  0.00  0.00    -0.005 A 
ATOM      6  C5  UNL d   1      -4.525   0.373  -5.999  0.00  0.00    -0.074 A 
ATOM      7  C6  UNL d   1      -5.107  -1.009  -5.995  0.00  0.00     0.077 C 
ATOM      8  C7  UNL d   1      -5.374   1.488  -5.986  0.00  0.00    -0.001 A 
ENDROOT
TORSDOF 0
ENDMDL
