MODEL 1
REMARK minimizedAffinity 4.30452061
REMARK minimizedRMSD -1
REMARK  0 active torsions:
REMARK  status: ('A' for Active; 'I' for Inactive)
ROOT
ATOM      1  C   UNL d   1      -3.729   5.724  -5.999  0.00  0.00     0.077 C 
ATOM      2  C1  UNL d   1      -3.910   4.235  -5.990  0.00  0.00    -0.074 A 
ATOM      3  C2  UNL d   1      -5.187   3.666  -5.992  0.00  0.00    -0.005 A 
ATOM      4  C3  UNL d   1      -5.340   2.279  -5.993  0.00  0.00     0.006 A 
ATOM      5  C4  UNL d   1      -4.218   1.449  -5.992  0.00  0.00    -0.005 A 
ATOM      6  C5  UNL d   1      -2.933   2.000  -5.991  0.00  0.00    -0.074 A 
ATOM      7  C6  UNL d   1      -1.716   1.123  -6.000  0.00  0.00     0.077 C 
ATOM      8  C7  UNL d   1      -2.788   3.394  -5.997  0.00  0.00    -0.001 A 
ENDROOT
TORSDOF 0
ENDMDL
