MODEL 1
REMARK minimizedAffinity -3.46135664
REMARK minimizedRMSD -1
REMARK  0 active torsions:
REMARK  status: ('A' for Active; 'I' for Inactive)
ROOT
ATOM      1  C   UNL d   1      -1.483   3.370  -5.999  0.00  0.00     0.077 C 
ATOM      2  C1  UNL d   1      -2.863   2.784  -5.991  0.00  0.00    -0.074 A 
ATOM      3  C2  UNL d   1      -3.994   3.607  -5.997  0.00  0.00    -0.005 A 
ATOM      4  C3  UNL d   1      -5.272   3.047  -5.999  0.00  0.00     0.006 A 
ATOM      5  C4  UNL d   1      -5.431   1.661  -5.996  0.00  0.00    -0.005 A 
ATOM      6  C5  UNL d   1      -4.313   0.822  -5.990  0.00  0.00    -0.074 A 
ATOM      7  C6  UNL d   1      -4.467  -0.670  -5.996  0.00  0.00     0.077 C 
ATOM      8  C7  UNL d   1      -3.032   1.392  -5.995  0.00  0.00    -0.001 A 
ENDROOT
TORSDOF 0
ENDMDL
