MODEL 1
REMARK minimizedAffinity -1.2077167
REMARK minimizedRMSD -1
REMARK  0 active torsions:
REMARK  status: ('A' for Active; 'I' for Inactive)
ROOT
ATOM      1  C   UNL d   1      -4.109   5.249  -5.995  0.00  0.00     0.077 C 
ATOM      2  C1  UNL d   1      -3.462   3.897  -5.992  0.00  0.00    -0.074 A 
ATOM      3  C2  UNL d   1      -2.069   3.766  -5.967  0.00  0.00    -0.005 A 
ATOM      4  C3  UNL d   1      -1.482   2.501  -5.955  0.00  0.00     0.006 A 
ATOM      5  C4  UNL d   1      -2.279   1.356  -5.969  0.00  0.00    -0.005 A 
ATOM      6  C5  UNL d   1      -3.673   1.467  -5.994  0.00  0.00    -0.074 A 
ATOM      7  C6  UNL d   1      -4.544   0.246  -6.000  0.00  0.00     0.077 C 
ATOM      8  C7  UNL d   1      -4.256   2.741  -5.999  0.00  0.00    -0.001 A 
ENDROOT
TORSDOF 0
ENDMDL
