MODEL 1
REMARK minimizedAffinity 0.878773689
REMARK minimizedRMSD -1
REMARK  0 active torsions:
REMARK  status: ('A' for Active; 'I' for Inactive)
ROOT
ATOM      1  C   UNL d   1      -4.442  -2.922  -5.871  0.00  0.00     0.077 C 
ATOM      2  C1  UNL d   1      -4.600  -1.431  -5.923  0.00  0.00    -0.074 A 
ATOM      3  C2  UNL d   1      -5.869  -0.843  -5.944  0.00  0.00    -0.005 A 
ATOM      4  C3  UNL d   1      -6.000   0.545  -5.982  0.00  0.00     0.006 A 
ATOM      5  C4  UNL d   1      -4.866   1.358  -6.000  0.00  0.00    -0.005 A 
ATOM      6  C5  UNL d   1      -3.589   0.788  -5.978  0.00  0.00    -0.074 A 
ATOM      7  C6  UNL d   1      -2.360   1.647  -5.987  0.00  0.00     0.077 C 
ATOM      8  C7  UNL d   1      -3.465  -0.608  -5.933  0.00  0.00    -0.001 A 
ENDROOT
TORSDOF 0
ENDMDL
