MODEL 1
REMARK minimizedAffinity -3.30804634
REMARK minimizedRMSD -1
REMARK  0 active torsions:
REMARK  status: ('A' for Active; 'I' for Inactive)
ROOT
ATOM      1  C   UNL d   1      -4.469  -1.594  -6.000  0.00  0.00     0.077 C 
ATOM      2  C1  UNL d   1      -3.939  -0.191  -5.990  0.00  0.00    -0.074 A 
ATOM      3  C2  UNL d   1      -2.562   0.058  -5.999  0.00  0.00    -0.005 A 
ATOM      4  C3  UNL d   1      -2.084   1.368  -6.000  0.00  0.00     0.006 A 
ATOM      5  C4  UNL d   1      -2.976   2.442  -5.992  0.00  0.00    -0.005 A 
ATOM      6  C5  UNL d   1      -4.355   2.213  -5.984  0.00  0.00    -0.074 A 
ATOM      7  C6  UNL d   1      -5.328   3.355  -5.985  0.00  0.00     0.077 C 
ATOM      8  C7  UNL d   1      -4.828   0.893  -5.990  0.00  0.00    -0.001 A 
ENDROOT
TORSDOF 0
ENDMDL
