MODEL 1
REMARK minimizedAffinity -3.32861376
REMARK minimizedRMSD -1
REMARK  0 active torsions:
REMARK  status: ('A' for Active; 'I' for Inactive)
ROOT
ATOM      1  C   UNL d   1      -5.964   3.960  -5.967  0.00  0.00     0.077 C 
ATOM      2  C1  UNL d   1      -4.869   2.935  -5.977  0.00  0.00    -0.074 A 
ATOM      3  C2  UNL d   1      -3.525   3.320  -6.000  0.00  0.00    -0.005 A 
ATOM      4  C3  UNL d   1      -2.517   2.356  -5.999  0.00  0.00     0.006 A 
ATOM      5  C4  UNL d   1      -2.843   0.999  -5.974  0.00  0.00    -0.005 A 
ATOM      6  C5  UNL d   1      -4.182   0.595  -5.950  0.00  0.00    -0.074 A 
ATOM      7  C6  UNL d   1      -4.549  -0.858  -5.913  0.00  0.00     0.077 C 
ATOM      8  C7  UNL d   1      -5.189   1.571  -5.944  0.00  0.00    -0.001 A 
ENDROOT
TORSDOF 0
ENDMDL
