MODEL 1
REMARK minimizedAffinity -1.25240493
REMARK minimizedRMSD -1
REMARK  0 active torsions:
REMARK  status: ('A' for Active; 'I' for Inactive)
ROOT
ATOM      1  C   UNL d   1      -0.966   5.261  -5.386  0.00  0.00     0.077 C 
ATOM      2  C1  UNL d   1      -2.342   4.704  -5.603  0.00  0.00    -0.074 A 
ATOM      3  C2  UNL d   1      -2.540   3.335  -5.809  0.00  0.00    -0.005 A 
ATOM      4  C3  UNL d   1      -3.826   2.831  -6.000  0.00  0.00     0.006 A 
ATOM      5  C4  UNL d   1      -4.926   3.690  -5.987  0.00  0.00    -0.005 A 
ATOM      6  C5  UNL d   1      -4.748   5.061  -5.781  0.00  0.00    -0.074 A 
ATOM      7  C6  UNL d   1      -5.921   5.997  -5.754  0.00  0.00     0.077 C 
ATOM      8  C7  UNL d   1      -3.453   5.559  -5.583  0.00  0.00    -0.001 A 
ENDROOT
TORSDOF 0
ENDMDL
