MODEL 1
REMARK minimizedAffinity 3.36418533
REMARK minimizedRMSD -1
REMARK  0 active torsions:
REMARK  status: ('A' for Active; 'I' for Inactive)
ROOT
ATOM      1  C   UNL d   1      -2.516   2.919  -6.000  0.00  0.00     0.077 C 
ATOM      2  C1  UNL d   1      -3.540   1.823  -5.989  0.00  0.00    -0.074 A 
ATOM      3  C2  UNL d   1      -4.907   2.116  -5.997  0.00  0.00    -0.005 A 
ATOM      4  C3  UNL d   1      -5.847   1.085  -5.996  0.00  0.00     0.006 A 
ATOM      5  C4  UNL d   1      -5.430  -0.246  -5.989  0.00  0.00    -0.005 A 
ATOM      6  C5  UNL d   1      -4.067  -0.559  -5.982  0.00  0.00    -0.074 A 
ATOM      7  C6  UNL d   1      -3.602  -1.984  -5.984  0.00  0.00     0.077 C 
ATOM      8  C7  UNL d   1      -3.129   0.482  -5.990  0.00  0.00    -0.001 A 
ENDROOT
TORSDOF 0
ENDMDL
