MODEL 1
REMARK minimizedAffinity -3.09719586
REMARK minimizedRMSD -1
REMARK  0 active torsions:
REMARK  status: ('A' for Active; 'I' for Inactive)
ROOT
ATOM      1  C   UNL d   1      -1.049   4.182  -5.994  0.00  0.00     0.077 C 
ATOM      2  C1  UNL d   1      -2.541   4.028  -5.988  0.00  0.00    -0.074 A 
ATOM      3  C2  UNL d   1      -3.379   5.148  -5.994  0.00  0.00    -0.005 A 
ATOM      4  C3  UNL d   1      -4.765   4.989  -5.998  0.00  0.00     0.006 A 
ATOM      5  C4  UNL d   1      -5.326   3.711  -5.997  0.00  0.00    -0.005 A 
ATOM      6  C5  UNL d   1      -4.503   2.580  -5.991  0.00  0.00    -0.074 A 
ATOM      7  C6  UNL d   1      -5.089   1.199  -5.999  0.00  0.00     0.077 C 
ATOM      8  C7  UNL d   1      -3.112   2.748  -5.994  0.00  0.00    -0.001 A 
ENDROOT
TORSDOF 0
ENDMDL
