MODEL 1
REMARK minimizedAffinity 5.23047543
REMARK minimizedRMSD -1
REMARK  0 active torsions:
REMARK  status: ('A' for Active; 'I' for Inactive)
ROOT
ATOM      1  C   UNL d   1       4.377   1.103  -0.989  0.00  0.00     0.077 C 
ATOM      2  C1  UNL d   1       2.942   0.682  -0.880  0.00  0.00    -0.074 A 
ATOM      3  C2  UNL d   1       2.146   1.109   0.188  0.00  0.00    -0.005 A 
ATOM      4  C3  UNL d   1       0.810   0.716   0.271  0.00  0.00     0.006 A 
ATOM      5  C4  UNL d   1       0.257  -0.106  -0.711  0.00  0.00    -0.005 A 
ATOM      6  C5  UNL d   1       1.037  -0.543  -1.787  0.00  0.00    -0.074 A 
ATOM      7  C6  UNL d   1       0.456  -1.419  -2.856  0.00  0.00     0.077 C 
ATOM      8  C7  UNL d   1       2.377  -0.138  -1.867  0.00  0.00    -0.001 A 
ENDROOT
TORSDOF 0
ENDMDL
