MODEL 1
REMARK minimizedAffinity 1.31003082
REMARK minimizedRMSD -1
REMARK  0 active torsions:
REMARK  status: ('A' for Active; 'I' for Inactive)
ROOT
ATOM      1  C   UNL d   1      -0.840   4.354  -5.994  0.00  0.00     0.077 C 
ATOM      2  C1  UNL d   1      -2.192   3.706  -5.984  0.00  0.00    -0.074 A 
ATOM      3  C2  UNL d   1      -3.359   4.477  -5.984  0.00  0.00    -0.005 A 
ATOM      4  C3  UNL d   1      -4.610   3.859  -5.985  0.00  0.00     0.006 A 
ATOM      5  C4  UNL d   1      -4.706   2.467  -5.986  0.00  0.00    -0.005 A 
ATOM      6  C5  UNL d   1      -3.550   1.680  -5.987  0.00  0.00    -0.074 A 
ATOM      7  C6  UNL d   1      -3.636   0.182  -5.998  0.00  0.00     0.077 C 
ATOM      8  C7  UNL d   1      -2.297   2.308  -5.993  0.00  0.00    -0.001 A 
ENDROOT
TORSDOF 0
ENDMDL
