MODEL 1
REMARK minimizedAffinity 4.35783672
REMARK minimizedRMSD -1
REMARK  0 active torsions:
REMARK  status: ('A' for Active; 'I' for Inactive)
ROOT
ATOM      1  C   UNL d   1      -0.339   0.204   1.343  0.00  0.00     0.124 A 
ATOM      2  C1  UNL d   1      -0.410   1.577   1.530  0.00  0.00     0.062 A 
ATOM      3  C2  UNL d   1      -1.441   2.128   2.286  0.00  0.00     0.162 A 
ATOM      4  C3  UNL d   1      -2.408   1.305   2.862  0.00  0.00    -0.034 A 
ATOM      5  C4  UNL d   1      -2.330  -0.076   2.669  0.00  0.00     0.162 A 
ATOM      6  C5  UNL d   1      -1.298  -0.621   1.912  0.00  0.00     0.062 A 
ATOM      7  F   UNL d   1      -1.231  -1.948   1.732  0.00  0.00    -0.097 F 
ATOM      8  F1  UNL d   1      -3.244  -0.896   3.208  0.00  0.00    -0.096 F 
ATOM      9  I   UNL d   1      -3.951   2.124   3.994  0.00  0.00    -0.060 I 
ATOM     10  F2  UNL d   1      -1.485   3.458   2.450  0.00  0.00    -0.096 F 
ATOM     11  F3  UNL d   1       0.515   2.377   0.980  0.00  0.00    -0.097 F 
ATOM     12  F4  UNL d   1       0.653  -0.323   0.614  0.00  0.00    -0.092 F 
ENDROOT
TORSDOF 0
ENDMDL
