MODEL 1
REMARK minimizedAffinity 6.97291088
REMARK minimizedRMSD -1
REMARK  0 active torsions:
REMARK  status: ('A' for Active; 'I' for Inactive)
ROOT
ATOM      1  C   UNL d   1      -1.936   1.581   2.614  0.00  0.00     0.124 A 
ATOM      2  C1  UNL d   1      -1.732   0.239   2.907  0.00  0.00     0.062 A 
ATOM      3  C2  UNL d   1      -0.549  -0.388   2.525  0.00  0.00     0.162 A 
ATOM      4  C3  UNL d   1       0.440   0.327   1.848  0.00  0.00    -0.034 A 
ATOM      5  C4  UNL d   1       0.226   1.675   1.557  0.00  0.00     0.162 A 
ATOM      6  C5  UNL d   1      -0.958   2.297   1.940  0.00  0.00     0.062 A 
ATOM      7  F   UNL d   1      -1.154   3.593   1.657  0.00  0.00    -0.097 F 
ATOM      8  F1  UNL d   1       1.155   2.391   0.907  0.00  0.00    -0.096 F 
ATOM      9  I   UNL d   1       2.209  -0.607   1.276  0.00  0.00    -0.060 I 
ATOM     10  F2  UNL d   1      -0.378  -1.685   2.821  0.00  0.00    -0.096 F 
ATOM     11  F3  UNL d   1      -2.676  -0.456   3.557  0.00  0.00    -0.097 F 
ATOM     12  F4  UNL d   1      -3.076   2.181   2.982  0.00  0.00    -0.092 F 
ENDROOT
TORSDOF 0
ENDMDL
