MODEL 1
REMARK minimizedAffinity 16.8969421
REMARK minimizedRMSD -1
REMARK  0 active torsions:
REMARK  status: ('A' for Active; 'I' for Inactive)
ROOT
ATOM      1  C   UNL d   1       0.019   2.311   1.695  0.00  0.00     0.124 A 
ATOM      2  C1  UNL d   1       0.699   1.435   0.860  0.00  0.00     0.062 A 
ATOM      3  C2  UNL d   1       0.514   0.061   0.986  0.00  0.00     0.162 A 
ATOM      4  C3  UNL d   1      -0.357  -0.446   1.951  0.00  0.00    -0.034 A 
ATOM      5  C4  UNL d   1      -1.037   0.441   2.788  0.00  0.00     0.162 A 
ATOM      6  C5  UNL d   1      -0.848   1.813   2.658  0.00  0.00     0.062 A 
ATOM      7  F   UNL d   1      -1.506   2.658   3.465  0.00  0.00    -0.097 F 
ATOM      8  F1  UNL d   1      -1.881  -0.012   3.726  0.00  0.00    -0.096 F 
ATOM      9  I   UNL d   1      -0.636  -2.499   2.143  0.00  0.00    -0.060 I 
ATOM     10  F2  UNL d   1       1.184  -0.761   0.166  0.00  0.00    -0.096 F 
ATOM     11  F3  UNL d   1       1.538   1.913  -0.070  0.00  0.00    -0.097 F 
ATOM     12  F4  UNL d   1       0.200   3.632   1.572  0.00  0.00    -0.092 F 
ENDROOT
TORSDOF 0
ENDMDL
