MODEL 1
REMARK minimizedAffinity 4.57122707
REMARK minimizedRMSD -1
REMARK  0 active torsions:
REMARK  status: ('A' for Active; 'I' for Inactive)
ROOT
ATOM      1  C   UNL d   1       0.053   0.507   1.609  0.00  0.00     0.124 A 
ATOM      2  C1  UNL d   1      -0.916  -0.404   2.005  0.00  0.00     0.062 A 
ATOM      3  C2  UNL d   1      -2.101   0.041   2.584  0.00  0.00     0.162 A 
ATOM      4  C3  UNL d   1      -2.324   1.405   2.772  0.00  0.00    -0.034 A 
ATOM      5  C4  UNL d   1      -1.344   2.316   2.372  0.00  0.00     0.162 A 
ATOM      6  C5  UNL d   1      -0.162   1.866   1.794  0.00  0.00     0.062 A 
ATOM      7  F   UNL d   1       0.773   2.748   1.412  0.00  0.00    -0.097 F 
ATOM      8  F1  UNL d   1      -1.526   3.634   2.538  0.00  0.00    -0.096 F 
ATOM      9  I   UNL d   1      -4.094   2.074   3.638  0.00  0.00    -0.060 I 
ATOM     10  F2  UNL d   1      -3.020  -0.863   2.957  0.00  0.00    -0.096 F 
ATOM     11  F3  UNL d   1      -0.711  -1.717   1.829  0.00  0.00    -0.097 F 
ATOM     12  F4  UNL d   1       1.192   0.077   1.053  0.00  0.00    -0.092 F 
ENDROOT
TORSDOF 0
ENDMDL
