MODEL 1
REMARK minimizedAffinity 11.2127981
REMARK minimizedRMSD -1
REMARK  0 active torsions:
REMARK  status: ('A' for Active; 'I' for Inactive)
ROOT
ATOM      1  C   UNL d   1      -1.733   1.462   2.128  0.00  0.00     0.124 A 
ATOM      2  C1  UNL d   1      -2.517   0.338   2.348  0.00  0.00     0.062 A 
ATOM      3  C2  UNL d   1      -3.462   0.332   3.370  0.00  0.00     0.162 A 
ATOM      4  C3  UNL d   1      -3.629   1.456   4.180  0.00  0.00    -0.034 A 
ATOM      5  C4  UNL d   1      -2.837   2.582   3.953  0.00  0.00     0.162 A 
ATOM      6  C5  UNL d   1      -1.894   2.583   2.930  0.00  0.00     0.062 A 
ATOM      7  F   UNL d   1      -1.138   3.670   2.719  0.00  0.00    -0.097 F 
ATOM      8  F1  UNL d   1      -2.971   3.679   4.713  0.00  0.00    -0.096 F 
ATOM      9  I   UNL d   1      -5.041   1.451   5.709  0.00  0.00    -0.060 I 
ATOM     10  F2  UNL d   1      -4.205  -0.768   3.560  0.00  0.00    -0.096 F 
ATOM     11  F3  UNL d   1      -2.363  -0.746   1.574  0.00  0.00    -0.097 F 
ATOM     12  F4  UNL d   1      -0.825   1.465   1.144  0.00  0.00    -0.092 F 
ENDROOT
TORSDOF 0
ENDMDL
