MODEL 1
REMARK minimizedAffinity 0.21785453
REMARK minimizedRMSD -1
REMARK  0 active torsions:
REMARK  status: ('A' for Active; 'I' for Inactive)
ROOT
ATOM      1  C   UNL d   1       0.302   0.028   1.445  0.00  0.00     0.124 A 
ATOM      2  C1  UNL d   1       0.020   1.387   1.418  0.00  0.00     0.062 A 
ATOM      3  C2  UNL d   1      -1.112   1.879   2.062  0.00  0.00     0.162 A 
ATOM      4  C3  UNL d   1      -1.969   1.012   2.739  0.00  0.00    -0.034 A 
ATOM      5  C4  UNL d   1      -1.679  -0.353   2.761  0.00  0.00     0.162 A 
ATOM      6  C5  UNL d   1      -0.547  -0.840   2.116  0.00  0.00     0.062 A 
ATOM      7  F   UNL d   1      -0.276  -2.153   2.143  0.00  0.00    -0.097 F 
ATOM      8  F1  UNL d   1      -2.483  -1.214   3.403  0.00  0.00    -0.096 F 
ATOM      9  I   UNL d   1      -3.662   1.745   3.703  0.00  0.00    -0.060 I 
ATOM     10  F2  UNL d   1      -1.360   3.197   2.020  0.00  0.00    -0.096 F 
ATOM     11  F3  UNL d   1       0.838   2.228   0.770  0.00  0.00    -0.097 F 
ATOM     12  F4  UNL d   1       1.391  -0.443   0.824  0.00  0.00    -0.092 F 
ENDROOT
TORSDOF 0
ENDMDL
