MODEL 1
REMARK minimizedAffinity 10.4566708
REMARK minimizedRMSD -1
REMARK  0 active torsions:
REMARK  status: ('A' for Active; 'I' for Inactive)
ROOT
ATOM      1  C   UNL d   1       0.501   0.313   1.142  0.00  0.00     0.124 A 
ATOM      2  C1  UNL d   1       0.259   1.680   1.152  0.00  0.00     0.062 A 
ATOM      3  C2  UNL d   1      -0.780   2.202   1.917  0.00  0.00     0.162 A 
ATOM      4  C3  UNL d   1      -1.586   1.356   2.680  0.00  0.00    -0.034 A 
ATOM      5  C4  UNL d   1      -1.338  -0.017   2.664  0.00  0.00     0.162 A 
ATOM      6  C5  UNL d   1      -0.298  -0.534   1.898  0.00  0.00     0.062 A 
ATOM      7  F   UNL d   1      -0.066  -1.855   1.890  0.00  0.00    -0.097 F 
ATOM      8  F1  UNL d   1      -2.093  -0.859   3.385  0.00  0.00    -0.096 F 
ATOM      9  I   UNL d   1      -3.141   2.133   3.825  0.00  0.00    -0.060 I 
ATOM     10  F2  UNL d   1      -0.990   3.527   1.908  0.00  0.00    -0.096 F 
ATOM     11  F3  UNL d   1       1.029   2.501   0.422  0.00  0.00    -0.097 F 
ATOM     12  F4  UNL d   1       1.501  -0.186   0.405  0.00  0.00    -0.092 F 
ENDROOT
TORSDOF 0
ENDMDL
