MODEL 1
REMARK minimizedAffinity 5.05756712
REMARK minimizedRMSD -1
REMARK  0 active torsions:
REMARK  status: ('A' for Active; 'I' for Inactive)
ROOT
ATOM      1  C   UNL d   1       0.009  -0.101   1.117  0.00  0.00     0.124 A 
ATOM      2  C1  UNL d   1      -0.967  -0.776   1.837  0.00  0.00     0.062 A 
ATOM      3  C2  UNL d   1      -1.979  -0.067   2.479  0.00  0.00     0.162 A 
ATOM      4  C3  UNL d   1      -2.020   1.325   2.404  0.00  0.00    -0.034 A 
ATOM      5  C4  UNL d   1      -1.034   1.997   1.679  0.00  0.00     0.162 A 
ATOM      6  C5  UNL d   1      -0.025   1.284   1.039  0.00  0.00     0.062 A 
ATOM      7  F   UNL d   1       0.917   1.938   0.344  0.00  0.00    -0.097 F 
ATOM      8  F1  UNL d   1      -1.043   3.335   1.586  0.00  0.00    -0.096 F 
ATOM      9  I   UNL d   1      -3.530   2.388   3.363  0.00  0.00    -0.060 I 
ATOM     10  F2  UNL d   1      -2.909  -0.745   3.167  0.00  0.00    -0.096 F 
ATOM     11  F3  UNL d   1      -0.936  -2.114   1.914  0.00  0.00    -0.097 F 
ATOM     12  F4  UNL d   1       0.982  -0.785   0.501  0.00  0.00    -0.092 F 
ENDROOT
TORSDOF 0
ENDMDL
