MODEL 1
REMARK minimizedAffinity -1.98139644
REMARK minimizedRMSD -1
REMARK  0 active torsions:
REMARK  status: ('A' for Active; 'I' for Inactive)
ROOT
ATOM      1  C   UNL d   1      -1.813   1.501   2.367  0.00  0.00     0.124 A 
ATOM      2  C1  UNL d   1      -1.597   0.134   2.467  0.00  0.00     0.062 A 
ATOM      3  C2  UNL d   1      -0.385  -0.415   2.060  0.00  0.00     0.162 A 
ATOM      4  C3  UNL d   1       0.622   0.403   1.548  0.00  0.00    -0.034 A 
ATOM      5  C4  UNL d   1       0.398   1.778   1.450  0.00  0.00     0.162 A 
ATOM      6  C5  UNL d   1      -0.816   2.322   1.859  0.00  0.00     0.062 A 
ATOM      7  F   UNL d   1      -1.022   3.643   1.761  0.00  0.00    -0.097 F 
ATOM      8  F1  UNL d   1       1.344   2.594   0.963  0.00  0.00    -0.096 F 
ATOM      9  I   UNL d   1       2.436  -0.414   0.938  0.00  0.00    -0.060 I 
ATOM     10  F2  UNL d   1      -0.204  -1.740   2.168  0.00  0.00    -0.096 F 
ATOM     11  F3  UNL d   1      -2.559  -0.661   2.957  0.00  0.00    -0.097 F 
ATOM     12  F4  UNL d   1      -2.980   2.027   2.759  0.00  0.00    -0.092 F 
ENDROOT
TORSDOF 0
ENDMDL
