MODEL 1
REMARK minimizedAffinity 7.31936932
REMARK minimizedRMSD -1
REMARK  0 active torsions:
REMARK  status: ('A' for Active; 'I' for Inactive)
ROOT
ATOM      1  C   UNL d   1      -4.086   0.844   3.656  0.00  0.00     0.124 A 
ATOM      2  C1  UNL d   1      -3.436  -0.279   3.163  0.00  0.00     0.062 A 
ATOM      3  C2  UNL d   1      -2.261  -0.141   2.428  0.00  0.00     0.162 A 
ATOM      4  C3  UNL d   1      -1.729   1.125   2.184  0.00  0.00    -0.034 A 
ATOM      5  C4  UNL d   1      -2.390   2.250   2.682  0.00  0.00     0.162 A 
ATOM      6  C5  UNL d   1      -3.563   2.106   3.416  0.00  0.00     0.062 A 
ATOM      7  F   UNL d   1      -4.190   3.192   3.892  0.00  0.00    -0.097 F 
ATOM      8  F1  UNL d   1      -1.905   3.481   2.466  0.00  0.00    -0.096 F 
ATOM      9  I   UNL d   1       0.027   1.336   1.086  0.00  0.00    -0.060 I 
ATOM     10  F2  UNL d   1      -1.654  -1.242   1.964  0.00  0.00    -0.096 F 
ATOM     11  F3  UNL d   1      -3.940  -1.499   3.393  0.00  0.00    -0.097 F 
ATOM     12  F4  UNL d   1      -5.217   0.708   4.362  0.00  0.00    -0.092 F 
ENDROOT
TORSDOF 0
ENDMDL
