MODEL 1
REMARK minimizedAffinity 5.04281235
REMARK minimizedRMSD -1
REMARK  0 active torsions:
REMARK  status: ('A' for Active; 'I' for Inactive)
ROOT
ATOM      1  C   UNL d   1      -2.997  -2.596   1.516  0.00  0.00     0.124 A 
ATOM      2  C1  UNL d   1      -1.952  -3.280   2.121  0.00  0.00     0.062 A 
ATOM      3  C2  UNL d   1      -1.250  -4.252   1.415  0.00  0.00     0.162 A 
ATOM      4  C3  UNL d   1      -1.590  -4.545   0.094  0.00  0.00    -0.034 A 
ATOM      5  C4  UNL d   1      -2.643  -3.854  -0.508  0.00  0.00     0.162 A 
ATOM      6  C5  UNL d   1      -3.341  -2.883   0.203  0.00  0.00     0.062 A 
ATOM      7  F   UNL d   1      -4.351  -2.223  -0.383  0.00  0.00    -0.097 F 
ATOM      8  F1  UNL d   1      -2.996  -4.111  -1.776  0.00  0.00    -0.096 F 
ATOM      9  I   UNL d   1      -0.542  -5.998  -0.966  0.00  0.00    -0.060 I 
ATOM     10  F2  UNL d   1      -0.245  -4.898   2.024  0.00  0.00    -0.096 F 
ATOM     11  F3  UNL d   1      -1.618  -3.005   3.390  0.00  0.00    -0.097 F 
ATOM     12  F4  UNL d   1      -3.672  -1.662   2.199  0.00  0.00    -0.092 F 
ENDROOT
TORSDOF 0
ENDMDL
