MODEL 1
REMARK minimizedAffinity 3.22249031
REMARK minimizedRMSD -1
REMARK  0 active torsions:
REMARK  status: ('A' for Active; 'I' for Inactive)
ROOT
ATOM      1  C   UNL d   1       0.039   0.069   1.296  0.00  0.00     0.124 A 
ATOM      2  C1  UNL d   1      -0.939  -0.736   1.864  0.00  0.00     0.062 A 
ATOM      3  C2  UNL d   1      -2.015  -0.163   2.535  0.00  0.00     0.162 A 
ATOM      4  C3  UNL d   1      -2.121   1.223   2.641  0.00  0.00    -0.034 A 
ATOM      5  C4  UNL d   1      -1.133   2.027   2.068  0.00  0.00     0.162 A 
ATOM      6  C5  UNL d   1      -0.060   1.449   1.398  0.00  0.00     0.062 A 
ATOM      7  F   UNL d   1       0.884   2.229   0.850  0.00  0.00    -0.097 F 
ATOM      8  F1  UNL d   1      -1.204   3.364   2.151  0.00  0.00    -0.096 F 
ATOM      9  I   UNL d   1      -3.729   2.084   3.644  0.00  0.00    -0.060 I 
ATOM     10  F2  UNL d   1      -2.945  -0.966   3.075  0.00  0.00    -0.096 F 
ATOM     11  F3  UNL d   1      -0.846  -2.071   1.768  0.00  0.00    -0.097 F 
ATOM     12  F4  UNL d   1       1.074  -0.485   0.652  0.00  0.00    -0.092 F 
ENDROOT
TORSDOF 0
ENDMDL
