MODEL 1
REMARK minimizedAffinity 18.3666592
REMARK minimizedRMSD -1
REMARK  0 active torsions:
REMARK  status: ('A' for Active; 'I' for Inactive)
ROOT
ATOM      1  C   UNL d   1       0.530   1.366   1.163  0.00  0.00     0.124 A 
ATOM      2  C1  UNL d   1      -0.529   1.907   1.880  0.00  0.00     0.062 A 
ATOM      3  C2  UNL d   1      -1.395   1.076   2.584  0.00  0.00     0.162 A 
ATOM      4  C3  UNL d   1      -1.206  -0.306   2.576  0.00  0.00    -0.034 A 
ATOM      5  C4  UNL d   1      -0.140  -0.843   1.852  0.00  0.00     0.162 A 
ATOM      6  C5  UNL d   1       0.723  -0.008   1.150  0.00  0.00     0.062 A 
ATOM      7  F   UNL d   1       1.745  -0.533   0.458  0.00  0.00    -0.097 F 
ATOM      8  F1  UNL d   1       0.070  -2.167   1.824  0.00  0.00    -0.096 F 
ATOM      9  I   UNL d   1      -2.499  -1.552   3.628  0.00  0.00    -0.060 I 
ATOM     10  F2  UNL d   1      -2.409   1.627   3.268  0.00  0.00    -0.096 F 
ATOM     11  F3  UNL d   1      -0.718   3.235   1.893  0.00  0.00    -0.097 F 
ATOM     12  F4  UNL d   1       1.361   2.168   0.486  0.00  0.00    -0.092 F 
ENDROOT
TORSDOF 0
ENDMDL
