MODEL 1
REMARK minimizedAffinity 2.82948184
REMARK minimizedRMSD -1
REMARK  0 active torsions:
REMARK  status: ('A' for Active; 'I' for Inactive)
ROOT
ATOM      1  C   UNL d   1       0.139   0.109   1.292  0.00  0.00     0.124 A 
ATOM      2  C1  UNL d   1      -0.827  -0.698   1.876  0.00  0.00     0.062 A 
ATOM      3  C2  UNL d   1      -1.924  -0.126   2.515  0.00  0.00     0.162 A 
ATOM      4  C3  UNL d   1      -2.060   1.261   2.573  0.00  0.00    -0.034 A 
ATOM      5  C4  UNL d   1      -1.084   2.066   1.984  0.00  0.00     0.162 A 
ATOM      6  C5  UNL d   1       0.010   1.490   1.347  0.00  0.00     0.062 A 
ATOM      7  F   UNL d   1       0.943   2.271   0.783  0.00  0.00    -0.097 F 
ATOM      8  F1  UNL d   1      -1.184   3.403   2.021  0.00  0.00    -0.096 F 
ATOM      9  I   UNL d   1      -3.699   2.119   3.528  0.00  0.00    -0.060 I 
ATOM     10  F2  UNL d   1      -2.842  -0.930   3.071  0.00  0.00    -0.096 F 
ATOM     11  F3  UNL d   1      -0.704  -2.032   1.826  0.00  0.00    -0.097 F 
ATOM     12  F4  UNL d   1       1.194  -0.443   0.679  0.00  0.00    -0.092 F 
ENDROOT
TORSDOF 0
ENDMDL
