MODEL 1
REMARK minimizedAffinity 4.41745949
REMARK minimizedRMSD -1
REMARK  0 active torsions:
REMARK  status: ('A' for Active; 'I' for Inactive)
ROOT
ATOM      1  C   UNL d   1      -0.112   0.574   1.343  0.00  0.00     0.124 A 
ATOM      2  C1  UNL d   1      -0.375   1.934   1.434  0.00  0.00     0.062 A 
ATOM      3  C2  UNL d   1      -1.478   2.388   2.152  0.00  0.00     0.162 A 
ATOM      4  C3  UNL d   1      -2.327   1.481   2.785  0.00  0.00    -0.034 A 
ATOM      5  C4  UNL d   1      -2.057   0.114   2.689  0.00  0.00     0.162 A 
ATOM      6  C5  UNL d   1      -0.954  -0.334   1.970  0.00  0.00     0.062 A 
ATOM      7  F   UNL d   1      -0.702  -1.649   1.884  0.00  0.00    -0.097 F 
ATOM      8  F1  UNL d   1      -2.853  -0.785   3.286  0.00  0.00    -0.096 F 
ATOM      9  I   UNL d   1      -3.977   2.155   3.859  0.00  0.00    -0.060 I 
ATOM     10  F2  UNL d   1      -1.707   3.708   2.223  0.00  0.00    -0.096 F 
ATOM     11  F3  UNL d   1       0.436   2.814   0.829  0.00  0.00    -0.097 F 
ATOM     12  F4  UNL d   1       0.949   0.140   0.652  0.00  0.00    -0.092 F 
ENDROOT
TORSDOF 0
ENDMDL
