MODEL 1
REMARK minimizedAffinity 4.26851082
REMARK minimizedRMSD -1
REMARK  0 active torsions:
REMARK  status: ('A' for Active; 'I' for Inactive)
ROOT
ATOM      1  C   UNL d   1       0.892   0.050   0.741  0.00  0.00     0.124 A 
ATOM      2  C1  UNL d   1       0.932   1.431   0.875  0.00  0.00     0.062 A 
ATOM      3  C2  UNL d   1      -0.154   2.113   1.414  0.00  0.00     0.162 A 
ATOM      4  C3  UNL d   1      -1.290   1.416   1.824  0.00  0.00    -0.034 A 
ATOM      5  C4  UNL d   1      -1.324   0.027   1.685  0.00  0.00     0.162 A 
ATOM      6  C5  UNL d   1      -0.235  -0.651   1.146  0.00  0.00     0.062 A 
ATOM      7  F   UNL d   1      -0.276  -1.985   1.017  0.00  0.00    -0.097 F 
ATOM      8  F1  UNL d   1      -2.400  -0.675   2.069  0.00  0.00    -0.096 F 
ATOM      9  I   UNL d   1      -2.917   2.433   2.631  0.00  0.00    -0.060 I 
ATOM     10  F2  UNL d   1      -0.088   3.448   1.532  0.00  0.00    -0.096 F 
ATOM     11  F3  UNL d   1       2.020   2.110   0.484  0.00  0.00    -0.097 F 
ATOM     12  F4  UNL d   1       1.939  -0.604   0.221  0.00  0.00    -0.092 F 
ENDROOT
TORSDOF 0
ENDMDL
