MODEL 1
REMARK minimizedAffinity -3.91091299
REMARK minimizedRMSD -1
REMARK  0 active torsions:
REMARK  status: ('A' for Active; 'I' for Inactive)
ROOT
ATOM      1  C4' PXY d   1      -2.361   0.476   0.956  0.00  0.00     0.077 C 
ATOM      2  C1' PXY d   1       2.679  -0.746  -1.597  0.00  0.00     0.077 C 
ATOM      3  C1  PXY d   1       1.361  -0.413  -0.927  0.00  0.00    -0.082 A 
ATOM      4  C2  PXY d   1       0.718  -1.349  -0.247  0.00  0.00     0.003 A 
ATOM      5  C3  PXY d   1      -0.492  -1.073   0.338  0.00  0.00     0.003 A 
ATOM      6  C4  PXY d   1      -1.022   0.187   0.272  0.00  0.00    -0.082 A 
ATOM      7  C5  PXY d   1      -0.367   1.150  -0.411  0.00  0.00     0.003 A 
ATOM      8  C6  PXY d   1       0.839   0.839  -1.033  0.00  0.00     0.003 A 
ENDROOT
TORSDOF 0
ENDMDL
