MODEL 1
REMARK minimizedAffinity 0.755818546
REMARK minimizedRMSD -1
REMARK  0 active torsions:
REMARK  status: ('A' for Active; 'I' for Inactive)
ROOT
ATOM      1  C4' PXY d   1       1.520   2.589  -1.026  0.00  0.00     0.077 C 
ATOM      2  C1' PXY d   1       0.764  -3.127  -0.606  0.00  0.00     0.077 C 
ATOM      3  C1  PXY d   1       0.949  -1.627  -0.720  0.00  0.00    -0.082 A 
ATOM      4  C2  PXY d   1       2.163  -1.129  -0.896  0.00  0.00     0.003 A 
ATOM      5  C3  PXY d   1       2.353   0.227  -0.969  0.00  0.00     0.003 A 
ATOM      6  C4  PXY d   1       1.284   1.080  -0.915  0.00  0.00    -0.082 A 
ATOM      7  C5  PXY d   1       0.041   0.580  -0.747  0.00  0.00     0.003 A 
ATOM      8  C6  PXY d   1      -0.126  -0.797  -0.633  0.00  0.00     0.003 A 
ENDROOT
TORSDOF 0
ENDMDL
