MODEL 1
REMARK minimizedAffinity -3.20853448
REMARK minimizedRMSD -1
REMARK  0 active torsions:
REMARK  status: ('A' for Active; 'I' for Inactive)
ROOT
ATOM      1  C4' PXY d   1      -1.416   0.293   0.774  0.00  0.00     0.077 C 
ATOM      2  C1' PXY d   1       3.560  -0.637  -2.018  0.00  0.00     0.077 C 
ATOM      3  C1  PXY d   1       2.251  -0.405  -1.289  0.00  0.00    -0.082 A 
ATOM      4  C2  PXY d   1       1.811   0.830  -1.111  0.00  0.00     0.003 A 
ATOM      5  C3  PXY d   1       0.646   1.059  -0.426  0.00  0.00     0.003 A 
ATOM      6  C4  PXY d   1      -0.105   0.011   0.035  0.00  0.00    -0.082 A 
ATOM      7  C5  PXY d   1       0.332  -1.252  -0.152  0.00  0.00     0.003 A 
ATOM      8  C6  PXY d   1       1.538  -1.462  -0.814  0.00  0.00     0.003 A 
ENDROOT
TORSDOF 0
ENDMDL
