MODEL 1
REMARK minimizedAffinity -4.43386602
REMARK minimizedRMSD -1
REMARK  0 active torsions:
REMARK  status: ('A' for Active; 'I' for Inactive)
ROOT
ATOM      1  C4' PXY d   1      -1.669   0.360   0.456  0.00  0.00     0.077 C 
ATOM      2  C1' PXY d   1       3.700  -0.708  -1.399  0.00  0.00     0.077 C 
ATOM      3  C1  PXY d   1       2.289  -0.440  -0.915  0.00  0.00    -0.082 A 
ATOM      4  C2  PXY d   1       1.822   0.798  -0.913  0.00  0.00     0.003 A 
ATOM      5  C3  PXY d   1       0.559   1.062  -0.449  0.00  0.00     0.003 A 
ATOM      6  C4  PXY d   1      -0.253   0.042  -0.032  0.00  0.00    -0.082 A 
ATOM      7  C5  PXY d   1       0.212  -1.225  -0.041  0.00  0.00     0.003 A 
ATOM      8  C6  PXY d   1       1.511  -1.468  -0.477  0.00  0.00     0.003 A 
ENDROOT
TORSDOF 0
ENDMDL
