MODEL 1
REMARK minimizedAffinity -4.78799486
REMARK minimizedRMSD -1
REMARK  0 active torsions:
REMARK  status: ('A' for Active; 'I' for Inactive)
ROOT
ATOM      1  C4' PXY d   1      -1.719   0.692   0.968  0.00  0.00     0.077 C 
ATOM      2  C1' PXY d   1       3.132  -0.790  -1.804  0.00  0.00     0.077 C 
ATOM      3  C1  PXY d   1       1.865  -0.389  -1.075  0.00  0.00    -0.082 A 
ATOM      4  C2  PXY d   1       1.110  -1.321  -0.516  0.00  0.00     0.003 A 
ATOM      5  C3  PXY d   1      -0.056  -0.979   0.120  0.00  0.00     0.003 A 
ATOM      6  C4  PXY d   1      -0.426   0.335   0.230  0.00  0.00    -0.082 A 
ATOM      7  C5  PXY d   1       0.345   1.292  -0.328  0.00  0.00     0.003 A 
ATOM      8  C6  PXY d   1       1.503   0.921  -1.005  0.00  0.00     0.003 A 
ENDROOT
TORSDOF 0
ENDMDL
