MODEL 1
REMARK minimizedAffinity -3.94279408
REMARK minimizedRMSD -1
REMARK  0 active torsions:
REMARK  status: ('A' for Active; 'I' for Inactive)
ROOT
ATOM      1  C4' PXY d   1      -1.860   0.367   1.691  0.00  0.00     0.077 C 
ATOM      2  C1' PXY d   1       3.019  -0.294  -1.338  0.00  0.00     0.077 C 
ATOM      3  C1  PXY d   1       1.734  -0.114  -0.554  0.00  0.00    -0.082 A 
ATOM      4  C2  PXY d   1       1.757  -0.197   0.767  0.00  0.00     0.003 A 
ATOM      5  C3  PXY d   1       0.599  -0.069   1.490  0.00  0.00     0.003 A 
ATOM      6  C4  PXY d   1      -0.585   0.201   0.859  0.00  0.00    -0.082 A 
ATOM      7  C5  PXY d   1      -0.615   0.298  -0.488  0.00  0.00     0.003 A 
ATOM      8  C6  PXY d   1       0.564   0.124  -1.206  0.00  0.00     0.003 A 
ENDROOT
TORSDOF 0
ENDMDL
