MODEL 1
REMARK minimizedAffinity -3.64859748
REMARK minimizedRMSD -1
REMARK  0 active torsions:
REMARK  status: ('A' for Active; 'I' for Inactive)
ROOT
ATOM      1  C4' PXY d   1       0.869   2.210  -2.273  0.00  0.00     0.077 C 
ATOM      2  C1' PXY d   1      -0.167  -2.635   0.705  0.00  0.00     0.077 C 
ATOM      3  C1  PXY d   1       0.092  -1.362  -0.077  0.00  0.00    -0.082 A 
ATOM      4  C2  PXY d   1       1.221  -1.228  -0.753  0.00  0.00     0.003 A 
ATOM      5  C3  PXY d   1       1.486  -0.071  -1.439  0.00  0.00     0.003 A 
ATOM      6  C4  PXY d   1       0.561   0.938  -1.477  0.00  0.00    -0.082 A 
ATOM      7  C5  PXY d   1      -0.598   0.805  -0.799  0.00  0.00     0.003 A 
ATOM      8  C6  PXY d   1      -0.830  -0.361  -0.075  0.00  0.00     0.003 A 
ENDROOT
TORSDOF 0
ENDMDL
