MODEL 1
REMARK minimizedAffinity -4.57573271
REMARK minimizedRMSD -1
REMARK  0 active torsions:
REMARK  status: ('A' for Active; 'I' for Inactive)
ROOT
ATOM      1  C4' PXY d   1      -1.720   0.402   1.553  0.00  0.00     0.077 C 
ATOM      2  C1' PXY d   1       2.928  -0.580  -1.740  0.00  0.00     0.077 C 
ATOM      3  C1  PXY d   1       1.704  -0.334  -0.880  0.00  0.00    -0.082 A 
ATOM      4  C2  PXY d   1       1.377   0.904  -0.547  0.00  0.00     0.003 A 
ATOM      5  C3  PXY d   1       0.291   1.142   0.257  0.00  0.00     0.003 A 
ATOM      6  C4  PXY d   1      -0.498   0.107   0.679  0.00  0.00    -0.082 A 
ATOM      7  C5  PXY d   1      -0.177  -1.158   0.334  0.00  0.00     0.003 A 
ATOM      8  C6  PXY d   1       0.952  -1.382  -0.448  0.00  0.00     0.003 A 
ENDROOT
TORSDOF 0
ENDMDL
