MODEL 1
REMARK minimizedAffinity -3.01398802
REMARK minimizedRMSD -1
REMARK  0 active torsions:
REMARK  status: ('A' for Active; 'I' for Inactive)
ROOT
ATOM      1  C4' PXY d   1      -1.712   0.617   1.982  0.00  0.00     0.077 C 
ATOM      2  C1' PXY d   1       1.957  -1.044  -2.164  0.00  0.00     0.077 C 
ATOM      3  C1  PXY d   1       0.995  -0.596  -1.081  0.00  0.00    -0.082 A 
ATOM      4  C2  PXY d   1       0.877  -1.312   0.025  0.00  0.00     0.003 A 
ATOM      5  C3  PXY d   1      -0.011  -0.939   1.001  0.00  0.00     0.003 A 
ATOM      6  C4  PXY d   1      -0.747   0.208   0.866  0.00  0.00    -0.082 A 
ATOM      7  C5  PXY d   1      -0.624   0.949  -0.255  0.00  0.00     0.003 A 
ATOM      8  C6  PXY d   1       0.253   0.531  -1.252  0.00  0.00     0.003 A 
ENDROOT
TORSDOF 0
ENDMDL
