MODEL 1
REMARK minimizedAffinity -3.4083035
REMARK minimizedRMSD -1
REMARK  0 active torsions:
REMARK  status: ('A' for Active; 'I' for Inactive)
ROOT
ATOM      1  C4' PXY d   1      -1.354   0.290   0.664  0.00  0.00     0.077 C 
ATOM      2  C1' PXY d   1       3.707  -0.614  -1.979  0.00  0.00     0.077 C 
ATOM      3  C1  PXY d   1       2.378  -0.390  -1.286  0.00  0.00    -0.082 A 
ATOM      4  C2  PXY d   1       1.750   0.765  -1.433  0.00  0.00     0.003 A 
ATOM      5  C3  PXY d   1       0.563   0.996  -0.787  0.00  0.00     0.003 A 
ATOM      6  C4  PXY d   1      -0.014   0.016  -0.026  0.00  0.00    -0.082 A 
ATOM      7  C5  PXY d   1       0.615  -1.169   0.121  0.00  0.00     0.003 A 
ATOM      8  C6  PXY d   1       1.840  -1.369  -0.510  0.00  0.00     0.003 A 
ENDROOT
TORSDOF 0
ENDMDL
