MODEL 1
REMARK minimizedAffinity -4.1090436
REMARK minimizedRMSD -1
REMARK  0 active torsions:
REMARK  status: ('A' for Active; 'I' for Inactive)
ROOT
ATOM      1  C4' PXY d   1      -2.076  -0.101   0.918  0.00  0.00     0.077 C 
ATOM      2  C1' PXY d   1       3.138  -0.527  -1.541  0.00  0.00     0.077 C 
ATOM      3  C1  PXY d   1       1.770  -0.428  -0.895  0.00  0.00    -0.082 A 
ATOM      4  C2  PXY d   1       1.013   0.632  -1.126  0.00  0.00     0.003 A 
ATOM      5  C3  PXY d   1      -0.214   0.752  -0.525  0.00  0.00     0.003 A 
ATOM      6  C4  PXY d   1      -0.692  -0.248   0.280  0.00  0.00    -0.082 A 
ATOM      7  C5  PXY d   1       0.071  -1.337   0.512  0.00  0.00     0.003 A 
ATOM      8  C6  PXY d   1       1.330  -1.421  -0.075  0.00  0.00     0.003 A 
ENDROOT
TORSDOF 0
ENDMDL
