MODEL 1
REMARK minimizedAffinity -3.64266682
REMARK minimizedRMSD -1
REMARK  0 active torsions:
REMARK  status: ('A' for Active; 'I' for Inactive)
ROOT
ATOM      1  C4' PXY d   1       1.992   2.115  -3.002  0.00  0.00     0.077 C 
ATOM      2  C1' PXY d   1      -0.090  -2.016   0.465  0.00  0.00     0.077 C 
ATOM      3  C1  PXY d   1       0.468  -0.937  -0.442  0.00  0.00    -0.082 A 
ATOM      4  C2  PXY d   1      -0.246   0.151  -0.680  0.00  0.00     0.003 A 
ATOM      5  C3  PXY d   1       0.230   1.123  -1.523  0.00  0.00     0.003 A 
ATOM      6  C4  PXY d   1       1.472   1.003  -2.085  0.00  0.00    -0.082 A 
ATOM      7  C5  PXY d   1       2.212  -0.099  -1.839  0.00  0.00     0.003 A 
ATOM      8  C6  PXY d   1       1.693  -1.092  -1.013  0.00  0.00     0.003 A 
ENDROOT
TORSDOF 0
ENDMDL
