MODEL 1
REMARK minimizedAffinity -2.56170487
REMARK minimizedRMSD -1
REMARK  0 active torsions:
REMARK  status: ('A' for Active; 'I' for Inactive)
ROOT
ATOM      1  C4' PXY d   1       1.613  -0.859  -1.000  0.00  0.00     0.077 C 
ATOM      2  C1' PXY d   1      -3.195  -0.739   2.207  0.00  0.00     0.077 C 
ATOM      3  C1  PXY d   1      -1.931  -0.759   1.370  0.00  0.00    -0.082 A 
ATOM      4  C2  PXY d   1      -1.861  -1.547   0.310  0.00  0.00     0.003 A 
ATOM      5  C3  PXY d   1      -0.714  -1.601  -0.439  0.00  0.00     0.003 A 
ATOM      6  C4  PXY d   1       0.353  -0.800  -0.132  0.00  0.00    -0.082 A 
ATOM      7  C5  PXY d   1       0.285   0.015   0.942  0.00  0.00     0.003 A 
ATOM      8  C6  PXY d   1      -0.873   0.024   1.714  0.00  0.00     0.003 A 
ENDROOT
TORSDOF 0
ENDMDL
