MODEL 1
REMARK minimizedAffinity -3.19081903
REMARK minimizedRMSD -1
REMARK  0 active torsions:
REMARK  status: ('A' for Active; 'I' for Inactive)
ROOT
ATOM      1  C4' PXY d   1      -2.482   1.122   3.326  0.00  0.00     0.077 C 
ATOM      2  C1' PXY d   1       0.866  -1.277  -0.729  0.00  0.00     0.077 C 
ATOM      3  C1  PXY d   1      -0.019  -0.642   0.325  0.00  0.00    -0.082 A 
ATOM      4  C2  PXY d   1       0.443  -0.478   1.554  0.00  0.00     0.003 A 
ATOM      5  C3  PXY d   1      -0.355   0.065   2.528  0.00  0.00     0.003 A 
ATOM      6  C4  PXY d   1      -1.620   0.494   2.227  0.00  0.00    -0.082 A 
ATOM      7  C5  PXY d   1      -2.094   0.340   0.973  0.00  0.00     0.003 A 
ATOM      8  C6  PXY d   1      -1.283  -0.251   0.009  0.00  0.00     0.003 A 
ENDROOT
TORSDOF 0
ENDMDL
