MODEL 1
REMARK minimizedAffinity -3.2854712
REMARK minimizedRMSD -1
REMARK  0 active torsions:
REMARK  status: ('A' for Active; 'I' for Inactive)
ROOT
ATOM      1  C4' PXY d   1       0.750  -2.846   0.740  0.00  0.00     0.077 C 
ATOM      2  C1' PXY d   1      -0.218   2.200  -1.909  0.00  0.00     0.077 C 
ATOM      3  C1  PXY d   1       0.040   0.871  -1.225  0.00  0.00    -0.082 A 
ATOM      4  C2  PXY d   1      -0.627   0.561  -0.126  0.00  0.00     0.003 A 
ATOM      5  C3  PXY d   1      -0.383  -0.622   0.523  0.00  0.00     0.003 A 
ATOM      6  C4  PXY d   1       0.515  -1.520   0.012  0.00  0.00    -0.082 A 
ATOM      7  C5  PXY d   1       1.192  -1.215  -1.116  0.00  0.00     0.003 A 
ATOM      8  C6  PXY d   1       0.960   0.009  -1.736  0.00  0.00     0.003 A 
ENDROOT
TORSDOF 0
ENDMDL
