MODEL 1
REMARK minimizedAffinity -4.34545851
REMARK minimizedRMSD -1
REMARK  0 active torsions:
REMARK  status: ('A' for Active; 'I' for Inactive)
ROOT
ATOM      1  C4' PXY d   1      -2.406   0.313   1.492  0.00  0.00     0.077 C 
ATOM      2  C1' PXY d   1       2.304  -0.977  -1.601  0.00  0.00     0.077 C 
ATOM      3  C1  PXY d   1       1.064  -0.651  -0.791  0.00  0.00    -0.082 A 
ATOM      4  C2  PXY d   1       0.668   0.607  -0.680  0.00  0.00     0.003 A 
ATOM      5  C3  PXY d   1      -0.432   0.923   0.074  0.00  0.00     0.003 A 
ATOM      6  C4  PXY d   1      -1.166  -0.064   0.677  0.00  0.00    -0.082 A 
ATOM      7  C5  PXY d   1      -0.774  -1.350   0.560  0.00  0.00     0.003 A 
ATOM      8  C6  PXY d   1       0.370  -1.646  -0.176  0.00  0.00     0.003 A 
ENDROOT
TORSDOF 0
ENDMDL
