MODEL 1
REMARK minimizedAffinity -4.80337191
REMARK minimizedRMSD -1
REMARK  0 active torsions:
REMARK  status: ('A' for Active; 'I' for Inactive)
ROOT
ATOM      1  C4' PXY d   1      -0.127  -2.826   0.229  0.00  0.00     0.077 C 
ATOM      2  C1' PXY d   1       1.418   2.557  -1.202  0.00  0.00     0.077 C 
ATOM      3  C1  PXY d   1       1.022   1.141  -0.834  0.00  0.00    -0.082 A 
ATOM      4  C2  PXY d   1      -0.203   0.897  -0.397  0.00  0.00     0.003 A 
ATOM      5  C3  PXY d   1      -0.568  -0.373  -0.030  0.00  0.00     0.003 A 
ATOM      6  C4  PXY d   1       0.313  -1.413  -0.162  0.00  0.00    -0.082 A 
ATOM      7  C5  PXY d   1       1.561  -1.173  -0.618  0.00  0.00     0.003 A 
ATOM      8  C6  PXY d   1       1.925   0.129  -0.946  0.00  0.00     0.003 A 
ENDROOT
TORSDOF 0
ENDMDL
