MODEL 1
REMARK minimizedAffinity -5.07507992
REMARK minimizedRMSD -1
REMARK  0 active torsions:
REMARK  status: ('A' for Active; 'I' for Inactive)
ROOT
ATOM      1  C4' PXY d   1      -1.161   0.002   0.740  0.00  0.00     0.077 C 
ATOM      2  C1' PXY d   1       3.840  -0.186  -2.154  0.00  0.00     0.077 C 
ATOM      3  C1  PXY d   1       2.526  -0.149  -1.399  0.00  0.00    -0.082 A 
ATOM      4  C2  PXY d   1       1.983   1.017  -1.088  0.00  0.00     0.003 A 
ATOM      5  C3  PXY d   1       0.811   1.069  -0.378  0.00  0.00     0.003 A 
ATOM      6  C4  PXY d   1       0.160  -0.084  -0.029  0.00  0.00    -0.082 A 
ATOM      7  C5  PXY d   1       0.702  -1.277  -0.353  0.00  0.00     0.003 A 
ATOM      8  C6  PXY d   1       1.913  -1.309  -1.038  0.00  0.00     0.003 A 
ENDROOT
TORSDOF 0
ENDMDL
