MODEL 1
REMARK minimizedAffinity -5.08198452
REMARK minimizedRMSD -1
REMARK  0 active torsions:
REMARK  status: ('A' for Active; 'I' for Inactive)
ROOT
ATOM      1  C4' PXY d   1      -1.966   1.783   2.340  0.00  0.00     0.077 C 
ATOM      2  C1' PXY d   1       1.233  -1.603  -1.084  0.00  0.00     0.077 C 
ATOM      3  C1  PXY d   1       0.398  -0.704  -0.192  0.00  0.00    -0.082 A 
ATOM      4  C2  PXY d   1       0.080  -1.106   1.027  0.00  0.00     0.003 A 
ATOM      5  C3  PXY d   1      -0.701  -0.320   1.835  0.00  0.00     0.003 A 
ATOM      6  C4  PXY d   1      -1.117   0.913   1.409  0.00  0.00    -0.082 A 
ATOM      7  C5  PXY d   1      -0.788   1.335   0.170  0.00  0.00     0.003 A 
ATOM      8  C6  PXY d   1      -0.028   0.504  -0.650  0.00  0.00     0.003 A 
ENDROOT
TORSDOF 0
ENDMDL
