MODEL 1
REMARK minimizedAffinity -3.47207165
REMARK minimizedRMSD -1
REMARK  0 active torsions:
REMARK  status: ('A' for Active; 'I' for Inactive)
ROOT
ATOM      1  C4' PXY d   1       6.000   3.325   5.415  0.00  0.00     0.077 C 
ATOM      2  C1' PXY d   1       5.188  -2.244   4.095  0.00  0.00     0.077 C 
ATOM      3  C1  PXY d   1       5.403  -0.781   4.429  0.00  0.00    -0.082 A 
ATOM      4  C2  PXY d   1       5.778  -0.437   5.650  0.00  0.00     0.003 A 
ATOM      5  C3  PXY d   1       5.946   0.884   5.978  0.00  0.00     0.003 A 
ATOM      6  C4  PXY d   1       5.780   1.859   5.031  0.00  0.00    -0.082 A 
ATOM      7  C5  PXY d   1       5.408   1.515   3.780  0.00  0.00     0.003 A 
ATOM      8  C6  PXY d   1       5.203   0.172   3.478  0.00  0.00     0.003 A 
ENDROOT
TORSDOF 0
ENDMDL
