MODEL 1
REMARK minimizedAffinity -4.12029314
REMARK minimizedRMSD -1
REMARK  1 active torsions:
REMARK  status: ('A' for Active; 'I' for Inactive)
REMARK    1  A    between atoms: C3_4  and  O_7 
ROOT
ATOM      1  C   UNL d   1       0.565  -0.266   0.119  0.00  0.00    -0.033 A 
ATOM      2  C1  UNL d   1       1.076   0.028   1.385  0.00  0.00     0.039 A 
ATOM      3  C2  UNL d   1       0.472   1.010   2.173  0.00  0.00    -0.080 A 
ATOM      4  C3  UNL d   1      -0.641   1.688   1.684  0.00  0.00     0.150 A 
ATOM      5  C4  UNL d   1      -1.158   1.398   0.426  0.00  0.00    -0.007 A 
ATOM      6  C5  UNL d   1      -0.553   0.418  -0.360  0.00  0.00     0.039 A 
ENDROOT
BRANCH   4   7
ATOM      7  O   UNL d   1      -1.262   2.658   2.415  0.00  0.00    -0.526 OA
ATOM      8  H5  UNL d   1      -0.779   2.770   3.250  0.00  0.00     0.418 HD
ENDBRANCH   4   7
TORSDOF 1
ENDMDL
