MODEL 1
REMARK minimizedAffinity -5.13086414
REMARK minimizedRMSD -1
REMARK  1 active torsions:
REMARK  status: ('A' for Active; 'I' for Inactive)
REMARK    1  A    between atoms: C3_4  and  O_7 
ROOT
ATOM      1  C   UNL d   1      -1.203   1.935   1.979  0.00  0.00    -0.033 A 
ATOM      2  C1  UNL d   1      -0.065   1.318   2.503  0.00  0.00     0.039 A 
ATOM      3  C2  UNL d   1       0.607   0.344   1.761  0.00  0.00    -0.080 A 
ATOM      4  C3  UNL d   1       0.132  -0.002   0.499  0.00  0.00     0.150 A 
ATOM      5  C4  UNL d   1      -0.998   0.611  -0.030  0.00  0.00    -0.007 A 
ATOM      6  C5  UNL d   1      -1.669   1.583   0.712  0.00  0.00     0.039 A 
ENDROOT
BRANCH   4   7
ATOM      7  O   UNL d   1       0.751  -0.951  -0.260  0.00  0.00    -0.526 OA
ATOM      8  H5  UNL d   1       1.500  -1.308   0.246  0.00  0.00     0.418 HD
ENDBRANCH   4   7
TORSDOF 1
ENDMDL
