MODEL 1
REMARK minimizedAffinity -5.45192432
REMARK minimizedRMSD -1
REMARK  1 active torsions:
REMARK  status: ('A' for Active; 'I' for Inactive)
REMARK    1  A    between atoms: C3_4  and  O_7 
ROOT
ATOM      1  C   UNL d   1      -0.506   1.824  -0.902  0.00  0.00    -0.033 A 
ATOM      2  C1  UNL d   1      -0.137   0.661  -0.224  0.00  0.00     0.039 A 
ATOM      3  C2  UNL d   1      -0.081   0.653   1.171  0.00  0.00    -0.080 A 
ATOM      4  C3  UNL d   1      -0.398   1.811   1.875  0.00  0.00     0.150 A 
ATOM      5  C4  UNL d   1      -0.770   2.972   1.206  0.00  0.00    -0.007 A 
ATOM      6  C5  UNL d   1      -0.824   2.980  -0.187  0.00  0.00     0.039 A 
ENDROOT
BRANCH   4   7
ATOM      7  O   UNL d   1      -0.353   1.852   3.237  0.00  0.00    -0.526 OA
ATOM      8  H5  UNL d   1      -0.052   0.987   3.561  0.00  0.00     0.418 HD
ENDBRANCH   4   7
TORSDOF 1
ENDMDL
