MODEL 1
REMARK minimizedAffinity -4.41327572
REMARK minimizedRMSD -1
REMARK  1 active torsions:
REMARK  status: ('A' for Active; 'I' for Inactive)
REMARK    1  A    between atoms: C3_4  and  O_7 
ROOT
ATOM      1  C   UNL d   1       0.786  -0.573   0.881  0.00  0.00    -0.033 A 
ATOM      2  C1  UNL d   1       1.130   0.109   2.050  0.00  0.00     0.039 A 
ATOM      3  C2  UNL d   1       0.378   1.211   2.464  0.00  0.00    -0.080 A 
ATOM      4  C3  UNL d   1      -0.713   1.619   1.702  0.00  0.00     0.150 A 
ATOM      5  C4  UNL d   1      -1.063   0.942   0.539  0.00  0.00    -0.007 A 
ATOM      6  C5  UNL d   1      -0.311  -0.157   0.126  0.00  0.00     0.039 A 
ENDROOT
BRANCH   4   7
ATOM      7  O   UNL d   1      -1.474   2.691   2.064  0.00  0.00    -0.526 OA
ATOM      8  H5  UNL d   1      -1.096   3.077   2.872  0.00  0.00     0.418 HD
ENDBRANCH   4   7
TORSDOF 1
ENDMDL
