MODEL 1
REMARK minimizedAffinity -4.16139078
REMARK minimizedRMSD -1
REMARK  1 active torsions:
REMARK  status: ('A' for Active; 'I' for Inactive)
REMARK    1  A    between atoms: C3_4  and  O_7 
ROOT
ATOM      1  C   UNL d   1       0.972  -0.165   1.376  0.00  0.00    -0.033 A 
ATOM      2  C1  UNL d   1       1.214   0.593   2.524  0.00  0.00     0.039 A 
ATOM      3  C2  UNL d   1       0.345   1.626   2.877  0.00  0.00    -0.080 A 
ATOM      4  C3  UNL d   1      -0.763   1.891   2.076  0.00  0.00     0.150 A 
ATOM      5  C4  UNL d   1      -1.013   1.138   0.934  0.00  0.00    -0.007 A 
ATOM      6  C5  UNL d   1      -0.143   0.107   0.582  0.00  0.00     0.039 A 
ENDROOT
BRANCH   4   7
ATOM      7  O   UNL d   1      -1.637   2.893   2.378  0.00  0.00    -0.526 OA
ATOM      8  H5  UNL d   1      -1.322   3.346   3.177  0.00  0.00     0.418 HD
ENDBRANCH   4   7
TORSDOF 1
ENDMDL
