MODEL 1
REMARK minimizedAffinity -3.73432684
REMARK minimizedRMSD -1
REMARK  1 active torsions:
REMARK  status: ('A' for Active; 'I' for Inactive)
REMARK    1  A    between atoms: C3_4  and  O_7 
ROOT
ATOM      1  C   UNL d   1       0.750  -0.449   0.423  0.00  0.00    -0.033 A 
ATOM      2  C1  UNL d   1       0.923  -0.040   1.747  0.00  0.00     0.039 A 
ATOM      3  C2  UNL d   1       0.093   0.942   2.290  0.00  0.00    -0.080 A 
ATOM      4  C3  UNL d   1      -0.906   1.506   1.501  0.00  0.00     0.150 A 
ATOM      5  C4  UNL d   1      -1.086   1.101   0.182  0.00  0.00    -0.007 A 
ATOM      6  C5  UNL d   1      -0.256   0.121  -0.359  0.00  0.00     0.039 A 
ENDROOT
BRANCH   4   7
ATOM      7  O   UNL d   1      -1.737   2.472   1.985  0.00  0.00    -0.526 OA
ATOM      8  H5  UNL d   1      -1.477   2.672   2.900  0.00  0.00     0.418 HD
ENDBRANCH   4   7
TORSDOF 1
ENDMDL
