MODEL 1
REMARK minimizedAffinity 1.61873281
REMARK minimizedRMSD -1
REMARK  1 active torsions:
REMARK  status: ('A' for Active; 'I' for Inactive)
REMARK    1  A    between atoms: C3_4  and  O_7 
ROOT
ATOM      1  C   UNL d   1      -5.999  -2.989   4.576  0.00  0.00    -0.033 A 
ATOM      2  C1  UNL d   1      -5.992  -2.369   5.827  0.00  0.00     0.039 A 
ATOM      3  C2  UNL d   1      -5.786  -0.992   5.925  0.00  0.00    -0.080 A 
ATOM      4  C3  UNL d   1      -5.589  -0.247   4.766  0.00  0.00     0.150 A 
ATOM      5  C4  UNL d   1      -5.599  -0.857   3.516  0.00  0.00    -0.007 A 
ATOM      6  C5  UNL d   1      -5.804  -2.232   3.420  0.00  0.00     0.039 A 
ENDROOT
BRANCH   4   7
ATOM      7  O   UNL d   1      -5.379   1.100   4.811  0.00  0.00    -0.526 OA
ATOM      8  H5  UNL d   1      -5.370   1.378   5.742  0.00  0.00     0.418 HD
ENDBRANCH   4   7
TORSDOF 1
ENDMDL
