MODEL 1
REMARK minimizedAffinity 1.87915158
REMARK minimizedRMSD -1
REMARK  1 active torsions:
REMARK  status: ('A' for Active; 'I' for Inactive)
REMARK    1  A    between atoms: C3_4  and  O_7 
ROOT
ATOM      1  C   UNL d   1      -4.271  -0.800   4.729  0.00  0.00    -0.033 A 
ATOM      2  C1  UNL d   1      -3.635  -0.056   3.734  0.00  0.00     0.039 A 
ATOM      3  C2  UNL d   1      -4.177   0.001   2.448  0.00  0.00    -0.080 A 
ATOM      4  C3  UNL d   1      -5.355  -0.689   2.172  0.00  0.00     0.150 A 
ATOM      5  C4  UNL d   1      -5.996  -1.428   3.160  0.00  0.00    -0.007 A 
ATOM      6  C5  UNL d   1      -5.453  -1.485   4.443  0.00  0.00     0.039 A 
ENDROOT
BRANCH   4   7
ATOM      7  O   UNL d   1      -5.919  -0.667   0.931  0.00  0.00    -0.526 OA
ATOM      8  H5  UNL d   1      -5.351  -0.140   0.344  0.00  0.00     0.418 HD
ENDBRANCH   4   7
TORSDOF 1
ENDMDL
