MODEL 1
REMARK minimizedAffinity 13.8784103
REMARK minimizedRMSD -1
REMARK  0 active torsions:
REMARK  status: ('A' for Active; 'I' for Inactive)
ROOT
ATOM      1  C4' PXY d   1       0.384   0.045  -0.235  0.00  0.00     0.077 C 
ATOM      2  C1' PXY d   1      -1.073  -4.112  -3.978  0.00  0.00     0.077 C 
ATOM      3  C1  PXY d   1      -0.678  -3.025  -2.998  0.00  0.00    -0.082 A 
ATOM      4  C2  PXY d   1      -1.540  -2.634  -2.073  0.00  0.00     0.003 A 
ATOM      5  C3  PXY d   1      -1.211  -1.629  -1.199  0.00  0.00     0.003 A 
ATOM      6  C4  PXY d   1       0.032  -1.056  -1.239  0.00  0.00    -0.082 A 
ATOM      7  C5  PXY d   1       0.920  -1.457  -2.173  0.00  0.00     0.003 A 
ATOM      8  C6  PXY d   1       0.552  -2.449  -3.077  0.00  0.00     0.003 A 
ENDROOT
TORSDOF 0
ENDMDL
