MODEL 1
REMARK minimizedAffinity 3.97065043
REMARK minimizedRMSD -1
REMARK  0 active torsions:
REMARK  status: ('A' for Active; 'I' for Inactive)
ROOT
ATOM      1  C4' PXY d   1       2.988  -1.104  -3.386  0.00  0.00     0.077 C 
ATOM      2  C1' PXY d   1       6.000   3.119  -5.938  0.00  0.00     0.077 C 
ATOM      3  C1  PXY d   1       5.221   2.007  -5.262  0.00  0.00    -0.082 A 
ATOM      4  C2  PXY d   1       4.124   1.537  -5.833  0.00  0.00     0.003 A 
ATOM      5  C3  PXY d   1       3.389   0.554  -5.220  0.00  0.00     0.003 A 
ATOM      6  C4  PXY d   1       3.811   0.011  -4.037  0.00  0.00    -0.082 A 
ATOM      7  C5  PXY d   1       4.935   0.478  -3.453  0.00  0.00     0.003 A 
ATOM      8  C6  PXY d   1       5.644   1.504  -4.071  0.00  0.00     0.003 A 
ENDROOT
TORSDOF 0
ENDMDL
