MODEL 1
REMARK minimizedAffinity 10.0116796
REMARK minimizedRMSD -1
REMARK  0 active torsions:
REMARK  status: ('A' for Active; 'I' for Inactive)
ROOT
ATOM      1  C4' PXY d   1      -1.143   0.638  -1.709  0.00  0.00     0.077 C 
ATOM      2  C1' PXY d   1      -2.131  -4.307  -4.535  0.00  0.00     0.077 C 
ATOM      3  C1  PXY d   1      -1.884  -3.010  -3.790  0.00  0.00    -0.082 A 
ATOM      4  C2  PXY d   1      -0.888  -2.222  -4.161  0.00  0.00     0.003 A 
ATOM      5  C3  PXY d   1      -0.631  -1.061  -3.478  0.00  0.00     0.003 A 
ATOM      6  C4  PXY d   1      -1.435  -0.677  -2.438  0.00  0.00    -0.082 A 
ATOM      7  C5  PXY d   1      -2.460  -1.470  -2.061  0.00  0.00     0.003 A 
ATOM      8  C6  PXY d   1      -2.678  -2.664  -2.741  0.00  0.00     0.003 A 
ENDROOT
TORSDOF 0
ENDMDL
