MODEL 1
REMARK minimizedAffinity 5.42280483
REMARK minimizedRMSD -1
REMARK  0 active torsions:
REMARK  status: ('A' for Active; 'I' for Inactive)
ROOT
ATOM      1  C4' PXY d   1       0.829  -0.618  -0.185  0.00  0.00     0.077 C 
ATOM      2  C1' PXY d   1      -2.609  -0.891   4.454  0.00  0.00     0.077 C 
ATOM      3  C1  PXY d   1      -1.709  -0.806   3.237  0.00  0.00    -0.082 A 
ATOM      4  C2  PXY d   1      -1.516  -1.881   2.490  0.00  0.00     0.003 A 
ATOM      5  C3  PXY d   1      -0.680  -1.831   1.404  0.00  0.00     0.003 A 
ATOM      6  C4  PXY d   1      -0.078  -0.654   1.048  0.00  0.00    -0.082 A 
ATOM      7  C5  PXY d   1      -0.279   0.450   1.798  0.00  0.00     0.003 A 
ATOM      8  C6  PXY d   1      -1.098   0.368   2.920  0.00  0.00     0.003 A 
ENDROOT
TORSDOF 0
ENDMDL
