MODEL 1
REMARK minimizedAffinity 1.91339719
REMARK minimizedRMSD -1
REMARK  0 active torsions:
REMARK  status: ('A' for Active; 'I' for Inactive)
ROOT
ATOM      1  C4' PXY d   1      -4.593  -5.975   1.804  0.00  0.00     0.077 C 
ATOM      2  C1' PXY d   1       1.185  -6.000   1.997  0.00  0.00     0.077 C 
ATOM      3  C1  PXY d   1      -0.330  -5.988   1.934  0.00  0.00    -0.082 A 
ATOM      4  C2  PXY d   1      -1.031  -5.978   3.056  0.00  0.00     0.003 A 
ATOM      5  C3  PXY d   1      -2.402  -6.000   3.018  0.00  0.00     0.003 A 
ATOM      6  C4  PXY d   1      -3.062  -5.978   1.819  0.00  0.00    -0.082 A 
ATOM      7  C5  PXY d   1      -2.354  -5.977   0.670  0.00  0.00     0.003 A 
ATOM      8  C6  PXY d   1      -0.963  -5.997   0.730  0.00  0.00     0.003 A 
ENDROOT
TORSDOF 0
ENDMDL
