MODEL 1
REMARK minimizedAffinity -1.24629283
REMARK minimizedRMSD -1
REMARK  0 active torsions:
REMARK  status: ('A' for Active; 'I' for Inactive)
ROOT
ATOM      1  C4' PXY d   1       0.749  -5.979   1.830  0.00  0.00     0.077 C 
ATOM      2  C1' PXY d   1      -4.954  -5.999   2.772  0.00  0.00     0.077 C 
ATOM      3  C1  PXY d   1      -3.460  -5.999   2.514  0.00  0.00    -0.082 A 
ATOM      4  C2  PXY d   1      -2.619  -5.999   3.535  0.00  0.00     0.003 A 
ATOM      5  C3  PXY d   1      -1.266  -5.966   3.319  0.00  0.00     0.003 A 
ATOM      6  C4  PXY d   1      -0.767  -5.989   2.044  0.00  0.00    -0.082 A 
ATOM      7  C5  PXY d   1      -1.618  -6.000   0.997  0.00  0.00     0.003 A 
ATOM      8  C6  PXY d   1      -2.989  -5.991   1.237  0.00  0.00     0.003 A 
ENDROOT
TORSDOF 0
ENDMDL
