MODEL 1
REMARK minimizedAffinity 7.11948586
REMARK minimizedRMSD -1
REMARK  0 active torsions:
REMARK  status: ('A' for Active; 'I' for Inactive)
ROOT
ATOM      1  C4' PXY d   1       4.216  -5.996   3.322  0.00  0.00     0.077 C 
ATOM      2  C1' PXY d   1      -1.562  -5.981   3.505  0.00  0.00     0.077 C 
ATOM      3  C1  PXY d   1      -0.046  -5.980   3.469  0.00  0.00    -0.082 A 
ATOM      4  C2  PXY d   1       0.580  -5.968   2.303  0.00  0.00     0.003 A 
ATOM      5  C3  PXY d   1       1.950  -5.999   2.252  0.00  0.00     0.003 A 
ATOM      6  C4  PXY d   1       2.687  -5.988   3.406  0.00  0.00    -0.082 A 
ATOM      7  C5  PXY d   1       2.055  -5.989   4.599  0.00  0.00     0.003 A 
ATOM      8  C6  PXY d   1       0.663  -5.999   4.629  0.00  0.00     0.003 A 
ENDROOT
TORSDOF 0
ENDMDL
