MODEL 1
REMARK minimizedAffinity 15.4713144
REMARK minimizedRMSD -1
REMARK  0 active torsions:
REMARK  status: ('A' for Active; 'I' for Inactive)
ROOT
ATOM      1  C4' PXY d   1       5.998   2.708  -5.436  0.00  0.00     0.077 C 
ATOM      2  C1' PXY d   1       2.851  -0.977  -2.285  0.00  0.00     0.077 C 
ATOM      3  C1  PXY d   1       3.687  -0.013  -3.103  0.00  0.00    -0.082 A 
ATOM      4  C2  PXY d   1       3.090   0.932  -3.811  0.00  0.00     0.003 A 
ATOM      5  C3  PXY d   1       3.828   1.792  -4.582  0.00  0.00     0.003 A 
ATOM      6  C4  PXY d   1       5.195   1.718  -4.587  0.00  0.00    -0.082 A 
ATOM      7  C5  PXY d   1       5.813   0.764  -3.859  0.00  0.00     0.003 A 
ATOM      8  C6  PXY d   1       5.043  -0.126  -3.116  0.00  0.00     0.003 A 
ENDROOT
TORSDOF 0
ENDMDL
