MODEL 1
REMARK minimizedAffinity 4.13848448
REMARK minimizedRMSD -1
REMARK  0 active torsions:
REMARK  status: ('A' for Active; 'I' for Inactive)
ROOT
ATOM      1  C4' PXY d   1       1.308  -5.999   5.222  0.00  0.00     0.077 C 
ATOM      2  C1' PXY d   1      -2.459  -5.980   0.837  0.00  0.00     0.077 C 
ATOM      3  C1  PXY d   1      -1.462  -5.990   1.979  0.00  0.00    -0.082 A 
ATOM      4  C2  PXY d   1      -1.899  -6.000   3.228  0.00  0.00     0.003 A 
ATOM      5  C3  PXY d   1      -1.011  -5.977   4.273  0.00  0.00     0.003 A 
ATOM      6  C4  PXY d   1       0.337  -5.998   4.037  0.00  0.00    -0.082 A 
ATOM      7  C5  PXY d   1       0.790  -5.999   2.765  0.00  0.00     0.003 A 
ATOM      8  C6  PXY d   1      -0.127  -5.981   1.719  0.00  0.00     0.003 A 
ENDROOT
TORSDOF 0
ENDMDL
