MODEL 1
REMARK minimizedAffinity 8.65856075
REMARK minimizedRMSD -1
REMARK  0 active torsions:
REMARK  status: ('A' for Active; 'I' for Inactive)
ROOT
ATOM      1  C4' PXY d   1      -2.212  -2.859  -4.358  0.00  0.00     0.077 C 
ATOM      2  C1' PXY d   1       3.056  -0.649  -3.473  0.00  0.00     0.077 C 
ATOM      3  C1  PXY d   1       1.671  -1.224  -3.694  0.00  0.00    -0.082 A 
ATOM      4  C2  PXY d   1       1.514  -2.266  -4.494  0.00  0.00     0.003 A 
ATOM      5  C3  PXY d   1       0.265  -2.778  -4.730  0.00  0.00     0.003 A 
ATOM      6  C4  PXY d   1      -0.830  -2.252  -4.098  0.00  0.00    -0.082 A 
ATOM      7  C5  PXY d   1      -0.678  -1.195  -3.272  0.00  0.00     0.003 A 
ATOM      8  C6  PXY d   1       0.594  -0.664  -3.078  0.00  0.00     0.003 A 
ENDROOT
TORSDOF 0
ENDMDL
