MODEL 1
REMARK minimizedAffinity 9.92675304
REMARK minimizedRMSD -1
REMARK  0 active torsions:
REMARK  status: ('A' for Active; 'I' for Inactive)
ROOT
ATOM      1  C4' PXY d   1      -1.554  -3.660  -5.207  0.00  0.00     0.077 C 
ATOM      2  C1' PXY d   1       2.832  -0.981  -2.561  0.00  0.00     0.077 C 
ATOM      3  C1  PXY d   1       1.673  -1.677  -3.248  0.00  0.00    -0.082 A 
ATOM      4  C2  PXY d   1       1.862  -2.858  -3.814  0.00  0.00     0.003 A 
ATOM      5  C3  PXY d   1       0.833  -3.486  -4.467  0.00  0.00     0.003 A 
ATOM      6  C4  PXY d   1      -0.416  -2.925  -4.495  0.00  0.00    -0.082 A 
ATOM      7  C5  PXY d   1      -0.619  -1.725  -3.911  0.00  0.00     0.003 A 
ATOM      8  C6  PXY d   1       0.449  -1.084  -3.289  0.00  0.00     0.003 A 
ENDROOT
TORSDOF 0
ENDMDL
