MODEL 1
REMARK minimizedAffinity 7.65122652
REMARK minimizedRMSD -1
REMARK  0 active torsions:
REMARK  status: ('A' for Active; 'I' for Inactive)
ROOT
ATOM      1  C4' PXY d   1      -1.321  -3.530   2.232  0.00  0.00     0.077 C 
ATOM      2  C1' PXY d   1       1.003   1.728   1.629  0.00  0.00     0.077 C 
ATOM      3  C1  PXY d   1       0.392   0.352   1.800  0.00  0.00    -0.082 A 
ATOM      4  C2  PXY d   1       0.679  -0.604   0.930  0.00  0.00     0.003 A 
ATOM      5  C3  PXY d   1       0.110  -1.845   1.052  0.00  0.00     0.003 A 
ATOM      6  C4  PXY d   1      -0.720  -2.128   2.104  0.00  0.00    -0.082 A 
ATOM      7  C5  PXY d   1      -1.009  -1.161   3.001  0.00  0.00     0.003 A 
ATOM      8  C6  PXY d   1      -0.453   0.104   2.837  0.00  0.00     0.003 A 
ENDROOT
TORSDOF 0
ENDMDL
