MODEL 1
REMARK minimizedAffinity 7.42726088
REMARK minimizedRMSD -1
REMARK  0 active torsions:
REMARK  status: ('A' for Active; 'I' for Inactive)
ROOT
ATOM      1  C4' PXY d   1       0.997  -5.998   5.966  0.00  0.00     0.077 C 
ATOM      2  C1' PXY d   1      -1.385  -5.964   0.699  0.00  0.00     0.077 C 
ATOM      3  C1  PXY d   1      -0.749  -5.978   2.075  0.00  0.00    -0.082 A 
ATOM      4  C2  PXY d   1      -1.519  -5.998   3.151  0.00  0.00     0.003 A 
ATOM      5  C3  PXY d   1      -0.962  -5.979   4.404  0.00  0.00     0.003 A 
ATOM      6  C4  PXY d   1       0.399  -5.993   4.557  0.00  0.00    -0.082 A 
ATOM      7  C5  PXY d   1       1.191  -5.984   3.464  0.00  0.00     0.003 A 
ATOM      8  C6  PXY d   1       0.605  -5.962   2.201  0.00  0.00     0.003 A 
ENDROOT
TORSDOF 0
ENDMDL
