MODEL 1
REMARK minimizedAffinity 4.74403048
REMARK minimizedRMSD -1
REMARK  0 active torsions:
REMARK  status: ('A' for Active; 'I' for Inactive)
ROOT
ATOM      1  C4' PXY d   1      -5.757  -0.352   2.805  0.00  0.00     0.077 C 
ATOM      2  C1' PXY d   1      -5.876   4.465   5.999  0.00  0.00     0.077 C 
ATOM      3  C1  PXY d   1      -5.838   3.196   5.171  0.00  0.00    -0.082 A 
ATOM      4  C2  PXY d   1      -5.998   3.266   3.859  0.00  0.00     0.003 A 
ATOM      5  C3  PXY d   1      -5.998   2.125   3.099  0.00  0.00     0.003 A 
ATOM      6  C4  PXY d   1      -5.779   0.904   3.680  0.00  0.00    -0.082 A 
ATOM      7  C5  PXY d   1      -5.604   0.826   5.016  0.00  0.00     0.003 A 
ATOM      8  C6  PXY d   1      -5.648   1.992   5.775  0.00  0.00     0.003 A 
ENDROOT
TORSDOF 0
ENDMDL
