MODEL 1
REMARK minimizedAffinity 2.75976539
REMARK minimizedRMSD -1
REMARK  0 active torsions:
REMARK  status: ('A' for Active; 'I' for Inactive)
ROOT
ATOM      1  C4' PXY d   1      -1.982  -5.977   0.561  0.00  0.00     0.077 C 
ATOM      2  C1' PXY d   1       1.537  -5.999   5.148  0.00  0.00     0.077 C 
ATOM      3  C1  PXY d   1       0.623  -5.988   3.938  0.00  0.00    -0.082 A 
ATOM      4  C2  PXY d   1      -0.689  -5.976   4.108  0.00  0.00     0.003 A 
ATOM      5  C3  PXY d   1      -1.529  -5.999   3.025  0.00  0.00     0.003 A 
ATOM      6  C4  PXY d   1      -1.022  -5.979   1.754  0.00  0.00    -0.082 A 
ATOM      7  C5  PXY d   1       0.316  -5.980   1.571  0.00  0.00     0.003 A 
ATOM      8  C6  PXY d   1       1.152  -5.999   2.684  0.00  0.00     0.003 A 
ENDROOT
TORSDOF 0
ENDMDL
