MODEL 1
REMARK minimizedAffinity 12.0659876
REMARK minimizedRMSD -1
REMARK  0 active torsions:
REMARK  status: ('A' for Active; 'I' for Inactive)
ROOT
ATOM      1  C4' PXY d   1       1.135   2.010  -0.714  0.00  0.00     0.077 C 
ATOM      2  C1' PXY d   1      -1.988  -0.661   3.351  0.00  0.00     0.077 C 
ATOM      3  C1  PXY d   1      -1.167   0.028   2.279  0.00  0.00    -0.082 A 
ATOM      4  C2  PXY d   1      -0.639   1.217   2.523  0.00  0.00     0.003 A 
ATOM      5  C3  PXY d   1       0.080   1.868   1.554  0.00  0.00     0.003 A 
ATOM      6  C4  PXY d   1       0.306   1.274   0.341  0.00  0.00    -0.082 A 
ATOM      7  C5  PXY d   1      -0.220   0.056   0.089  0.00  0.00     0.003 A 
ATOM      8  C6  PXY d   1      -0.981  -0.570   1.071  0.00  0.00     0.003 A 
ENDROOT
TORSDOF 0
ENDMDL
