MODEL 1
REMARK minimizedAffinity 3.75609016
REMARK minimizedRMSD -1
REMARK  0 active torsions:
REMARK  status: ('A' for Active; 'I' for Inactive)
ROOT
ATOM      1  C4' PXY d   1      -1.840  -5.954  -0.392  0.00  0.00     0.077 C 
ATOM      2  C1' PXY d   1       1.445  -5.999   4.365  0.00  0.00     0.077 C 
ATOM      3  C1  PXY d   1       0.574  -5.993   3.124  0.00  0.00    -0.082 A 
ATOM      4  C2  PXY d   1       1.139  -5.980   1.928  0.00  0.00     0.003 A 
ATOM      5  C3  PXY d   1       0.366  -5.941   0.796  0.00  0.00     0.003 A 
ATOM      6  C4  PXY d   1      -0.999  -5.971   0.888  0.00  0.00    -0.082 A 
ATOM      7  C5  PXY d   1      -1.584  -5.995   2.105  0.00  0.00     0.003 A 
ATOM      8  C6  PXY d   1      -0.782  -5.992   3.242  0.00  0.00     0.003 A 
ENDROOT
TORSDOF 0
ENDMDL
