MODEL 1
REMARK minimizedAffinity 11.3864193
REMARK minimizedRMSD -1
REMARK  0 active torsions:
REMARK  status: ('A' for Active; 'I' for Inactive)
ROOT
ATOM      1  C4' PXY d   1       1.512  -0.982  -1.574  0.00  0.00     0.077 C 
ATOM      2  C1' PXY d   1      -2.198  -3.840  -4.963  0.00  0.00     0.077 C 
ATOM      3  C1  PXY d   1      -1.235  -3.082  -4.071  0.00  0.00    -0.082 A 
ATOM      4  C2  PXY d   1       0.063  -3.122  -4.326  0.00  0.00     0.003 A 
ATOM      5  C3  PXY d   1       0.951  -2.469  -3.511  0.00  0.00     0.003 A 
ATOM      6  C4  PXY d   1       0.501  -1.724  -2.454  0.00  0.00    -0.082 A 
ATOM      7  C5  PXY d   1      -0.822  -1.669  -2.193  0.00  0.00     0.003 A 
ATOM      8  C6  PXY d   1      -1.703  -2.373  -3.009  0.00  0.00     0.003 A 
ENDROOT
TORSDOF 0
ENDMDL
