MODEL 1
REMARK minimizedAffinity 7.6925106
REMARK minimizedRMSD -1
REMARK  0 active torsions:
REMARK  status: ('A' for Active; 'I' for Inactive)
ROOT
ATOM      1  C4' PXY d   1      -5.615  -0.224   4.392  0.00  0.00     0.077 C 
ATOM      2  C1' PXY d   1      -1.854  -2.925   0.932  0.00  0.00     0.077 C 
ATOM      3  C1  PXY d   1      -2.849  -2.215   1.829  0.00  0.00    -0.082 A 
ATOM      4  C2  PXY d   1      -2.422  -1.595   2.917  0.00  0.00     0.003 A 
ATOM      5  C3  PXY d   1      -3.311  -0.975   3.757  0.00  0.00     0.003 A 
ATOM      6  C4  PXY d   1      -4.646  -0.945   3.452  0.00  0.00    -0.082 A 
ATOM      7  C5  PXY d   1      -5.088  -1.566   2.338  0.00  0.00     0.003 A 
ATOM      8  C6  PXY d   1      -4.174  -2.225   1.521  0.00  0.00     0.003 A 
ENDROOT
TORSDOF 0
ENDMDL
