MODEL 1
REMARK minimizedAffinity 5.50689077
REMARK minimizedRMSD -1
REMARK  0 active torsions:
REMARK  status: ('A' for Active; 'I' for Inactive)
ROOT
ATOM      1  C4' PXY d   1       2.856  -0.814  -3.895  0.00  0.00     0.077 C 
ATOM      2  C1' PXY d   1      -2.396  -3.168  -4.432  0.00  0.00     0.077 C 
ATOM      3  C1  PXY d   1      -1.013  -2.563  -4.293  0.00  0.00    -0.082 A 
ATOM      4  C2  PXY d   1      -0.860  -1.428  -3.630  0.00  0.00     0.003 A 
ATOM      5  C3  PXY d   1       0.379  -0.849  -3.522  0.00  0.00     0.003 A 
ATOM      6  C4  PXY d   1       1.480  -1.467  -4.053  0.00  0.00    -0.082 A 
ATOM      7  C5  PXY d   1       1.333  -2.630  -4.721  0.00  0.00     0.003 A 
ATOM      8  C6  PXY d   1       0.061  -3.180  -4.855  0.00  0.00     0.003 A 
ENDROOT
TORSDOF 0
ENDMDL
