MODEL 1
REMARK minimizedAffinity 8.77672577
REMARK minimizedRMSD -1
REMARK  0 active torsions:
REMARK  status: ('A' for Active; 'I' for Inactive)
ROOT
ATOM      1  C1  DEN d   1       1.188   2.715   1.767  0.00  0.00     0.130 A 
ATOM      2  C2  DEN d   1       0.162   2.006   2.526  0.00  0.00    -0.031 A 
ATOM      3  C3  DEN d   1      -1.029   1.866   1.664  0.00  0.00     0.027 A 
ATOM      4  C4  DEN d   1      -1.380   2.669  -0.761  0.00  0.00     0.027 A 
ATOM      5  C5  DEN d   1      -0.798   3.329  -1.820  0.00  0.00    -0.003 A 
ATOM      6  C6  DEN d   1       0.464   3.857  -1.747  0.00  0.00     0.001 A 
ATOM      7  C7  DEN d   1       1.203   3.694  -0.605  0.00  0.00     0.017 A 
ATOM      8  C8  DEN d   1       0.620   3.035   0.469  0.00  0.00    -0.094 A 
ATOM      9  C9  DEN d   1      -0.652   2.498   0.371  0.00  0.00    -0.072 A 
ENDROOT
TORSDOF 0
ENDMDL
