MODEL 1
REMARK minimizedAffinity 14.3068743
REMARK minimizedRMSD -1
REMARK  0 active torsions:
REMARK  status: ('A' for Active; 'I' for Inactive)
ROOT
ATOM      1  C1  DEN d   1      -2.357   2.010  -0.210  0.00  0.00     0.130 A 
ATOM      2  C2  DEN d   1      -2.933   2.207  -1.538  0.00  0.00    -0.031 A 
ATOM      3  C3  DEN d   1      -1.930   2.901  -2.372  0.00  0.00     0.027 A 
ATOM      4  C4  DEN d   1       0.446   3.680  -1.740  0.00  0.00     0.027 A 
ATOM      5  C5  DEN d   1       1.373   3.745  -0.724  0.00  0.00    -0.003 A 
ATOM      6  C6  DEN d   1       1.111   3.271   0.534  0.00  0.00     0.001 A 
ATOM      7  C7  DEN d   1      -0.091   2.670   0.797  0.00  0.00     0.017 A 
ATOM      8  C8  DEN d   1      -1.034   2.607  -0.221  0.00  0.00    -0.094 A 
ATOM      9  C9  DEN d   1      -0.746   3.081  -1.490  0.00  0.00    -0.072 A 
ENDROOT
TORSDOF 0
ENDMDL
