MODEL 1
REMARK minimizedAffinity 13.8763237
REMARK minimizedRMSD -1
REMARK  0 active torsions:
REMARK  status: ('A' for Active; 'I' for Inactive)
ROOT
ATOM      1  C1  DEN d   1       1.614   2.762  -1.823  0.00  0.00     0.130 A 
ATOM      2  C2  DEN d   1       1.772   4.092  -2.405  0.00  0.00    -0.031 A 
ATOM      3  C3  DEN d   1       0.600   4.902  -2.016  0.00  0.00     0.027 A 
ATOM      4  C4  DEN d   1      -1.429   4.232  -0.573  0.00  0.00     0.027 A 
ATOM      5  C5  DEN d   1      -2.013   3.204   0.135  0.00  0.00    -0.003 A 
ATOM      6  C6  DEN d   1      -1.451   1.958   0.211  0.00  0.00     0.001 A 
ATOM      7  C7  DEN d   1      -0.245   1.719  -0.395  0.00  0.00     0.017 A 
ATOM      8  C8  DEN d   1       0.346   2.748  -1.116  0.00  0.00    -0.094 A 
ATOM      9  C9  DEN d   1      -0.233   4.005  -1.171  0.00  0.00    -0.072 A 
ENDROOT
TORSDOF 0
ENDMDL
