MODEL 1
REMARK minimizedAffinity 14.4754686
REMARK minimizedRMSD -1
REMARK  0 active torsions:
REMARK  status: ('A' for Active; 'I' for Inactive)
ROOT
ATOM      1  C1  DEN d   1      -0.468   3.591  -0.720  0.00  0.00     0.130 A 
ATOM      2  C2  DEN d   1       0.078   2.251  -0.522  0.00  0.00    -0.031 A 
ATOM      3  C3  DEN d   1      -0.453   1.725   0.751  0.00  0.00     0.027 A 
ATOM      4  C4  DEN d   1      -2.064   2.848   2.424  0.00  0.00     0.027 A 
ATOM      5  C5  DEN d   1      -2.788   3.989   2.693  0.00  0.00    -0.003 A 
ATOM      6  C6  DEN d   1      -2.762   5.081   1.867  0.00  0.00     0.001 A 
ATOM      7  C7  DEN d   1      -2.033   5.039   0.708  0.00  0.00     0.017 A 
ATOM      8  C8  DEN d   1      -1.294   3.895   0.434  0.00  0.00    -0.094 A 
ATOM      9  C9  DEN d   1      -1.343   2.796   1.276  0.00  0.00    -0.072 A 
ENDROOT
TORSDOF 0
ENDMDL
