MODEL 1
REMARK minimizedAffinity 24.6475983
REMARK minimizedRMSD -1
REMARK  0 active torsions:
REMARK  status: ('A' for Active; 'I' for Inactive)
ROOT
ATOM      1  C1  DEN d   1      -5.044   0.702   2.462  0.00  0.00     0.130 A 
ATOM      2  C2  DEN d   1      -4.101   0.166   1.485  0.00  0.00    -0.031 A 
ATOM      3  C3  DEN d   1      -3.712  -1.190   1.921  0.00  0.00     0.027 A 
ATOM      4  C4  DEN d   1      -4.480  -2.507   4.001  0.00  0.00     0.027 A 
ATOM      5  C5  DEN d   1      -5.265  -2.462   5.132  0.00  0.00    -0.003 A 
ATOM      6  C6  DEN d   1      -6.000  -1.356   5.467  0.00  0.00     0.001 A 
ATOM      7  C7  DEN d   1      -5.999  -0.264   4.638  0.00  0.00     0.017 A 
ATOM      8  C8  DEN d   1      -5.204  -0.300   3.501  0.00  0.00    -0.094 A 
ATOM      9  C9  DEN d   1      -4.478  -1.432   3.173  0.00  0.00    -0.072 A 
ENDROOT
TORSDOF 0
ENDMDL
