MODEL 1
REMARK minimizedAffinity 17.7454643
REMARK minimizedRMSD -1
REMARK  0 active torsions:
REMARK  status: ('A' for Active; 'I' for Inactive)
ROOT
ATOM      1  C1  DEN d   1      -2.235   5.669   0.250  0.00  0.00     0.130 A 
ATOM      2  C2  DEN d   1      -2.666   5.562   1.642  0.00  0.00    -0.031 A 
ATOM      3  C3  DEN d   1      -2.057   4.346   2.216  0.00  0.00     0.027 A 
ATOM      4  C4  DEN d   1      -0.493   2.630   1.094  0.00  0.00     0.027 A 
ATOM      5  C5  DEN d   1       0.145   2.291  -0.079  0.00  0.00    -0.003 A 
ATOM      6  C6  DEN d   1       0.007   3.029  -1.225  0.00  0.00     0.001 A 
ATOM      7  C7  DEN d   1      -0.750   4.171  -1.210  0.00  0.00     0.017 A 
ATOM      8  C8  DEN d   1      -1.402   4.515  -0.033  0.00  0.00    -0.094 A 
ATOM      9  C9  DEN d   1      -1.241   3.762   1.118  0.00  0.00    -0.072 A 
ENDROOT
TORSDOF 0
ENDMDL
