MODEL 1
REMARK minimizedAffinity 6.90106058
REMARK minimizedRMSD -1
REMARK  0 active torsions:
REMARK  status: ('A' for Active; 'I' for Inactive)
ROOT
ATOM      1  C1  DEN d   1       1.396   1.979  -0.802  0.00  0.00     0.130 A 
ATOM      2  C2  DEN d   1       0.383   2.374  -1.777  0.00  0.00    -0.031 A 
ATOM      3  C3  DEN d   1      -0.886   2.590  -1.055  0.00  0.00     0.027 A 
ATOM      4  C4  DEN d   1      -1.379   2.358   1.466  0.00  0.00     0.027 A 
ATOM      5  C5  DEN d   1      -0.838   2.035   2.691  0.00  0.00    -0.003 A 
ATOM      6  C6  DEN d   1       0.467   1.641   2.831  0.00  0.00     0.001 A 
ATOM      7  C7  DEN d   1       1.286   1.603   1.734  0.00  0.00     0.017 A 
ATOM      8  C8  DEN d   1       0.746   1.921   0.495  0.00  0.00    -0.094 A 
ATOM      9  C9  DEN d   1      -0.572   2.329   0.376  0.00  0.00    -0.072 A 
ENDROOT
TORSDOF 0
ENDMDL
