MODEL 1
REMARK minimizedAffinity 5.76993942
REMARK minimizedRMSD -1
REMARK  0 active torsions:
REMARK  status: ('A' for Active; 'I' for Inactive)
ROOT
ATOM      1  C1  DEN d   1       1.275   3.348  -0.377  0.00  0.00     0.130 A 
ATOM      2  C2  DEN d   1       0.432   3.349  -1.569  0.00  0.00    -0.031 A 
ATOM      3  C3  DEN d   1      -0.938   2.981  -1.160  0.00  0.00     0.027 A 
ATOM      4  C4  DEN d   1      -1.832   2.416   1.193  0.00  0.00     0.027 A 
ATOM      5  C5  DEN d   1      -1.490   2.272   2.519  0.00  0.00    -0.003 A 
ATOM      6  C6  DEN d   1      -0.205   2.441   2.964  0.00  0.00     0.001 A 
ATOM      7  C7  DEN d   1       0.776   2.810   2.082  0.00  0.00     0.017 A 
ATOM      8  C8  DEN d   1       0.440   2.950   0.742  0.00  0.00    -0.094 A 
ATOM      9  C9  DEN d   1      -0.867   2.786   0.313  0.00  0.00    -0.072 A 
ENDROOT
TORSDOF 0
ENDMDL
