MODEL 1
REMARK minimizedAffinity 4.39044809
REMARK minimizedRMSD -1
REMARK  2 active torsions:
REMARK  status: ('A' for Active; 'I' for Inactive)
REMARK    1  A    between atoms: C2'_3  and  C1'_4 
REMARK    2  A    between atoms: C1'_4  and  C1_5 
ROOT
ATOM      1  C1  I4B d   1      -3.703  -2.227   3.633  0.00  0.00    -0.075 A 
ATOM      2  C2  I4B d   1      -4.308  -3.449   3.476  0.00  0.00     0.003 A 
ATOM      3  C3  I4B d   1      -4.882  -4.109   4.589  0.00  0.00     0.002 A 
ATOM      4  C4  I4B d   1      -4.785  -3.538   5.842  0.00  0.00    -0.004 A 
ATOM      5  C5  I4B d   1      -4.192  -2.288   5.996  0.00  0.00     0.002 A 
ATOM      6  C6  I4B d   1      -3.659  -1.622   4.883  0.00  0.00     0.003 A 
ENDROOT
BRANCH   1   7
ATOM      7  C1' I4B d   1      -3.078  -1.573   2.442  0.00  0.00     0.060 C 
BRANCH   7   8
ATOM      8  C2' I4B d   1      -3.852  -2.005   1.213  0.00  0.00    -0.013 C 
ATOM      9  C4' I4B d   1      -4.118  -0.838   0.298  0.00  0.00     0.013 C 
ATOM     10  C3' I4B d   1      -3.058  -3.069   0.515  0.00  0.00     0.013 C 
ENDBRANCH   7   8
ENDBRANCH   1   7
TORSDOF 2
ENDMDL
