MODEL 1
REMARK minimizedAffinity 11.5953207
REMARK minimizedRMSD -1
REMARK  2 active torsions:
REMARK  status: ('A' for Active; 'I' for Inactive)
REMARK    1  A    between atoms: C2'_3  and  C1'_4 
REMARK    2  A    between atoms: C1'_4  and  C1_5 
ROOT
ATOM      1  C1  I4B d   1      -1.858   4.791   5.150  0.00  0.00    -0.075 A 
ATOM      2  C2  I4B d   1      -0.779   4.144   5.699  0.00  0.00     0.003 A 
ATOM      3  C3  I4B d   1       0.369   3.881   4.913  0.00  0.00     0.002 A 
ATOM      4  C4  I4B d   1       0.375   4.233   3.579  0.00  0.00    -0.004 A 
ATOM      5  C5  I4B d   1      -0.711   4.909   3.031  0.00  0.00     0.002 A 
ATOM      6  C6  I4B d   1      -1.830   5.201   3.824  0.00  0.00     0.003 A 
ENDROOT
BRANCH   1   7
ATOM      7  C1' I4B d   1      -3.067   5.024   6.000  0.00  0.00     0.060 C 
BRANCH   7   8
ATOM      8  C2' I4B d   1      -4.195   4.176   5.449  0.00  0.00    -0.013 C 
ATOM      9  C4' I4B d   1      -4.143   2.775   6.000  0.00  0.00     0.013 C 
ATOM     10  C3' I4B d   1      -5.491   4.846   5.796  0.00  0.00     0.013 C 
ENDBRANCH   7   8
ENDBRANCH   1   7
TORSDOF 2
ENDMDL
