MODEL 1
REMARK minimizedAffinity 16.8314152
REMARK minimizedRMSD -1
REMARK  2 active torsions:
REMARK  status: ('A' for Active; 'I' for Inactive)
REMARK    1  A    between atoms: C2'_3  and  C1'_4 
REMARK    2  A    between atoms: C1'_4  and  C1_5 
ROOT
ATOM      1  C1  I4B d   1       3.378   0.404  -4.292  0.00  0.00    -0.075 A 
ATOM      2  C2  I4B d   1       2.993  -0.785  -4.859  0.00  0.00     0.003 A 
ATOM      3  C3  I4B d   1       2.551  -1.855  -4.043  0.00  0.00     0.002 A 
ATOM      4  C4  I4B d   1       2.559  -1.710  -2.671  0.00  0.00    -0.004 A 
ATOM      5  C5  I4B d   1       2.927  -0.496  -2.098  0.00  0.00     0.002 A 
ATOM      6  C6  I4B d   1       3.328   0.572  -2.914  0.00  0.00     0.003 A 
ENDROOT
BRANCH   1   7
ATOM      7  C1' I4B d   1       3.870   1.501  -5.181  0.00  0.00     0.060 C 
BRANCH   7   8
ATOM      8  C2' I4B d   1       2.690   2.388  -5.524  0.00  0.00    -0.013 C 
ATOM      9  C4' I4B d   1       1.779   2.567  -4.338  0.00  0.00     0.013 C 
ATOM     10  C3' I4B d   1       3.225   3.706  -6.000  0.00  0.00     0.013 C 
ENDBRANCH   7   8
ENDBRANCH   1   7
TORSDOF 2
ENDMDL
