MODEL 1
REMARK minimizedAffinity 5.77447748
REMARK minimizedRMSD -1
REMARK  2 active torsions:
REMARK  status: ('A' for Active; 'I' for Inactive)
REMARK    1  A    between atoms: C2'_3  and  C1'_4 
REMARK    2  A    between atoms: C1'_4  and  C1_5 
ROOT
ATOM      1  C1  I4B d   1       2.636   1.865  -2.233  0.00  0.00    -0.075 A 
ATOM      2  C2  I4B d   1       2.129   2.738  -3.163  0.00  0.00     0.003 A 
ATOM      3  C3  I4B d   1       2.469   2.599  -4.530  0.00  0.00     0.002 A 
ATOM      4  C4  I4B d   1       3.353   1.612  -4.914  0.00  0.00    -0.004 A 
ATOM      5  C5  I4B d   1       3.848   0.714  -3.973  0.00  0.00     0.002 A 
ATOM      6  C6  I4B d   1       3.478   0.833  -2.626  0.00  0.00     0.003 A 
ENDROOT
BRANCH   1   7
ATOM      7  C1' I4B d   1       2.282   2.061  -0.792  0.00  0.00     0.060 C 
BRANCH   7   8
ATOM      8  C2' I4B d   1       2.901   0.926  -0.002  0.00  0.00    -0.013 C 
ATOM      9  C4' I4B d   1       4.217   1.338   0.603  0.00  0.00     0.013 C 
ATOM     10  C3' I4B d   1       1.923   0.514   1.058  0.00  0.00     0.013 C 
ENDBRANCH   7   8
ENDBRANCH   1   7
TORSDOF 2
ENDMDL
