MODEL 1
REMARK minimizedAffinity 10.1679678
REMARK minimizedRMSD -1
REMARK  2 active torsions:
REMARK  status: ('A' for Active; 'I' for Inactive)
REMARK    1  A    between atoms: C2'_3  and  C1'_4 
REMARK    2  A    between atoms: C1'_4  and  C1_5 
ROOT
ATOM      1  C1  I4B d   1      -3.336   1.386   2.654  0.00  0.00    -0.075 A 
ATOM      2  C2  I4B d   1      -4.278   1.178   1.678  0.00  0.00     0.003 A 
ATOM      3  C3  I4B d   1      -5.625   1.558   1.895  0.00  0.00     0.002 A 
ATOM      4  C4  I4B d   1      -5.992   2.092   3.113  0.00  0.00    -0.004 A 
ATOM      5  C5  I4B d   1      -5.031   2.323   4.093  0.00  0.00     0.002 A 
ATOM      6  C6  I4B d   1      -3.692   1.979   3.858  0.00  0.00     0.003 A 
ENDROOT
BRANCH   1   7
ATOM      7  C1' I4B d   1      -1.929   0.942   2.404  0.00  0.00     0.060 C 
BRANCH   7   8
ATOM      8  C2' I4B d   1      -1.820   0.535   0.949  0.00  0.00    -0.013 C 
ATOM      9  C4' I4B d   1      -0.430   0.772   0.419  0.00  0.00     0.013 C 
ATOM     10  C3' I4B d   1      -2.200  -0.912   0.843  0.00  0.00     0.013 C 
ENDBRANCH   7   8
ENDBRANCH   1   7
TORSDOF 2
ENDMDL
