MODEL 1
REMARK minimizedAffinity 7.05925989
REMARK minimizedRMSD -1
REMARK  2 active torsions:
REMARK  status: ('A' for Active; 'I' for Inactive)
REMARK    1  A    between atoms: C2'_3  and  C1'_4 
REMARK    2  A    between atoms: C1'_4  and  C1_5 
ROOT
ATOM      1  C1  I4B d   1       3.174   2.735  -5.974  0.00  0.00    -0.075 A 
ATOM      2  C2  I4B d   1       2.007   2.015  -5.924  0.00  0.00     0.003 A 
ATOM      3  C3  I4B d   1       0.759   2.682  -5.887  0.00  0.00     0.002 A 
ATOM      4  C4  I4B d   1       0.726   4.061  -5.850  0.00  0.00    -0.004 A 
ATOM      5  C5  I4B d   1       1.909   4.790  -5.924  0.00  0.00     0.002 A 
ATOM      6  C6  I4B d   1       3.141   4.123  -5.999  0.00  0.00     0.003 A 
ENDROOT
BRANCH   1   7
ATOM      7  C1' I4B d   1       4.476   1.999  -5.979  0.00  0.00     0.060 C 
BRANCH   7   8
ATOM      8  C2' I4B d   1       4.593   1.248  -4.668  0.00  0.00    -0.013 C 
ATOM      9  C4' I4B d   1       4.231  -0.204  -4.837  0.00  0.00     0.013 C 
ATOM     10  C3' I4B d   1       6.000   1.402  -4.171  0.00  0.00     0.013 C 
ENDBRANCH   7   8
ENDBRANCH   1   7
TORSDOF 2
ENDMDL
