MODEL 1
REMARK minimizedAffinity 9.52597904
REMARK minimizedRMSD -1
REMARK  2 active torsions:
REMARK  status: ('A' for Active; 'I' for Inactive)
REMARK    1  A    between atoms: C2'_3  and  C1'_4 
REMARK    2  A    between atoms: C1'_4  and  C1_5 
ROOT
ATOM      1  C1  I4B d   1      -2.983   1.399   3.155  0.00  0.00    -0.075 A 
ATOM      2  C2  I4B d   1      -1.651   1.076   3.084  0.00  0.00     0.003 A 
ATOM      3  C3  I4B d   1      -1.101   0.582   1.877  0.00  0.00     0.002 A 
ATOM      4  C4  I4B d   1      -1.923   0.381   0.787  0.00  0.00    -0.004 A 
ATOM      5  C5  I4B d   1      -3.269   0.731   0.853  0.00  0.00     0.002 A 
ATOM      6  C6  I4B d   1      -3.800   1.255   2.041  0.00  0.00     0.003 A 
ENDROOT
BRANCH   1   7
ATOM      7  C1' I4B d   1      -3.539   1.887   4.455  0.00  0.00     0.060 C 
BRANCH   7   8
ATOM      8  C2' I4B d   1      -4.482   0.827   4.987  0.00  0.00    -0.013 C 
ATOM      9  C4' I4B d   1      -3.738  -0.219   5.775  0.00  0.00     0.013 C 
ATOM     10  C3' I4B d   1      -5.515   1.509   5.833  0.00  0.00     0.013 C 
ENDBRANCH   7   8
ENDBRANCH   1   7
TORSDOF 2
ENDMDL
