MODEL 1
REMARK minimizedAffinity -3.40017986
REMARK minimizedRMSD -1
REMARK  2 active torsions:
REMARK  status: ('A' for Active; 'I' for Inactive)
REMARK    1  A    between atoms: C2'_3  and  C1'_4 
REMARK    2  A    between atoms: C1'_4  and  C1_5 
ROOT
ATOM      1  C1  I4B d   1       0.137  -0.184  -0.629  0.00  0.00    -0.075 A 
ATOM      2  C2  I4B d   1      -1.220   0.022  -0.660  0.00  0.00     0.003 A 
ATOM      3  C3  I4B d   1      -1.905   0.432   0.509  0.00  0.00     0.002 A 
ATOM      4  C4  I4B d   1      -1.208   0.574   1.692  0.00  0.00    -0.004 A 
ATOM      5  C5  I4B d   1       0.171   0.386   1.716  0.00  0.00     0.002 A 
ATOM      6  C6  I4B d   1       0.850   0.017   0.546  0.00  0.00     0.003 A 
ENDROOT
BRANCH   1   7
ATOM      7  C1' I4B d   1       0.824  -0.648  -1.874  0.00  0.00     0.060 C 
BRANCH   7   8
ATOM      8  C2' I4B d   1       0.320   0.195  -3.027  0.00  0.00    -0.013 C 
ATOM      9  C4' I4B d   1       1.433   1.007  -3.636  0.00  0.00     0.013 C 
ATOM     10  C3' I4B d   1      -0.295  -0.725  -4.040  0.00  0.00     0.013 C 
ENDBRANCH   7   8
ENDBRANCH   1   7
TORSDOF 2
ENDMDL
