MODEL 1
REMARK minimizedAffinity -4.58765316
REMARK minimizedRMSD -1
REMARK  2 active torsions:
REMARK  status: ('A' for Active; 'I' for Inactive)
REMARK    1  A    between atoms: C2'_3  and  C1'_4 
REMARK    2  A    between atoms: C1'_4  and  C1_5 
ROOT
ATOM      1  C1  I4B d   1       0.220  -0.102   0.132  0.00  0.00    -0.075 A 
ATOM      2  C2  I4B d   1      -1.064   0.382   0.158  0.00  0.00     0.003 A 
ATOM      3  C3  I4B d   1      -1.579   0.975   1.336  0.00  0.00     0.002 A 
ATOM      4  C4  I4B d   1      -0.798   1.017   2.473  0.00  0.00    -0.004 A 
ATOM      5  C5  I4B d   1       0.512   0.546   2.438  0.00  0.00     0.002 A 
ATOM      6  C6  I4B d   1       1.029  -0.006   1.257  0.00  0.00     0.003 A 
ENDROOT
BRANCH   1   7
ATOM      7  C1' I4B d   1       0.721  -0.752  -1.119  0.00  0.00     0.060 C 
BRANCH   7   8
ATOM      8  C2' I4B d   1       0.436   0.183  -2.276  0.00  0.00    -0.013 C 
ATOM      9  C4' I4B d   1       1.696   0.852  -2.759  0.00  0.00     0.013 C 
ATOM     10  C3' I4B d   1      -0.205  -0.617  -3.371  0.00  0.00     0.013 C 
ENDBRANCH   7   8
ENDBRANCH   1   7
TORSDOF 2
ENDMDL
