MODEL 1
REMARK minimizedAffinity -4.73585463
REMARK minimizedRMSD -1
REMARK  2 active torsions:
REMARK  status: ('A' for Active; 'I' for Inactive)
REMARK    1  A    between atoms: C2'_3  and  C1'_4 
REMARK    2  A    between atoms: C1'_4  and  C1_5 
ROOT
ATOM      1  C1  I4B d   1      -0.001  -0.449  -0.386  0.00  0.00    -0.075 A 
ATOM      2  C2  I4B d   1       0.558  -0.004   0.786  0.00  0.00     0.003 A 
ATOM      3  C3  I4B d   1      -0.251   0.609   1.773  0.00  0.00     0.002 A 
ATOM      4  C4  I4B d   1      -1.596   0.801   1.527  0.00  0.00    -0.004 A 
ATOM      5  C5  I4B d   1      -2.164   0.328   0.348  0.00  0.00     0.002 A 
ATOM      6  C6  I4B d   1      -1.364  -0.312  -0.610  0.00  0.00     0.003 A 
ENDROOT
BRANCH   1   7
ATOM      7  C1' I4B d   1       0.889  -1.062  -1.421  0.00  0.00     0.060 C 
BRANCH   7   8
ATOM      8  C2' I4B d   1       0.615  -0.370  -2.741  0.00  0.00    -0.013 C 
ATOM      9  C4' I4B d   1       1.720   0.590  -3.093  0.00  0.00     0.013 C 
ATOM     10  C3' I4B d   1       0.459  -1.427  -3.794  0.00  0.00     0.013 C 
ENDBRANCH   7   8
ENDBRANCH   1   7
TORSDOF 2
ENDMDL
