MODEL 1
REMARK minimizedAffinity -4.21408987
REMARK minimizedRMSD -1
REMARK  2 active torsions:
REMARK  status: ('A' for Active; 'I' for Inactive)
REMARK    1  A    between atoms: C2'_3  and  C1'_4 
REMARK    2  A    between atoms: C1'_4  and  C1_5 
ROOT
ATOM      1  C1  I4B d   1       0.111  -0.156  -0.155  0.00  0.00    -0.075 A 
ATOM      2  C2  I4B d   1      -1.251  -0.238  -0.004  0.00  0.00     0.003 A 
ATOM      3  C3  I4B d   1      -1.892   0.435   1.065  0.00  0.00     0.002 A 
ATOM      4  C4  I4B d   1      -1.132   1.132   1.981  0.00  0.00    -0.004 A 
ATOM      5  C5  I4B d   1       0.246   1.234   1.814  0.00  0.00     0.002 A 
ATOM      6  C6  I4B d   1       0.870   0.596   0.732  0.00  0.00     0.003 A 
ENDROOT
BRANCH   1   7
ATOM      7  C1' I4B d   1       0.758  -0.906  -1.275  0.00  0.00     0.060 C 
BRANCH   7   8
ATOM      8  C2' I4B d   1       0.590  -0.092  -2.541  0.00  0.00    -0.013 C 
ATOM      9  C4' I4B d   1       1.805   0.756  -2.810  0.00  0.00     0.013 C 
ATOM     10  C3' I4B d   1       0.332  -1.042  -3.672  0.00  0.00     0.013 C 
ENDBRANCH   7   8
ENDBRANCH   1   7
TORSDOF 2
ENDMDL
