MODEL 1
REMARK minimizedAffinity -3.80720782
REMARK minimizedRMSD -1
REMARK  2 active torsions:
REMARK  status: ('A' for Active; 'I' for Inactive)
REMARK    1  A    between atoms: C2'_3  and  C1'_4 
REMARK    2  A    between atoms: C1'_4  and  C1_5 
ROOT
ATOM      1  C1  I4B d   1      -0.364  -0.069   0.553  0.00  0.00    -0.075 A 
ATOM      2  C2  I4B d   1      -1.566   0.207   1.155  0.00  0.00     0.003 A 
ATOM      3  C3  I4B d   1      -1.601   0.837   2.423  0.00  0.00     0.002 A 
ATOM      4  C4  I4B d   1      -0.417   1.126   3.070  0.00  0.00    -0.004 A 
ATOM      5  C5  I4B d   1       0.801   0.867   2.448  0.00  0.00     0.002 A 
ATOM      6  C6  I4B d   1       0.828   0.277   1.176  0.00  0.00     0.003 A 
ENDROOT
BRANCH   1   7
ATOM      7  C1' I4B d   1      -0.364  -0.765  -0.771  0.00  0.00     0.060 C 
BRANCH   7   8
ATOM      8  C2' I4B d   1       1.055  -0.759  -1.302  0.00  0.00    -0.013 C 
ATOM      9  C4' I4B d   1       1.809  -1.984  -0.856  0.00  0.00     0.013 C 
ATOM     10  C3' I4B d   1       0.990  -0.678  -2.798  0.00  0.00     0.013 C 
ENDBRANCH   7   8
ENDBRANCH   1   7
TORSDOF 2
ENDMDL
