MODEL 1
REMARK minimizedAffinity -5.14404297
REMARK minimizedRMSD -1
REMARK  2 active torsions:
REMARK  status: ('A' for Active; 'I' for Inactive)
REMARK    1  A    between atoms: C2'_3  and  C1'_4 
REMARK    2  A    between atoms: C1'_4  and  C1_5 
ROOT
ATOM      1  C1  I4B d   1       0.431   0.817   1.566  0.00  0.00    -0.075 A 
ATOM      2  C2  I4B d   1      -0.527   1.408   2.352  0.00  0.00     0.003 A 
ATOM      3  C3  I4B d   1      -0.455   1.306   3.762  0.00  0.00     0.002 A 
ATOM      4  C4  I4B d   1       0.558   0.568   4.339  0.00  0.00    -0.004 A 
ATOM      5  C5  I4B d   1       1.542  -0.011   3.542  0.00  0.00     0.002 A 
ATOM      6  C6  I4B d   1       1.485   0.125   2.147  0.00  0.00     0.003 A 
ENDROOT
BRANCH   1   7
ATOM      7  C1' I4B d   1       0.305   0.916   0.079  0.00  0.00     0.060 C 
BRANCH   7   8
ATOM      8  C2' I4B d   1      -0.186  -0.421  -0.438  0.00  0.00    -0.013 C 
ATOM      9  C4' I4B d   1      -1.677  -0.555  -0.274  0.00  0.00     0.013 C 
ATOM     10  C3' I4B d   1       0.213  -0.534  -1.880  0.00  0.00     0.013 C 
ENDBRANCH   7   8
ENDBRANCH   1   7
TORSDOF 2
ENDMDL
