MODEL 1
REMARK minimizedAffinity -5.25806141
REMARK minimizedRMSD -1
REMARK  2 active torsions:
REMARK  status: ('A' for Active; 'I' for Inactive)
REMARK    1  A    between atoms: C2'_3  and  C1'_4 
REMARK    2  A    between atoms: C1'_4  and  C1_5 
ROOT
ATOM      1  C1  I4B d   1      -0.251   0.222   1.076  0.00  0.00    -0.075 A 
ATOM      2  C2  I4B d   1      -1.199   1.047   1.628  0.00  0.00     0.003 A 
ATOM      3  C3  I4B d   1      -1.087   1.459   2.978  0.00  0.00     0.002 A 
ATOM      4  C4  I4B d   1      -0.045   0.985   3.749  0.00  0.00    -0.004 A 
ATOM      5  C5  I4B d   1       0.928   0.167   3.181  0.00  0.00     0.002 A 
ATOM      6  C6  I4B d   1       0.831  -0.208   1.833  0.00  0.00     0.003 A 
ENDROOT
BRANCH   1   7
ATOM      7  C1' I4B d   1      -0.419  -0.221  -0.343  0.00  0.00     0.060 C 
BRANCH   7   8
ATOM      8  C2' I4B d   1       0.954  -0.551  -0.894  0.00  0.00    -0.013 C 
ATOM      9  C4' I4B d   1       1.303  -1.996  -0.656  0.00  0.00     0.013 C 
ATOM     10  C3' I4B d   1       0.954  -0.228  -2.358  0.00  0.00     0.013 C 
ENDBRANCH   7   8
ENDBRANCH   1   7
TORSDOF 2
ENDMDL
