MODEL 1
REMARK minimizedAffinity -6.4022913
REMARK minimizedRMSD -1
REMARK  2 active torsions:
REMARK  status: ('A' for Active; 'I' for Inactive)
REMARK    1  A    between atoms: C2'_3  and  C1'_4 
REMARK    2  A    between atoms: C1'_4  and  C1_5 
ROOT
ATOM      1  C1  I4B d   1      -0.027  -0.143  -0.238  0.00  0.00    -0.075 A 
ATOM      2  C2  I4B d   1       0.550   0.159   0.970  0.00  0.00     0.003 A 
ATOM      3  C3  I4B d   1      -0.217   0.764   1.996  0.00  0.00     0.002 A 
ATOM      4  C4  I4B d   1      -1.535   1.094   1.754  0.00  0.00    -0.004 A 
ATOM      5  C5  I4B d   1      -2.124   0.767   0.536  0.00  0.00     0.002 A 
ATOM      6  C6  I4B d   1      -1.370   0.133  -0.462  0.00  0.00     0.003 A 
ENDROOT
BRANCH   1   7
ATOM      7  C1' I4B d   1       0.820  -0.751  -1.310  0.00  0.00     0.060 C 
BRANCH   7   8
ATOM      8  C2' I4B d   1       0.508  -0.042  -2.611  0.00  0.00    -0.013 C 
ATOM      9  C4' I4B d   1       1.647   0.847  -3.035  0.00  0.00     0.013 C 
ATOM     10  C3' I4B d   1       0.219  -1.085  -3.649  0.00  0.00     0.013 C 
ENDBRANCH   7   8
ENDBRANCH   1   7
TORSDOF 2
ENDMDL
