MODEL 1
REMARK minimizedAffinity -5.63036823
REMARK minimizedRMSD -1
REMARK  2 active torsions:
REMARK  status: ('A' for Active; 'I' for Inactive)
REMARK    1  A    between atoms: C2'_3  and  C1'_4 
REMARK    2  A    between atoms: C1'_4  and  C1_5 
ROOT
ATOM      1  C1  I4B d   1       0.077  -0.383  -0.183  0.00  0.00    -0.075 A 
ATOM      2  C2  I4B d   1       0.802  -0.151   0.959  0.00  0.00     0.003 A 
ATOM      3  C3  I4B d   1       0.176   0.405   2.100  0.00  0.00     0.002 A 
ATOM      4  C4  I4B d   1      -1.157   0.758   2.040  0.00  0.00    -0.004 A 
ATOM      5  C5  I4B d   1      -1.896   0.501   0.890  0.00  0.00     0.002 A 
ATOM      6  C6  I4B d   1      -1.279  -0.085  -0.225  0.00  0.00     0.003 A 
ENDROOT
BRANCH   1   7
ATOM      7  C1' I4B d   1       0.778  -0.941  -1.381  0.00  0.00     0.060 C 
BRANCH   7   8
ATOM      8  C2' I4B d   1       0.484  -0.033  -2.558  0.00  0.00    -0.013 C 
ATOM      9  C4' I4B d   1       1.718   0.711  -2.995  0.00  0.00     0.013 C 
ATOM     10  C3' I4B d   1      -0.060  -0.879  -3.671  0.00  0.00     0.013 C 
ENDBRANCH   7   8
ENDBRANCH   1   7
TORSDOF 2
ENDMDL
