MODEL 1
REMARK minimizedAffinity 1.07693601
REMARK minimizedRMSD -1
REMARK  0 active torsions:
REMARK  status: ('A' for Active; 'I' for Inactive)
ROOT
ATOM      1  C4' PXY d   1       3.029   5.092  -5.999  0.00  0.00     0.077 C 
ATOM      2  C1' PXY d   1      -2.297   2.845  -5.975  0.00  0.00     0.077 C 
ATOM      3  C1  PXY d   1      -0.896   3.423  -5.976  0.00  0.00    -0.082 A 
ATOM      4  C2  PXY d   1      -0.730   4.736  -5.967  0.00  0.00     0.003 A 
ATOM      5  C3  PXY d   1       0.530   5.276  -6.000  0.00  0.00     0.003 A 
ATOM      6  C4  PXY d   1       1.633   4.464  -5.989  0.00  0.00    -0.082 A 
ATOM      7  C5  PXY d   1       1.472   3.123  -5.988  0.00  0.00     0.003 A 
ATOM      8  C6  PXY d   1       0.184   2.595  -5.996  0.00  0.00     0.003 A 
ENDROOT
TORSDOF 0
ENDMDL
