MODEL 1
REMARK minimizedAffinity -2.24860406
REMARK minimizedRMSD -1
REMARK  0 active torsions:
REMARK  status: ('A' for Active; 'I' for Inactive)
ROOT
ATOM      1  C4' PXY d   1       0.571   2.618  -5.982  0.00  0.00     0.077 C 
ATOM      2  C1' PXY d   1      -4.116   6.000  -5.992  0.00  0.00     0.077 C 
ATOM      3  C1  PXY d   1      -2.894   5.103  -5.984  0.00  0.00    -0.082 A 
ATOM      4  C2  PXY d   1      -1.686   5.644  -5.975  0.00  0.00     0.003 A 
ATOM      5  C3  PXY d   1      -0.570   4.848  -6.000  0.00  0.00     0.003 A 
ATOM      6  C4  PXY d   1      -0.691   3.484  -5.981  0.00  0.00    -0.082 A 
ATOM      7  C5  PXY d   1      -1.920   2.925  -5.980  0.00  0.00     0.003 A 
ATOM      8  C6  PXY d   1      -3.040   3.750  -5.996  0.00  0.00     0.003 A 
ENDROOT
TORSDOF 0
ENDMDL
