MODEL 1
REMARK minimizedAffinity -2.08312321
REMARK minimizedRMSD -1
REMARK  0 active torsions:
REMARK  status: ('A' for Active; 'I' for Inactive)
ROOT
ATOM      1  C4' PXY d   1       2.228   5.773  -5.994  0.00  0.00     0.077 C 
ATOM      2  C1' PXY d   1      -2.980   3.264  -5.985  0.00  0.00     0.077 C 
ATOM      3  C1  PXY d   1      -1.619   3.933  -5.993  0.00  0.00    -0.082 A 
ATOM      4  C2  PXY d   1      -0.525   3.189  -6.000  0.00  0.00     0.003 A 
ATOM      5  C3  PXY d   1       0.713   3.777  -5.975  0.00  0.00     0.003 A 
ATOM      6  C4  PXY d   1       0.833   5.141  -5.996  0.00  0.00    -0.082 A 
ATOM      7  C5  PXY d   1      -0.278   5.906  -5.999  0.00  0.00     0.003 A 
ATOM      8  C6  PXY d   1      -1.526   5.290  -5.983  0.00  0.00     0.003 A 
ENDROOT
TORSDOF 0
ENDMDL
