MODEL 1
REMARK minimizedAffinity 0.220620245
REMARK minimizedRMSD -1
REMARK  0 active torsions:
REMARK  status: ('A' for Active; 'I' for Inactive)
ROOT
ATOM      1  C4' PXY d   1       1.469   3.260  -3.301  0.00  0.00     0.077 C 
ATOM      2  C1' PXY d   1      -2.850   5.996  -6.000  0.00  0.00     0.077 C 
ATOM      3  C1  PXY d   1      -1.718   5.269  -5.301  0.00  0.00    -0.082 A 
ATOM      4  C2  PXY d   1      -1.466   5.522  -4.027  0.00  0.00     0.003 A 
ATOM      5  C3  PXY d   1      -0.426   4.897  -3.388  0.00  0.00     0.003 A 
ATOM      6  C4  PXY d   1       0.330   3.964  -4.045  0.00  0.00    -0.082 A 
ATOM      7  C5  PXY d   1       0.073   3.692  -5.342  0.00  0.00     0.003 A 
ATOM      8  C6  PXY d   1      -0.961   4.368  -5.984  0.00  0.00     0.003 A 
ENDROOT
TORSDOF 0
ENDMDL
