MODEL 1
REMARK minimizedAffinity -0.34546569
REMARK minimizedRMSD -1
REMARK  0 active torsions:
REMARK  status: ('A' for Active; 'I' for Inactive)
ROOT
ATOM      1  C4' PXY d   1      -3.362   2.980  -5.989  0.00  0.00     0.077 C 
ATOM      2  C1' PXY d   1       1.870   5.437  -5.987  0.00  0.00     0.077 C 
ATOM      3  C1  PXY d   1       0.493   4.804  -5.983  0.00  0.00    -0.082 A 
ATOM      4  C2  PXY d   1       0.379   3.486  -5.971  0.00  0.00     0.003 A 
ATOM      5  C3  PXY d   1      -0.858   2.896  -5.999  0.00  0.00     0.003 A 
ATOM      6  C4  PXY d   1      -1.992   3.663  -5.985  0.00  0.00    -0.082 A 
ATOM      7  C5  PXY d   1      -1.885   5.009  -5.985  0.00  0.00     0.003 A 
ATOM      8  C6  PXY d   1      -0.619   5.588  -5.998  0.00  0.00     0.003 A 
ENDROOT
TORSDOF 0
ENDMDL
