MODEL 1
REMARK minimizedAffinity -0.305813998
REMARK minimizedRMSD -1
REMARK  0 active torsions:
REMARK  status: ('A' for Active; 'I' for Inactive)
ROOT
ATOM      1  C4' PXY d   1      -3.556   5.997  -5.995  0.00  0.00     0.077 C 
ATOM      2  C1' PXY d   1       0.809   2.208  -5.983  0.00  0.00     0.077 C 
ATOM      3  C1  PXY d   1      -0.343   3.192  -5.992  0.00  0.00    -0.082 A 
ATOM      4  C2  PXY d   1      -0.093   4.492  -5.999  0.00  0.00     0.003 A 
ATOM      5  C3  PXY d   1      -1.124   5.396  -5.974  0.00  0.00     0.003 A 
ATOM      6  C4  PXY d   1      -2.423   4.967  -5.996  0.00  0.00    -0.082 A 
ATOM      7  C5  PXY d   1      -2.687   3.643  -6.000  0.00  0.00     0.003 A 
ATOM      8  C6  PXY d   1      -1.627   2.741  -5.983  0.00  0.00     0.003 A 
ENDROOT
TORSDOF 0
ENDMDL
