MODEL 1
REMARK minimizedAffinity 0.862382948
REMARK minimizedRMSD -1
REMARK  0 active torsions:
REMARK  status: ('A' for Active; 'I' for Inactive)
ROOT
ATOM      1  C4' PXY d   1       2.484   5.278  -5.968  0.00  0.00     0.077 C 
ATOM      2  C1' PXY d   1      -2.670   2.661  -6.000  0.00  0.00     0.077 C 
ATOM      3  C1  PXY d   1      -1.324   3.358  -5.997  0.00  0.00    -0.082 A 
ATOM      4  C2  PXY d   1      -0.214   2.637  -5.999  0.00  0.00     0.003 A 
ATOM      5  C3  PXY d   1       1.012   3.251  -5.964  0.00  0.00     0.003 A 
ATOM      6  C4  PXY d   1       1.103   4.617  -5.980  0.00  0.00    -0.082 A 
ATOM      7  C5  PXY d   1      -0.024   5.359  -5.989  0.00  0.00     0.003 A 
ATOM      8  C6  PXY d   1      -1.259   4.717  -5.983  0.00  0.00     0.003 A 
ENDROOT
TORSDOF 0
ENDMDL
