MODEL 1
REMARK minimizedAffinity 7.09489536
REMARK minimizedRMSD -1
REMARK  0 active torsions:
REMARK  status: ('A' for Active; 'I' for Inactive)
ROOT
ATOM      1  C4' PXY d   1       2.371  -1.681  -0.695  0.00  0.00     0.077 C 
ATOM      2  C1' PXY d   1      -2.099   1.029   1.772  0.00  0.00     0.077 C 
ATOM      3  C1  PXY d   1      -0.927   0.310   1.135  0.00  0.00    -0.082 A 
ATOM      4  C2  PXY d   1      -0.111   0.973   0.331  0.00  0.00     0.003 A 
ATOM      5  C3  PXY d   1       0.935   0.330  -0.279  0.00  0.00     0.003 A 
ATOM      6  C4  PXY d   1       1.181  -0.993  -0.022  0.00  0.00    -0.082 A 
ATOM      7  C5  PXY d   1       0.359  -1.673   0.805  0.00  0.00     0.003 A 
ATOM      8  C6  PXY d   1      -0.721  -1.012   1.382  0.00  0.00     0.003 A 
ENDROOT
TORSDOF 0
ENDMDL
