MODEL 1
REMARK minimizedAffinity -4.07003498
REMARK minimizedRMSD -1
REMARK  0 active torsions:
REMARK  status: ('A' for Active; 'I' for Inactive)
ROOT
ATOM      1  C4' PXY d   1       4.808   4.392  -5.819  0.00  0.00     0.077 C 
ATOM      2  C1' PXY d   1      -0.753   2.824  -5.974  0.00  0.00     0.077 C 
ATOM      3  C1  PXY d   1       0.708   3.224  -5.927  0.00  0.00    -0.082 A 
ATOM      4  C2  PXY d   1       1.039   4.503  -6.000  0.00  0.00     0.003 A 
ATOM      5  C3  PXY d   1       2.357   4.880  -5.991  0.00  0.00     0.003 A 
ATOM      6  C4  PXY d   1       3.345   3.942  -5.853  0.00  0.00    -0.082 A 
ATOM      7  C5  PXY d   1       3.015   2.636  -5.767  0.00  0.00     0.003 A 
ATOM      8  C6  PXY d   1       1.673   2.271  -5.820  0.00  0.00     0.003 A 
ENDROOT
TORSDOF 0
ENDMDL
