MODEL 1
REMARK minimizedAffinity -0.3058981
REMARK minimizedRMSD -1
REMARK  0 active torsions:
REMARK  status: ('A' for Active; 'I' for Inactive)
ROOT
ATOM      1  C4' PXY d   1       1.706   5.609  -5.999  0.00  0.00     0.077 C 
ATOM      2  C1' PXY d   1      -3.168   2.501  -5.979  0.00  0.00     0.077 C 
ATOM      3  C1  PXY d   1      -1.883   3.306  -5.979  0.00  0.00    -0.082 A 
ATOM      4  C2  PXY d   1      -1.940   4.628  -5.968  0.00  0.00     0.003 A 
ATOM      5  C3  PXY d   1      -0.788   5.371  -6.000  0.00  0.00     0.003 A 
ATOM      6  C4  PXY d   1       0.434   4.756  -5.990  0.00  0.00    -0.082 A 
ATOM      7  C5  PXY d   1       0.501   3.407  -5.990  0.00  0.00     0.003 A 
ATOM      8  C6  PXY d   1      -0.680   2.671  -5.999  0.00  0.00     0.003 A 
ENDROOT
TORSDOF 0
ENDMDL
