MODEL 1
REMARK minimizedAffinity -1.08420467
REMARK minimizedRMSD -1
REMARK  0 active torsions:
REMARK  status: ('A' for Active; 'I' for Inactive)
ROOT
ATOM      1  C4' PXY d   1       1.355   2.256  -6.000  0.00  0.00     0.077 C 
ATOM      2  C1' PXY d   1      -3.066   5.980  -5.963  0.00  0.00     0.077 C 
ATOM      3  C1  PXY d   1      -1.899   5.012  -5.978  0.00  0.00    -0.082 A 
ATOM      4  C2  PXY d   1      -2.130   3.709  -5.991  0.00  0.00     0.003 A 
ATOM      5  C3  PXY d   1      -1.086   2.820  -5.972  0.00  0.00     0.003 A 
ATOM      6  C4  PXY d   1       0.207   3.269  -5.994  0.00  0.00    -0.082 A 
ATOM      7  C5  PXY d   1       0.451   4.597  -5.992  0.00  0.00     0.003 A 
ATOM      8  C6  PXY d   1      -0.623   5.483  -5.969  0.00  0.00     0.003 A 
ENDROOT
TORSDOF 0
ENDMDL
