MODEL 1
REMARK minimizedAffinity -1.96078336
REMARK minimizedRMSD -1
REMARK  0 active torsions:
REMARK  status: ('A' for Active; 'I' for Inactive)
ROOT
ATOM      1  C4' PXY d   1       0.421   2.205  -5.978  0.00  0.00     0.077 C 
ATOM      2  C1' PXY d   1      -3.971   5.963  -6.000  0.00  0.00     0.077 C 
ATOM      3  C1  PXY d   1      -2.812   4.986  -5.999  0.00  0.00    -0.082 A 
ATOM      4  C2  PXY d   1      -3.052   3.685  -5.998  0.00  0.00     0.003 A 
ATOM      5  C3  PXY d   1      -2.016   2.788  -5.966  0.00  0.00     0.003 A 
ATOM      6  C4  PXY d   1      -0.719   3.227  -5.988  0.00  0.00    -0.082 A 
ATOM      7  C5  PXY d   1      -0.465   4.553  -6.000  0.00  0.00     0.003 A 
ATOM      8  C6  PXY d   1      -1.532   5.447  -5.991  0.00  0.00     0.003 A 
ENDROOT
TORSDOF 0
ENDMDL
