MODEL 1
REMARK minimizedAffinity 4.48148441
REMARK minimizedRMSD -1
REMARK  0 active torsions:
REMARK  status: ('A' for Active; 'I' for Inactive)
ROOT
ATOM      1  C4' PXY d   1       0.269   4.730  -5.930  0.00  0.00     0.077 C 
ATOM      2  C1' PXY d   1      -5.399   3.593  -5.963  0.00  0.00     0.077 C 
ATOM      3  C1  PXY d   1      -3.910   3.879  -5.949  0.00  0.00    -0.082 A 
ATOM      4  C2  PXY d   1      -3.485   5.132  -5.913  0.00  0.00     0.003 A 
ATOM      5  C3  PXY d   1      -2.143   5.409  -5.932  0.00  0.00     0.003 A 
ATOM      6  C4  PXY d   1      -1.225   4.393  -5.936  0.00  0.00    -0.082 A 
ATOM      7  C5  PXY d   1      -1.651   3.113  -5.962  0.00  0.00     0.003 A 
ATOM      8  C6  PXY d   1      -3.018   2.853  -5.984  0.00  0.00     0.003 A 
ENDROOT
TORSDOF 0
ENDMDL
