MODEL 1
REMARK minimizedAffinity 10.8507814
REMARK minimizedRMSD -1
REMARK  0 active torsions:
REMARK  status: ('A' for Active; 'I' for Inactive)
ROOT
ATOM      1  C4' PXY d   1       0.038  -4.179  -1.821  0.00  0.00     0.077 C 
ATOM      2  C1' PXY d   1       0.052   0.860   1.010  0.00  0.00     0.077 C 
ATOM      3  C1  PXY d   1       0.061  -0.459   0.264  0.00  0.00    -0.082 A 
ATOM      4  C2  PXY d   1      -1.082  -0.988  -0.142  0.00  0.00     0.003 A 
ATOM      5  C3  PXY d   1      -1.095  -2.197  -0.790  0.00  0.00     0.003 A 
ATOM      6  C4  PXY d   1       0.078  -2.844  -1.072  0.00  0.00    -0.082 A 
ATOM      7  C5  PXY d   1       1.249  -2.306  -0.671  0.00  0.00     0.003 A 
ATOM      8  C6  PXY d   1       1.238  -1.098   0.022  0.00  0.00     0.003 A 
ENDROOT
TORSDOF 0
ENDMDL
