MODEL 1
REMARK minimizedAffinity -2.32295656
REMARK minimizedRMSD -1
REMARK  0 active torsions:
REMARK  status: ('A' for Active; 'I' for Inactive)
ROOT
ATOM      1  C4' PXY d   1       0.449   2.941  -5.985  0.00  0.00     0.077 C 
ATOM      2  C1' PXY d   1      -4.456   6.000  -5.994  0.00  0.00     0.077 C 
ATOM      3  C1  PXY d   1      -3.176   5.188  -5.986  0.00  0.00    -0.082 A 
ATOM      4  C2  PXY d   1      -2.007   5.808  -5.975  0.00  0.00     0.003 A 
ATOM      5  C3  PXY d   1      -0.840   5.089  -6.000  0.00  0.00     0.003 A 
ATOM      6  C4  PXY d   1      -0.868   3.721  -5.983  0.00  0.00    -0.082 A 
ATOM      7  C5  PXY d   1      -2.057   3.080  -5.984  0.00  0.00     0.003 A 
ATOM      8  C6  PXY d   1      -3.230   3.828  -6.000  0.00  0.00     0.003 A 
ENDROOT
TORSDOF 0
ENDMDL
