MODEL 1
REMARK minimizedAffinity -1.69907534
REMARK minimizedRMSD -1
REMARK  0 active torsions:
REMARK  status: ('A' for Active; 'I' for Inactive)
ROOT
ATOM      1  C4' PXY d   1      -3.686   6.000  -5.985  0.00  0.00     0.077 C 
ATOM      2  C1' PXY d   1       0.556   2.073  -5.993  0.00  0.00     0.077 C 
ATOM      3  C1  PXY d   1      -0.548   3.111  -5.986  0.00  0.00    -0.082 A 
ATOM      4  C2  PXY d   1      -1.813   2.722  -5.974  0.00  0.00     0.003 A 
ATOM      5  C3  PXY d   1      -2.824   3.647  -6.000  0.00  0.00     0.003 A 
ATOM      6  C4  PXY d   1      -2.538   4.986  -5.983  0.00  0.00    -0.082 A 
ATOM      7  C5  PXY d   1      -1.251   5.392  -5.984  0.00  0.00     0.003 A 
ATOM      8  C6  PXY d   1      -0.239   4.436  -6.000  0.00  0.00     0.003 A 
ENDROOT
TORSDOF 0
ENDMDL
