MODEL 1
REMARK minimizedAffinity 4.71214247
REMARK minimizedRMSD -1
REMARK  0 active torsions:
REMARK  status: ('A' for Active; 'I' for Inactive)
ROOT
ATOM      1  C4' PXY d   1      -3.142   3.948  -4.114  0.00  0.00     0.077 C 
ATOM      2  C1' PXY d   1       2.274   4.682  -5.998  0.00  0.00     0.077 C 
ATOM      3  C1  PXY d   1       0.851   4.502  -5.507  0.00  0.00    -0.082 A 
ATOM      4  C2  PXY d   1       0.583   3.572  -4.605  0.00  0.00     0.003 A 
ATOM      5  C3  PXY d   1      -0.703   3.374  -4.174  0.00  0.00     0.003 A 
ATOM      6  C4  PXY d   1      -1.718   4.172  -4.631  0.00  0.00    -0.082 A 
ATOM      7  C5  PXY d   1      -1.451   5.130  -5.544  0.00  0.00     0.003 A 
ATOM      8  C6  PXY d   1      -0.145   5.287  -6.000  0.00  0.00     0.003 A 
ENDROOT
TORSDOF 0
ENDMDL
