MODEL 1
REMARK minimizedAffinity -2.41756463
REMARK minimizedRMSD -1
REMARK  0 active torsions:
REMARK  status: ('A' for Active; 'I' for Inactive)
ROOT
ATOM      1  C4' PXY d   1       2.123   2.364  -5.997  0.00  0.00     0.077 C 
ATOM      2  C1' PXY d   1      -2.381   5.988  -5.981  0.00  0.00     0.077 C 
ATOM      3  C1  PXY d   1      -1.208   5.028  -5.980  0.00  0.00    -0.082 A 
ATOM      4  C2  PXY d   1       0.027   5.505  -5.969  0.00  0.00     0.003 A 
ATOM      5  C3  PXY d   1       1.100   4.651  -6.000  0.00  0.00     0.003 A 
ATOM      6  C4  PXY d   1       0.908   3.296  -5.989  0.00  0.00    -0.082 A 
ATOM      7  C5  PXY d   1      -0.349   2.802  -5.990  0.00  0.00     0.003 A 
ATOM      8  C6  PXY d   1      -1.425   3.685  -6.000  0.00  0.00     0.003 A 
ENDROOT
TORSDOF 0
ENDMDL
