MODEL 1
REMARK minimizedAffinity -2.89930224
REMARK minimizedRMSD -1
REMARK  0 active torsions:
REMARK  status: ('A' for Active; 'I' for Inactive)
ROOT
ATOM      1  C4' PXY d   1      -4.229   3.749  -5.953  0.00  0.00     0.077 C 
ATOM      2  C1' PXY d   1       1.549   3.917  -6.000  0.00  0.00     0.077 C 
ATOM      3  C1  PXY d   1       0.034   3.885  -5.982  0.00  0.00    -0.082 A 
ATOM      4  C2  PXY d   1      -0.596   2.721  -5.969  0.00  0.00     0.003 A 
ATOM      5  C3  PXY d   1      -1.966   2.673  -5.986  0.00  0.00     0.003 A 
ATOM      6  C4  PXY d   1      -2.700   3.829  -5.961  0.00  0.00    -0.082 A 
ATOM      7  C5  PXY d   1      -2.065   5.020  -5.964  0.00  0.00     0.003 A 
ATOM      8  C6  PXY d   1      -0.673   5.047  -5.989  0.00  0.00     0.003 A 
ENDROOT
TORSDOF 0
ENDMDL
