MODEL 1
REMARK minimizedAffinity 3.45646119
REMARK minimizedRMSD -1
REMARK  0 active torsions:
REMARK  status: ('A' for Active; 'I' for Inactive)
ROOT
ATOM      1  C2' OXE d   1       1.755  -4.712   0.672  0.00  0.00     0.078 C 
ATOM      2  C1' OXE d   1       1.805  -1.942   1.125  0.00  0.00     0.078 C 
ATOM      3  C1  OXE d   1       3.103  -2.619   0.762  0.00  0.00    -0.078 A 
ATOM      4  C2  OXE d   1       3.078  -3.981   0.588  0.00  0.00    -0.078 A 
ATOM      5  C3  OXE d   1       4.237  -4.648   0.198  0.00  0.00     0.003 A 
ATOM      6  C4  OXE d   1       5.458  -3.966   0.133  0.00  0.00    -0.002 A 
ATOM      7  C5  OXE d   1       5.513  -2.585   0.345  0.00  0.00    -0.002 A 
ATOM      8  C6  OXE d   1       4.339  -1.890   0.618  0.00  0.00     0.003 A 
ENDROOT
TORSDOF 0
ENDMDL
