MODEL 1
REMARK minimizedAffinity 14.8227758
REMARK minimizedRMSD -1
REMARK  0 active torsions:
REMARK  status: ('A' for Active; 'I' for Inactive)
ROOT
ATOM      1  C2' OXE d   1      -6.000  -0.094  -4.156  0.00  0.00     0.078 C 
ATOM      2  C1' OXE d   1      -4.700   1.580  -5.997  0.00  0.00     0.078 C 
ATOM      3  C1  OXE d   1      -4.190   1.564  -4.578  0.00  0.00    -0.078 A 
ATOM      4  C2  OXE d   1      -4.861   0.778  -3.673  0.00  0.00    -0.078 A 
ATOM      5  C3  OXE d   1      -4.398   0.685  -2.364  0.00  0.00     0.003 A 
ATOM      6  C4  OXE d   1      -3.351   1.502  -1.922  0.00  0.00    -0.002 A 
ATOM      7  C5  OXE d   1      -2.678   2.340  -2.818  0.00  0.00    -0.002 A 
ATOM      8  C6  OXE d   1      -3.057   2.351  -4.156  0.00  0.00     0.003 A 
ENDROOT
TORSDOF 0
ENDMDL
