MODEL 1
REMARK minimizedAffinity 10.8747616
REMARK minimizedRMSD -1
REMARK  0 active torsions:
REMARK  status: ('A' for Active; 'I' for Inactive)
ROOT
ATOM      1  C2' OXE d   1       4.676   3.225  -5.258  0.00  0.00     0.078 C 
ATOM      2  C1' OXE d   1       4.727   5.970  -5.843  0.00  0.00     0.078 C 
ATOM      3  C1  OXE d   1       3.383   5.287  -5.789  0.00  0.00    -0.078 A 
ATOM      4  C2  OXE d   1       3.371   3.934  -5.548  0.00  0.00    -0.078 A 
ATOM      5  C3  OXE d   1       2.155   3.266  -5.433  0.00  0.00     0.003 A 
ATOM      6  C4  OXE d   1       0.953   3.927  -5.712  0.00  0.00    -0.002 A 
ATOM      7  C5  OXE d   1       0.946   5.296  -5.999  0.00  0.00    -0.002 A 
ATOM      8  C6  OXE d   1       2.146   5.998  -5.999  0.00  0.00     0.003 A 
ENDROOT
TORSDOF 0
ENDMDL
