MODEL 1
REMARK minimizedAffinity 5.28380013
REMARK minimizedRMSD -1
REMARK  0 active torsions:
REMARK  status: ('A' for Active; 'I' for Inactive)
ROOT
ATOM      1  C2' OXE d   1       6.000   2.314  -5.478  0.00  0.00     0.078 C 
ATOM      2  C1' OXE d   1       3.196   2.174  -5.458  0.00  0.00     0.078 C 
ATOM      3  C1  OXE d   1       3.832   3.526  -5.666  0.00  0.00    -0.078 A 
ATOM      4  C2  OXE d   1       5.204   3.592  -5.628  0.00  0.00    -0.078 A 
ATOM      5  C3  OXE d   1       5.842   4.805  -5.869  0.00  0.00     0.003 A 
ATOM      6  C4  OXE d   1       5.098   5.985  -5.996  0.00  0.00    -0.002 A 
ATOM      7  C5  OXE d   1       3.700   5.945  -5.998  0.00  0.00    -0.002 A 
ATOM      8  C6  OXE d   1       3.052   4.720  -5.878  0.00  0.00     0.003 A 
ENDROOT
TORSDOF 0
ENDMDL
