MODEL 1
REMARK minimizedAffinity 12.7350397
REMARK minimizedRMSD -1
REMARK  0 active torsions:
REMARK  status: ('A' for Active; 'I' for Inactive)
ROOT
ATOM      1  C2' OXE d   1       3.038   2.018  -4.629  0.00  0.00     0.078 C 
ATOM      2  C1' OXE d   1       1.131   4.074  -4.496  0.00  0.00     0.078 C 
ATOM      3  C1  OXE d   1       2.496   4.415  -5.040  0.00  0.00    -0.078 A 
ATOM      4  C2  OXE d   1       3.437   3.414  -5.057  0.00  0.00    -0.078 A 
ATOM      5  C3  OXE d   1       4.695   3.661  -5.599  0.00  0.00     0.003 A 
ATOM      6  C4  OXE d   1       5.060   4.957  -5.984  0.00  0.00    -0.002 A 
ATOM      7  C5  OXE d   1       4.128   5.999  -5.937  0.00  0.00    -0.002 A 
ATOM      8  C6  OXE d   1       2.832   5.737  -5.508  0.00  0.00     0.003 A 
ENDROOT
TORSDOF 0
ENDMDL
