MODEL 1
REMARK minimizedAffinity 16.9565792
REMARK minimizedRMSD -1
REMARK  0 active torsions:
REMARK  status: ('A' for Active; 'I' for Inactive)
ROOT
ATOM      1  C2' OXE d   1      -3.132   0.399  -1.876  0.00  0.00     0.078 C 
ATOM      2  C1' OXE d   1      -2.198   2.407  -3.601  0.00  0.00     0.078 C 
ATOM      3  C1  OXE d   1      -3.545   1.796  -3.897  0.00  0.00    -0.078 A 
ATOM      4  C2  OXE d   1      -3.973   0.781  -3.075  0.00  0.00    -0.078 A 
ATOM      5  C3  OXE d   1      -5.231   0.220  -3.270  0.00  0.00     0.003 A 
ATOM      6  C4  OXE d   1      -5.999   0.572  -4.387  0.00  0.00    -0.002 A 
ATOM      7  C5  OXE d   1      -5.564   1.575  -5.260  0.00  0.00    -0.002 A 
ATOM      8  C6  OXE d   1      -4.361   2.225  -5.005  0.00  0.00     0.003 A 
ENDROOT
TORSDOF 0
ENDMDL
