MODEL 1
REMARK minimizedAffinity 15.2929497
REMARK minimizedRMSD -1
REMARK  0 active torsions:
REMARK  status: ('A' for Active; 'I' for Inactive)
ROOT
ATOM      1  C2' OXE d   1       2.549  -3.007   0.836  0.00  0.00     0.078 C 
ATOM      2  C1' OXE d   1       4.326  -4.287   2.592  0.00  0.00     0.078 C 
ATOM      3  C1  OXE d   1       4.448  -4.594   1.121  0.00  0.00    -0.078 A 
ATOM      4  C2  OXE d   1       3.545  -3.999   0.274  0.00  0.00    -0.078 A 
ATOM      5  C3  OXE d   1       3.647  -4.205  -1.099  0.00  0.00     0.003 A 
ATOM      6  C4  OXE d   1       4.564  -5.132  -1.610  0.00  0.00    -0.002 A 
ATOM      7  C5  OXE d   1       5.467  -5.779  -0.760  0.00  0.00    -0.002 A 
ATOM      8  C6  OXE d   1       5.451  -5.490   0.600  0.00  0.00     0.003 A 
ENDROOT
TORSDOF 0
ENDMDL
