MODEL 1
REMARK minimizedAffinity 9.48424911
REMARK minimizedRMSD -1
REMARK  0 active torsions:
REMARK  status: ('A' for Active; 'I' for Inactive)
ROOT
ATOM      1  C2' OXE d   1      -2.774  -0.450  -1.581  0.00  0.00     0.078 C 
ATOM      2  C1' OXE d   1      -4.709   0.083  -3.543  0.00  0.00     0.078 C 
ATOM      3  C1  OXE d   1      -3.676   1.147  -3.266  0.00  0.00    -0.078 A 
ATOM      4  C2  OXE d   1      -2.762   0.896  -2.272  0.00  0.00    -0.078 A 
ATOM      5  C3  OXE d   1      -1.754   1.821  -2.014  0.00  0.00     0.003 A 
ATOM      6  C4  OXE d   1      -1.755   3.068  -2.650  0.00  0.00    -0.002 A 
ATOM      7  C5  OXE d   1      -2.702   3.359  -3.638  0.00  0.00    -0.002 A 
ATOM      8  C6  OXE d   1      -3.642   2.395  -3.987  0.00  0.00     0.003 A 
ENDROOT
TORSDOF 0
ENDMDL
