MODEL 1
REMARK minimizedAffinity -1.93115938
REMARK minimizedRMSD -1
REMARK  1 active torsions:
REMARK  status: ('A' for Active; 'I' for Inactive)
REMARK    1  A    between atoms: N_2  and  C1_3 
ROOT
ATOM      1  C1  UNL d   1      -5.306  -3.094  -4.643  0.00  0.00     0.143 A 
ATOM      2  C2  UNL d   1      -5.641  -2.540  -3.403  0.00  0.00    -0.057 A 
ATOM      3  C3  UNL d   1      -5.999  -1.192  -3.283  0.00  0.00     0.033 A 
ATOM      4  C4  UNL d   1      -6.000  -0.364  -4.401  0.00  0.00    -0.042 A 
ATOM      5  C5  UNL d   1      -5.646  -0.887  -5.639  0.00  0.00     0.033 A 
ATOM      6  C6  UNL d   1      -5.296  -2.236  -5.754  0.00  0.00    -0.057 A 
ENDROOT
BRANCH   1   7
ATOM      7  N   UNL d   1      -4.846  -4.403  -4.812  0.00  0.00    -0.732 N 
ATOM      8  C   UNL d   1      -5.190  -5.157  -5.998  0.00  0.00     0.284 C 
ATOM      9  H3  UNL d   1      -3.880  -4.517  -4.512  0.00  0.00     0.395 HD
ENDBRANCH   1   7
TORSDOF 1
ENDMDL
