MODEL 1
REMARK minimizedAffinity 2.11848474
REMARK minimizedRMSD -1
REMARK  1 active torsions:
REMARK  status: ('A' for Active; 'I' for Inactive)
REMARK    1  A    between atoms: N_2  and  C1_3 
ROOT
ATOM      1  C1  UNL d   1      -4.468  -3.753  -4.806  0.00  0.00     0.143 A 
ATOM      2  C2  UNL d   1      -3.893  -4.179  -3.604  0.00  0.00    -0.057 A 
ATOM      3  C3  UNL d   1      -2.749  -4.985  -3.591  0.00  0.00     0.033 A 
ATOM      4  C4  UNL d   1      -2.173  -5.405  -4.785  0.00  0.00    -0.042 A 
ATOM      5  C5  UNL d   1      -2.741  -5.015  -5.993  0.00  0.00     0.033 A 
ATOM      6  C6  UNL d   1      -3.881  -4.204  -5.999  0.00  0.00    -0.057 A 
ENDROOT
BRANCH   1   7
ATOM      7  N   UNL d   1      -5.662  -3.033  -4.886  0.00  0.00    -0.732 N 
ATOM      8  C   UNL d   1      -5.647  -1.590  -4.991  0.00  0.00     0.284 C 
ATOM      9  H3  UNL d   1      -6.350  -3.486  -5.483  0.00  0.00     0.395 HD
ENDBRANCH   1   7
TORSDOF 1
ENDMDL
