MODEL 1
REMARK minimizedAffinity -3.4226644
REMARK minimizedRMSD -1
REMARK  1 active torsions:
REMARK  status: ('A' for Active; 'I' for Inactive)
REMARK    1  A    between atoms: N_2  and  C1_3 
ROOT
ATOM      1  C1  UNL d   1      -4.434  -3.630  -4.937  0.00  0.00     0.143 A 
ATOM      2  C2  UNL d   1      -4.207  -2.725  -5.979  0.00  0.00    -0.057 A 
ATOM      3  C3  UNL d   1      -4.822  -1.467  -5.995  0.00  0.00     0.033 A 
ATOM      4  C4  UNL d   1      -5.701  -1.103  -4.980  0.00  0.00    -0.042 A 
ATOM      5  C5  UNL d   1      -5.960  -1.996  -3.947  0.00  0.00     0.033 A 
ATOM      6  C6  UNL d   1      -5.338  -3.248  -3.933  0.00  0.00    -0.057 A 
ENDROOT
BRANCH   1   7
ATOM      7  N   UNL d   1      -3.930  -4.933  -4.915  0.00  0.00    -0.732 N 
ATOM      8  C   UNL d   1      -4.410  -5.893  -3.944  0.00  0.00     0.284 C 
ATOM      9  H3  UNL d   1      -3.801  -5.315  -5.849  0.00  0.00     0.395 HD
ENDBRANCH   1   7
TORSDOF 1
ENDMDL
