MODEL 1
REMARK minimizedAffinity -1.86344957
REMARK minimizedRMSD -1
REMARK  1 active torsions:
REMARK  status: ('A' for Active; 'I' for Inactive)
REMARK    1  A    between atoms: N_2  and  C1_3 
ROOT
ATOM      1  C1  UNL d   1      -2.830  -5.281  -4.748  0.00  0.00     0.143 A 
ATOM      2  C2  UNL d   1      -3.912  -5.873  -5.407  0.00  0.00    -0.057 A 
ATOM      3  C3  UNL d   1      -4.915  -5.096  -6.000  0.00  0.00     0.033 A 
ATOM      4  C4  UNL d   1      -4.868  -3.708  -5.917  0.00  0.00    -0.042 A 
ATOM      5  C5  UNL d   1      -3.815  -3.098  -5.245  0.00  0.00     0.033 A 
ATOM      6  C6  UNL d   1      -2.813  -3.880  -4.662  0.00  0.00    -0.057 A 
ENDROOT
BRANCH   1   7
ATOM      7  N   UNL d   1      -1.853  -6.000  -4.055  0.00  0.00    -0.732 N 
ATOM      8  C   UNL d   1      -0.478  -6.000  -4.506  0.00  0.00     0.284 C 
ATOM      9  H3  UNL d   1      -1.960  -5.926  -3.046  0.00  0.00     0.395 HD
ENDBRANCH   1   7
TORSDOF 1
ENDMDL
