MODEL 1
REMARK minimizedAffinity -3.24240351
REMARK minimizedRMSD -1
REMARK  1 active torsions:
REMARK  status: ('A' for Active; 'I' for Inactive)
REMARK    1  A    between atoms: N_2  and  C1_3 
ROOT
ATOM      1  C1  UNL d   1      -3.028  -5.305  -5.213  0.00  0.00     0.143 A 
ATOM      2  C2  UNL d   1      -4.104  -5.893  -5.887  0.00  0.00    -0.057 A 
ATOM      3  C3  UNL d   1      -5.336  -5.238  -6.000  0.00  0.00     0.033 A 
ATOM      4  C4  UNL d   1      -5.523  -3.990  -5.414  0.00  0.00    -0.042 A 
ATOM      5  C5  UNL d   1      -4.476  -3.397  -4.718  0.00  0.00     0.033 A 
ATOM      6  C6  UNL d   1      -3.246  -4.054  -4.615  0.00  0.00    -0.057 A 
ENDROOT
BRANCH   1   7
ATOM      7  N   UNL d   1      -1.810  -5.947  -4.982  0.00  0.00    -0.732 N 
ATOM      8  C   UNL d   1      -0.772  -5.946  -5.991  0.00  0.00     0.284 C 
ATOM      9  H3  UNL d   1      -1.468  -5.804  -4.035  0.00  0.00     0.395 HD
ENDBRANCH   1   7
TORSDOF 1
ENDMDL
