MODEL 1
REMARK minimizedAffinity -3.15573692
REMARK minimizedRMSD -1
REMARK  1 active torsions:
REMARK  status: ('A' for Active; 'I' for Inactive)
REMARK    1  A    between atoms: N_2  and  C1_3 
ROOT
ATOM      1  C1  UNL d   1      -4.870  -3.623  -4.223  0.00  0.00     0.143 A 
ATOM      2  C2  UNL d   1      -3.559  -3.750  -3.750  0.00  0.00    -0.057 A 
ATOM      3  C3  UNL d   1      -2.628  -4.567  -4.402  0.00  0.00     0.033 A 
ATOM      4  C4  UNL d   1      -3.001  -5.296  -5.527  0.00  0.00    -0.042 A 
ATOM      5  C5  UNL d   1      -4.305  -5.204  -6.000  0.00  0.00     0.033 A 
ATOM      6  C6  UNL d   1      -5.228  -4.382  -5.348  0.00  0.00    -0.057 A 
ENDROOT
BRANCH   1   7
ATOM      7  N   UNL d   1      -5.869  -2.904  -3.561  0.00  0.00    -0.732 N 
ATOM      8  C   UNL d   1      -6.000  -1.476  -3.754  0.00  0.00     0.284 C 
ATOM      9  H3  UNL d   1      -6.755  -3.403  -3.537  0.00  0.00     0.395 HD
ENDBRANCH   1   7
TORSDOF 1
ENDMDL
