MODEL 1
REMARK minimizedAffinity -3.29235625
REMARK minimizedRMSD -1
REMARK  1 active torsions:
REMARK  status: ('A' for Active; 'I' for Inactive)
REMARK    1  A    between atoms: N_2  and  C1_3 
ROOT
ATOM      1  C1  UNL d   1      -3.743  -5.096  -5.191  0.00  0.00     0.143 A 
ATOM      2  C2  UNL d   1      -4.880  -5.273  -5.987  0.00  0.00    -0.057 A 
ATOM      3  C3  UNL d   1      -5.993  -4.433  -5.861  0.00  0.00     0.033 A 
ATOM      4  C4  UNL d   1      -6.000  -3.415  -4.913  0.00  0.00    -0.042 A 
ATOM      5  C5  UNL d   1      -4.891  -3.236  -4.093  0.00  0.00     0.033 A 
ATOM      6  C6  UNL d   1      -3.780  -4.074  -4.229  0.00  0.00    -0.057 A 
ENDROOT
BRANCH   1   7
ATOM      7  N   UNL d   1      -2.645  -5.958  -5.200  0.00  0.00    -0.732 N 
ATOM      8  C   UNL d   1      -1.349  -5.498  -5.652  0.00  0.00     0.284 C 
ATOM      9  H3  UNL d   1      -2.610  -6.552  -4.375  0.00  0.00     0.395 HD
ENDBRANCH   1   7
TORSDOF 1
ENDMDL
