MODEL 1
REMARK minimizedAffinity -0.967535257
REMARK minimizedRMSD -1
REMARK  1 active torsions:
REMARK  status: ('A' for Active; 'I' for Inactive)
REMARK    1  A    between atoms: N_2  and  C1_3 
ROOT
ATOM      1  C1  UNL d   1      -3.805  -5.274  -4.459  0.00  0.00     0.143 A 
ATOM      2  C2  UNL d   1      -3.581  -5.883  -3.220  0.00  0.00    -0.057 A 
ATOM      3  C3  UNL d   1      -2.291  -5.985  -2.683  0.00  0.00     0.033 A 
ATOM      4  C4  UNL d   1      -1.196  -5.504  -3.393  0.00  0.00    -0.042 A 
ATOM      5  C5  UNL d   1      -1.393  -4.917  -4.638  0.00  0.00     0.033 A 
ATOM      6  C6  UNL d   1      -2.683  -4.812  -5.165  0.00  0.00    -0.057 A 
ENDROOT
BRANCH   1   7
ATOM      7  N   UNL d   1      -5.050  -5.230  -5.090  0.00  0.00    -0.732 N 
ATOM      8  C   UNL d   1      -5.919  -4.083  -4.928  0.00  0.00     0.284 C 
ATOM      9  H3  UNL d   1      -5.018  -5.596  -6.039  0.00  0.00     0.395 HD
ENDBRANCH   1   7
TORSDOF 1
ENDMDL
