MODEL 1
REMARK minimizedAffinity 7.08546448
REMARK minimizedRMSD -1
REMARK  1 active torsions:
REMARK  status: ('A' for Active; 'I' for Inactive)
REMARK    1  A    between atoms: N_2  and  C1_3 
ROOT
ATOM      1  C1  UNL d   1       1.562   1.794  -3.609  0.00  0.00     0.143 A 
ATOM      2  C2  UNL d   1       1.452   2.902  -4.455  0.00  0.00    -0.057 A 
ATOM      3  C3  UNL d   1       0.202   3.422  -4.811  0.00  0.00     0.033 A 
ATOM      4  C4  UNL d   1      -0.965   2.823  -4.348  0.00  0.00    -0.042 A 
ATOM      5  C5  UNL d   1      -0.880   1.705  -3.525  0.00  0.00     0.033 A 
ATOM      6  C6  UNL d   1       0.372   1.194  -3.168  0.00  0.00    -0.057 A 
ENDROOT
BRANCH   1   7
ATOM      7  N   UNL d   1       2.773   1.170  -3.298  0.00  0.00    -0.732 N 
ATOM      8  C   UNL d   1       3.983   1.947  -3.139  0.00  0.00     0.284 C 
ATOM      9  H3  UNL d   1       2.663   0.428  -2.610  0.00  0.00     0.395 HD
ENDBRANCH   1   7
TORSDOF 1
ENDMDL
