MODEL 1
REMARK minimizedAffinity -2.30809855
REMARK minimizedRMSD -1
REMARK  1 active torsions:
REMARK  status: ('A' for Active; 'I' for Inactive)
REMARK    1  A    between atoms: N_2  and  C1_3 
ROOT
ATOM      1  C1  UNL d   1      -3.486  -4.112  -4.960  0.00  0.00     0.143 A 
ATOM      2  C2  UNL d   1      -3.768  -3.472  -3.748  0.00  0.00    -0.057 A 
ATOM      3  C3  UNL d   1      -4.959  -2.759  -3.563  0.00  0.00     0.033 A 
ATOM      4  C4  UNL d   1      -5.879  -2.650  -4.601  0.00  0.00    -0.042 A 
ATOM      5  C5  UNL d   1      -5.608  -3.256  -5.822  0.00  0.00     0.033 A 
ATOM      6  C6  UNL d   1      -4.420  -3.972  -5.998  0.00  0.00    -0.057 A 
ENDROOT
BRANCH   1   7
ATOM      7  N   UNL d   1      -2.276  -4.752  -5.238  0.00  0.00    -0.732 N 
ATOM      8  C   UNL d   1      -2.251  -5.982  -5.999  0.00  0.00     0.284 C 
ATOM      9  H3  UNL d   1      -1.537  -4.096  -5.483  0.00  0.00     0.395 HD
ENDBRANCH   1   7
TORSDOF 1
ENDMDL
