MODEL 1
REMARK minimizedAffinity -3.33483887
REMARK minimizedRMSD -1
REMARK  1 active torsions:
REMARK  status: ('A' for Active; 'I' for Inactive)
REMARK    1  A    between atoms: N_2  and  C1_3 
ROOT
ATOM      1  C1  UNL d   1      -3.267  -3.988  -4.576  0.00  0.00     0.143 A 
ATOM      2  C2  UNL d   1      -3.679  -2.718  -4.994  0.00  0.00    -0.057 A 
ATOM      3  C3  UNL d   1      -5.029  -2.350  -4.976  0.00  0.00     0.033 A 
ATOM      4  C4  UNL d   1      -5.999  -3.260  -4.566  0.00  0.00    -0.042 A 
ATOM      5  C5  UNL d   1      -5.615  -4.536  -4.170  0.00  0.00     0.033 A 
ATOM      6  C6  UNL d   1      -4.264  -4.895  -4.184  0.00  0.00    -0.057 A 
ENDROOT
BRANCH   1   7
ATOM      7  N   UNL d   1      -1.950  -4.446  -4.663  0.00  0.00    -0.732 N 
ATOM      8  C   UNL d   1      -1.417  -4.923  -5.921  0.00  0.00     0.284 C 
ATOM      9  H3  UNL d   1      -1.303  -3.872  -4.128  0.00  0.00     0.395 HD
ENDBRANCH   1   7
TORSDOF 1
ENDMDL
