MODEL 1
REMARK minimizedAffinity -3.05820084
REMARK minimizedRMSD -1
REMARK  0 active torsions:
REMARK  status: ('A' for Active; 'I' for Inactive)
ROOT
ATOM      1  C   UNL d   1       3.398  -4.231  -4.859  0.00  0.00     0.078 C 
ATOM      2  C1  UNL d   1       4.305  -3.042  -4.749  0.00  0.00    -0.077 A 
ATOM      3  C2  UNL d   1       4.307  -2.240  -3.601  0.00  0.00    -0.001 A 
ATOM      4  C3  UNL d   1       5.149  -1.131  -3.516  0.00  0.00     0.003 A 
ATOM      5  C4  UNL d   1       5.996  -0.812  -4.576  0.00  0.00    -0.005 A 
ATOM      6  C5  UNL d   1       6.000  -1.603  -5.723  0.00  0.00     0.003 A 
ATOM      7  C6  UNL d   1       5.158  -2.713  -5.810  0.00  0.00    -0.001 A 
ENDROOT
TORSDOF 0
ENDMDL
