MODEL 1
REMARK minimizedAffinity 5.40227413
REMARK minimizedRMSD -1
REMARK  0 active torsions:
REMARK  status: ('A' for Active; 'I' for Inactive)
ROOT
ATOM      1  C   UNL d   1       0.158   1.953  -2.988  0.00  0.00     0.078 C 
ATOM      2  C1  UNL d   1       1.190   3.007  -2.715  0.00  0.00    -0.077 A 
ATOM      3  C2  UNL d   1       2.489   2.894  -3.228  0.00  0.00    -0.001 A 
ATOM      4  C3  UNL d   1       3.441   3.878  -2.957  0.00  0.00     0.003 A 
ATOM      5  C4  UNL d   1       3.107   4.980  -2.173  0.00  0.00    -0.005 A 
ATOM      6  C5  UNL d   1       1.818   5.099  -1.657  0.00  0.00     0.003 A 
ATOM      7  C6  UNL d   1       0.864   4.116  -1.926  0.00  0.00    -0.001 A 
ENDROOT
TORSDOF 0
ENDMDL
