MODEL 1
REMARK minimizedAffinity -1.89519751
REMARK minimizedRMSD -1
REMARK  0 active torsions:
REMARK  status: ('A' for Active; 'I' for Inactive)
ROOT
ATOM      1  C   UNL d   1      -2.588   1.064  -3.749  0.00  0.00     0.078 C 
ATOM      2  C1  UNL d   1      -3.560   2.162  -3.436  0.00  0.00    -0.077 A 
ATOM      3  C2  UNL d   1      -4.638   1.946  -2.568  0.00  0.00    -0.001 A 
ATOM      4  C3  UNL d   1      -5.540   2.975  -2.294  0.00  0.00     0.003 A 
ATOM      5  C4  UNL d   1      -5.375   4.226  -2.884  0.00  0.00    -0.005 A 
ATOM      6  C5  UNL d   1      -4.308   4.450  -3.751  0.00  0.00     0.003 A 
ATOM      7  C6  UNL d   1      -3.404   3.423  -4.026  0.00  0.00    -0.001 A 
ENDROOT
TORSDOF 0
ENDMDL
