MODEL 1
REMARK minimizedAffinity 10.8513107
REMARK minimizedRMSD -1
REMARK  0 active torsions:
REMARK  status: ('A' for Active; 'I' for Inactive)
ROOT
ATOM      1  C   UNL d   1      -4.724   4.229  -3.599  0.00  0.00     0.078 C 
ATOM      2  C1  UNL d   1      -3.943   2.974  -3.343  0.00  0.00    -0.077 A 
ATOM      3  C2  UNL d   1      -4.159   2.215  -2.186  0.00  0.00    -0.001 A 
ATOM      4  C3  UNL d   1      -3.419   1.054  -1.956  0.00  0.00     0.003 A 
ATOM      5  C4  UNL d   1      -2.457   0.643  -2.876  0.00  0.00    -0.005 A 
ATOM      6  C5  UNL d   1      -2.234   1.394  -4.029  0.00  0.00     0.003 A 
ATOM      7  C6  UNL d   1      -2.973   2.555  -4.261  0.00  0.00    -0.001 A 
ENDROOT
TORSDOF 0
ENDMDL
