MODEL 1
REMARK minimizedAffinity -1.03560793
REMARK minimizedRMSD -1
REMARK  0 active torsions:
REMARK  status: ('A' for Active; 'I' for Inactive)
ROOT
ATOM      1  C   UNL d   1       5.999  -3.803  -6.000  0.00  0.00     0.078 C 
ATOM      2  C1  UNL d   1       5.275  -2.742  -5.225  0.00  0.00    -0.077 A 
ATOM      3  C2  UNL d   1       3.878  -2.660  -5.249  0.00  0.00    -0.001 A 
ATOM      4  C3  UNL d   1       3.217  -1.662  -4.531  0.00  0.00     0.003 A 
ATOM      5  C4  UNL d   1       3.946  -0.738  -3.785  0.00  0.00    -0.005 A 
ATOM      6  C5  UNL d   1       5.337  -0.811  -3.757  0.00  0.00     0.003 A 
ATOM      7  C6  UNL d   1       5.999  -1.808  -4.474  0.00  0.00    -0.001 A 
ENDROOT
TORSDOF 0
ENDMDL
