MODEL 1
REMARK minimizedAffinity -3.2073431
REMARK minimizedRMSD -1
REMARK  0 active torsions:
REMARK  status: ('A' for Active; 'I' for Inactive)
ROOT
ATOM      1  O1  BZF d   1      -5.556   3.672   2.290  0.00  0.00    -0.204 OA
ATOM      2  C2  BZF d   1      -5.592   4.833   1.542  0.00  0.00     0.174 A 
ATOM      3  C3  BZF d   1      -5.804   5.905   2.332  0.00  0.00    -0.012 A 
ATOM      4  C3A BZF d   1      -5.814   5.391   3.668  0.00  0.00    -0.107 A 
ATOM      5  C4  BZF d   1      -5.965   5.970   4.895  0.00  0.00     0.055 A 
ATOM      6  C5  BZF d   1      -5.999   5.179   5.999  0.00  0.00    -0.016 A 
ATOM      7  C6  BZF d   1      -5.890   3.807   5.913  0.00  0.00     0.022 A 
ATOM      8  C7  BZF d   1      -5.734   3.187   4.718  0.00  0.00     0.029 A 
ATOM      9  C7A BZF d   1      -5.666   3.986   3.603  0.00  0.00     0.058 A 
ENDROOT
TORSDOF 0
ENDMDL
