MODEL 1
REMARK minimizedAffinity -0.655222118
REMARK minimizedRMSD -1
REMARK  0 active torsions:
REMARK  status: ('A' for Active; 'I' for Inactive)
ROOT
ATOM      1  O1  BZF d   1      -5.344   3.617   1.976  0.00  0.00    -0.204 OA
ATOM      2  C2  BZF d   1      -5.782   4.901   1.717  0.00  0.00     0.174 A 
ATOM      3  C3  BZF d   1      -5.998   5.573   2.866  0.00  0.00    -0.012 A 
ATOM      4  C3A BZF d   1      -5.588   4.681   3.907  0.00  0.00    -0.107 A 
ATOM      5  C4  BZF d   1      -5.548   4.782   5.268  0.00  0.00     0.055 A 
ATOM      6  C5  BZF d   1      -5.163   3.703   5.999  0.00  0.00    -0.016 A 
ATOM      7  C6  BZF d   1      -4.817   2.508   5.403  0.00  0.00     0.022 A 
ATOM      8  C7  BZF d   1      -4.837   2.362   4.056  0.00  0.00     0.029 A 
ATOM      9  C7A BZF d   1      -5.194   3.460   3.313  0.00  0.00     0.058 A 
ENDROOT
TORSDOF 0
ENDMDL
