MODEL 1
REMARK minimizedAffinity 6.2315197
REMARK minimizedRMSD -1
REMARK  0 active torsions:
REMARK  status: ('A' for Active; 'I' for Inactive)
ROOT
ATOM      1  O1  BZF d   1      -4.861   4.134   4.687  0.00  0.00    -0.204 OA
ATOM      2  C2  BZF d   1      -5.495   5.263   5.167  0.00  0.00     0.174 A 
ATOM      3  C3  BZF d   1      -5.993   6.000   4.154  0.00  0.00    -0.012 A 
ATOM      4  C3A BZF d   1      -5.729   5.240   2.971  0.00  0.00    -0.107 A 
ATOM      5  C4  BZF d   1      -5.999   5.439   1.647  0.00  0.00     0.055 A 
ATOM      6  C5  BZF d   1      -5.542   4.540   0.737  0.00  0.00    -0.016 A 
ATOM      7  C6  BZF d   1      -4.808   3.434   1.114  0.00  0.00     0.022 A 
ATOM      8  C7  BZF d   1      -4.520   3.191   2.416  0.00  0.00     0.029 A 
ATOM      9  C7A BZF d   1      -5.009   4.081   3.341  0.00  0.00     0.058 A 
ENDROOT
TORSDOF 0
ENDMDL
