MODEL 1
REMARK minimizedAffinity 12.0327911
REMARK minimizedRMSD -1
REMARK  0 active torsions:
REMARK  status: ('A' for Active; 'I' for Inactive)
ROOT
ATOM      1  O1  BZF d   1      -1.423  -1.360  -0.895  0.00  0.00    -0.204 OA
ATOM      2  C2  BZF d   1      -2.778  -1.180  -0.697  0.00  0.00     0.174 A 
ATOM      3  C3  BZF d   1      -3.030  -0.805   0.574  0.00  0.00    -0.012 A 
ATOM      4  C3A BZF d   1      -1.745  -0.658   1.185  0.00  0.00    -0.107 A 
ATOM      5  C4  BZF d   1      -1.336  -0.289   2.434  0.00  0.00     0.055 A 
ATOM      6  C5  BZF d   1      -0.010  -0.316   2.730  0.00  0.00    -0.016 A 
ATOM      7  C6  BZF d   1       0.933  -0.712   1.804  0.00  0.00     0.022 A 
ATOM      8  C7  BZF d   1       0.576  -1.082   0.550  0.00  0.00     0.029 A 
ATOM      9  C7A BZF d   1      -0.761  -1.024   0.238  0.00  0.00     0.058 A 
ENDROOT
TORSDOF 0
ENDMDL
