MODEL 1
REMARK minimizedAffinity -1.85933053
REMARK minimizedRMSD -1
REMARK  0 active torsions:
REMARK  status: ('A' for Active; 'I' for Inactive)
ROOT
ATOM      1  O1  BZF d   1      -3.375   4.139   2.622  0.00  0.00    -0.204 OA
ATOM      2  C2  BZF d   1      -4.632   4.374   2.100  0.00  0.00     0.174 A 
ATOM      3  C3  BZF d   1      -5.584   3.823   2.880  0.00  0.00    -0.012 A 
ATOM      4  C3A BZF d   1      -4.884   3.284   4.005  0.00  0.00    -0.107 A 
ATOM      5  C4  BZF d   1      -5.284   2.625   5.133  0.00  0.00     0.055 A 
ATOM      6  C5  BZF d   1      -4.343   2.168   6.000  0.00  0.00    -0.016 A 
ATOM      7  C6  BZF d   1      -2.995   2.348   5.769  0.00  0.00     0.022 A 
ATOM      8  C7  BZF d   1      -2.550   3.000   4.667  0.00  0.00     0.029 A 
ATOM      9  C7A BZF d   1      -3.500   3.492   3.805  0.00  0.00     0.058 A 
ENDROOT
TORSDOF 0
ENDMDL
