MODEL 1
REMARK minimizedAffinity -2.87816119
REMARK minimizedRMSD -1
REMARK  0 active torsions:
REMARK  status: ('A' for Active; 'I' for Inactive)
ROOT
ATOM      1  O1  BZF d   1      -5.973   5.877   2.502  0.00  0.00    -0.204 OA
ATOM      2  C2  BZF d   1      -5.992   4.925   1.501  0.00  0.00     0.174 A 
ATOM      3  C3  BZF d   1      -5.948   3.682   2.022  0.00  0.00    -0.012 A 
ATOM      4  C3A BZF d   1      -5.993   3.866   3.440  0.00  0.00    -0.107 A 
ATOM      5  C4  BZF d   1      -5.995   3.004   4.499  0.00  0.00     0.055 A 
ATOM      6  C5  BZF d   1      -5.971   3.508   5.761  0.00  0.00    -0.016 A 
ATOM      7  C6  BZF d   1      -5.938   4.866   6.000  0.00  0.00     0.022 A 
ATOM      8  C7  BZF d   1      -5.940   5.761   4.981  0.00  0.00     0.029 A 
ATOM      9  C7A BZF d   1      -5.998   5.255   3.706  0.00  0.00     0.058 A 
ENDROOT
TORSDOF 0
ENDMDL
