MODEL 1
REMARK minimizedAffinity -3.85084558
REMARK minimizedRMSD -1
REMARK  0 active torsions:
REMARK  status: ('A' for Active; 'I' for Inactive)
ROOT
ATOM      1  O1  BZF d   1      -5.810   2.253   4.704  0.00  0.00    -0.204 OA
ATOM      2  C2  BZF d   1      -5.624   2.717   5.992  0.00  0.00     0.174 A 
ATOM      3  C3  BZF d   1      -5.231   4.007   5.983  0.00  0.00    -0.012 A 
ATOM      4  C3A BZF d   1      -5.257   4.399   4.608  0.00  0.00    -0.107 A 
ATOM      5  C4  BZF d   1      -4.984   5.570   3.960  0.00  0.00     0.055 A 
ATOM      6  C5  BZF d   1      -5.035   5.601   2.602  0.00  0.00    -0.016 A 
ATOM      7  C6  BZF d   1      -5.349   4.481   1.862  0.00  0.00     0.022 A 
ATOM      8  C7  BZF d   1      -5.633   3.298   2.460  0.00  0.00     0.029 A 
ATOM      9  C7A BZF d   1      -5.615   3.272   3.833  0.00  0.00     0.058 A 
ENDROOT
TORSDOF 0
ENDMDL
