MODEL 1
REMARK minimizedAffinity -2.70882154
REMARK minimizedRMSD -1
REMARK  0 active torsions:
REMARK  status: ('A' for Active; 'I' for Inactive)
ROOT
ATOM      1  O1  BZF d   1      -5.660   3.756   2.214  0.00  0.00    -0.204 OA
ATOM      2  C2  BZF d   1      -5.716   4.933   1.494  0.00  0.00     0.174 A 
ATOM      3  C3  BZF d   1      -5.538   5.997   2.303  0.00  0.00    -0.012 A 
ATOM      4  C3A BZF d   1      -5.266   5.447   3.596  0.00  0.00    -0.107 A 
ATOM      5  C4  BZF d   1      -4.989   6.000   4.813  0.00  0.00     0.055 A 
ATOM      6  C5  BZF d   1      -4.846   5.186   5.891  0.00  0.00    -0.016 A 
ATOM      7  C6  BZF d   1      -4.979   3.816   5.790  0.00  0.00     0.022 A 
ATOM      8  C7  BZF d   1      -5.249   3.221   4.603  0.00  0.00     0.029 A 
ATOM      9  C7A BZF d   1      -5.361   4.039   3.505  0.00  0.00     0.058 A 
ENDROOT
TORSDOF 0
ENDMDL
