MODEL 1
REMARK minimizedAffinity -3.21538973
REMARK minimizedRMSD -1
REMARK  0 active torsions:
REMARK  status: ('A' for Active; 'I' for Inactive)
ROOT
ATOM      1  O1  BZF d   1      -5.550   2.994   4.913  0.00  0.00    -0.204 OA
ATOM      2  C2  BZF d   1      -4.820   3.440   5.999  0.00  0.00     0.174 A 
ATOM      3  C3  BZF d   1      -4.196   4.601   5.711  0.00  0.00    -0.012 A 
ATOM      4  C3A BZF d   1      -4.632   4.946   4.393  0.00  0.00    -0.107 A 
ATOM      5  C4  BZF d   1      -4.372   5.999   3.564  0.00  0.00     0.055 A 
ATOM      6  C5  BZF d   1      -4.899   6.000   2.311  0.00  0.00    -0.016 A 
ATOM      7  C6  BZF d   1      -5.686   4.963   1.854  0.00  0.00     0.022 A 
ATOM      8  C7  BZF d   1      -5.976   3.899   2.642  0.00  0.00     0.029 A 
ATOM      9  C7A BZF d   1      -5.472   3.911   3.919  0.00  0.00     0.058 A 
ENDROOT
TORSDOF 0
ENDMDL
