MODEL 1
REMARK minimizedAffinity -2.58924961
REMARK minimizedRMSD -1
REMARK  0 active torsions:
REMARK  status: ('A' for Active; 'I' for Inactive)
ROOT
ATOM      1  O1  BZF d   1      -5.169   2.904   4.869  0.00  0.00    -0.204 OA
ATOM      2  C2  BZF d   1      -5.655   3.531   6.000  0.00  0.00     0.174 A 
ATOM      3  C3  BZF d   1      -6.000   4.806   5.729  0.00  0.00    -0.012 A 
ATOM      4  C3A BZF d   1      -5.797   4.960   4.321  0.00  0.00    -0.107 A 
ATOM      5  C4  BZF d   1      -5.979   6.000   3.455  0.00  0.00     0.055 A 
ATOM      6  C5  BZF d   1      -5.617   5.847   2.154  0.00  0.00    -0.016 A 
ATOM      7  C6  BZF d   1      -5.066   4.671   1.687  0.00  0.00     0.022 A 
ATOM      8  C7  BZF d   1      -4.871   3.611   2.508  0.00  0.00     0.029 A 
ATOM      9  C7A BZF d   1      -5.267   3.751   3.816  0.00  0.00     0.058 A 
ENDROOT
TORSDOF 0
ENDMDL
