MODEL 1
REMARK minimizedAffinity -2.77282238
REMARK minimizedRMSD -1
REMARK  0 active torsions:
REMARK  status: ('A' for Active; 'I' for Inactive)
ROOT
ATOM      1  O1  BZF d   1      -5.233   3.708   2.132  0.00  0.00    -0.204 OA
ATOM      2  C2  BZF d   1      -5.610   4.881   1.508  0.00  0.00     0.174 A 
ATOM      3  C3  BZF d   1      -5.999   5.801   2.414  0.00  0.00    -0.012 A 
ATOM      4  C3A BZF d   1      -5.768   5.194   3.689  0.00  0.00    -0.107 A 
ATOM      5  C4  BZF d   1      -5.943   5.617   4.976  0.00  0.00     0.055 A 
ATOM      6  C5  BZF d   1      -5.689   4.755   5.995  0.00  0.00    -0.016 A 
ATOM      7  C6  BZF d   1      -5.265   3.462   5.764  0.00  0.00     0.022 A 
ATOM      8  C7  BZF d   1      -5.073   2.999   4.505  0.00  0.00     0.029 A 
ATOM      9  C7A BZF d   1      -5.297   3.879   3.474  0.00  0.00     0.058 A 
ENDROOT
TORSDOF 0
ENDMDL
