MODEL 1
REMARK minimizedAffinity -0.119195946
REMARK minimizedRMSD -1
REMARK  0 active torsions:
REMARK  status: ('A' for Active; 'I' for Inactive)
ROOT
ATOM      1  O1  BZF d   1      -5.965   4.815   2.370  0.00  0.00    -0.204 OA
ATOM      2  C2  BZF d   1      -5.763   3.718   1.554  0.00  0.00     0.174 A 
ATOM      3  C3  BZF d   1      -5.498   2.618   2.289  0.00  0.00    -0.012 A 
ATOM      4  C3A BZF d   1      -5.628   3.035   3.651  0.00  0.00    -0.107 A 
ATOM      5  C4  BZF d   1      -5.502   2.388   4.847  0.00  0.00     0.055 A 
ATOM      6  C5  BZF d   1      -5.621   3.099   5.999  0.00  0.00    -0.016 A 
ATOM      7  C6  BZF d   1      -5.861   4.458   5.992  0.00  0.00     0.022 A 
ATOM      8  C7  BZF d   1      -5.999   5.142   4.830  0.00  0.00     0.029 A 
ATOM      9  C7A BZF d   1      -5.912   4.420   3.665  0.00  0.00     0.058 A 
ENDROOT
TORSDOF 0
ENDMDL
