MODEL 1
REMARK minimizedAffinity 1.78785229
REMARK minimizedRMSD -1
REMARK  0 active torsions:
REMARK  status: ('A' for Active; 'I' for Inactive)
ROOT
ATOM      1  O1  BZF d   1      -4.492   3.887   4.262  0.00  0.00    -0.204 OA
ATOM      2  C2  BZF d   1      -4.722   4.977   5.079  0.00  0.00     0.174 A 
ATOM      3  C3  BZF d   1      -5.270   5.991   4.379  0.00  0.00    -0.012 A 
ATOM      4  C3A BZF d   1      -5.474   5.473   3.061  0.00  0.00    -0.107 A 
ATOM      5  C4  BZF d   1      -6.000   6.000   1.917  0.00  0.00     0.055 A 
ATOM      6  C5  BZF d   1      -5.987   5.254   0.780  0.00  0.00    -0.016 A 
ATOM      7  C6  BZF d   1      -5.453   3.983   0.752  0.00  0.00     0.022 A 
ATOM      8  C7  BZF d   1      -4.924   3.416   1.864  0.00  0.00     0.029 A 
ATOM      9  C7A BZF d   1      -4.965   4.154   3.021  0.00  0.00     0.058 A 
ENDROOT
TORSDOF 0
ENDMDL
