MODEL 1
REMARK minimizedAffinity 8.41125107
REMARK minimizedRMSD -1
REMARK  0 active torsions:
REMARK  status: ('A' for Active; 'I' for Inactive)
ROOT
ATOM      1  O1  BZF d   1      -0.653  -0.758  -1.582  0.00  0.00    -0.204 OA
ATOM      2  C2  BZF d   1       0.081   0.412  -1.617  0.00  0.00     0.174 A 
ATOM      3  C3  BZF d   1       0.003   1.061  -0.437  0.00  0.00    -0.012 A 
ATOM      4  C3A BZF d   1      -0.757   0.201   0.417  0.00  0.00    -0.107 A 
ATOM      5  C4  BZF d   1      -1.159   0.287   1.719  0.00  0.00     0.055 A 
ATOM      6  C5  BZF d   1      -1.952  -0.690   2.231  0.00  0.00    -0.016 A 
ATOM      7  C6  BZF d   1      -2.366  -1.763   1.469  0.00  0.00     0.022 A 
ATOM      8  C7  BZF d   1      -1.989  -1.895   0.174  0.00  0.00     0.029 A 
ATOM      9  C7A BZF d   1      -1.160  -0.926  -0.337  0.00  0.00     0.058 A 
ENDROOT
TORSDOF 0
ENDMDL
