MODEL 1
REMARK minimizedAffinity -3.00261116
REMARK minimizedRMSD -1
REMARK  0 active torsions:
REMARK  status: ('A' for Active; 'I' for Inactive)
ROOT
ATOM      1  O1  BZF d   1      -5.680   3.831   5.966  0.00  0.00    -0.204 OA
ATOM      2  C2  BZF d   1      -5.151   2.559   5.873  0.00  0.00     0.174 A 
ATOM      3  C3  BZF d   1      -4.767   2.292   4.608  0.00  0.00    -0.012 A 
ATOM      4  C3A BZF d   1      -4.991   3.505   3.883  0.00  0.00    -0.107 A 
ATOM      5  C4  BZF d   1      -4.790   3.872   2.583  0.00  0.00     0.055 A 
ATOM      6  C5  BZF d   1      -5.182   5.109   2.178  0.00  0.00    -0.016 A 
ATOM      7  C6  BZF d   1      -5.783   5.999   3.044  0.00  0.00     0.022 A 
ATOM      8  C7  BZF d   1      -5.999   5.682   4.343  0.00  0.00     0.029 A 
ATOM      9  C7A BZF d   1      -5.574   4.445   4.764  0.00  0.00     0.058 A 
ENDROOT
TORSDOF 0
ENDMDL
