MODEL 1
REMARK minimizedAffinity -2.33187771
REMARK minimizedRMSD -1
REMARK  0 active torsions:
REMARK  status: ('A' for Active; 'I' for Inactive)
ROOT
ATOM      1  O1  BZF d   1      -4.083   3.140   4.779  0.00  0.00    -0.204 OA
ATOM      2  C2  BZF d   1      -4.570   3.566   6.000  0.00  0.00     0.174 A 
ATOM      3  C3  BZF d   1      -5.250   4.722   5.867  0.00  0.00    -0.012 A 
ATOM      4  C3A BZF d   1      -5.263   4.992   4.462  0.00  0.00    -0.107 A 
ATOM      5  C4  BZF d   1      -5.801   5.992   3.702  0.00  0.00     0.055 A 
ATOM      6  C5  BZF d   1      -5.571   6.000   2.363  0.00  0.00    -0.016 A 
ATOM      7  C6  BZF d   1      -4.805   5.029   1.752  0.00  0.00     0.022 A 
ATOM      8  C7  BZF d   1      -4.256   4.014   2.462  0.00  0.00     0.029 A 
ATOM      9  C7A BZF d   1      -4.514   3.985   3.811  0.00  0.00     0.058 A 
ENDROOT
TORSDOF 0
ENDMDL
