MODEL 1
REMARK minimizedAffinity -0.0773205832
REMARK minimizedRMSD -1
REMARK  0 active torsions:
REMARK  status: ('A' for Active; 'I' for Inactive)
ROOT
ATOM      1  O1  BZF d   1      -5.697   5.153   5.468  0.00  0.00    -0.204 OA
ATOM      2  C2  BZF d   1      -5.365   3.922   6.000  0.00  0.00     0.174 A 
ATOM      3  C3  BZF d   1      -5.214   3.005   5.023  0.00  0.00    -0.012 A 
ATOM      4  C3A BZF d   1      -5.376   3.727   3.799  0.00  0.00    -0.107 A 
ATOM      5  C4  BZF d   1      -5.322   3.368   2.482  0.00  0.00     0.055 A 
ATOM      6  C5  BZF d   1      -5.599   4.300   1.532  0.00  0.00    -0.016 A 
ATOM      7  C6  BZF d   1      -5.938   5.595   1.862  0.00  0.00     0.022 A 
ATOM      8  C7  BZF d   1      -6.000   6.000   3.154  0.00  0.00     0.029 A 
ATOM      9  C7A BZF d   1      -5.688   5.070   4.116  0.00  0.00     0.058 A 
ENDROOT
TORSDOF 0
ENDMDL
