MODEL 1
REMARK minimizedAffinity -2.81040502
REMARK minimizedRMSD -1
REMARK  0 active torsions:
REMARK  status: ('A' for Active; 'I' for Inactive)
ROOT
ATOM      1  O1  BZF d   1      -4.965   3.869   2.299  0.00  0.00    -0.204 OA
ATOM      2  C2  BZF d   1      -5.233   4.996   1.546  0.00  0.00     0.174 A 
ATOM      3  C3  BZF d   1      -5.716   5.987   2.322  0.00  0.00    -0.012 A 
ATOM      4  C3A BZF d   1      -5.666   5.477   3.658  0.00  0.00    -0.107 A 
ATOM      5  C4  BZF d   1      -5.997   6.000   4.876  0.00  0.00     0.055 A 
ATOM      6  C5  BZF d   1      -5.897   5.215   5.980  0.00  0.00    -0.016 A 
ATOM      7  C6  BZF d   1      -5.475   3.904   5.904  0.00  0.00     0.022 A 
ATOM      8  C7  BZF d   1      -5.131   3.343   4.719  0.00  0.00     0.029 A 
ATOM      9  C7A BZF d   1      -5.200   4.143   3.605  0.00  0.00     0.058 A 
ENDROOT
TORSDOF 0
ENDMDL
