MODEL 1
REMARK minimizedAffinity 1.13919675
REMARK minimizedRMSD -1
REMARK  1 active torsions:
REMARK  status: ('A' for Active; 'I' for Inactive)
REMARK    1  A    between atoms: C1_2  and  C2_3 
ROOT
ATOM      1  C2  UNL d   1       0.234   2.939   0.602  0.00  0.00    -0.077 A 
ATOM      2  C3  UNL d   1      -0.223   1.625   0.779  0.00  0.00     0.002 A 
ATOM      3  C4  UNL d   1       0.420   0.562   0.144  0.00  0.00     0.002 A 
ATOM      4  C5  UNL d   1       1.526   0.800  -0.670  0.00  0.00    -0.004 A 
ATOM      5  C6  UNL d   1       1.987   2.103  -0.854  0.00  0.00     0.002 A 
ATOM      6  C7  UNL d   1       1.345   3.167  -0.220  0.00  0.00     0.002 A 
ENDROOT
BRANCH   1   7
ATOM      7  C1  UNL d   1      -0.428   4.082   1.326  0.00  0.00     0.055 C 
ATOM      8  C   UNL d   1      -0.218   5.398   0.592  0.00  0.00     0.019 C 
ENDBRANCH   1   7
TORSDOF 1
ENDMDL
