MODEL 1
REMARK minimizedAffinity 6.71965694
REMARK minimizedRMSD -1
REMARK  1 active torsions:
REMARK  status: ('A' for Active; 'I' for Inactive)
REMARK    1  A    between atoms: C1_2  and  C2_3 
ROOT
ATOM      1  C2  UNL d   1       1.647   1.818  -0.036  0.00  0.00    -0.077 A 
ATOM      2  C3  UNL d   1       2.828   1.529   0.662  0.00  0.00     0.002 A 
ATOM      3  C4  UNL d   1       2.791   0.753   1.822  0.00  0.00     0.002 A 
ATOM      4  C5  UNL d   1       1.577   0.256   2.292  0.00  0.00    -0.004 A 
ATOM      5  C6  UNL d   1       0.397   0.539   1.606  0.00  0.00     0.002 A 
ATOM      6  C7  UNL d   1       0.431   1.315   0.447  0.00  0.00     0.002 A 
ENDROOT
BRANCH   1   7
ATOM      7  C1  UNL d   1       1.690   2.613  -1.314  0.00  0.00     0.055 C 
ATOM      8  C   UNL d   1       1.733   1.702  -2.532  0.00  0.00     0.019 C 
ENDBRANCH   1   7
TORSDOF 1
ENDMDL
