MODEL 1
REMARK minimizedAffinity -5.34913111
REMARK minimizedRMSD -1
REMARK  1 active torsions:
REMARK  status: ('A' for Active; 'I' for Inactive)
REMARK    1  A    between atoms: C1_2  and  C2_3 
ROOT
ATOM      1  C2  UNL d   1       0.576   0.323  -0.635  0.00  0.00    -0.077 A 
ATOM      2  C3  UNL d   1      -0.777   0.404  -0.279  0.00  0.00     0.002 A 
ATOM      3  C4  UNL d   1      -1.771   0.037  -1.189  0.00  0.00     0.002 A 
ATOM      4  C5  UNL d   1      -1.421  -0.417  -2.459  0.00  0.00    -0.004 A 
ATOM      5  C6  UNL d   1      -0.078  -0.499  -2.824  0.00  0.00     0.002 A 
ATOM      6  C7  UNL d   1       0.916  -0.131  -1.916  0.00  0.00     0.002 A 
ENDROOT
BRANCH   1   7
ATOM      7  C1  UNL d   1       1.650   0.672   0.361  0.00  0.00     0.055 C 
ATOM      8  C   UNL d   1       2.502  -0.542   0.704  0.00  0.00     0.019 C 
ENDBRANCH   1   7
TORSDOF 1
ENDMDL
