MODEL 1
REMARK minimizedAffinity -5.0455904
REMARK minimizedRMSD -1
REMARK  1 active torsions:
REMARK  status: ('A' for Active; 'I' for Inactive)
REMARK    1  A    between atoms: C1_2  and  C2_3 
ROOT
ATOM      1  C2  UNL d   1       0.870   0.374   0.478  0.00  0.00    -0.077 A 
ATOM      2  C3  UNL d   1       2.014   0.776   1.179  0.00  0.00     0.002 A 
ATOM      3  C4  UNL d   1       2.858  -0.173   1.759  0.00  0.00     0.002 A 
ATOM      4  C5  UNL d   1       2.568  -1.531   1.638  0.00  0.00    -0.004 A 
ATOM      5  C6  UNL d   1       1.431  -1.941   0.944  0.00  0.00     0.002 A 
ATOM      6  C7  UNL d   1       0.586  -0.993   0.365  0.00  0.00     0.002 A 
ENDROOT
BRANCH   1   7
ATOM      7  C1  UNL d   1      -0.015   1.394  -0.190  0.00  0.00     0.055 C 
ATOM      8  C   UNL d   1      -0.752   0.795  -1.378  0.00  0.00     0.019 C 
ENDBRANCH   1   7
TORSDOF 1
ENDMDL
