MODEL 1
REMARK minimizedAffinity -5.0583005
REMARK minimizedRMSD -1
REMARK  1 active torsions:
REMARK  status: ('A' for Active; 'I' for Inactive)
REMARK    1  A    between atoms: C1_2  and  C2_3 
ROOT
ATOM      1  C2  UNL d   1      -0.545   0.173  -0.927  0.00  0.00    -0.077 A 
ATOM      2  C3  UNL d   1      -1.859   0.067  -0.451  0.00  0.00     0.002 A 
ATOM      3  C4  UNL d   1      -2.929  -0.016  -1.345  0.00  0.00     0.002 A 
ATOM      4  C5  UNL d   1      -2.695   0.002  -2.718  0.00  0.00    -0.004 A 
ATOM      5  C6  UNL d   1      -1.392   0.108  -3.201  0.00  0.00     0.002 A 
ATOM      6  C7  UNL d   1      -0.321   0.193  -2.310  0.00  0.00     0.002 A 
ENDROOT
BRANCH   1   7
ATOM      7  C1  UNL d   1       0.614   0.213   0.034  0.00  0.00     0.055 C 
ATOM      8  C   UNL d   1       0.922  -1.171   0.588  0.00  0.00     0.019 C 
ENDBRANCH   1   7
TORSDOF 1
ENDMDL
