MODEL 1
REMARK minimizedAffinity -4.35765409
REMARK minimizedRMSD -1
REMARK  0 active torsions:
REMARK  status: ('A' for Active; 'I' for Inactive)
ROOT
ATOM      1  C   UNL d   1      -0.476   0.024  -1.516  0.00  0.00     0.172 C 
ATOM      2  N   UNL d   1      -1.328  -0.706  -0.607  0.00  0.00    -0.070 N 
ATOM      3  C1  UNL d   1      -2.640  -1.030  -0.828  0.00  0.00    -0.004 A 
ATOM      4  C2  UNL d   1      -3.094  -1.724   0.273  0.00  0.00    -0.047 A 
ATOM      5  C3  UNL d   1      -2.018  -1.820   1.187  0.00  0.00    -0.047 A 
ATOM      6  C4  UNL d   1      -0.937  -1.182   0.617  0.00  0.00    -0.004 A 
ENDROOT
TORSDOF 0
ENDMDL
