MODEL 1
REMARK minimizedAffinity -3.57955694
REMARK minimizedRMSD -1
REMARK  0 active torsions:
REMARK  status: ('A' for Active; 'I' for Inactive)
ROOT
ATOM      1  C   UNL d   1      -3.003  -0.546  -0.347  0.00  0.00     0.172 C 
ATOM      2  N   UNL d   1      -1.578  -0.324  -0.430  0.00  0.00    -0.070 N 
ATOM      3  C1  UNL d   1      -0.905   0.139  -1.529  0.00  0.00    -0.004 A 
ATOM      4  C2  UNL d   1       0.433   0.211  -1.205  0.00  0.00    -0.047 A 
ATOM      5  C3  UNL d   1       0.568  -0.225   0.134  0.00  0.00    -0.047 A 
ATOM      6  C4  UNL d   1      -0.692  -0.550   0.590  0.00  0.00    -0.004 A 
ENDROOT
TORSDOF 0
ENDMDL
