MODEL 1
REMARK minimizedAffinity -3.916605
REMARK minimizedRMSD -1
REMARK  0 active torsions:
REMARK  status: ('A' for Active; 'I' for Inactive)
ROOT
ATOM      1  C   UNL d   1       1.058  -0.178   0.611  0.00  0.00     0.172 C 
ATOM      2  N   UNL d   1      -0.256  -0.752   0.782  0.00  0.00    -0.070 N 
ATOM      3  C1  UNL d   1      -0.578  -1.767   1.643  0.00  0.00    -0.004 A 
ATOM      4  C2  UNL d   1      -1.925  -2.023   1.509  0.00  0.00    -0.047 A 
ATOM      5  C3  UNL d   1      -2.431  -1.131   0.533  0.00  0.00    -0.047 A 
ATOM      6  C4  UNL d   1      -1.376  -0.355   0.100  0.00  0.00    -0.004 A 
ENDROOT
TORSDOF 0
ENDMDL
