MODEL 1
REMARK minimizedAffinity -3.29978013
REMARK minimizedRMSD -1
REMARK  0 active torsions:
REMARK  status: ('A' for Active; 'I' for Inactive)
ROOT
ATOM      1  C   UNL d   1      -3.079  -1.432   0.228  0.00  0.00     0.172 C 
ATOM      2  N   UNL d   1      -1.929  -0.765  -0.335  0.00  0.00    -0.070 N 
ATOM      3  C1  UNL d   1      -0.880  -0.245   0.375  0.00  0.00    -0.004 A 
ATOM      4  C2  UNL d   1       0.008   0.304  -0.525  0.00  0.00    -0.047 A 
ATOM      5  C3  UNL d   1      -0.526   0.107  -1.821  0.00  0.00    -0.047 A 
ATOM      6  C4  UNL d   1      -1.725  -0.557  -1.674  0.00  0.00    -0.004 A 
ENDROOT
TORSDOF 0
ENDMDL
