MODEL 1
REMARK minimizedAffinity -3.10815454
REMARK minimizedRMSD -1
REMARK  0 active torsions:
REMARK  status: ('A' for Active; 'I' for Inactive)
ROOT
ATOM      1  C   UNL d   1       1.128   0.331   0.169  0.00  0.00     0.172 C 
ATOM      2  N   UNL d   1      -0.223   0.052  -0.259  0.00  0.00    -0.070 N 
ATOM      3  C1  UNL d   1      -0.746   0.343  -1.491  0.00  0.00    -0.004 A 
ATOM      4  C2  UNL d   1      -2.058  -0.079  -1.503  0.00  0.00    -0.047 A 
ATOM      5  C3  UNL d   1      -2.333  -0.643  -0.234  0.00  0.00    -0.047 A 
ATOM      6  C4  UNL d   1      -1.180  -0.548   0.516  0.00  0.00    -0.004 A 
ENDROOT
TORSDOF 0
ENDMDL
