MODEL 1
REMARK minimizedAffinity -4.1097765
REMARK minimizedRMSD -1
REMARK  0 active torsions:
REMARK  status: ('A' for Active; 'I' for Inactive)
ROOT
ATOM      1  C   UNL d   1       0.119   0.376   0.393  0.00  0.00     0.172 C 
ATOM      2  N   UNL d   1      -1.046  -0.469   0.506  0.00  0.00    -0.070 N 
ATOM      3  C1  UNL d   1      -2.322  -0.122   0.149  0.00  0.00    -0.004 A 
ATOM      4  C2  UNL d   1      -3.141  -1.199   0.410  0.00  0.00    -0.047 A 
ATOM      5  C3  UNL d   1      -2.330  -2.228   0.943  0.00  0.00    -0.047 A 
ATOM      6  C4  UNL d   1      -1.038  -1.750   0.992  0.00  0.00    -0.004 A 
ENDROOT
TORSDOF 0
ENDMDL
