MODEL 1
REMARK minimizedAffinity -3.70199728
REMARK minimizedRMSD -1
REMARK  0 active torsions:
REMARK  status: ('A' for Active; 'I' for Inactive)
ROOT
ATOM      1  C   UNL d   1      -1.411  -2.146   1.755  0.00  0.00     0.172 C 
ATOM      2  N   UNL d   1      -0.822  -1.294   0.749  0.00  0.00    -0.070 N 
ATOM      3  C1  UNL d   1       0.510  -0.999   0.634  0.00  0.00    -0.004 A 
ATOM      4  C2  UNL d   1       0.665  -0.159  -0.447  0.00  0.00    -0.047 A 
ATOM      5  C3  UNL d   1      -0.619   0.059  -1.001  0.00  0.00    -0.047 A 
ATOM      6  C4  UNL d   1      -1.521  -0.655  -0.241  0.00  0.00    -0.004 A 
ENDROOT
TORSDOF 0
ENDMDL
