MODEL 1
REMARK minimizedAffinity -4.20000839
REMARK minimizedRMSD -1
REMARK  0 active torsions:
REMARK  status: ('A' for Active; 'I' for Inactive)
ROOT
ATOM      1  C   UNL d   1       0.356  -0.070   0.089  0.00  0.00     0.172 C 
ATOM      2  N   UNL d   1      -0.879  -0.799   0.257  0.00  0.00    -0.070 N 
ATOM      3  C1  UNL d   1      -1.050  -1.912   1.036  0.00  0.00    -0.004 A 
ATOM      4  C2  UNL d   1      -2.367  -2.304   0.929  0.00  0.00    -0.047 A 
ATOM      5  C3  UNL d   1      -3.009  -1.395   0.054  0.00  0.00    -0.047 A 
ATOM      6  C4  UNL d   1      -2.065  -0.474  -0.347  0.00  0.00    -0.004 A 
ENDROOT
TORSDOF 0
ENDMDL
