MODEL 1
REMARK minimizedAffinity -2.56469774
REMARK minimizedRMSD -1
REMARK  0 active torsions:
REMARK  status: ('A' for Active; 'I' for Inactive)
ROOT
ATOM      1  C   UNL d   1       1.173   0.172   0.334  0.00  0.00     0.172 C 
ATOM      2  N   UNL d   1      -0.168  -0.054  -0.152  0.00  0.00    -0.070 N 
ATOM      3  C1  UNL d   1      -1.174  -0.675   0.538  0.00  0.00    -0.004 A 
ATOM      4  C2  UNL d   1      -2.291  -0.692  -0.268  0.00  0.00    -0.047 A 
ATOM      5  C3  UNL d   1      -1.944  -0.060  -1.486  0.00  0.00    -0.047 A 
ATOM      6  C4  UNL d   1      -0.624   0.325  -1.387  0.00  0.00    -0.004 A 
ENDROOT
TORSDOF 0
ENDMDL
