MODEL 1
REMARK minimizedAffinity -4.26819372
REMARK minimizedRMSD -1
REMARK  0 active torsions:
REMARK  status: ('A' for Active; 'I' for Inactive)
ROOT
ATOM      1  C   UNL d   1       0.086   0.176   0.359  0.00  0.00     0.172 C 
ATOM      2  N   UNL d   1      -1.140  -0.570   0.523  0.00  0.00    -0.070 N 
ATOM      3  C1  UNL d   1      -2.318  -0.321  -0.129  0.00  0.00    -0.004 A 
ATOM      4  C2  UNL d   1      -3.242  -1.249   0.301  0.00  0.00    -0.047 A 
ATOM      5  C3  UNL d   1      -2.596  -2.084   1.244  0.00  0.00    -0.047 A 
ATOM      6  C4  UNL d   1      -1.296  -1.641   1.362  0.00  0.00    -0.004 A 
ENDROOT
TORSDOF 0
ENDMDL
