MODEL 1
REMARK minimizedAffinity -4.24013853
REMARK minimizedRMSD -1
REMARK  0 active torsions:
REMARK  status: ('A' for Active; 'I' for Inactive)
ROOT
ATOM      1  C   UNL d   1       0.517   0.004   0.417  0.00  0.00     0.172 C 
ATOM      2  N   UNL d   1      -0.819  -0.517   0.245  0.00  0.00    -0.070 N 
ATOM      3  C1  UNL d   1      -1.810   0.059  -0.505  0.00  0.00    -0.004 A 
ATOM      4  C2  UNL d   1      -2.928  -0.741  -0.414  0.00  0.00    -0.047 A 
ATOM      5  C3  UNL d   1      -2.598  -1.837   0.419  0.00  0.00    -0.047 A 
ATOM      6  C4  UNL d   1      -1.287  -1.672   0.813  0.00  0.00    -0.004 A 
ENDROOT
TORSDOF 0
ENDMDL
