MODEL 1
REMARK minimizedAffinity -4.12079859
REMARK minimizedRMSD -1
REMARK  0 active torsions:
REMARK  status: ('A' for Active; 'I' for Inactive)
ROOT
ATOM      1  C   UNL d   1      -2.243  -0.041  -0.915  0.00  0.00     0.172 C 
ATOM      2  N   UNL d   1      -2.121  -0.987   0.169  0.00  0.00    -0.070 N 
ATOM      3  C1  UNL d   1      -1.059  -1.083   1.028  0.00  0.00    -0.004 A 
ATOM      4  C2  UNL d   1      -1.326  -2.105   1.915  0.00  0.00    -0.047 A 
ATOM      5  C3  UNL d   1      -2.591  -2.641   1.575  0.00  0.00    -0.047 A 
ATOM      6  C4  UNL d   1      -3.060  -1.930   0.491  0.00  0.00    -0.004 A 
ENDROOT
TORSDOF 0
ENDMDL
