MODEL 1
REMARK minimizedAffinity -3.29985857
REMARK minimizedRMSD -1
REMARK  0 active torsions:
REMARK  status: ('A' for Active; 'I' for Inactive)
ROOT
ATOM      1  C   UNL d   1       0.440  -0.102   0.497  0.00  0.00     0.172 C 
ATOM      2  N   UNL d   1      -0.868  -0.681   0.301  0.00  0.00    -0.070 N 
ATOM      3  C1  UNL d   1      -1.796  -0.265  -0.617  0.00  0.00    -0.004 A 
ATOM      4  C2  UNL d   1      -2.907  -1.071  -0.488  0.00  0.00    -0.047 A 
ATOM      5  C3  UNL d   1      -2.638  -2.002   0.543  0.00  0.00    -0.047 A 
ATOM      6  C4  UNL d   1      -1.369  -1.738   1.014  0.00  0.00    -0.004 A 
ENDROOT
TORSDOF 0
ENDMDL
