MODEL 1
REMARK minimizedAffinity -3.01203871
REMARK minimizedRMSD -1
REMARK  0 active torsions:
REMARK  status: ('A' for Active; 'I' for Inactive)
ROOT
ATOM      1  C   UNL d   1       1.017   0.354  -0.148  0.00  0.00     0.172 C 
ATOM      2  N   UNL d   1      -0.383   0.016  -0.253  0.00  0.00    -0.070 N 
ATOM      3  C1  UNL d   1      -1.066  -0.823   0.585  0.00  0.00    -0.004 A 
ATOM      4  C2  UNL d   1      -2.373  -0.882   0.150  0.00  0.00    -0.047 A 
ATOM      5  C3  UNL d   1      -2.478  -0.050  -0.989  0.00  0.00    -0.047 A 
ATOM      6  C4  UNL d   1      -1.231   0.494  -1.217  0.00  0.00    -0.004 A 
ENDROOT
TORSDOF 0
ENDMDL
