MODEL 1
REMARK minimizedAffinity -4.07792234
REMARK minimizedRMSD -1
REMARK  0 active torsions:
REMARK  status: ('A' for Active; 'I' for Inactive)
ROOT
ATOM      1  C   UNL d   1       0.434  -0.011   0.070  0.00  0.00     0.172 C 
ATOM      2  N   UNL d   1      -0.895  -0.576   0.062  0.00  0.00    -0.070 N 
ATOM      3  C1  UNL d   1      -1.911  -0.215  -0.781  0.00  0.00    -0.004 A 
ATOM      4  C2  UNL d   1      -3.011  -0.985  -0.470  0.00  0.00    -0.047 A 
ATOM      5  C3  UNL d   1      -2.644  -1.837   0.598  0.00  0.00    -0.047 A 
ATOM      6  C4  UNL d   1      -1.328  -1.563   0.908  0.00  0.00    -0.004 A 
ENDROOT
TORSDOF 0
ENDMDL
