MODEL 1
REMARK minimizedAffinity -4.16484833
REMARK minimizedRMSD -1
REMARK  0 active torsions:
REMARK  status: ('A' for Active; 'I' for Inactive)
ROOT
ATOM      1  C   UNL d   1      -0.427   0.356  -1.116  0.00  0.00     0.172 C 
ATOM      2  N   UNL d   1      -1.442  -0.526  -0.589  0.00  0.00    -0.070 N 
ATOM      3  C1  UNL d   1      -2.647  -0.799  -1.178  0.00  0.00    -0.004 A 
ATOM      4  C2  UNL d   1      -3.324  -1.682  -0.365  0.00  0.00    -0.047 A 
ATOM      5  C3  UNL d   1      -2.497  -1.948   0.753  0.00  0.00    -0.047 A 
ATOM      6  C4  UNL d   1      -1.338  -1.219   0.588  0.00  0.00    -0.004 A 
ENDROOT
TORSDOF 0
ENDMDL
