MODEL 1
REMARK minimizedAffinity -3.93675041
REMARK minimizedRMSD -1
REMARK  0 active torsions:
REMARK  status: ('A' for Active; 'I' for Inactive)
ROOT
ATOM      1  C   UNL d   1       0.570   0.015   0.324  0.00  0.00     0.172 C 
ATOM      2  N   UNL d   1      -0.775  -0.437   0.057  0.00  0.00    -0.070 N 
ATOM      3  C1  UNL d   1      -1.385  -0.448  -1.169  0.00  0.00    -0.004 A 
ATOM      4  C2  UNL d   1      -2.658  -0.950  -1.002  0.00  0.00    -0.047 A 
ATOM      5  C3  UNL d   1      -2.819  -1.249   0.372  0.00  0.00    -0.047 A 
ATOM      6  C4  UNL d   1      -1.638  -0.922   1.004  0.00  0.00    -0.004 A 
ENDROOT
TORSDOF 0
ENDMDL
