MODEL 1
REMARK minimizedAffinity -3.300282
REMARK minimizedRMSD -1
REMARK  0 active torsions:
REMARK  status: ('A' for Active; 'I' for Inactive)
ROOT
ATOM      1  C   UNL d   1      -0.312   0.404  -1.491  0.00  0.00     0.172 C 
ATOM      2  N   UNL d   1      -1.260  -0.321  -0.679  0.00  0.00    -0.070 N 
ATOM      3  C1  UNL d   1      -0.989  -0.923   0.521  0.00  0.00    -0.004 A 
ATOM      4  C2  UNL d   1      -2.153  -1.505   0.974  0.00  0.00    -0.047 A 
ATOM      5  C3  UNL d   1      -3.158  -1.245   0.012  0.00  0.00    -0.047 A 
ATOM      6  C4  UNL d   1      -2.579  -0.511  -1.000  0.00  0.00    -0.004 A 
ENDROOT
TORSDOF 0
ENDMDL
