MODEL 1
REMARK minimizedAffinity 0.948143303
REMARK minimizedRMSD -1
REMARK  0 active torsions:
REMARK  status: ('A' for Active; 'I' for Inactive)
ROOT
ATOM      1  C   UNL d   1      -0.378   4.873   5.250  0.00  0.00     0.077 C 
ATOM      2  C1  UNL d   1       1.051   5.180   4.912  0.00  0.00    -0.074 A 
ATOM      3  C2  UNL d   1       1.913   5.728   5.867  0.00  0.00    -0.005 A 
ATOM      4  C3  UNL d   1       3.242   6.000   5.541  0.00  0.00     0.006 A 
ATOM      5  C4  UNL d   1       3.721   5.727   4.259  0.00  0.00    -0.005 A 
ATOM      6  C5  UNL d   1       2.873   5.178   3.291  0.00  0.00    -0.074 A 
ATOM      7  C6  UNL d   1       3.374   4.870   1.912  0.00  0.00     0.077 C 
ATOM      8  C7  UNL d   1       1.541   4.901   3.629  0.00  0.00    -0.001 A 
ENDROOT
TORSDOF 0
ENDMDL
