MODEL 1
REMARK minimizedAffinity -0.540743828
REMARK minimizedRMSD -1
REMARK  0 active torsions:
REMARK  status: ('A' for Active; 'I' for Inactive)
ROOT
ATOM      1  C   UNL d   1       1.068  -0.658   3.532  0.00  0.00     0.077 C 
ATOM      2  C1  UNL d   1       0.830  -0.721   2.052  0.00  0.00    -0.074 A 
ATOM      3  C2  UNL d   1       1.868  -1.035   1.170  0.00  0.00    -0.005 A 
ATOM      4  C3  UNL d   1       1.629  -1.100  -0.203  0.00  0.00     0.006 A 
ATOM      5  C4  UNL d   1       0.351  -0.852  -0.706  0.00  0.00    -0.005 A 
ATOM      6  C5  UNL d   1      -0.700  -0.538   0.161  0.00  0.00    -0.074 A 
ATOM      7  C6  UNL d   1      -2.081  -0.278  -0.362  0.00  0.00     0.077 C 
ATOM      8  C7  UNL d   1      -0.453  -0.481   1.540  0.00  0.00    -0.001 A 
ENDROOT
TORSDOF 0
ENDMDL
