MODEL 1
REMARK minimizedAffinity 4.07344532
REMARK minimizedRMSD -1
REMARK  0 active torsions:
REMARK  status: ('A' for Active; 'I' for Inactive)
ROOT
ATOM      1  C   UNL d   1       2.146  -1.101   0.381  0.00  0.00     0.077 C 
ATOM      2  C1  UNL d   1       0.698  -0.788   0.146  0.00  0.00    -0.074 A 
ATOM      3  C2  UNL d   1       0.153  -0.827  -1.141  0.00  0.00    -0.005 A 
ATOM      4  C3  UNL d   1      -1.198  -0.543  -1.342  0.00  0.00     0.006 A 
ATOM      5  C4  UNL d   1      -2.016  -0.217  -0.260  0.00  0.00    -0.005 A 
ATOM      6  C5  UNL d   1      -1.489  -0.174   1.035  0.00  0.00    -0.074 A 
ATOM      7  C6  UNL d   1      -2.357   0.165   2.210  0.00  0.00     0.077 C 
ATOM      8  C7  UNL d   1      -0.133  -0.468   1.230  0.00  0.00    -0.001 A 
ENDROOT
TORSDOF 0
ENDMDL
