MODEL 1
REMARK minimizedAffinity 1.53528047
REMARK minimizedRMSD -1
REMARK  0 active torsions:
REMARK  status: ('A' for Active; 'I' for Inactive)
ROOT
ATOM      1  C   UNL d   1       1.053  -0.651   2.859  0.00  0.00     0.077 C 
ATOM      2  C1  UNL d   1       0.161  -0.682   1.654  0.00  0.00    -0.074 A 
ATOM      3  C2  UNL d   1       0.697  -0.779   0.365  0.00  0.00    -0.005 A 
ATOM      4  C3  UNL d   1      -0.146  -0.816  -0.746  0.00  0.00     0.006 A 
ATOM      5  C4  UNL d   1      -1.530  -0.757  -0.580  0.00  0.00    -0.005 A 
ATOM      6  C5  UNL d   1      -2.084  -0.660   0.701  0.00  0.00    -0.074 A 
ATOM      7  C6  UNL d   1      -3.570  -0.605   0.897  0.00  0.00     0.077 C 
ATOM      8  C7  UNL d   1      -1.231  -0.630   1.812  0.00  0.00    -0.001 A 
ENDROOT
TORSDOF 0
ENDMDL
