MODEL 1
REMARK minimizedAffinity 0.142290875
REMARK minimizedRMSD -1
REMARK  0 active torsions:
REMARK  status: ('A' for Active; 'I' for Inactive)
ROOT
ATOM      1  C   UNL d   1       3.713   6.000   1.153  0.00  0.00     0.077 C 
ATOM      2  C1  UNL d   1       3.396   5.992   2.619  0.00  0.00    -0.074 A 
ATOM      3  C2  UNL d   1       4.416   5.997   3.575  0.00  0.00    -0.005 A 
ATOM      4  C3  UNL d   1       4.105   6.000   4.935  0.00  0.00     0.006 A 
ATOM      5  C4  UNL d   1       2.773   5.997   5.351  0.00  0.00    -0.005 A 
ATOM      6  C5  UNL d   1       1.739   5.993   4.409  0.00  0.00    -0.074 A 
ATOM      7  C6  UNL d   1       0.303   6.000   4.839  0.00  0.00     0.077 C 
ATOM      8  C7  UNL d   1       2.060   5.998   3.045  0.00  0.00    -0.001 A 
ENDROOT
TORSDOF 0
ENDMDL
