MODEL 1
REMARK minimizedAffinity -2.20176578
REMARK minimizedRMSD -1
REMARK  0 active torsions:
REMARK  status: ('A' for Active; 'I' for Inactive)
ROOT
ATOM      1  C   UNL d   1       4.083   5.991   1.959  0.00  0.00     0.077 C 
ATOM      2  C1  UNL d   1       3.480   5.983   3.332  0.00  0.00    -0.074 A 
ATOM      3  C2  UNL d   1       4.289   5.996   4.473  0.00  0.00    -0.005 A 
ATOM      4  C3  UNL d   1       3.714   5.998   5.743  0.00  0.00     0.006 A 
ATOM      5  C4  UNL d   1       2.326   5.988   5.886  0.00  0.00    -0.005 A 
ATOM      6  C5  UNL d   1       1.500   5.977   4.757  0.00  0.00    -0.074 A 
ATOM      7  C6  UNL d   1       0.007   5.976   4.892  0.00  0.00     0.077 C 
ATOM      8  C7  UNL d   1       2.086   5.981   3.483  0.00  0.00    -0.001 A 
ENDROOT
TORSDOF 0
ENDMDL
