MODEL 1
REMARK minimizedAffinity 0.324103564
REMARK minimizedRMSD -1
REMARK  0 active torsions:
REMARK  status: ('A' for Active; 'I' for Inactive)
ROOT
ATOM      1  C   UNL d   1      -0.377   5.857   4.579  0.00  0.00     0.077 C 
ATOM      2  C1  UNL d   1       1.120   5.914   4.661  0.00  0.00    -0.074 A 
ATOM      3  C2  UNL d   1       1.772   5.953   5.897  0.00  0.00    -0.005 A 
ATOM      4  C3  UNL d   1       3.164   5.996   5.957  0.00  0.00     0.006 A 
ATOM      5  C4  UNL d   1       3.918   5.999   4.783  0.00  0.00    -0.005 A 
ATOM      6  C5  UNL d   1       3.284   5.960   3.538  0.00  0.00    -0.074 A 
ATOM      7  C6  UNL d   1       4.080   5.953   2.266  0.00  0.00     0.077 C 
ATOM      8  C7  UNL d   1       1.885   5.910   3.486  0.00  0.00    -0.001 A 
ENDROOT
TORSDOF 0
ENDMDL
