MODEL 1
REMARK minimizedAffinity -1.98113072
REMARK minimizedRMSD -1
REMARK  3 active torsions:
REMARK  status: ('A' for Active; 'I' for Inactive)
REMARK    1  A    between atoms: C3'_2  and  C2'_3 
REMARK    2  A    between atoms: C2'_3  and  C1'_4 
REMARK    3  A    between atoms: C1'_4  and  C1_5 
ROOT
ATOM      1  C1  N4B d   1       0.243  -0.390   1.899  0.00  0.00    -0.075 A 
ATOM      2  C2  N4B d   1      -0.982   0.086   2.415  0.00  0.00     0.002 A 
ATOM      3  C3  N4B d   1      -1.987   0.465   1.559  0.00  0.00     0.002 A 
ATOM      4  C4  N4B d   1      -1.784   0.394   0.189  0.00  0.00    -0.004 A 
ATOM      5  C5  N4B d   1      -0.607  -0.092  -0.302  0.00  0.00     0.002 A 
ATOM      6  C6  N4B d   1       0.410  -0.480   0.547  0.00  0.00     0.002 A 
ENDROOT
BRANCH   1   7
ATOM      7  C1' N4B d   1       1.401  -0.735   2.794  0.00  0.00     0.057 C 
BRANCH   7   8
ATOM      8  C2' N4B d   1       0.869  -1.179   4.153  0.00  0.00     0.009 C 
BRANCH   8   9
ATOM      9  C3' N4B d   1       1.981  -1.660   5.070  0.00  0.00     0.004 C 
ATOM     10  C4' N4B d   1       3.227  -0.834   4.954  0.00  0.00     0.003 C 
ENDBRANCH   8   9
ENDBRANCH   7   8
ENDBRANCH   1   7
TORSDOF 3
ENDMDL
