MODEL 1
REMARK minimizedAffinity -1.70261371
REMARK minimizedRMSD -1
REMARK  3 active torsions:
REMARK  status: ('A' for Active; 'I' for Inactive)
REMARK    1  A    between atoms: C3'_2  and  C2'_3 
REMARK    2  A    between atoms: C2'_3  and  C1'_4 
REMARK    3  A    between atoms: C1'_4  and  C1_5 
ROOT
ATOM      1  C1  N4B d   1      -0.202  -0.511   1.472  0.00  0.00    -0.075 A 
ATOM      2  C2  N4B d   1      -0.230  -0.707   0.074  0.00  0.00     0.002 A 
ATOM      3  C3  N4B d   1      -1.370  -0.424  -0.637  0.00  0.00     0.002 A 
ATOM      4  C4  N4B d   1      -2.496   0.036   0.029  0.00  0.00    -0.004 A 
ATOM      5  C5  N4B d   1      -2.454   0.247   1.376  0.00  0.00     0.002 A 
ATOM      6  C6  N4B d   1      -1.313  -0.030   2.102  0.00  0.00     0.002 A 
ENDROOT
BRANCH   1   7
ATOM      7  C1' N4B d   1       0.994  -0.888   2.303  0.00  0.00     0.057 C 
BRANCH   7   8
ATOM      8  C2' N4B d   1       0.534  -1.222   3.719  0.00  0.00     0.009 C 
BRANCH   8   9
ATOM      9  C3' N4B d   1       1.652  -1.825   4.552  0.00  0.00     0.004 C 
ATOM     10  C4' N4B d   1       1.655  -1.328   5.967  0.00  0.00     0.003 C 
ENDBRANCH   8   9
ENDBRANCH   7   8
ENDBRANCH   1   7
TORSDOF 3
ENDMDL
