MODEL 1
REMARK minimizedAffinity -1.0755111
REMARK minimizedRMSD -1
REMARK  3 active torsions:
REMARK  status: ('A' for Active; 'I' for Inactive)
REMARK    1  A    between atoms: C3'_2  and  C2'_3 
REMARK    2  A    between atoms: C2'_3  and  C1'_4 
REMARK    3  A    between atoms: C1'_4  and  C1_5 
ROOT
ATOM      1  C1  N4B d   1      -0.162  -0.443   0.477  0.00  0.00    -0.075 A 
ATOM      2  C2  N4B d   1      -1.336  -0.771  -0.236  0.00  0.00     0.002 A 
ATOM      3  C3  N4B d   1      -2.562  -0.373   0.239  0.00  0.00     0.002 A 
ATOM      4  C4  N4B d   1      -2.639   0.335   1.429  0.00  0.00    -0.004 A 
ATOM      5  C5  N4B d   1      -1.499   0.671   2.098  0.00  0.00     0.002 A 
ATOM      6  C6  N4B d   1      -0.260   0.281   1.631  0.00  0.00     0.002 A 
ENDROOT
BRANCH   1   7
ATOM      7  C1' N4B d   1       1.193  -0.930   0.043  0.00  0.00     0.057 C 
BRANCH   7   8
ATOM      8  C2' N4B d   1       2.242   0.116   0.411  0.00  0.00     0.009 C 
BRANCH   8   9
ATOM      9  C3' N4B d   1       2.990   0.624  -0.810  0.00  0.00     0.004 C 
ATOM     10  C4' N4B d   1       3.834   1.828  -0.515  0.00  0.00     0.003 C 
ENDBRANCH   8   9
ENDBRANCH   7   8
ENDBRANCH   1   7
TORSDOF 3
ENDMDL
