MODEL 1
REMARK minimizedAffinity 0.589950264
REMARK minimizedRMSD -1
REMARK  3 active torsions:
REMARK  status: ('A' for Active; 'I' for Inactive)
REMARK    1  A    between atoms: C3'_2  and  C2'_3 
REMARK    2  A    between atoms: C2'_3  and  C1'_4 
REMARK    3  A    between atoms: C1'_4  and  C1_5 
ROOT
ATOM      1  C1  N4B d   1      -1.122  -0.089   1.006  0.00  0.00    -0.075 A 
ATOM      2  C2  N4B d   1      -2.213   0.633   1.537  0.00  0.00     0.002 A 
ATOM      3  C3  N4B d   1      -3.344   0.823   0.780  0.00  0.00     0.002 A 
ATOM      4  C4  N4B d   1      -3.398   0.319  -0.510  0.00  0.00    -0.004 A 
ATOM      5  C5  N4B d   1      -2.350  -0.399  -1.007  0.00  0.00     0.002 A 
ATOM      6  C6  N4B d   1      -1.209  -0.602  -0.256  0.00  0.00     0.002 A 
ENDROOT
BRANCH   1   7
ATOM      7  C1' N4B d   1       0.168  -0.249   1.763  0.00  0.00     0.057 C 
BRANCH   7   8
ATOM      8  C2' N4B d   1       1.332  -0.249   0.775  0.00  0.00     0.009 C 
BRANCH   8   9
ATOM      9  C3' N4B d   1       2.602   0.310   1.394  0.00  0.00     0.004 C 
ATOM     10  C4' N4B d   1       3.249   1.360   0.541  0.00  0.00     0.003 C 
ENDBRANCH   8   9
ENDBRANCH   7   8
ENDBRANCH   1   7
TORSDOF 3
ENDMDL
