MODEL 1
REMARK minimizedAffinity -3.21564436
REMARK minimizedRMSD -1
REMARK  0 active torsions:
REMARK  status: ('A' for Active; 'I' for Inactive)
ROOT
ATOM      1  C1  DEN d   1      -1.362   0.014  -0.401  0.00  0.00     0.130 A 
ATOM      2  C2  DEN d   1      -0.295   0.617  -1.195  0.00  0.00    -0.031 A 
ATOM      3  C3  DEN d   1       0.986   0.364  -0.506  0.00  0.00     0.027 A 
ATOM      4  C4  DEN d   1       1.420  -0.901   1.699  0.00  0.00     0.027 A 
ATOM      5  C5  DEN d   1       0.825  -1.580   2.739  0.00  0.00    -0.003 A 
ATOM      6  C6  DEN d   1      -0.532  -1.745   2.822  0.00  0.00     0.001 A 
ATOM      7  C7  DEN d   1      -1.337  -1.263   1.824  0.00  0.00     0.017 A 
ATOM      8  C8  DEN d   1      -0.745  -0.570   0.776  0.00  0.00    -0.094 A 
ATOM      9  C9  DEN d   1       0.630  -0.425   0.704  0.00  0.00    -0.072 A 
ENDROOT
TORSDOF 0
ENDMDL
