MODEL 1
REMARK minimizedAffinity -4.65203857
REMARK minimizedRMSD -1
REMARK  0 active torsions:
REMARK  status: ('A' for Active; 'I' for Inactive)
ROOT
ATOM      1  C1  DEN d   1      -0.654  -0.100  -0.609  0.00  0.00     0.130 A 
ATOM      2  C2  DEN d   1       0.421   0.728  -1.150  0.00  0.00    -0.031 A 
ATOM      3  C3  DEN d   1       1.482   0.822  -0.127  0.00  0.00     0.027 A 
ATOM      4  C4  DEN d   1       1.568  -0.231   2.225  0.00  0.00     0.027 A 
ATOM      5  C5  DEN d   1       0.882  -1.007   3.133  0.00  0.00    -0.003 A 
ATOM      6  C6  DEN d   1      -0.368  -1.503   2.873  0.00  0.00     0.001 A 
ATOM      7  C7  DEN d   1      -0.952  -1.266   1.657  0.00  0.00     0.017 A 
ATOM      8  C8  DEN d   1      -0.270  -0.478   0.739  0.00  0.00    -0.094 A 
ATOM      9  C9  DEN d   1       0.998   0.004   1.017  0.00  0.00    -0.072 A 
ENDROOT
TORSDOF 0
ENDMDL
