MODEL 1
REMARK minimizedAffinity -6.06091642
REMARK minimizedRMSD -1
REMARK  0 active torsions:
REMARK  status: ('A' for Active; 'I' for Inactive)
ROOT
ATOM      1  C1  DEN d   1      -1.094  -0.023  -0.395  0.00  0.00     0.130 A 
ATOM      2  C2  DEN d   1       0.059   0.176  -1.269  0.00  0.00    -0.031 A 
ATOM      3  C3  DEN d   1       1.281  -0.052  -0.472  0.00  0.00     0.027 A 
ATOM      4  C4  DEN d   1       1.497  -0.693   2.017  0.00  0.00     0.027 A 
ATOM      5  C5  DEN d   1       0.797  -0.961   3.173  0.00  0.00    -0.003 A 
ATOM      6  C6  DEN d   1      -0.570  -0.902   3.228  0.00  0.00     0.001 A 
ATOM      7  C7  DEN d   1      -1.283  -0.611   2.095  0.00  0.00     0.017 A 
ATOM      8  C8  DEN d   1      -0.584  -0.333   0.928  0.00  0.00    -0.094 A 
ATOM      9  C9  DEN d   1       0.798  -0.410   0.889  0.00  0.00    -0.072 A 
ENDROOT
TORSDOF 0
ENDMDL
