MODEL 1
REMARK minimizedAffinity -2.84949708
REMARK minimizedRMSD -1
REMARK  0 active torsions:
REMARK  status: ('A' for Active; 'I' for Inactive)
ROOT
ATOM      1  C1  DEN d   1       0.923  -0.285  -0.930  0.00  0.00     0.130 A 
ATOM      2  C2  DEN d   1      -0.066  -0.660   0.078  0.00  0.00    -0.031 A 
ATOM      3  C3  DEN d   1      -1.352  -0.034  -0.290  0.00  0.00     0.027 A 
ATOM      4  C4  DEN d   1      -1.906   1.467  -2.312  0.00  0.00     0.027 A 
ATOM      5  C5  DEN d   1      -1.389   2.073  -3.436  0.00  0.00    -0.003 A 
ATOM      6  C6  DEN d   1      -0.068   1.964  -3.781  0.00  0.00     0.001 A 
ATOM      7  C7  DEN d   1       0.772   1.195  -3.020  0.00  0.00     0.017 A 
ATOM      8  C8  DEN d   1       0.259   0.587  -1.881  0.00  0.00    -0.094 A 
ATOM      9  C9  DEN d   1      -1.082   0.699  -1.555  0.00  0.00    -0.072 A 
ENDROOT
TORSDOF 0
ENDMDL
