MODEL 1
REMARK minimizedAffinity -4.0428071
REMARK minimizedRMSD -1
REMARK  0 active torsions:
REMARK  status: ('A' for Active; 'I' for Inactive)
ROOT
ATOM      1  C1  DEN d   1      -1.229  -0.268  -0.802  0.00  0.00     0.130 A 
ATOM      2  C2  DEN d   1       0.153  -0.490  -0.386  0.00  0.00    -0.031 A 
ATOM      3  C3  DEN d   1       0.985   0.574  -0.983  0.00  0.00     0.027 A 
ATOM      4  C4  DEN d   1       0.270   2.536  -2.497  0.00  0.00     0.027 A 
ATOM      5  C5  DEN d   1      -0.796   3.133  -3.132  0.00  0.00    -0.003 A 
ATOM      6  C6  DEN d   1      -2.066   2.623  -3.063  0.00  0.00     0.001 A 
ATOM      7  C7  DEN d   1      -2.309   1.507  -2.306  0.00  0.00     0.017 A 
ATOM      8  C8  DEN d   1      -1.237   0.896  -1.669  0.00  0.00    -0.094 A 
ATOM      9  C9  DEN d   1       0.037   1.434  -1.741  0.00  0.00    -0.072 A 
ENDROOT
TORSDOF 0
ENDMDL
