MODEL 1
REMARK minimizedAffinity 4.02769518
REMARK minimizedRMSD -1
REMARK  0 active torsions:
REMARK  status: ('A' for Active; 'I' for Inactive)
ROOT
ATOM      1  C2' OXE d   1      -1.397   3.472  -3.094  0.00  0.00     0.078 C 
ATOM      2  C1' OXE d   1      -0.615   2.469  -0.592  0.00  0.00     0.078 C 
ATOM      3  C1  OXE d   1      -1.805   1.832  -1.264  0.00  0.00    -0.078 A 
ATOM      4  C2  OXE d   1      -2.209   2.360  -2.467  0.00  0.00    -0.078 A 
ATOM      5  C3  OXE d   1      -3.268   1.774  -3.156  0.00  0.00     0.003 A 
ATOM      6  C4  OXE d   1      -4.020   0.753  -2.564  0.00  0.00    -0.002 A 
ATOM      7  C5  OXE d   1      -3.650   0.227  -1.322  0.00  0.00    -0.002 A 
ATOM      8  C6  OXE d   1      -2.522   0.725  -0.680  0.00  0.00     0.003 A 
ENDROOT
TORSDOF 0
ENDMDL
