MODEL 1
REMARK minimizedAffinity 3.10592818
REMARK minimizedRMSD -1
REMARK  0 active torsions:
REMARK  status: ('A' for Active; 'I' for Inactive)
ROOT
ATOM      1  C2' OXE d   1       1.356   2.704   3.016  0.00  0.00     0.078 C 
ATOM      2  C1' OXE d   1       0.429   0.421   1.671  0.00  0.00     0.078 C 
ATOM      3  C1  OXE d   1       0.633   1.678   0.864  0.00  0.00    -0.078 A 
ATOM      4  C2  OXE d   1       1.042   2.803   1.539  0.00  0.00    -0.078 A 
ATOM      5  C3  OXE d   1       1.297   3.976   0.833  0.00  0.00     0.003 A 
ATOM      6  C4  OXE d   1       0.995   4.062  -0.531  0.00  0.00    -0.002 A 
ATOM      7  C5  OXE d   1       0.540   2.939  -1.230  0.00  0.00    -0.002 A 
ATOM      8  C6  OXE d   1       0.394   1.730  -0.557  0.00  0.00     0.003 A 
ENDROOT
TORSDOF 0
ENDMDL
