MODEL 1
REMARK minimizedAffinity -1.68899059
REMARK minimizedRMSD -1
REMARK  0 active torsions:
REMARK  status: ('A' for Active; 'I' for Inactive)
ROOT
ATOM      1  C2' OXE d   1       5.293  -2.456  -1.798  0.00  0.00     0.078 C 
ATOM      2  C1' OXE d   1       4.919  -5.006  -2.910  0.00  0.00     0.078 C 
ATOM      3  C1  OXE d   1       3.737  -4.350  -2.242  0.00  0.00    -0.078 A 
ATOM      4  C2  OXE d   1       3.941  -3.122  -1.660  0.00  0.00    -0.078 A 
ATOM      5  C3  OXE d   1       2.870  -2.449  -1.078  0.00  0.00     0.003 A 
ATOM      6  C4  OXE d   1       1.626  -3.076  -0.946  0.00  0.00    -0.002 A 
ATOM      7  C5  OXE d   1       1.407  -4.343  -1.497  0.00  0.00    -0.002 A 
ATOM      8  C6  OXE d   1       2.438  -4.975  -2.184  0.00  0.00     0.003 A 
ENDROOT
TORSDOF 0
ENDMDL
