MODEL 1
REMARK minimizedAffinity 18.1158638
REMARK minimizedRMSD -1
REMARK  0 active torsions:
REMARK  status: ('A' for Active; 'I' for Inactive)
ROOT
ATOM      1  C2' OXE d   1      -2.259   4.373  -3.341  0.00  0.00     0.078 C 
ATOM      2  C1' OXE d   1      -2.463   2.732  -1.073  0.00  0.00     0.078 C 
ATOM      3  C1  OXE d   1      -3.338   2.406  -2.259  0.00  0.00    -0.078 A 
ATOM      4  C2  OXE d   1      -3.265   3.243  -3.346  0.00  0.00    -0.078 A 
ATOM      5  C3  OXE d   1      -4.010   2.956  -4.487  0.00  0.00     0.003 A 
ATOM      6  C4  OXE d   1      -4.945   1.914  -4.480  0.00  0.00    -0.002 A 
ATOM      7  C5  OXE d   1      -5.064   1.074  -3.367  0.00  0.00    -0.002 A 
ATOM      8  C6  OXE d   1      -4.239   1.280  -2.267  0.00  0.00     0.003 A 
ENDROOT
TORSDOF 0
ENDMDL
