MODEL 1
REMARK minimizedAffinity 12.0548706
REMARK minimizedRMSD -1
REMARK  0 active torsions:
REMARK  status: ('A' for Active; 'I' for Inactive)
ROOT
ATOM      1  C2' OXE d   1      -1.408   2.286   0.453  0.00  0.00     0.078 C 
ATOM      2  C1' OXE d   1      -2.589   3.975  -1.453  0.00  0.00     0.078 C 
ATOM      3  C1  OXE d   1      -1.088   4.012  -1.314  0.00  0.00    -0.078 A 
ATOM      4  C2  OXE d   1      -0.522   3.217  -0.347  0.00  0.00    -0.078 A 
ATOM      5  C3  OXE d   1       0.863   3.173  -0.214  0.00  0.00     0.003 A 
ATOM      6  C4  OXE d   1       1.674   4.045  -0.950  0.00  0.00    -0.002 A 
ATOM      7  C5  OXE d   1       1.115   4.891  -1.913  0.00  0.00    -0.002 A 
ATOM      8  C6  OXE d   1      -0.257   4.857  -2.137  0.00  0.00     0.003 A 
ENDROOT
TORSDOF 0
ENDMDL
