MODEL 1
REMARK minimizedAffinity 10.8589487
REMARK minimizedRMSD -1
REMARK  0 active torsions:
REMARK  status: ('A' for Active; 'I' for Inactive)
ROOT
ATOM      1  C2' OXE d   1       1.791   4.439   0.014  0.00  0.00     0.078 C 
ATOM      2  C1' OXE d   1       2.651   3.606   2.553  0.00  0.00     0.078 C 
ATOM      3  C1  OXE d   1       1.201   3.394   2.197  0.00  0.00    -0.078 A 
ATOM      4  C2  OXE d   1       0.778   3.846   0.970  0.00  0.00    -0.078 A 
ATOM      5  C3  OXE d   1      -0.537   3.626   0.570  0.00  0.00     0.003 A 
ATOM      6  C4  OXE d   1      -1.469   3.087   1.464  0.00  0.00    -0.002 A 
ATOM      7  C5  OXE d   1      -1.069   2.656   2.733  0.00  0.00    -0.002 A 
ATOM      8  C6  OXE d   1       0.269   2.763   3.099  0.00  0.00     0.003 A 
ENDROOT
TORSDOF 0
ENDMDL
