MODEL 1
REMARK minimizedAffinity 15.9369631
REMARK minimizedRMSD -1
REMARK  0 active torsions:
REMARK  status: ('A' for Active; 'I' for Inactive)
ROOT
ATOM      1  C2' OXE d   1      -0.971   2.300   0.044  0.00  0.00     0.078 C 
ATOM      2  C1' OXE d   1      -2.860   0.275   0.503  0.00  0.00     0.078 C 
ATOM      3  C1  OXE d   1      -3.182   1.315  -0.542  0.00  0.00    -0.078 A 
ATOM      4  C2  OXE d   1      -2.273   2.328  -0.726  0.00  0.00    -0.078 A 
ATOM      5  C3  OXE d   1      -2.496   3.282  -1.715  0.00  0.00     0.003 A 
ATOM      6  C4  OXE d   1      -3.707   3.307  -2.417  0.00  0.00    -0.002 A 
ATOM      7  C5  OXE d   1      -4.664   2.307  -2.216  0.00  0.00    -0.002 A 
ATOM      8  C6  OXE d   1      -4.400   1.282  -1.314  0.00  0.00     0.003 A 
ENDROOT
TORSDOF 0
ENDMDL
