MODEL 1
REMARK minimizedAffinity 6.08984184
REMARK minimizedRMSD -1
REMARK  0 active torsions:
REMARK  status: ('A' for Active; 'I' for Inactive)
ROOT
ATOM      1  C2' OXE d   1       2.198   4.589  -0.433  0.00  0.00     0.078 C 
ATOM      2  C1' OXE d   1       1.033   2.900   1.482  0.00  0.00     0.078 C 
ATOM      3  C1  OXE d   1       0.322   3.062   0.162  0.00  0.00    -0.078 A 
ATOM      4  C2  OXE d   1       0.875   3.926  -0.752  0.00  0.00    -0.078 A 
ATOM      5  C3  OXE d   1       0.290   4.071  -2.007  0.00  0.00     0.003 A 
ATOM      6  C4  OXE d   1      -0.939   3.462  -2.290  0.00  0.00    -0.002 A 
ATOM      7  C5  OXE d   1      -1.540   2.609  -1.358  0.00  0.00    -0.002 A 
ATOM      8  C6  OXE d   1      -0.902   2.365  -0.147  0.00  0.00     0.003 A 
ENDROOT
TORSDOF 0
ENDMDL
