MODEL 1
REMARK minimizedAffinity 16.5768776
REMARK minimizedRMSD -1
REMARK  0 active torsions:
REMARK  status: ('A' for Active; 'I' for Inactive)
ROOT
ATOM      1  C2' OXE d   1      -2.063   2.693   2.869  0.00  0.00     0.078 C 
ATOM      2  C1' OXE d   1      -1.990   3.719   0.257  0.00  0.00     0.078 C 
ATOM      3  C1  OXE d   1      -0.686   3.287   0.880  0.00  0.00    -0.078 A 
ATOM      4  C2  OXE d   1      -0.724   2.830   2.175  0.00  0.00    -0.078 A 
ATOM      5  C3  OXE d   1       0.442   2.368   2.778  0.00  0.00     0.003 A 
ATOM      6  C4  OXE d   1       1.677   2.508   2.134  0.00  0.00    -0.002 A 
ATOM      7  C5  OXE d   1       1.744   3.008   0.829  0.00  0.00    -0.002 A 
ATOM      8  C6  OXE d   1       0.569   3.362   0.173  0.00  0.00     0.003 A 
ENDROOT
TORSDOF 0
ENDMDL
