MODEL 1
REMARK minimizedAffinity -0.0425378308
REMARK minimizedRMSD -1
REMARK  0 active torsions:
REMARK  status: ('A' for Active; 'I' for Inactive)
ROOT
ATOM      1  C   UNL d   1       3.348  -4.425   0.077  0.00  0.00     0.078 C 
ATOM      2  C1  UNL d   1       2.160  -3.514   0.002  0.00  0.00    -0.077 A 
ATOM      3  C2  UNL d   1       0.958  -3.942  -0.575  0.00  0.00    -0.001 A 
ATOM      4  C3  UNL d   1      -0.137  -3.080  -0.646  0.00  0.00     0.003 A 
ATOM      5  C4  UNL d   1      -0.041  -1.784  -0.145  0.00  0.00    -0.005 A 
ATOM      6  C5  UNL d   1       1.151  -1.348   0.428  0.00  0.00     0.003 A 
ATOM      7  C6  UNL d   1       2.248  -2.208   0.501  0.00  0.00    -0.001 A 
ENDROOT
TORSDOF 0
ENDMDL
