MODEL 1
REMARK minimizedAffinity -5.65303469
REMARK minimizedRMSD -1
REMARK  0 active torsions:
REMARK  status: ('A' for Active; 'I' for Inactive)
ROOT
ATOM      1  C   UNL d   1       3.634  -4.434  -0.158  0.00  0.00     0.078 C 
ATOM      2  C1  UNL d   1       2.485  -3.476  -0.058  0.00  0.00    -0.077 A 
ATOM      3  C2  UNL d   1       1.163  -3.921  -0.177  0.00  0.00    -0.001 A 
ATOM      4  C3  UNL d   1       0.103  -3.017  -0.092  0.00  0.00     0.003 A 
ATOM      5  C4  UNL d   1       0.355  -1.661   0.111  0.00  0.00    -0.005 A 
ATOM      6  C5  UNL d   1       1.667  -1.208   0.228  0.00  0.00     0.003 A 
ATOM      7  C6  UNL d   1       2.728  -2.111   0.143  0.00  0.00    -0.001 A 
ENDROOT
TORSDOF 0
ENDMDL
