MODEL 1
REMARK minimizedAffinity -4.11958981
REMARK minimizedRMSD -1
REMARK  0 active torsions:
REMARK  status: ('A' for Active; 'I' for Inactive)
ROOT
ATOM      1  C   UNL d   1      -0.388  -0.687   1.324  0.00  0.00     0.078 C 
ATOM      2  C1  UNL d   1       0.681  -1.593   0.789  0.00  0.00    -0.077 A 
ATOM      3  C2  UNL d   1       0.501  -2.981   0.761  0.00  0.00    -0.001 A 
ATOM      4  C3  UNL d   1       1.508  -3.814   0.269  0.00  0.00     0.003 A 
ATOM      5  C4  UNL d   1       2.702  -3.267  -0.197  0.00  0.00    -0.005 A 
ATOM      6  C5  UNL d   1       2.891  -1.887  -0.171  0.00  0.00     0.003 A 
ATOM      7  C6  UNL d   1       1.885  -1.053   0.320  0.00  0.00    -0.001 A 
ENDROOT
TORSDOF 0
ENDMDL
