MODEL 1
REMARK minimizedAffinity -4.05704546
REMARK minimizedRMSD -1
REMARK  0 active torsions:
REMARK  status: ('A' for Active; 'I' for Inactive)
ROOT
ATOM      1  C   UNL d   1      -0.363  -1.740   0.382  0.00  0.00     0.078 C 
ATOM      2  C1  UNL d   1       1.009  -2.319   0.204  0.00  0.00    -0.077 A 
ATOM      3  C2  UNL d   1       1.199  -3.702   0.094  0.00  0.00    -0.001 A 
ATOM      4  C3  UNL d   1       2.483  -4.228  -0.061  0.00  0.00     0.003 A 
ATOM      5  C4  UNL d   1       3.586  -3.378  -0.106  0.00  0.00    -0.005 A 
ATOM      6  C5  UNL d   1       3.407  -2.001   0.005  0.00  0.00     0.003 A 
ATOM      7  C6  UNL d   1       2.124  -1.473   0.160  0.00  0.00    -0.001 A 
ENDROOT
TORSDOF 0
ENDMDL
