MODEL 1
REMARK minimizedAffinity -1.95411634
REMARK minimizedRMSD -1
REMARK  0 active torsions:
REMARK  status: ('A' for Active; 'I' for Inactive)
ROOT
ATOM      1  C   UNL d   1       2.317  -3.885   0.720  0.00  0.00     0.078 C 
ATOM      2  C1  UNL d   1       1.275  -2.808   0.770  0.00  0.00    -0.077 A 
ATOM      3  C2  UNL d   1       0.027  -2.983   0.160  0.00  0.00    -0.001 A 
ATOM      4  C3  UNL d   1      -0.931  -1.969   0.207  0.00  0.00     0.003 A 
ATOM      5  C4  UNL d   1      -0.649  -0.771   0.861  0.00  0.00    -0.005 A 
ATOM      6  C5  UNL d   1       0.591  -0.587   1.469  0.00  0.00     0.003 A 
ATOM      7  C6  UNL d   1       1.549  -1.600   1.424  0.00  0.00    -0.001 A 
ENDROOT
TORSDOF 0
ENDMDL
