MODEL 1
REMARK minimizedAffinity -0.0888949782
REMARK minimizedRMSD -1
REMARK  0 active torsions:
REMARK  status: ('A' for Active; 'I' for Inactive)
ROOT
ATOM      1  C   UNL d   1       3.849  -1.199   1.094  0.00  0.00     0.078 C 
ATOM      2  C1  UNL d   1       2.385  -1.519   1.035  0.00  0.00    -0.077 A 
ATOM      3  C2  UNL d   1       1.936  -2.752   0.547  0.00  0.00    -0.001 A 
ATOM      4  C3  UNL d   1       0.570  -3.032   0.488  0.00  0.00     0.003 A 
ATOM      5  C4  UNL d   1      -0.358  -2.083   0.914  0.00  0.00    -0.005 A 
ATOM      6  C5  UNL d   1       0.080  -0.852   1.398  0.00  0.00     0.003 A 
ATOM      7  C6  UNL d   1       1.445  -0.571   1.458  0.00  0.00    -0.001 A 
ENDROOT
TORSDOF 0
ENDMDL
