MODEL 1
REMARK minimizedAffinity 0.332808346
REMARK minimizedRMSD -1
REMARK  0 active torsions:
REMARK  status: ('A' for Active; 'I' for Inactive)
ROOT
ATOM      1  C   UNL d   1      -0.697  -0.890   0.833  0.00  0.00     0.078 C 
ATOM      2  C1  UNL d   1       0.790  -0.850   1.022  0.00  0.00    -0.077 A 
ATOM      3  C2  UNL d   1       1.351  -0.427   2.234  0.00  0.00    -0.001 A 
ATOM      4  C3  UNL d   1       2.737  -0.385   2.393  0.00  0.00     0.003 A 
ATOM      5  C4  UNL d   1       3.574  -0.764   1.344  0.00  0.00    -0.005 A 
ATOM      6  C5  UNL d   1       3.025  -1.184   0.135  0.00  0.00     0.003 A 
ATOM      7  C6  UNL d   1       1.639  -1.226  -0.026  0.00  0.00    -0.001 A 
ENDROOT
TORSDOF 0
ENDMDL
