MODEL 1
REMARK minimizedAffinity -5.919631
REMARK minimizedRMSD -1
REMARK  0 active torsions:
REMARK  status: ('A' for Active; 'I' for Inactive)
ROOT
ATOM      1  C   UNL d   1      -1.017  -0.642   1.510  0.00  0.00     0.078 C 
ATOM      2  C1  UNL d   1       0.215  -1.381   1.081  0.00  0.00    -0.077 A 
ATOM      3  C2  UNL d   1       0.206  -2.773   0.932  0.00  0.00    -0.001 A 
ATOM      4  C3  UNL d   1       1.363  -3.449   0.542  0.00  0.00     0.003 A 
ATOM      5  C4  UNL d   1       2.539  -2.741   0.298  0.00  0.00    -0.005 A 
ATOM      6  C5  UNL d   1       2.558  -1.356   0.446  0.00  0.00     0.003 A 
ATOM      7  C6  UNL d   1       1.402  -0.678   0.837  0.00  0.00    -0.001 A 
ENDROOT
TORSDOF 0
ENDMDL
