MODEL 1
REMARK minimizedAffinity -5.10235167
REMARK minimizedRMSD -1
REMARK  0 active torsions:
REMARK  status: ('A' for Active; 'I' for Inactive)
ROOT
ATOM      1  C   UNL d   1       2.664  -0.332   0.869  0.00  0.00     0.078 C 
ATOM      2  C1  UNL d   1       1.647  -1.416   0.669  0.00  0.00    -0.077 A 
ATOM      3  C2  UNL d   1       0.285  -1.176   0.888  0.00  0.00    -0.001 A 
ATOM      4  C3  UNL d   1      -0.649  -2.197   0.707  0.00  0.00     0.003 A 
ATOM      5  C4  UNL d   1      -0.232  -3.465   0.308  0.00  0.00    -0.005 A 
ATOM      6  C5  UNL d   1       1.122  -3.714   0.090  0.00  0.00     0.003 A 
ATOM      7  C6  UNL d   1       2.058  -2.694   0.270  0.00  0.00    -0.001 A 
ENDROOT
TORSDOF 0
ENDMDL
