MODEL 1
REMARK minimizedAffinity -4.10991287
REMARK minimizedRMSD -1
REMARK  0 active torsions:
REMARK  status: ('A' for Active; 'I' for Inactive)
ROOT
ATOM      1  C   UNL d   1       2.698  -4.229  -0.051  0.00  0.00     0.078 C 
ATOM      2  C1  UNL d   1       1.764  -3.088   0.221  0.00  0.00    -0.077 A 
ATOM      3  C2  UNL d   1       0.380  -3.289   0.287  0.00  0.00    -0.001 A 
ATOM      4  C3  UNL d   1      -0.479  -2.216   0.532  0.00  0.00     0.003 A 
ATOM      5  C4  UNL d   1       0.037  -0.934   0.712  0.00  0.00    -0.005 A 
ATOM      6  C5  UNL d   1       1.413  -0.724   0.646  0.00  0.00     0.003 A 
ATOM      7  C6  UNL d   1       2.273  -1.795   0.401  0.00  0.00    -0.001 A 
ENDROOT
TORSDOF 0
ENDMDL
