MODEL 1
REMARK minimizedAffinity -5.04807425
REMARK minimizedRMSD -1
REMARK  0 active torsions:
REMARK  status: ('A' for Active; 'I' for Inactive)
ROOT
ATOM      1  C   UNL d   1       1.995  -4.022   0.063  0.00  0.00     0.078 C 
ATOM      2  C1  UNL d   1       1.274  -2.720   0.243  0.00  0.00    -0.077 A 
ATOM      3  C2  UNL d   1       1.932  -1.595   0.755  0.00  0.00    -0.001 A 
ATOM      4  C3  UNL d   1       1.245  -0.392   0.927  0.00  0.00     0.003 A 
ATOM      5  C4  UNL d   1      -0.104  -0.303   0.589  0.00  0.00    -0.005 A 
ATOM      6  C5  UNL d   1      -0.768  -1.417   0.081  0.00  0.00     0.003 A 
ATOM      7  C6  UNL d   1      -0.083  -2.621  -0.091  0.00  0.00    -0.001 A 
ENDROOT
TORSDOF 0
ENDMDL
