MODEL 1
REMARK minimizedAffinity -2.72621918
REMARK minimizedRMSD -1
REMARK  0 active torsions:
REMARK  status: ('A' for Active; 'I' for Inactive)
ROOT
ATOM      1  C   UNL d   1      -0.764  -0.996   1.332  0.00  0.00     0.078 C 
ATOM      2  C1  UNL d   1       0.333  -1.842   0.756  0.00  0.00    -0.077 A 
ATOM      3  C2  UNL d   1       1.558  -1.277   0.382  0.00  0.00    -0.001 A 
ATOM      4  C3  UNL d   1       2.566  -2.074  -0.162  0.00  0.00     0.003 A 
ATOM      5  C4  UNL d   1       2.359  -3.441  -0.336  0.00  0.00    -0.005 A 
ATOM      6  C5  UNL d   1       1.143  -4.012   0.031  0.00  0.00     0.003 A 
ATOM      7  C6  UNL d   1       0.133  -3.216   0.575  0.00  0.00    -0.001 A 
ENDROOT
TORSDOF 0
ENDMDL
