MODEL 1
REMARK minimizedAffinity -2.24963951
REMARK minimizedRMSD -1
REMARK  0 active torsions:
REMARK  status: ('A' for Active; 'I' for Inactive)
ROOT
ATOM      1  C   UNL d   1      -0.265  -0.416   1.218  0.00  0.00     0.078 C 
ATOM      2  C1  UNL d   1       0.767  -1.442   0.858  0.00  0.00    -0.077 A 
ATOM      3  C2  UNL d   1       0.428  -2.795   0.735  0.00  0.00    -0.001 A 
ATOM      4  C3  UNL d   1       1.402  -3.740   0.409  0.00  0.00     0.003 A 
ATOM      5  C4  UNL d   1       2.722  -3.343   0.205  0.00  0.00    -0.005 A 
ATOM      6  C5  UNL d   1       3.070  -2.000   0.328  0.00  0.00     0.003 A 
ATOM      7  C6  UNL d   1       2.097  -1.053   0.654  0.00  0.00    -0.001 A 
ENDROOT
TORSDOF 0
ENDMDL
