MODEL 1
REMARK minimizedAffinity 7.0667429
REMARK minimizedRMSD -1
REMARK  0 active torsions:
REMARK  status: ('A' for Active; 'I' for Inactive)
ROOT
ATOM      1  C   UNL d   1      -3.167   2.541   3.473  0.00  0.00     0.078 C 
ATOM      2  C1  UNL d   1      -2.129   1.482   3.694  0.00  0.00    -0.077 A 
ATOM      3  C2  UNL d   1      -1.938   0.911   4.958  0.00  0.00    -0.001 A 
ATOM      4  C3  UNL d   1      -0.961  -0.067   5.151  0.00  0.00     0.003 A 
ATOM      5  C4  UNL d   1      -0.167  -0.482   4.085  0.00  0.00    -0.005 A 
ATOM      6  C5  UNL d   1      -0.348   0.081   2.823  0.00  0.00     0.003 A 
ATOM      7  C6  UNL d   1      -1.324   1.060   2.628  0.00  0.00    -0.001 A 
ENDROOT
TORSDOF 0
ENDMDL
