MODEL 1
REMARK minimizedAffinity 1.83084965
REMARK minimizedRMSD -1
REMARK  0 active torsions:
REMARK  status: ('A' for Active; 'I' for Inactive)
ROOT
ATOM      1  C   UNL d   1       2.359   1.087  -3.361  0.00  0.00     0.078 C 
ATOM      2  C1  UNL d   1       2.703   2.044  -2.260  0.00  0.00    -0.077 A 
ATOM      3  C2  UNL d   1       3.802   1.815  -1.422  0.00  0.00    -0.001 A 
ATOM      4  C3  UNL d   1       4.105   2.709  -0.395  0.00  0.00     0.003 A 
ATOM      5  C4  UNL d   1       3.314   3.839  -0.194  0.00  0.00    -0.005 A 
ATOM      6  C5  UNL d   1       2.217   4.074  -1.021  0.00  0.00     0.003 A 
ATOM      7  C6  UNL d   1       1.912   3.180  -2.049  0.00  0.00    -0.001 A 
ENDROOT
TORSDOF 0
ENDMDL
