MODEL 1
REMARK minimizedAffinity -5.13842392
REMARK minimizedRMSD -1
REMARK  0 active torsions:
REMARK  status: ('A' for Active; 'I' for Inactive)
ROOT
ATOM      1  C   UNL d   1      -1.061  -0.692   0.323  0.00  0.00     0.078 C 
ATOM      2  C1  UNL d   1       0.155  -1.545   0.117  0.00  0.00    -0.077 A 
ATOM      3  C2  UNL d   1       0.040  -2.919  -0.126  0.00  0.00    -0.001 A 
ATOM      4  C3  UNL d   1       1.181  -3.702  -0.306  0.00  0.00     0.003 A 
ATOM      5  C4  UNL d   1       2.446  -3.120  -0.244  0.00  0.00    -0.005 A 
ATOM      6  C5  UNL d   1       2.571  -1.754  -0.001  0.00  0.00     0.003 A 
ATOM      7  C6  UNL d   1       1.431  -0.969   0.180  0.00  0.00    -0.001 A 
ENDROOT
TORSDOF 0
ENDMDL
