MODEL 1
REMARK minimizedAffinity -3.66032481
REMARK minimizedRMSD -1
REMARK  0 active torsions:
REMARK  status: ('A' for Active; 'I' for Inactive)
ROOT
ATOM      1  C   UNL d   1       0.904  -3.243  -2.825  0.00  0.00     0.077 C 
ATOM      2  C1  UNL d   1       1.039  -2.127  -1.832  0.00  0.00    -0.074 A 
ATOM      3  C2  UNL d   1       2.109  -1.229  -1.901  0.00  0.00    -0.005 A 
ATOM      4  C3  UNL d   1       2.216  -0.190  -0.977  0.00  0.00     0.006 A 
ATOM      5  C4  UNL d   1       1.255  -0.038   0.023  0.00  0.00    -0.005 A 
ATOM      6  C5  UNL d   1       0.177  -0.925   0.107  0.00  0.00    -0.074 A 
ATOM      7  C6  UNL d   1      -0.869  -0.770   1.170  0.00  0.00     0.077 C 
ATOM      8  C7  UNL d   1       0.073  -1.963  -0.829  0.00  0.00    -0.001 A 
ENDROOT
TORSDOF 0
ENDMDL
