MODEL 1
REMARK minimizedAffinity -1.48119032
REMARK minimizedRMSD -1
REMARK  0 active torsions:
REMARK  status: ('A' for Active; 'I' for Inactive)
ROOT
ATOM      1  C   UNL d   1       2.225  -2.246  -1.046  0.00  0.00     0.077 C 
ATOM      2  C1  UNL d   1       1.703  -0.842  -0.987  0.00  0.00    -0.074 A 
ATOM      3  C2  UNL d   1       2.397   0.210  -1.594  0.00  0.00    -0.005 A 
ATOM      4  C3  UNL d   1       1.894   1.510  -1.539  0.00  0.00     0.006 A 
ATOM      5  C4  UNL d   1       0.693   1.771  -0.878  0.00  0.00    -0.005 A 
ATOM      6  C5  UNL d   1      -0.016   0.732  -0.267  0.00  0.00    -0.074 A 
ATOM      7  C6  UNL d   1      -1.313   0.994   0.439  0.00  0.00     0.077 C 
ATOM      8  C7  UNL d   1       0.493  -0.573  -0.332  0.00  0.00    -0.001 A 
ENDROOT
TORSDOF 0
ENDMDL
