MODEL 1
REMARK minimizedAffinity -1.78033769
REMARK minimizedRMSD -1
REMARK  0 active torsions:
REMARK  status: ('A' for Active; 'I' for Inactive)
ROOT
ATOM      1  C   UNL d   1       3.422  -1.092  -1.189  0.00  0.00     0.077 C 
ATOM      2  C1  UNL d   1       2.029  -1.198  -0.643  0.00  0.00    -0.074 A 
ATOM      3  C2  UNL d   1       1.480  -2.440  -0.311  0.00  0.00    -0.005 A 
ATOM      4  C3  UNL d   1       0.186  -2.522   0.205  0.00  0.00     0.006 A 
ATOM      5  C4  UNL d   1      -0.570  -1.364   0.393  0.00  0.00    -0.005 A 
ATOM      6  C5  UNL d   1      -0.036  -0.113   0.068  0.00  0.00    -0.074 A 
ATOM      7  C6  UNL d   1      -0.831   1.142   0.273  0.00  0.00     0.077 C 
ATOM      8  C7  UNL d   1       1.267  -0.038  -0.443  0.00  0.00    -0.001 A 
ENDROOT
TORSDOF 0
ENDMDL
