MODEL 1
REMARK minimizedAffinity -3.53264499
REMARK minimizedRMSD -1
REMARK  0 active torsions:
REMARK  status: ('A' for Active; 'I' for Inactive)
ROOT
ATOM      1  C   UNL d   1       3.279  -0.311  -1.127  0.00  0.00     0.077 C 
ATOM      2  C1  UNL d   1       1.864  -0.658  -0.771  0.00  0.00    -0.074 A 
ATOM      3  C2  UNL d   1       1.403  -1.976  -0.860  0.00  0.00    -0.005 A 
ATOM      4  C3  UNL d   1       0.087  -2.285  -0.517  0.00  0.00     0.006 A 
ATOM      5  C4  UNL d   1      -0.780  -1.282  -0.082  0.00  0.00    -0.005 A 
ATOM      6  C5  UNL d   1      -0.336   0.041   0.015  0.00  0.00    -0.074 A 
ATOM      7  C6  UNL d   1      -1.252   1.130   0.490  0.00  0.00     0.077 C 
ATOM      8  C7  UNL d   1       0.989   0.343  -0.326  0.00  0.00    -0.001 A 
ENDROOT
TORSDOF 0
ENDMDL
