MODEL 1
REMARK minimizedAffinity -3.7241118
REMARK minimizedRMSD -1
REMARK  0 active torsions:
REMARK  status: ('A' for Active; 'I' for Inactive)
ROOT
ATOM      1  C   UNL d   1      -1.109   2.004  -0.303  0.00  0.00     0.077 C 
ATOM      2  C1  UNL d   1      -0.375   0.697  -0.265  0.00  0.00    -0.074 A 
ATOM      3  C2  UNL d   1      -1.030  -0.485   0.096  0.00  0.00    -0.005 A 
ATOM      4  C3  UNL d   1      -0.336  -1.695   0.117  0.00  0.00     0.006 A 
ATOM      5  C4  UNL d   1       1.017  -1.735  -0.220  0.00  0.00    -0.005 A 
ATOM      6  C5  UNL d   1       1.689  -0.563  -0.584  0.00  0.00    -0.074 A 
ATOM      7  C6  UNL d   1       3.141  -0.591  -0.960  0.00  0.00     0.077 C 
ATOM      8  C7  UNL d   1       0.983   0.647  -0.611  0.00  0.00    -0.001 A 
ENDROOT
TORSDOF 0
ENDMDL
