MODEL 1
REMARK minimizedAffinity -2.75007963
REMARK minimizedRMSD -1
REMARK  0 active torsions:
REMARK  status: ('A' for Active; 'I' for Inactive)
ROOT
ATOM      1  C   UNL d   1      -0.526   2.453  -1.458  0.00  0.00     0.077 C 
ATOM      2  C1  UNL d   1       0.000   1.130  -0.986  0.00  0.00    -0.074 A 
ATOM      3  C2  UNL d   1      -0.779   0.292  -0.182  0.00  0.00    -0.005 A 
ATOM      4  C3  UNL d   1      -0.280  -0.939   0.241  0.00  0.00     0.006 A 
ATOM      5  C4  UNL d   1       1.002  -1.345  -0.134  0.00  0.00    -0.005 A 
ATOM      6  C5  UNL d   1       1.795  -0.520  -0.938  0.00  0.00    -0.074 A 
ATOM      7  C6  UNL d   1       3.171  -0.945  -1.359  0.00  0.00     0.077 C 
ATOM      8  C7  UNL d   1       1.284   0.713  -1.366  0.00  0.00    -0.001 A 
ENDROOT
TORSDOF 0
ENDMDL
