MODEL 1
REMARK minimizedAffinity -4.05128002
REMARK minimizedRMSD -1
REMARK  0 active torsions:
REMARK  status: ('A' for Active; 'I' for Inactive)
ROOT
ATOM      1  C   UNL d   1       3.312  -0.040  -1.057  0.00  0.00     0.077 C 
ATOM      2  C1  UNL d   1       1.969  -0.509  -0.583  0.00  0.00    -0.074 A 
ATOM      3  C2  UNL d   1       1.678  -1.873  -0.483  0.00  0.00    -0.005 A 
ATOM      4  C3  UNL d   1       0.427  -2.294  -0.032  0.00  0.00     0.006 A 
ATOM      5  C4  UNL d   1      -0.544  -1.357   0.324  0.00  0.00    -0.005 A 
ATOM      6  C5  UNL d   1      -0.271   0.011   0.231  0.00  0.00    -0.074 A 
ATOM      7  C6  UNL d   1      -1.299   1.031   0.619  0.00  0.00     0.077 C 
ATOM      8  C7  UNL d   1       0.991   0.426  -0.217  0.00  0.00    -0.001 A 
ENDROOT
TORSDOF 0
ENDMDL
