MODEL 1
REMARK minimizedAffinity -1.74367523
REMARK minimizedRMSD -1
REMARK  0 active torsions:
REMARK  status: ('A' for Active; 'I' for Inactive)
ROOT
ATOM      1  C   UNL d   1       3.352  -0.316  -0.799  0.00  0.00     0.077 C 
ATOM      2  C1  UNL d   1       1.906  -0.573  -0.494  0.00  0.00    -0.074 A 
ATOM      3  C2  UNL d   1       1.409  -1.878  -0.412  0.00  0.00    -0.005 A 
ATOM      4  C3  UNL d   1       0.064  -2.101  -0.119  0.00  0.00     0.006 A 
ATOM      5  C4  UNL d   1      -0.797  -1.024   0.095  0.00  0.00    -0.005 A 
ATOM      6  C5  UNL d   1      -0.318   0.288   0.018  0.00  0.00    -0.074 A 
ATOM      7  C6  UNL d   1      -1.228   1.457   0.254  0.00  0.00     0.077 C 
ATOM      8  C7  UNL d   1       1.036   0.504  -0.271  0.00  0.00    -0.001 A 
ENDROOT
TORSDOF 0
ENDMDL
