MODEL 1
REMARK minimizedAffinity -3.41055298
REMARK minimizedRMSD -1
REMARK  0 active torsions:
REMARK  status: ('A' for Active; 'I' for Inactive)
ROOT
ATOM      1  C   UNL d   1       1.448   0.350   0.006  0.00  0.00     0.077 C 
ATOM      2  C1  UNL d   1       0.113   0.359   0.691  0.00  0.00    -0.074 A 
ATOM      3  C2  UNL d   1      -1.064   0.130  -0.028  0.00  0.00    -0.005 A 
ATOM      4  C3  UNL d   1      -2.298   0.133   0.624  0.00  0.00     0.006 A 
ATOM      5  C4  UNL d   1      -2.365   0.364   1.999  0.00  0.00    -0.005 A 
ATOM      6  C5  UNL d   1      -1.198   0.594   2.734  0.00  0.00    -0.074 A 
ATOM      7  C6  UNL d   1      -1.252   0.835   4.213  0.00  0.00     0.077 C 
ATOM      8  C7  UNL d   1       0.038   0.583   2.073  0.00  0.00    -0.001 A 
ENDROOT
TORSDOF 0
ENDMDL
