MODEL 1
REMARK minimizedAffinity -2.21934104
REMARK minimizedRMSD -1
REMARK  0 active torsions:
REMARK  status: ('A' for Active; 'I' for Inactive)
ROOT
ATOM      1  C   UNL d   1      -1.919   0.725   1.719  0.00  0.00     0.077 C 
ATOM      2  C1  UNL d   1      -0.916   0.199   0.736  0.00  0.00    -0.074 A 
ATOM      3  C2  UNL d   1      -0.934  -1.142   0.337  0.00  0.00    -0.005 A 
ATOM      4  C3  UNL d   1      -0.001  -1.614  -0.585  0.00  0.00     0.006 A 
ATOM      5  C4  UNL d   1       0.960  -0.753  -1.117  0.00  0.00    -0.005 A 
ATOM      6  C5  UNL d   1       0.993   0.591  -0.731  0.00  0.00    -0.074 A 
ATOM      7  C6  UNL d   1       2.012   1.533  -1.301  0.00  0.00     0.077 C 
ATOM      8  C7  UNL d   1       0.047   1.060   0.191  0.00  0.00    -0.001 A 
ENDROOT
TORSDOF 0
ENDMDL
