MODEL 1
REMARK minimizedAffinity -5.79328585
REMARK minimizedRMSD -1
REMARK  0 active torsions:
REMARK  status: ('A' for Active; 'I' for Inactive)
ROOT
ATOM      1  C   UNL d   1      -2.314  -0.094   0.721  0.00  0.00     0.077 C 
ATOM      2  C1  UNL d   1      -1.149   0.384  -0.095  0.00  0.00    -0.074 A 
ATOM      3  C2  UNL d   1      -1.309   1.384  -1.059  0.00  0.00    -0.005 A 
ATOM      4  C3  UNL d   1      -0.215   1.826  -1.803  0.00  0.00     0.006 A 
ATOM      5  C4  UNL d   1       1.049   1.273  -1.590  0.00  0.00    -0.005 A 
ATOM      6  C5  UNL d   1       1.228   0.272  -0.629  0.00  0.00    -0.074 A 
ATOM      7  C6  UNL d   1       2.581  -0.326  -0.381  0.00  0.00     0.077 C 
ATOM      8  C7  UNL d   1       0.125  -0.161   0.119  0.00  0.00    -0.001 A 
ENDROOT
TORSDOF 0
ENDMDL
