MODEL 1
REMARK minimizedAffinity -4.17697859
REMARK minimizedRMSD -1
REMARK  0 active torsions:
REMARK  status: ('A' for Active; 'I' for Inactive)
ROOT
ATOM      1  C   UNL d   1       3.397  -0.006  -1.371  0.00  0.00     0.077 C 
ATOM      2  C1  UNL d   1       2.052  -0.440  -0.871  0.00  0.00    -0.074 A 
ATOM      3  C2  UNL d   1       1.684  -1.790  -0.877  0.00  0.00    -0.005 A 
ATOM      4  C3  UNL d   1       0.433  -2.180  -0.400  0.00  0.00     0.006 A 
ATOM      5  C4  UNL d   1      -0.462  -1.226   0.088  0.00  0.00    -0.005 A 
ATOM      6  C5  UNL d   1      -0.111   0.127   0.103  0.00  0.00    -0.074 A 
ATOM      7  C6  UNL d   1      -1.057   1.164   0.632  0.00  0.00     0.077 C 
ATOM      8  C7  UNL d   1       1.151   0.511  -0.372  0.00  0.00    -0.001 A 
ENDROOT
TORSDOF 0
ENDMDL
