MODEL 1
REMARK minimizedAffinity -3.72562337
REMARK minimizedRMSD -1
REMARK  0 active torsions:
REMARK  status: ('A' for Active; 'I' for Inactive)
ROOT
ATOM      1  C   UNL d   1       2.767  -1.130  -1.295  0.00  0.00     0.077 C 
ATOM      2  C1  UNL d   1       1.603  -0.194  -1.159  0.00  0.00    -0.074 A 
ATOM      3  C2  UNL d   1       1.504   0.952  -1.955  0.00  0.00    -0.005 A 
ATOM      4  C3  UNL d   1       0.411   1.808  -1.823  0.00  0.00     0.006 A 
ATOM      5  C4  UNL d   1      -0.593   1.528  -0.895  0.00  0.00    -0.005 A 
ATOM      6  C5  UNL d   1      -0.511   0.387  -0.091  0.00  0.00    -0.074 A 
ATOM      7  C6  UNL d   1      -1.586   0.066   0.905  0.00  0.00     0.077 C 
ATOM      8  C7  UNL d   1       0.587  -0.472  -0.234  0.00  0.00    -0.001 A 
ENDROOT
TORSDOF 0
ENDMDL
