MODEL 1
REMARK minimizedAffinity -4.72485828
REMARK minimizedRMSD -1
REMARK  0 active torsions:
REMARK  status: ('A' for Active; 'I' for Inactive)
ROOT
ATOM      1  C   UNL d   1      -1.609   0.358   1.454  0.00  0.00     0.077 C 
ATOM      2  C1  UNL d   1      -0.585   0.506   0.368  0.00  0.00    -0.074 A 
ATOM      3  C2  UNL d   1      -0.686   1.529  -0.580  0.00  0.00    -0.005 A 
ATOM      4  C3  UNL d   1       0.279   1.660  -1.579  0.00  0.00     0.006 A 
ATOM      5  C4  UNL d   1       1.352   0.771  -1.639  0.00  0.00    -0.005 A 
ATOM      6  C5  UNL d   1       1.470  -0.258  -0.699  0.00  0.00    -0.074 A 
ATOM      7  C6  UNL d   1       2.623  -1.216  -0.744  0.00  0.00     0.077 C 
ATOM      8  C7  UNL d   1       0.500  -0.378   0.305  0.00  0.00    -0.001 A 
ENDROOT
TORSDOF 0
ENDMDL
