MODEL 1
REMARK minimizedAffinity -5.32639027
REMARK minimizedRMSD -1
REMARK  0 active torsions:
REMARK  status: ('A' for Active; 'I' for Inactive)
ROOT
ATOM      1  C   UNL d   1       3.398   0.051  -1.514  0.00  0.00     0.077 C 
ATOM      2  C1  UNL d   1       1.981   0.103  -1.026  0.00  0.00    -0.074 A 
ATOM      3  C2  UNL d   1       1.266   1.305  -1.021  0.00  0.00    -0.005 A 
ATOM      4  C3  UNL d   1      -0.055   1.335  -0.573  0.00  0.00     0.006 A 
ATOM      5  C4  UNL d   1      -0.673   0.167  -0.127  0.00  0.00    -0.005 A 
ATOM      6  C5  UNL d   1       0.026  -1.045  -0.126  0.00  0.00    -0.074 A 
ATOM      7  C6  UNL d   1      -0.626  -2.312   0.341  0.00  0.00     0.077 C 
ATOM      8  C7  UNL d   1       1.350  -1.069  -0.584  0.00  0.00    -0.001 A 
ENDROOT
TORSDOF 0
ENDMDL
