MODEL 1
REMARK minimizedAffinity -1.95305276
REMARK minimizedRMSD -1
REMARK  0 active torsions:
REMARK  status: ('A' for Active; 'I' for Inactive)
ROOT
ATOM      1  C   UNL d   1       1.795  -1.606  -0.858  0.00  0.00     0.077 C 
ATOM      2  C1  UNL d   1       0.732  -0.586  -0.578  0.00  0.00    -0.074 A 
ATOM      3  C2  UNL d   1       0.547   0.510  -1.427  0.00  0.00    -0.005 A 
ATOM      4  C3  UNL d   1      -0.452   1.446  -1.159  0.00  0.00     0.006 A 
ATOM      5  C4  UNL d   1      -1.274   1.296  -0.042  0.00  0.00    -0.005 A 
ATOM      6  C5  UNL d   1      -1.105   0.206   0.818  0.00  0.00    -0.074 A 
ATOM      7  C6  UNL d   1      -1.986   0.025   2.018  0.00  0.00     0.077 C 
ATOM      8  C7  UNL d   1      -0.103  -0.734   0.538  0.00  0.00    -0.001 A 
ENDROOT
TORSDOF 0
ENDMDL
