MODEL 1
REMARK minimizedAffinity -4.24611187
REMARK minimizedRMSD -1
REMARK  0 active torsions:
REMARK  status: ('A' for Active; 'I' for Inactive)
ROOT
ATOM      1  C   UNL d   1       3.081  -0.884  -1.199  0.00  0.00     0.077 C 
ATOM      2  C1  UNL d   1       1.661  -0.731  -0.740  0.00  0.00    -0.074 A 
ATOM      3  C2  UNL d   1       1.006  -1.768  -0.069  0.00  0.00    -0.005 A 
ATOM      4  C3  UNL d   1      -0.311  -1.607   0.360  0.00  0.00     0.006 A 
ATOM      5  C4  UNL d   1      -0.986  -0.409   0.123  0.00  0.00    -0.005 A 
ATOM      6  C5  UNL d   1      -0.347   0.640  -0.545  0.00  0.00    -0.074 A 
ATOM      7  C6  UNL d   1      -1.054   1.938  -0.799  0.00  0.00     0.077 C 
ATOM      8  C7  UNL d   1       0.980   0.473  -0.967  0.00  0.00    -0.001 A 
ENDROOT
TORSDOF 0
ENDMDL
