MODEL 1
REMARK minimizedAffinity -3.60070944
REMARK minimizedRMSD -1
REMARK  0 active torsions:
REMARK  status: ('A' for Active; 'I' for Inactive)
ROOT
ATOM      1  C   UNL d   1       1.862  -1.489  -1.127  0.00  0.00     0.077 C 
ATOM      2  C1  UNL d   1       0.861  -0.419  -0.811  0.00  0.00    -0.074 A 
ATOM      3  C2  UNL d   1       0.935   0.838  -1.420  0.00  0.00    -0.005 A 
ATOM      4  C3  UNL d   1      -0.009   1.821  -1.123  0.00  0.00     0.006 A 
ATOM      5  C4  UNL d   1      -1.036   1.557  -0.216  0.00  0.00    -0.005 A 
ATOM      6  C5  UNL d   1      -1.128   0.305   0.402  0.00  0.00    -0.074 A 
ATOM      7  C6  UNL d   1      -2.231   0.002   1.372  0.00  0.00     0.077 C 
ATOM      8  C7  UNL d   1      -0.179  -0.679   0.093  0.00  0.00    -0.001 A 
ENDROOT
TORSDOF 0
ENDMDL
