MODEL 1
REMARK minimizedAffinity -3.69365072
REMARK minimizedRMSD -1
REMARK  0 active torsions:
REMARK  status: ('A' for Active; 'I' for Inactive)
ROOT
ATOM      1  C   UNL d   1      -1.026   0.202   2.164  0.00  0.00     0.077 C 
ATOM      2  C1  UNL d   1      -0.440   0.507   0.817  0.00  0.00    -0.074 A 
ATOM      3  C2  UNL d   1      -1.089   1.372  -0.070  0.00  0.00    -0.005 A 
ATOM      4  C3  UNL d   1      -0.527   1.653  -1.315  0.00  0.00     0.006 A 
ATOM      5  C4  UNL d   1       0.687   1.073  -1.685  0.00  0.00    -0.005 A 
ATOM      6  C5  UNL d   1       1.350   0.206  -0.811  0.00  0.00    -0.074 A 
ATOM      7  C6  UNL d   1       2.661  -0.418  -1.190  0.00  0.00     0.077 C 
ATOM      8  C7  UNL d   1       0.783  -0.066   0.441  0.00  0.00    -0.001 A 
ENDROOT
TORSDOF 0
ENDMDL
