MODEL 1
REMARK minimizedAffinity 2.86643243
REMARK minimizedRMSD -1
REMARK  1 active torsions:
REMARK  status: ('A' for Active; 'I' for Inactive)
REMARK    1  A    between atoms: C3_4  and  O_7 
ROOT
ATOM      1  C   UNL d   1      -2.383   0.619   2.046  0.00  0.00    -0.033 A 
ATOM      2  C1  UNL d   1      -2.065   0.806   0.699  0.00  0.00     0.039 A 
ATOM      3  C2  UNL d   1      -0.803   0.448   0.222  0.00  0.00    -0.080 A 
ATOM      4  C3  UNL d   1       0.131  -0.096   1.100  0.00  0.00     0.150 A 
ATOM      5  C4  UNL d   1      -0.181  -0.289   2.441  0.00  0.00    -0.007 A 
ATOM      6  C5  UNL d   1      -1.441   0.070   2.917  0.00  0.00     0.039 A 
ENDROOT
BRANCH   4   7
ATOM      7  O   UNL d   1       1.377  -0.457   0.681  0.00  0.00    -0.526 OA
ATOM      8  H5  UNL d   1       1.459  -0.239  -0.263  0.00  0.00     0.418 HD
ENDBRANCH   4   7
TORSDOF 1
ENDMDL
