MODEL 1
REMARK minimizedAffinity 8.3649025
REMARK minimizedRMSD -1
REMARK  1 active torsions:
REMARK  status: ('A' for Active; 'I' for Inactive)
REMARK    1  A    between atoms: C3_4  and  O_7 
ROOT
ATOM      1  C   UNL d   1      -3.754  -0.191   2.803  0.00  0.00    -0.033 A 
ATOM      2  C1  UNL d   1      -3.581  -1.326   3.598  0.00  0.00     0.039 A 
ATOM      3  C2  UNL d   1      -2.305  -1.687   4.034  0.00  0.00    -0.080 A 
ATOM      4  C3  UNL d   1      -1.212  -0.906   3.671  0.00  0.00     0.150 A 
ATOM      5  C4  UNL d   1      -1.377   0.228   2.882  0.00  0.00    -0.007 A 
ATOM      6  C5  UNL d   1      -2.651   0.587   2.447  0.00  0.00     0.039 A 
ENDROOT
BRANCH   4   7
ATOM      7  O   UNL d   1       0.053  -1.222   4.068  0.00  0.00    -0.526 OA
ATOM      8  H5  UNL d   1       0.018  -2.046   4.583  0.00  0.00     0.418 HD
ENDBRANCH   4   7
TORSDOF 1
ENDMDL
