MODEL 1
REMARK minimizedAffinity 3.22869945
REMARK minimizedRMSD -1
REMARK  1 active torsions:
REMARK  status: ('A' for Active; 'I' for Inactive)
REMARK    1  A    between atoms: C3_4  and  O_7 
ROOT
ATOM      1  C   UNL d   1      -1.749   0.161   1.022  0.00  0.00    -0.033 A 
ATOM      2  C1  UNL d   1      -2.523   0.069   2.180  0.00  0.00     0.039 A 
ATOM      3  C2  UNL d   1      -1.965  -0.440   3.355  0.00  0.00    -0.080 A 
ATOM      4  C3  UNL d   1      -0.636  -0.851   3.358  0.00  0.00     0.150 A 
ATOM      5  C4  UNL d   1       0.142  -0.759   2.209  0.00  0.00    -0.007 A 
ATOM      6  C5  UNL d   1      -0.417  -0.252   1.036  0.00  0.00     0.039 A 
ENDROOT
BRANCH   4   7
ATOM      7  O   UNL d   1      -0.049  -1.359   4.480  0.00  0.00    -0.526 OA
ATOM      8  H5  UNL d   1      -0.714  -1.389   5.188  0.00  0.00     0.418 HD
ENDBRANCH   4   7
TORSDOF 1
ENDMDL
