MODEL 1
REMARK minimizedAffinity -4.88982916
REMARK minimizedRMSD -1
REMARK  1 active torsions:
REMARK  status: ('A' for Active; 'I' for Inactive)
REMARK    1  A    between atoms: C3_4  and  O_7 
ROOT
ATOM      1  C   UNL d   1       1.050   1.159   2.420  0.00  0.00    -0.033 A 
ATOM      2  C1  UNL d   1       1.061   1.122   1.025  0.00  0.00     0.039 A 
ATOM      3  C2  UNL d   1       0.031   0.483   0.333  0.00  0.00    -0.080 A 
ATOM      4  C3  UNL d   1      -1.005  -0.113   1.047  0.00  0.00     0.150 A 
ATOM      5  C4  UNL d   1      -1.025  -0.077   2.437  0.00  0.00    -0.007 A 
ATOM      6  C5  UNL d   1       0.006   0.561   3.127  0.00  0.00     0.039 A 
ENDROOT
BRANCH   4   7
ATOM      7  O   UNL d   1      -2.030  -0.753   0.416  0.00  0.00    -0.526 OA
ATOM      8  H5  UNL d   1      -1.868  -0.722  -0.542  0.00  0.00     0.418 HD
ENDBRANCH   4   7
TORSDOF 1
ENDMDL
