MODEL 1
REMARK minimizedAffinity 3.32075238
REMARK minimizedRMSD -1
REMARK  1 active torsions:
REMARK  status: ('A' for Active; 'I' for Inactive)
REMARK    1  A    between atoms: C3_4  and  O_7 
ROOT
ATOM      1  C   UNL d   1      -0.529   0.600   1.062  0.00  0.00    -0.033 A 
ATOM      2  C1  UNL d   1      -1.387   0.176   2.078  0.00  0.00     0.039 A 
ATOM      3  C2  UNL d   1      -0.885  -0.547   3.162  0.00  0.00    -0.080 A 
ATOM      4  C3  UNL d   1       0.475  -0.839   3.217  0.00  0.00     0.150 A 
ATOM      5  C4  UNL d   1       1.336  -0.416   2.209  0.00  0.00    -0.007 A 
ATOM      6  C5  UNL d   1       0.833   0.305   1.128  0.00  0.00     0.039 A 
ENDROOT
BRANCH   4   7
ATOM      7  O   UNL d   1       1.011  -1.546   4.252  0.00  0.00    -0.526 OA
ATOM      8  H5  UNL d   1       0.294  -1.796   4.858  0.00  0.00     0.418 HD
ENDBRANCH   4   7
TORSDOF 1
ENDMDL
