MODEL 1
REMARK minimizedAffinity -2.28008509
REMARK minimizedRMSD -1
REMARK  1 active torsions:
REMARK  status: ('A' for Active; 'I' for Inactive)
REMARK    1  A    between atoms: C3_4  and  O_7 
ROOT
ATOM      1  C   UNL d   1      -1.350   0.466   0.603  0.00  0.00    -0.033 A 
ATOM      2  C1  UNL d   1      -0.059  -0.037   0.430  0.00  0.00     0.039 A 
ATOM      3  C2  UNL d   1       0.653  -0.528   1.525  0.00  0.00    -0.080 A 
ATOM      4  C3  UNL d   1       0.064  -0.513   2.787  0.00  0.00     0.150 A 
ATOM      5  C4  UNL d   1      -1.223  -0.017   2.966  0.00  0.00    -0.007 A 
ATOM      6  C5  UNL d   1      -1.933   0.474   1.871  0.00  0.00     0.039 A 
ENDROOT
BRANCH   4   7
ATOM      7  O   UNL d   1       0.722  -0.977   3.886  0.00  0.00    -0.526 OA
ATOM      8  H5  UNL d   1       1.611  -1.261   3.616  0.00  0.00     0.418 HD
ENDBRANCH   4   7
TORSDOF 1
ENDMDL
