MODEL 1
REMARK minimizedAffinity 6.84011745
REMARK minimizedRMSD -1
REMARK  1 active torsions:
REMARK  status: ('A' for Active; 'I' for Inactive)
REMARK    1  A    between atoms: C3_4  and  O_7 
ROOT
ATOM      1  C   UNL d   1      -2.779   0.047   0.443  0.00  0.00    -0.033 A 
ATOM      2  C1  UNL d   1      -2.113  -0.487  -0.661  0.00  0.00     0.039 A 
ATOM      3  C2  UNL d   1      -0.725  -0.642  -0.634  0.00  0.00    -0.080 A 
ATOM      4  C3  UNL d   1      -0.017  -0.260   0.502  0.00  0.00     0.150 A 
ATOM      5  C4  UNL d   1      -0.675   0.270   1.607  0.00  0.00    -0.007 A 
ATOM      6  C5  UNL d   1      -2.060   0.424   1.578  0.00  0.00     0.039 A 
ENDROOT
BRANCH   4   7
ATOM      7  O   UNL d   1       1.338  -0.388   0.573  0.00  0.00    -0.526 OA
ATOM      8  H5  UNL d   1       1.659  -0.740  -0.274  0.00  0.00     0.418 HD
ENDBRANCH   4   7
TORSDOF 1
ENDMDL
