MODEL 1
REMARK minimizedAffinity -3.59644961
REMARK minimizedRMSD -1
REMARK  0 active torsions:
REMARK  status: ('A' for Active; 'I' for Inactive)
ROOT
ATOM      1  C1  BNZ d   1      -0.741   0.836   3.238  0.00  0.00     0.000 A 
ATOM      2  C2  BNZ d   1      -1.547   1.356   2.261  0.00  0.00     0.000 A 
ATOM      3  C3  BNZ d   1      -1.302   1.097   0.941  0.00  0.00     0.000 A 
ATOM      4  C4  BNZ d   1      -0.231   0.352   0.599  0.00  0.00     0.000 A 
ATOM      5  C5  BNZ d   1       0.596  -0.172   1.572  0.00  0.00     0.000 A 
ATOM      6  C6  BNZ d   1       0.324   0.059   2.902  0.00  0.00     0.000 A 
ENDROOT
TORSDOF 0
ENDMDL
