MODEL 1
REMARK minimizedAffinity -3.38322902
REMARK minimizedRMSD -1
REMARK  0 active torsions:
REMARK  status: ('A' for Active; 'I' for Inactive)
ROOT
ATOM      1  C1  BNZ d   1      -0.715   0.205   2.533  0.00  0.00     0.000 A 
ATOM      2  C2  BNZ d   1      -1.707   0.519   1.643  0.00  0.00     0.000 A 
ATOM      3  C3  BNZ d   1      -1.570   0.235   0.313  0.00  0.00     0.000 A 
ATOM      4  C4  BNZ d   1      -0.426  -0.325  -0.130  0.00  0.00     0.000 A 
ATOM      5  C5  BNZ d   1       0.588  -0.639   0.753  0.00  0.00     0.000 A 
ATOM      6  C6  BNZ d   1       0.430  -0.387   2.097  0.00  0.00     0.000 A 
ENDROOT
TORSDOF 0
ENDMDL
