MODEL 1
REMARK minimizedAffinity -3.77098227
REMARK minimizedRMSD -1
REMARK  0 active torsions:
REMARK  status: ('A' for Active; 'I' for Inactive)
ROOT
ATOM      1  C1  BNZ d   1      -0.503   0.745   0.373  0.00  0.00     0.000 A 
ATOM      2  C2  BNZ d   1      -0.236   1.304  -0.849  0.00  0.00     0.000 A 
ATOM      3  C3  BNZ d   1       0.621   0.696  -1.724  0.00  0.00     0.000 A 
ATOM      4  C4  BNZ d   1       1.238  -0.447  -1.361  0.00  0.00     0.000 A 
ATOM      5  C5  BNZ d   1       0.986  -1.017  -0.129  0.00  0.00     0.000 A 
ATOM      6  C6  BNZ d   1       0.094  -0.423   0.733  0.00  0.00     0.000 A 
ENDROOT
TORSDOF 0
ENDMDL
