MODEL 1
REMARK minimizedAffinity -3.35678601
REMARK minimizedRMSD -1
REMARK  0 active torsions:
REMARK  status: ('A' for Active; 'I' for Inactive)
ROOT
ATOM      1  C1  BNZ d   1      -0.042  -0.905  -0.723  0.00  0.00     0.000 A 
ATOM      2  C2  BNZ d   1       0.411  -1.657  -1.774  0.00  0.00     0.000 A 
ATOM      3  C3  BNZ d   1       0.832  -1.062  -2.930  0.00  0.00     0.000 A 
ATOM      4  C4  BNZ d   1       0.761   0.280  -3.049  0.00  0.00     0.000 A 
ATOM      5  C5  BNZ d   1       0.297   1.051  -2.002  0.00  0.00     0.000 A 
ATOM      6  C6  BNZ d   1      -0.089   0.451  -0.825  0.00  0.00     0.000 A 
ENDROOT
TORSDOF 0
ENDMDL
