MODEL 1
REMARK minimizedAffinity -1.74204826
REMARK minimizedRMSD -1
REMARK  0 active torsions:
REMARK  status: ('A' for Active; 'I' for Inactive)
ROOT
ATOM      1  C1  BNZ d   1      -1.895   1.070   1.441  0.00  0.00     0.000 A 
ATOM      2  C2  BNZ d   1      -1.650   1.051   0.094  0.00  0.00     0.000 A 
ATOM      3  C3  BNZ d   1      -0.559   0.400  -0.411  0.00  0.00     0.000 A 
ATOM      4  C4  BNZ d   1       0.307  -0.195   0.435  0.00  0.00     0.000 A 
ATOM      5  C5  BNZ d   1       0.079  -0.177   1.796  0.00  0.00     0.000 A 
ATOM      6  C6  BNZ d   1      -1.041   0.446   2.297  0.00  0.00     0.000 A 
ENDROOT
TORSDOF 0
ENDMDL
