MODEL 1
REMARK minimizedAffinity -2.1677444
REMARK minimizedRMSD -1
REMARK  0 active torsions:
REMARK  status: ('A' for Active; 'I' for Inactive)
ROOT
ATOM      1  C1  BNZ d   1       0.051   1.031  -0.775  0.00  0.00     0.000 A 
ATOM      2  C2  BNZ d   1       0.502   1.131  -2.064  0.00  0.00     0.000 A 
ATOM      3  C3  BNZ d   1       0.852   0.015  -2.771  0.00  0.00     0.000 A 
ATOM      4  C4  BNZ d   1       0.791  -1.194  -2.176  0.00  0.00     0.000 A 
ATOM      5  C5  BNZ d   1       0.348  -1.310  -0.874  0.00  0.00     0.000 A 
ATOM      6  C6  BNZ d   1      -0.042  -0.188  -0.178  0.00  0.00     0.000 A 
ENDROOT
TORSDOF 0
ENDMDL
