MODEL 1
REMARK minimizedAffinity -3.84805465
REMARK minimizedRMSD -1
REMARK  0 active torsions:
REMARK  status: ('A' for Active; 'I' for Inactive)
ROOT
ATOM      1  C1  BNZ d   1      -1.177   1.712  -0.088  0.00  0.00     0.000 A 
ATOM      2  C2  BNZ d   1      -0.029   1.356  -0.743  0.00  0.00     0.000 A 
ATOM      3  C3  BNZ d   1       0.325   0.042  -0.871  0.00  0.00     0.000 A 
ATOM      4  C4  BNZ d   1      -0.447  -0.911  -0.310  0.00  0.00     0.000 A 
ATOM      5  C5  BNZ d   1      -1.603  -0.567   0.362  0.00  0.00     0.000 A 
ATOM      6  C6  BNZ d   1      -1.977   0.754   0.455  0.00  0.00     0.000 A 
ENDROOT
TORSDOF 0
ENDMDL
