MODEL 1
REMARK minimizedAffinity -0.893234551
REMARK minimizedRMSD -1
REMARK  0 active torsions:
REMARK  status: ('A' for Active; 'I' for Inactive)
ROOT
ATOM      1  C1  BNZ d   1       0.384  -0.216  -1.231  0.00  0.00     0.000 A 
ATOM      2  C2  BNZ d   1      -0.291  -0.564  -2.371  0.00  0.00     0.000 A 
ATOM      3  C3  BNZ d   1       0.261  -0.355  -3.603  0.00  0.00     0.000 A 
ATOM      4  C4  BNZ d   1       1.468   0.238  -3.697  0.00  0.00     0.000 A 
ATOM      5  C5  BNZ d   1       2.158   0.604  -2.558  0.00  0.00     0.000 A 
ATOM      6  C6  BNZ d   1       1.616   0.357  -1.317  0.00  0.00     0.000 A 
ENDROOT
TORSDOF 0
ENDMDL
