MODEL 1
REMARK minimizedAffinity -0.938070118
REMARK minimizedRMSD -1
REMARK  0 active torsions:
REMARK  status: ('A' for Active; 'I' for Inactive)
ROOT
ATOM      1  C1  BNZ d   1       0.566  -1.310  -0.751  0.00  0.00     0.000 A 
ATOM      2  C2  BNZ d   1       1.004  -1.183  -2.042  0.00  0.00     0.000 A 
ATOM      3  C3  BNZ d   1       0.819  -0.018  -2.733  0.00  0.00     0.000 A 
ATOM      4  C4  BNZ d   1       0.161   1.003  -2.147  0.00  0.00     0.000 A 
ATOM      5  C5  BNZ d   1      -0.295   0.887  -0.849  0.00  0.00     0.000 A 
ATOM      6  C6  BNZ d   1      -0.073  -0.273  -0.143  0.00  0.00     0.000 A 
ENDROOT
TORSDOF 0
ENDMDL
