MODEL 1
REMARK minimizedAffinity -2.97727489
REMARK minimizedRMSD -1
REMARK  0 active torsions:
REMARK  status: ('A' for Active; 'I' for Inactive)
ROOT
ATOM      1  C1  BNZ d   1      -1.980   1.364   1.041  0.00  0.00     0.000 A 
ATOM      2  C2  BNZ d   1      -1.699   1.421  -0.298  0.00  0.00     0.000 A 
ATOM      3  C3  BNZ d   1      -0.622   0.756  -0.816  0.00  0.00     0.000 A 
ATOM      4  C4  BNZ d   1       0.193   0.070   0.010  0.00  0.00     0.000 A 
ATOM      5  C5  BNZ d   1      -0.072   0.010   1.363  0.00  0.00     0.000 A 
ATOM      6  C6  BNZ d   1      -1.178   0.648   1.876  0.00  0.00     0.000 A 
ENDROOT
TORSDOF 0
ENDMDL
