MODEL 1
REMARK minimizedAffinity -4.19921684
REMARK minimizedRMSD -1
REMARK  0 active torsions:
REMARK  status: ('A' for Active; 'I' for Inactive)
ROOT
ATOM      1  C1  BNZ d   1      -1.133  -0.607  -0.369  0.00  0.00     0.000 A 
ATOM      2  C2  BNZ d   1      -2.265  -0.016   0.125  0.00  0.00     0.000 A 
ATOM      3  C3  BNZ d   1      -2.270   0.560   1.365  0.00  0.00     0.000 A 
ATOM      4  C4  BNZ d   1      -1.156   0.508   2.124  0.00  0.00     0.000 A 
ATOM      5  C5  BNZ d   1      -0.010  -0.093   1.644  0.00  0.00     0.000 A 
ATOM      6  C6  BNZ d   1       0.003  -0.637   0.380  0.00  0.00     0.000 A 
ENDROOT
TORSDOF 0
ENDMDL
