MODEL 1
REMARK minimizedAffinity -2.09830499
REMARK minimizedRMSD -1
REMARK  1 active torsions:
REMARK  status: ('A' for Active; 'I' for Inactive)
REMARK    1  A    between atoms: C3_4  and  O_7 
ROOT
ATOM      1  C   UNL d   1       2.180  -1.759   2.994  0.00  0.00    -0.033 A 
ATOM      2  C1  UNL d   1       2.606  -0.511   2.536  0.00  0.00     0.039 A 
ATOM      3  C2  UNL d   1       1.991   0.075   1.427  0.00  0.00    -0.080 A 
ATOM      4  C3  UNL d   1       0.952  -0.597   0.788  0.00  0.00     0.150 A 
ATOM      5  C4  UNL d   1       0.520  -1.838   1.242  0.00  0.00    -0.007 A 
ATOM      6  C5  UNL d   1       1.136  -2.422   2.349  0.00  0.00     0.039 A 
ENDROOT
BRANCH   4   7
ATOM      7  O   UNL d   1       0.325  -0.067  -0.300  0.00  0.00    -0.526 OA
ATOM      8  H5  UNL d   1       0.748   0.780  -0.517  0.00  0.00     0.418 HD
ENDBRANCH   4   7
TORSDOF 1
ENDMDL
