MODEL 1
REMARK minimizedAffinity 2.17170262
REMARK minimizedRMSD -1
REMARK  1 active torsions:
REMARK  status: ('A' for Active; 'I' for Inactive)
REMARK    1  A    between atoms: C3_4  and  O_7 
ROOT
ATOM      1  C   UNL d   1      -2.882  -0.015  -3.311  0.00  0.00    -0.033 A 
ATOM      2  C1  UNL d   1      -3.028   0.913  -2.278  0.00  0.00     0.039 A 
ATOM      3  C2  UNL d   1      -2.730   0.550  -0.963  0.00  0.00    -0.080 A 
ATOM      4  C3  UNL d   1      -2.287  -0.742  -0.695  0.00  0.00     0.150 A 
ATOM      5  C4  UNL d   1      -2.136  -1.671  -1.719  0.00  0.00    -0.007 A 
ATOM      6  C5  UNL d   1      -2.434  -1.307  -3.031  0.00  0.00     0.039 A 
ENDROOT
BRANCH   4   7
ATOM      7  O   UNL d   1      -1.989  -1.144   0.573  0.00  0.00    -0.526 OA
ATOM      8  H5  UNL d   1      -2.168  -0.406   1.180  0.00  0.00     0.418 HD
ENDBRANCH   4   7
TORSDOF 1
ENDMDL
