MODEL 1
REMARK minimizedAffinity 4.36152029
REMARK minimizedRMSD -1
REMARK  1 active torsions:
REMARK  status: ('A' for Active; 'I' for Inactive)
REMARK    1  A    between atoms: C3_4  and  O_7 
ROOT
ATOM      1  C   UNL d   1      -2.616   0.149  -3.710  0.00  0.00    -0.033 A 
ATOM      2  C1  UNL d   1      -2.090  -0.882  -2.930  0.00  0.00     0.039 A 
ATOM      3  C2  UNL d   1      -1.947  -0.714  -1.551  0.00  0.00    -0.080 A 
ATOM      4  C3  UNL d   1      -2.335   0.488  -0.966  0.00  0.00     0.150 A 
ATOM      5  C4  UNL d   1      -2.864   1.519  -1.737  0.00  0.00    -0.007 A 
ATOM      6  C5  UNL d   1      -3.005   1.349  -3.113  0.00  0.00     0.039 A 
ENDROOT
BRANCH   4   7
ATOM      7  O   UNL d   1      -2.211   0.701   0.375  0.00  0.00    -0.526 OA
ATOM      8  H5  UNL d   1      -1.804  -0.086   0.775  0.00  0.00     0.418 HD
ENDBRANCH   4   7
TORSDOF 1
ENDMDL
