MODEL 1
REMARK minimizedAffinity 2.56651711
REMARK minimizedRMSD -1
REMARK  1 active torsions:
REMARK  status: ('A' for Active; 'I' for Inactive)
REMARK    1  A    between atoms: C3_4  and  O_7 
ROOT
ATOM      1  C   UNL d   1      -2.423  -0.686  -2.786  0.00  0.00    -0.033 A 
ATOM      2  C1  UNL d   1      -2.579  -0.490  -4.159  0.00  0.00     0.039 A 
ATOM      3  C2  UNL d   1      -2.832   0.789  -4.659  0.00  0.00    -0.080 A 
ATOM      4  C3  UNL d   1      -2.925   1.862  -3.776  0.00  0.00     0.150 A 
ATOM      5  C4  UNL d   1      -2.766   1.674  -2.407  0.00  0.00    -0.007 A 
ATOM      6  C5  UNL d   1      -2.515   0.396  -1.910  0.00  0.00     0.039 A 
ENDROOT
BRANCH   4   7
ATOM      7  O   UNL d   1      -3.175   3.127  -4.216  0.00  0.00    -0.526 OA
ATOM      8  H5  UNL d   1      -3.291   3.101  -5.181  0.00  0.00     0.418 HD
ENDBRANCH   4   7
TORSDOF 1
ENDMDL
