MODEL 1
REMARK minimizedAffinity 17.0945854
REMARK minimizedRMSD -1
REMARK  1 active torsions:
REMARK  status: ('A' for Active; 'I' for Inactive)
REMARK    1  A    between atoms: C3_4  and  O_7 
ROOT
ATOM      1  C   UNL d   1      -2.330  -0.401  -2.284  0.00  0.00    -0.033 A 
ATOM      2  C1  UNL d   1      -2.376  -0.336  -3.678  0.00  0.00     0.039 A 
ATOM      3  C2  UNL d   1      -2.677   0.871  -4.312  0.00  0.00    -0.080 A 
ATOM      4  C3  UNL d   1      -2.930   2.003  -3.543  0.00  0.00     0.150 A 
ATOM      5  C4  UNL d   1      -2.882   1.946  -2.154  0.00  0.00    -0.007 A 
ATOM      6  C5  UNL d   1      -2.582   0.740  -1.522  0.00  0.00     0.039 A 
ENDROOT
BRANCH   4   7
ATOM      7  O   UNL d   1      -3.233   3.202  -4.117  0.00  0.00    -0.526 OA
ATOM      8  H5  UNL d   1      -3.258   3.084  -5.081  0.00  0.00     0.418 HD
ENDBRANCH   4   7
TORSDOF 1
ENDMDL
