MODEL 1
REMARK minimizedAffinity 7.98335934
REMARK minimizedRMSD -1
REMARK  1 active torsions:
REMARK  status: ('A' for Active; 'I' for Inactive)
REMARK    1  A    between atoms: C3_4  and  O_7 
ROOT
ATOM      1  C   UNL d   1       2.115  -0.308   3.879  0.00  0.00    -0.033 A 
ATOM      2  C1  UNL d   1       2.262  -0.294   5.267  0.00  0.00     0.039 A 
ATOM      3  C2  UNL d   1       2.126  -1.476   5.998  0.00  0.00    -0.080 A 
ATOM      4  C3  UNL d   1       1.845  -2.664   5.329  0.00  0.00     0.150 A 
ATOM      5  C4  UNL d   1       1.701  -2.687   3.946  0.00  0.00    -0.007 A 
ATOM      6  C5  UNL d   1       1.836  -1.505   3.218  0.00  0.00     0.039 A 
ENDROOT
BRANCH   4   7
ATOM      7  O   UNL d   1       1.699  -3.842   6.000  0.00  0.00    -0.526 OA
ATOM      8  H5  UNL d   1       1.796  -3.669   6.951  0.00  0.00     0.418 HD
ENDBRANCH   4   7
TORSDOF 1
ENDMDL
