MODEL 1
REMARK minimizedAffinity 8.98579407
REMARK minimizedRMSD -1
REMARK  1 active torsions:
REMARK  status: ('A' for Active; 'I' for Inactive)
REMARK    1  A    between atoms: C3_4  and  O_7 
ROOT
ATOM      1  C   UNL d   1      -2.464   1.648  -2.933  0.00  0.00    -0.033 A 
ATOM      2  C1  UNL d   1      -2.809   2.565  -3.929  0.00  0.00     0.039 A 
ATOM      3  C2  UNL d   1      -3.492   3.736  -3.595  0.00  0.00    -0.080 A 
ATOM      4  C3  UNL d   1      -3.823   3.979  -2.265  0.00  0.00     0.150 A 
ATOM      5  C4  UNL d   1      -3.479   3.072  -1.268  0.00  0.00    -0.007 A 
ATOM      6  C5  UNL d   1      -2.798   1.903  -1.603  0.00  0.00     0.039 A 
ENDROOT
BRANCH   4   7
ATOM      7  O   UNL d   1      -4.493   5.106  -1.892  0.00  0.00    -0.526 OA
ATOM      8  H5  UNL d   1      -4.690   5.626  -2.690  0.00  0.00     0.418 HD
ENDBRANCH   4   7
TORSDOF 1
ENDMDL
