MODEL 1
REMARK minimizedAffinity 9.83895969
REMARK minimizedRMSD -1
REMARK  1 active torsions:
REMARK  status: ('A' for Active; 'I' for Inactive)
REMARK    1  A    between atoms: C3_4  and  O_7 
ROOT
ATOM      1  C   UNL d   1      -1.122   4.808   1.216  0.00  0.00    -0.033 A 
ATOM      2  C1  UNL d   1      -0.547   5.997   0.762  0.00  0.00     0.039 A 
ATOM      3  C2  UNL d   1       0.744   5.991   0.232  0.00  0.00    -0.080 A 
ATOM      4  C3  UNL d   1       1.449   4.792   0.160  0.00  0.00     0.150 A 
ATOM      5  C4  UNL d   1       0.880   3.604   0.606  0.00  0.00    -0.007 A 
ATOM      6  C5  UNL d   1      -0.409   3.611   1.136  0.00  0.00     0.039 A 
ENDROOT
BRANCH   4   7
ATOM      7  O   UNL d   1       2.714   4.738  -0.346  0.00  0.00    -0.526 OA
ATOM      8  H5  UNL d   1       2.987   5.639  -0.588  0.00  0.00     0.418 HD
ENDBRANCH   4   7
TORSDOF 1
ENDMDL
