MODEL 1
REMARK minimizedAffinity 6.93024254
REMARK minimizedRMSD -1
REMARK  1 active torsions:
REMARK  status: ('A' for Active; 'I' for Inactive)
REMARK    1  A    between atoms: C3_4  and  O_7 
ROOT
ATOM      1  C   UNL d   1      -2.060   1.164  -3.415  0.00  0.00    -0.033 A 
ATOM      2  C1  UNL d   1      -1.483   0.392  -2.405  0.00  0.00     0.039 A 
ATOM      3  C2  UNL d   1      -1.783  -0.968  -2.306  0.00  0.00    -0.080 A 
ATOM      4  C3  UNL d   1      -2.660  -1.543  -3.222  0.00  0.00     0.150 A 
ATOM      5  C4  UNL d   1      -3.236  -0.781  -4.233  0.00  0.00    -0.007 A 
ATOM      6  C5  UNL d   1      -2.935   0.577  -4.330  0.00  0.00     0.039 A 
ENDROOT
BRANCH   4   7
ATOM      7  O   UNL d   1      -2.987  -2.865  -3.162  0.00  0.00    -0.526 OA
ATOM      8  H5  UNL d   1      -2.537  -3.259  -2.396  0.00  0.00     0.418 HD
ENDBRANCH   4   7
TORSDOF 1
ENDMDL
