MODEL 1
REMARK minimizedAffinity 2.64898443
REMARK minimizedRMSD -1
REMARK  1 active torsions:
REMARK  status: ('A' for Active; 'I' for Inactive)
REMARK    1  A    between atoms: C3_4  and  O_7 
ROOT
ATOM      1  C   UNL d   1      -1.791  -0.315  -3.014  0.00  0.00    -0.033 A 
ATOM      2  C1  UNL d   1      -1.613   0.341  -1.794  0.00  0.00     0.039 A 
ATOM      3  C2  UNL d   1      -2.109   1.634  -1.615  0.00  0.00    -0.080 A 
ATOM      4  C3  UNL d   1      -2.782   2.258  -2.662  0.00  0.00     0.150 A 
ATOM      5  C4  UNL d   1      -2.967   1.609  -3.878  0.00  0.00    -0.007 A 
ATOM      6  C5  UNL d   1      -2.470   0.319  -4.055  0.00  0.00     0.039 A 
ENDROOT
BRANCH   4   7
ATOM      7  O   UNL d   1      -3.280   3.521  -2.536  0.00  0.00    -0.526 OA
ATOM      8  H5  UNL d   1      -3.053   3.855  -1.652  0.00  0.00     0.418 HD
ENDBRANCH   4   7
TORSDOF 1
ENDMDL
