MODEL 1
REMARK minimizedAffinity 1.13647687
REMARK minimizedRMSD -1
REMARK  1 active torsions:
REMARK  status: ('A' for Active; 'I' for Inactive)
REMARK    1  A    between atoms: C3_4  and  O_7 
ROOT
ATOM      1  C   UNL d   1      -3.520  -2.051  -4.304  0.00  0.00    -0.033 A 
ATOM      2  C1  UNL d   1      -3.781  -1.204  -3.225  0.00  0.00     0.039 A 
ATOM      3  C2  UNL d   1      -2.747  -0.460  -2.654  0.00  0.00    -0.080 A 
ATOM      4  C3  UNL d   1      -1.459  -0.571  -3.171  0.00  0.00     0.150 A 
ATOM      5  C4  UNL d   1      -1.193  -1.409  -4.248  0.00  0.00    -0.007 A 
ATOM      6  C5  UNL d   1      -2.227  -2.153  -4.817  0.00  0.00     0.039 A 
ENDROOT
BRANCH   4   7
ATOM      7  O   UNL d   1      -0.417   0.132  -2.643  0.00  0.00    -0.526 OA
ATOM      8  H5  UNL d   1      -0.745   0.647  -1.887  0.00  0.00     0.418 HD
ENDBRANCH   4   7
TORSDOF 1
ENDMDL
