MODEL 1
REMARK minimizedAffinity -2.81068325
REMARK minimizedRMSD -1
REMARK  3 active torsions:
REMARK  status: ('A' for Active; 'I' for Inactive)
REMARK    1  A    between atoms: C3'_2  and  C2'_3 
REMARK    2  A    between atoms: C2'_3  and  C1'_4 
REMARK    3  A    between atoms: C1'_4  and  C1_5 
ROOT
ATOM      1  C1  N4B d   1       0.423  -1.002   4.413  0.00  0.00    -0.075 A 
ATOM      2  C2  N4B d   1       1.210  -2.129   4.735  0.00  0.00     0.002 A 
ATOM      3  C3  N4B d   1       2.320  -1.986   5.531  0.00  0.00     0.002 A 
ATOM      4  C4  N4B d   1       2.671  -0.729   6.000  0.00  0.00    -0.004 A 
ATOM      5  C5  N4B d   1       1.890   0.350   5.705  0.00  0.00     0.002 A 
ATOM      6  C6  N4B d   1       0.770   0.221   4.909  0.00  0.00     0.002 A 
ENDROOT
BRANCH   1   7
ATOM      7  C1' N4B d   1      -0.750  -1.095   3.476  0.00  0.00     0.057 C 
BRANCH   7   8
ATOM      8  C2' N4B d   1      -0.821   0.177   2.635  0.00  0.00     0.009 C 
BRANCH   8   9
ATOM      9  C3' N4B d   1      -1.868   0.075   1.539  0.00  0.00     0.004 C 
ATOM     10  C4' N4B d   1      -1.274   0.126   0.163  0.00  0.00     0.003 C 
ENDBRANCH   8   9
ENDBRANCH   7   8
ENDBRANCH   1   7
TORSDOF 3
ENDMDL
