MODEL 1
REMARK minimizedAffinity 8.02743053
REMARK minimizedRMSD -1
REMARK  3 active torsions:
REMARK  status: ('A' for Active; 'I' for Inactive)
REMARK    1  A    between atoms: C3'_2  and  C2'_3 
REMARK    2  A    between atoms: C2'_3  and  C1'_4 
REMARK    3  A    between atoms: C1'_4  and  C1_5 
ROOT
ATOM      1  C1  N4B d   1       0.159   0.013   0.524  0.00  0.00    -0.075 A 
ATOM      2  C2  N4B d   1      -0.009  -0.704  -0.681  0.00  0.00     0.002 A 
ATOM      3  C3  N4B d   1      -1.264  -0.866  -1.215  0.00  0.00     0.002 A 
ATOM      4  C4  N4B d   1      -2.364  -0.338  -0.554  0.00  0.00    -0.004 A 
ATOM      5  C5  N4B d   1      -2.190   0.375   0.596  0.00  0.00     0.002 A 
ATOM      6  C6  N4B d   1      -0.934   0.549   1.141  0.00  0.00     0.002 A 
ENDROOT
BRANCH   1   7
ATOM      7  C1' N4B d   1       1.501   0.142   1.190  0.00  0.00     0.057 C 
BRANCH   7   8
ATOM      8  C2' N4B d   1       2.597  -0.152   0.170  0.00  0.00     0.009 C 
BRANCH   8   9
ATOM      9  C3' N4B d   1       3.012   1.095  -0.593  0.00  0.00     0.004 C 
ATOM     10  C4' N4B d   1       3.674   2.117   0.282  0.00  0.00     0.003 C 
ENDBRANCH   8   9
ENDBRANCH   7   8
ENDBRANCH   1   7
TORSDOF 3
ENDMDL
