MODEL 1
REMARK minimizedAffinity 8.63529682
REMARK minimizedRMSD -1
REMARK  3 active torsions:
REMARK  status: ('A' for Active; 'I' for Inactive)
REMARK    1  A    between atoms: C3'_2  and  C2'_3 
REMARK    2  A    between atoms: C2'_3  and  C1'_4 
REMARK    3  A    between atoms: C1'_4  and  C1_5 
ROOT
ATOM      1  C1  N4B d   1       1.764  -0.407  -0.082  0.00  0.00    -0.075 A 
ATOM      2  C2  N4B d   1       2.884   0.007  -0.836  0.00  0.00     0.002 A 
ATOM      3  C3  N4B d   1       3.781   0.898  -0.300  0.00  0.00     0.002 A 
ATOM      4  C4  N4B d   1       3.570   1.401   0.975  0.00  0.00    -0.004 A 
ATOM      5  C5  N4B d   1       2.500   0.976   1.707  0.00  0.00     0.002 A 
ATOM      6  C6  N4B d   1       1.593   0.078   1.183  0.00  0.00     0.002 A 
ENDROOT
BRANCH   1   7
ATOM      7  C1' N4B d   1       0.711  -1.313  -0.657  0.00  0.00     0.057 C 
BRANCH   7   8
ATOM      8  C2' N4B d   1      -0.374  -0.465  -1.315  0.00  0.00     0.009 C 
BRANCH   8   9
ATOM      9  C3' N4B d   1      -1.753  -0.773  -0.757  0.00  0.00     0.004 C 
ATOM     10  C4' N4B d   1      -2.439   0.439  -0.202  0.00  0.00     0.003 C 
ENDBRANCH   8   9
ENDBRANCH   7   8
ENDBRANCH   1   7
TORSDOF 3
ENDMDL
