MODEL 1
REMARK minimizedAffinity 4.67773914
REMARK minimizedRMSD -1
REMARK  0 active torsions:
REMARK  status: ('A' for Active; 'I' for Inactive)
ROOT
ATOM      1  O1  BZF d   1       1.942  -4.028   0.394  0.00  0.00    -0.204 OA
ATOM      2  C2  BZF d   1       1.498  -2.821   0.898  0.00  0.00     0.174 A 
ATOM      3  C3  BZF d   1       2.534  -1.990   1.133  0.00  0.00    -0.012 A 
ATOM      4  C3A BZF d   1       3.691  -2.690   0.664  0.00  0.00    -0.107 A 
ATOM      5  C4  BZF d   1       5.019  -2.377   0.611  0.00  0.00     0.055 A 
ATOM      6  C5  BZF d   1       5.899  -3.311   0.163  0.00  0.00    -0.016 A 
ATOM      7  C6  BZF d   1       5.487  -4.566  -0.234  0.00  0.00     0.022 A 
ATOM      8  C7  BZF d   1       4.179  -4.920  -0.204  0.00  0.00     0.029 A 
ATOM      9  C7A BZF d   1       3.283  -3.968   0.218  0.00  0.00     0.058 A 
ENDROOT
TORSDOF 0
ENDMDL
