MODEL 1
REMARK minimizedAffinity -1.70101976
REMARK minimizedRMSD -1
REMARK  0 active torsions:
REMARK  status: ('A' for Active; 'I' for Inactive)
ROOT
ATOM      1  O1  BZF d   1      -1.826   0.184  -5.188  0.00  0.00    -0.204 OA
ATOM      2  C2  BZF d   1      -2.306   1.209  -5.980  0.00  0.00     0.174 A 
ATOM      3  C3  BZF d   1      -3.654   1.207  -6.000  0.00  0.00    -0.012 A 
ATOM      4  C3A BZF d   1      -4.042   0.169  -5.095  0.00  0.00    -0.107 A 
ATOM      5  C4  BZF d   1      -5.252  -0.308  -4.676  0.00  0.00     0.055 A 
ATOM      6  C5  BZF d   1      -5.286  -1.380  -3.842  0.00  0.00    -0.016 A 
ATOM      7  C6  BZF d   1      -4.132  -2.002  -3.411  0.00  0.00     0.022 A 
ATOM      8  C7  BZF d   1      -2.909  -1.561  -3.795  0.00  0.00     0.029 A 
ATOM      9  C7A BZF d   1      -2.870  -0.458  -4.612  0.00  0.00     0.058 A 
ENDROOT
TORSDOF 0
ENDMDL
