MODEL 1
REMARK minimizedAffinity 9.97301865
REMARK minimizedRMSD -1
REMARK  0 active torsions:
REMARK  status: ('A' for Active; 'I' for Inactive)
ROOT
ATOM      1  O1  BZF d   1       2.884   4.864  -4.705  0.00  0.00    -0.204 OA
ATOM      2  C2  BZF d   1       3.337   5.999  -5.351  0.00  0.00     0.174 A 
ATOM      3  C3  BZF d   1       4.545   5.781  -5.910  0.00  0.00    -0.012 A 
ATOM      4  C3A BZF d   1       4.826   4.399  -5.672  0.00  0.00    -0.107 A 
ATOM      5  C4  BZF d   1       5.871   3.583  -6.000  0.00  0.00     0.055 A 
ATOM      6  C5  BZF d   1       5.873   2.300  -5.554  0.00  0.00    -0.016 A 
ATOM      7  C6  BZF d   1       4.849   1.800  -4.776  0.00  0.00     0.022 A 
ATOM      8  C7  BZF d   1       3.788   2.569  -4.430  0.00  0.00     0.029 A 
ATOM      9  C7A BZF d   1       3.768   3.857  -4.906  0.00  0.00     0.058 A 
ENDROOT
TORSDOF 0
ENDMDL
