MODEL 1
REMARK minimizedAffinity 16.561676
REMARK minimizedRMSD -1
REMARK  0 active torsions:
REMARK  status: ('A' for Active; 'I' for Inactive)
ROOT
ATOM      1  O1  BZF d   1      -2.867   2.617  -4.160  0.00  0.00    -0.204 OA
ATOM      2  C2  BZF d   1      -2.424   2.412  -2.868  0.00  0.00     0.174 A 
ATOM      3  C3  BZF d   1      -3.223   1.539  -2.221  0.00  0.00    -0.012 A 
ATOM      4  C3A BZF d   1      -4.175   1.106  -3.197  0.00  0.00    -0.107 A 
ATOM      5  C4  BZF d   1      -5.220   0.227  -3.164  0.00  0.00     0.055 A 
ATOM      6  C5  BZF d   1      -5.999   0.085  -4.268  0.00  0.00    -0.016 A 
ATOM      7  C6  BZF d   1      -5.764   0.808  -5.420  0.00  0.00     0.022 A 
ATOM      8  C7  BZF d   1      -4.737   1.687  -5.502  0.00  0.00     0.029 A 
ATOM      9  C7A BZF d   1      -3.928   1.809  -4.398  0.00  0.00     0.058 A 
ENDROOT
TORSDOF 0
ENDMDL
