MODEL 1
REMARK minimizedAffinity 9.50752163
REMARK minimizedRMSD -1
REMARK  0 active torsions:
REMARK  status: ('A' for Active; 'I' for Inactive)
ROOT
ATOM      1  O1  BZF d   1       3.496  -1.787  -0.222  0.00  0.00    -0.204 OA
ATOM      2  C2  BZF d   1       2.217  -1.484   0.202  0.00  0.00     0.174 A 
ATOM      3  C3  BZF d   1       1.695  -2.503   0.915  0.00  0.00    -0.012 A 
ATOM      4  C3A BZF d   1       2.746  -3.468   1.017  0.00  0.00    -0.107 A 
ATOM      5  C4  BZF d   1       2.844  -4.689   1.620  0.00  0.00     0.055 A 
ATOM      6  C5  BZF d   1       3.986  -5.411   1.469  0.00  0.00    -0.016 A 
ATOM      7  C6  BZF d   1       5.046  -4.944   0.719  0.00  0.00     0.022 A 
ATOM      8  C7  BZF d   1       4.997  -3.736   0.106  0.00  0.00     0.029 A 
ATOM      9  C7A BZF d   1       3.857  -2.991   0.284  0.00  0.00     0.058 A 
ENDROOT
TORSDOF 0
ENDMDL
