MODEL 1
REMARK minimizedAffinity 11.4533424
REMARK minimizedRMSD -1
REMARK  0 active torsions:
REMARK  status: ('A' for Active; 'I' for Inactive)
ROOT
ATOM      1  O1  BZF d   1       3.392   2.203  -4.652  0.00  0.00    -0.204 OA
ATOM      2  C2  BZF d   1       4.717   1.876  -4.865  0.00  0.00     0.174 A 
ATOM      3  C3  BZF d   1       5.374   2.898  -5.450  0.00  0.00    -0.012 A 
ATOM      4  C3A BZF d   1       4.421   3.962  -5.530  0.00  0.00    -0.107 A 
ATOM      5  C4  BZF d   1       4.481   5.243  -6.000  0.00  0.00     0.055 A 
ATOM      6  C5  BZF d   1       3.352   6.000  -5.999  0.00  0.00    -0.016 A 
ATOM      7  C6  BZF d   1       2.147   5.507  -5.541  0.00  0.00     0.022 A 
ATOM      8  C7  BZF d   1       2.040   4.244  -5.061  0.00  0.00     0.029 A 
ATOM      9  C7A BZF d   1       3.186   3.488  -5.029  0.00  0.00     0.058 A 
ENDROOT
TORSDOF 0
ENDMDL
