MODEL 1
REMARK minimizedAffinity 7.31559992
REMARK minimizedRMSD -1
REMARK  0 active torsions:
REMARK  status: ('A' for Active; 'I' for Inactive)
ROOT
ATOM      1  O1  BZF d   1       3.797   2.464  -4.713  0.00  0.00    -0.204 OA
ATOM      2  C2  BZF d   1       4.898   1.654  -4.909  0.00  0.00     0.174 A 
ATOM      3  C3  BZF d   1       5.910   2.349  -5.468  0.00  0.00    -0.012 A 
ATOM      4  C3A BZF d   1       5.441   3.699  -5.546  0.00  0.00    -0.107 A 
ATOM      5  C4  BZF d   1       5.999   4.862  -5.994  0.00  0.00     0.055 A 
ATOM      6  C5  BZF d   1       5.249   5.995  -6.000  0.00  0.00    -0.016 A 
ATOM      7  C6  BZF d   1       3.938   6.000  -5.570  0.00  0.00     0.022 A 
ATOM      8  C7  BZF d   1       3.343   4.872  -5.111  0.00  0.00     0.029 A 
ATOM      9  C7A BZF d   1       4.109   3.732  -5.073  0.00  0.00     0.058 A 
ENDROOT
TORSDOF 0
ENDMDL
