MODEL 1
REMARK minimizedAffinity 14.7737637
REMARK minimizedRMSD -1
REMARK  0 active torsions:
REMARK  status: ('A' for Active; 'I' for Inactive)
ROOT
ATOM      1  O1  BZF d   1       4.449  -5.992   2.777  0.00  0.00    -0.204 OA
ATOM      2  C2  BZF d   1       4.657  -5.268   1.619  0.00  0.00     0.174 A 
ATOM      3  C3  BZF d   1       5.210  -4.070   1.897  0.00  0.00    -0.012 A 
ATOM      4  C3A BZF d   1       5.441  -4.081   3.309  0.00  0.00    -0.107 A 
ATOM      5  C4  BZF d   1       5.984  -3.178   4.178  0.00  0.00     0.055 A 
ATOM      6  C5  BZF d   1       5.997  -3.465   5.506  0.00  0.00    -0.016 A 
ATOM      7  C6  BZF d   1       5.472  -4.642   6.000  0.00  0.00     0.022 A 
ATOM      8  C7  BZF d   1       4.927  -5.570   5.176  0.00  0.00     0.029 A 
ATOM      9  C7A BZF d   1       4.943  -5.297   3.830  0.00  0.00     0.058 A 
ENDROOT
TORSDOF 0
ENDMDL
