MODEL 1
REMARK minimizedAffinity 13.3208389
REMARK minimizedRMSD -1
REMARK  0 active torsions:
REMARK  status: ('A' for Active; 'I' for Inactive)
ROOT
ATOM      1  O1  BZF d   1      -2.490   2.967  -2.641  0.00  0.00    -0.204 OA
ATOM      2  C2  BZF d   1      -2.186   1.624  -2.520  0.00  0.00     0.174 A 
ATOM      3  C3  BZF d   1      -2.997   0.878  -3.298  0.00  0.00    -0.012 A 
ATOM      4  C3A BZF d   1      -3.800   1.820  -4.017  0.00  0.00    -0.107 A 
ATOM      5  C4  BZF d   1      -4.783   1.691  -4.956  0.00  0.00     0.055 A 
ATOM      6  C5  BZF d   1      -5.418   2.806  -5.404  0.00  0.00    -0.016 A 
ATOM      7  C6  BZF d   1      -5.100   4.062  -4.931  0.00  0.00     0.022 A 
ATOM      8  C7  BZF d   1      -4.129   4.240  -4.002  0.00  0.00     0.029 A 
ATOM      9  C7A BZF d   1      -3.462   3.119  -3.572  0.00  0.00     0.058 A 
ENDROOT
TORSDOF 0
ENDMDL
