MODEL 1
REMARK minimizedAffinity -5.97457457
REMARK minimizedRMSD -1
REMARK  0 active torsions:
REMARK  status: ('A' for Active; 'I' for Inactive)
ROOT
ATOM      1  C   UNL d   1      -0.129   1.748  -0.048  0.00  0.00     0.077 C 
ATOM      2  C1  UNL d   1       0.134   0.307  -0.371  0.00  0.00    -0.074 A 
ATOM      3  C2  UNL d   1       0.822  -0.056  -1.533  0.00  0.00    -0.005 A 
ATOM      4  C3  UNL d   1       1.067  -1.400  -1.815  0.00  0.00     0.006 A 
ATOM      5  C4  UNL d   1       0.628  -2.393  -0.939  0.00  0.00    -0.005 A 
ATOM      6  C5  UNL d   1      -0.060  -2.049   0.229  0.00  0.00    -0.074 A 
ATOM      7  C6  UNL d   1      -0.531  -3.104   1.186  0.00  0.00     0.077 C 
ATOM      8  C7  UNL d   1      -0.297  -0.697   0.508  0.00  0.00    -0.001 A 
ENDROOT
TORSDOF 0
ENDMDL
