MODEL 1
REMARK minimizedAffinity -1.18566287
REMARK minimizedRMSD -1
REMARK  0 active torsions:
REMARK  status: ('A' for Active; 'I' for Inactive)
ROOT
ATOM      1  C   UNL d   1      -0.923  -1.315   1.547  0.00  0.00     0.077 C 
ATOM      2  C1  UNL d   1      -0.438  -0.245   0.614  0.00  0.00    -0.074 A 
ATOM      3  C2  UNL d   1      -0.451  -0.440  -0.771  0.00  0.00    -0.005 A 
ATOM      4  C3  UNL d   1      -0.006   0.568  -1.626  0.00  0.00     0.006 A 
ATOM      5  C4  UNL d   1       0.456   1.778  -1.107  0.00  0.00    -0.005 A 
ATOM      6  C5  UNL d   1       0.475   1.990   0.275  0.00  0.00    -0.074 A 
ATOM      7  C6  UNL d   1       0.959   3.289   0.849  0.00  0.00     0.077 C 
ATOM      8  C7  UNL d   1       0.020   0.976   1.128  0.00  0.00    -0.001 A 
ENDROOT
TORSDOF 0
ENDMDL
