MODEL 1
REMARK minimizedAffinity -5.58675432
REMARK minimizedRMSD -1
REMARK  0 active torsions:
REMARK  status: ('A' for Active; 'I' for Inactive)
ROOT
ATOM      1  C   UNL d   1       0.803  -2.190  -3.306  0.00  0.00     0.077 C 
ATOM      2  C1  UNL d   1       0.416  -2.347  -1.866  0.00  0.00    -0.074 A 
ATOM      3  C2  UNL d   1       0.292  -3.615  -1.289  0.00  0.00    -0.005 A 
ATOM      4  C3  UNL d   1      -0.059  -3.745   0.055  0.00  0.00     0.006 A 
ATOM      5  C4  UNL d   1      -0.290  -2.611   0.834  0.00  0.00    -0.005 A 
ATOM      6  C5  UNL d   1      -0.171  -1.334   0.274  0.00  0.00    -0.074 A 
ATOM      7  C6  UNL d   1      -0.406  -0.105   1.100  0.00  0.00     0.077 C 
ATOM      8  C7  UNL d   1       0.190  -1.212  -1.075  0.00  0.00    -0.001 A 
ENDROOT
TORSDOF 0
ENDMDL
