MODEL 1
REMARK minimizedAffinity -1.17916405
REMARK minimizedRMSD -1
REMARK  0 active torsions:
REMARK  status: ('A' for Active; 'I' for Inactive)
ROOT
ATOM      1  C   UNL d   1       0.887  -0.692  -3.112  0.00  0.00     0.077 C 
ATOM      2  C1  UNL d   1       0.318  -0.464  -1.743  0.00  0.00    -0.074 A 
ATOM      3  C2  UNL d   1       0.252   0.823  -1.198  0.00  0.00    -0.005 A 
ATOM      4  C3  UNL d   1      -0.289   1.021   0.073  0.00  0.00     0.006 A 
ATOM      5  C4  UNL d   1      -0.767  -0.063   0.810  0.00  0.00    -0.005 A 
ATOM      6  C5  UNL d   1      -0.710  -1.357   0.280  0.00  0.00    -0.074 A 
ATOM      7  C6  UNL d   1      -1.229  -2.531   1.055  0.00  0.00     0.077 C 
ATOM      8  C7  UNL d   1      -0.172  -1.547  -1.000  0.00  0.00    -0.001 A 
ENDROOT
TORSDOF 0
ENDMDL
