MODEL 1
REMARK minimizedAffinity -5.71170855
REMARK minimizedRMSD -1
REMARK  0 active torsions:
REMARK  status: ('A' for Active; 'I' for Inactive)
ROOT
ATOM      1  C   UNL d   1       0.208   1.448  -0.171  0.00  0.00     0.077 C 
ATOM      2  C1  UNL d   1       0.002  -0.035  -0.085  0.00  0.00    -0.074 A 
ATOM      3  C2  UNL d   1      -0.504  -0.624   1.078  0.00  0.00    -0.005 A 
ATOM      4  C3  UNL d   1      -0.699  -2.004   1.140  0.00  0.00     0.006 A 
ATOM      5  C4  UNL d   1      -0.392  -2.807   0.040  0.00  0.00    -0.005 A 
ATOM      6  C5  UNL d   1       0.114  -2.235  -1.132  0.00  0.00    -0.074 A 
ATOM      7  C6  UNL d   1       0.440  -3.082  -2.325  0.00  0.00     0.077 C 
ATOM      8  C7  UNL d   1       0.301  -0.847  -1.188  0.00  0.00    -0.001 A 
ENDROOT
TORSDOF 0
ENDMDL
