MODEL 1
REMARK minimizedAffinity -4.84524822
REMARK minimizedRMSD -1
REMARK  0 active torsions:
REMARK  status: ('A' for Active; 'I' for Inactive)
ROOT
ATOM      1  C   UNL d   1      -0.305  -5.211  -1.178  0.00  0.00     0.077 C 
ATOM      2  C1  UNL d   1       0.014  -3.747  -1.098  0.00  0.00    -0.074 A 
ATOM      3  C2  UNL d   1       0.804  -3.129  -2.073  0.00  0.00    -0.005 A 
ATOM      4  C3  UNL d   1       1.085  -1.766  -1.990  0.00  0.00     0.006 A 
ATOM      5  C4  UNL d   1       0.580  -1.007  -0.933  0.00  0.00    -0.005 A 
ATOM      6  C5  UNL d   1      -0.212  -1.608   0.051  0.00  0.00    -0.074 A 
ATOM      7  C6  UNL d   1      -0.771  -0.805   1.188  0.00  0.00     0.077 C 
ATOM      8  C7  UNL d   1      -0.496  -2.977  -0.043  0.00  0.00    -0.001 A 
ENDROOT
TORSDOF 0
ENDMDL
