MODEL 1
REMARK minimizedAffinity -1.37971723
REMARK minimizedRMSD -1
REMARK  0 active torsions:
REMARK  status: ('A' for Active; 'I' for Inactive)
ROOT
ATOM      1  C   UNL d   1       1.502   2.989   0.647  0.00  0.00     0.077 C 
ATOM      2  C1  UNL d   1       0.868   1.768   0.051  0.00  0.00    -0.074 A 
ATOM      3  C2  UNL d   1       1.148   1.382  -1.264  0.00  0.00    -0.005 A 
ATOM      4  C3  UNL d   1       0.557   0.239  -1.802  0.00  0.00     0.006 A 
ATOM      5  C4  UNL d   1      -0.318  -0.529  -1.033  0.00  0.00    -0.005 A 
ATOM      6  C5  UNL d   1      -0.609  -0.159   0.284  0.00  0.00    -0.074 A 
ATOM      7  C6  UNL d   1      -1.539  -0.978   1.128  0.00  0.00     0.077 C 
ATOM      8  C7  UNL d   1      -0.006   0.987   0.820  0.00  0.00    -0.001 A 
ENDROOT
TORSDOF 0
ENDMDL
