MODEL 1
REMARK minimizedAffinity -5.64203358
REMARK minimizedRMSD -1
REMARK  0 active torsions:
REMARK  status: ('A' for Active; 'I' for Inactive)
ROOT
ATOM      1  C   UNL d   1       0.221   1.695   0.026  0.00  0.00     0.077 C 
ATOM      2  C1  UNL d   1      -0.088   0.227  -0.006  0.00  0.00    -0.074 A 
ATOM      3  C2  UNL d   1      -0.782  -0.384   1.044  0.00  0.00    -0.005 A 
ATOM      4  C3  UNL d   1      -1.071  -1.747   0.996  0.00  0.00     0.006 A 
ATOM      5  C4  UNL d   1      -0.670  -2.513  -0.100  0.00  0.00    -0.005 A 
ATOM      6  C5  UNL d   1       0.024  -1.919  -1.159  0.00  0.00    -0.074 A 
ATOM      7  C6  UNL d   1       0.453  -2.725  -2.349  0.00  0.00     0.077 C 
ATOM      8  C7  UNL d   1       0.304  -0.546  -1.107  0.00  0.00    -0.001 A 
ENDROOT
TORSDOF 0
ENDMDL
