MODEL 1
REMARK minimizedAffinity -4.79522228
REMARK minimizedRMSD -1
REMARK  0 active torsions:
REMARK  status: ('A' for Active; 'I' for Inactive)
ROOT
ATOM      1  C   UNL d   1      -0.077   1.307  -0.690  0.00  0.00     0.077 C 
ATOM      2  C1  UNL d   1      -0.202  -0.152  -0.368  0.00  0.00    -0.074 A 
ATOM      3  C2  UNL d   1      -0.887  -0.581   0.774  0.00  0.00    -0.005 A 
ATOM      4  C3  UNL d   1      -1.003  -1.942   1.055  0.00  0.00     0.006 A 
ATOM      5  C4  UNL d   1      -0.437  -2.887   0.198  0.00  0.00    -0.005 A 
ATOM      6  C5  UNL d   1       0.250  -2.477  -0.949  0.00  0.00    -0.074 A 
ATOM      7  C6  UNL d   1       0.855  -3.481  -1.886  0.00  0.00     0.077 C 
ATOM      8  C7  UNL d   1       0.356  -1.108  -1.228  0.00  0.00    -0.001 A 
ENDROOT
TORSDOF 0
ENDMDL
