MODEL 1
REMARK minimizedAffinity -5.73177624
REMARK minimizedRMSD -1
REMARK  0 active torsions:
REMARK  status: ('A' for Active; 'I' for Inactive)
ROOT
ATOM      1  C   UNL d   1       0.518  -3.719   0.848  0.00  0.00     0.077 C 
ATOM      2  C1  UNL d   1       0.439  -2.722  -0.271  0.00  0.00    -0.074 A 
ATOM      3  C2  UNL d   1       0.415  -3.140  -1.605  0.00  0.00    -0.005 A 
ATOM      4  C3  UNL d   1       0.332  -2.202  -2.634  0.00  0.00     0.006 A 
ATOM      5  C4  UNL d   1       0.272  -0.839  -2.340  0.00  0.00    -0.005 A 
ATOM      6  C5  UNL d   1       0.294  -0.403  -1.011  0.00  0.00    -0.074 A 
ATOM      7  C6  UNL d   1       0.221   1.057  -0.677  0.00  0.00     0.077 C 
ATOM      8  C7  UNL d   1       0.371  -1.352   0.018  0.00  0.00    -0.001 A 
ENDROOT
TORSDOF 0
ENDMDL
