MODEL 1
REMARK minimizedAffinity -5.22986507
REMARK minimizedRMSD -1
REMARK  0 active torsions:
REMARK  status: ('A' for Active; 'I' for Inactive)
ROOT
ATOM      1  C   UNL d   1       0.608  -3.497  -0.089  0.00  0.00     0.077 C 
ATOM      2  C1  UNL d   1       0.171  -2.092   0.202  0.00  0.00    -0.074 A 
ATOM      3  C2  UNL d   1      -1.005  -1.839   0.916  0.00  0.00    -0.005 A 
ATOM      4  C3  UNL d   1      -1.394  -0.527   1.187  0.00  0.00     0.006 A 
ATOM      5  C4  UNL d   1      -0.612   0.543   0.749  0.00  0.00    -0.005 A 
ATOM      6  C5  UNL d   1       0.567   0.308   0.035  0.00  0.00    -0.074 A 
ATOM      7  C6  UNL d   1       1.424   1.446  -0.435  0.00  0.00     0.077 C 
ATOM      8  C7  UNL d   1       0.955  -1.013  -0.228  0.00  0.00    -0.001 A 
ENDROOT
TORSDOF 0
ENDMDL
