MODEL 1
REMARK minimizedAffinity -4.52623129
REMARK minimizedRMSD -1
REMARK  0 active torsions:
REMARK  status: ('A' for Active; 'I' for Inactive)
ROOT
ATOM      1  C   UNL d   1      -0.363  -4.718  -0.292  0.00  0.00     0.077 C 
ATOM      2  C1  UNL d   1      -0.058  -3.345  -0.814  0.00  0.00    -0.074 A 
ATOM      3  C2  UNL d   1       0.342  -3.152  -2.140  0.00  0.00    -0.005 A 
ATOM      4  C3  UNL d   1       0.613  -1.868  -2.613  0.00  0.00     0.006 A 
ATOM      5  C4  UNL d   1       0.488  -0.767  -1.766  0.00  0.00    -0.005 A 
ATOM      6  C5  UNL d   1       0.089  -0.940  -0.437  0.00  0.00    -0.074 A 
ATOM      7  C6  UNL d   1      -0.060   0.235   0.484  0.00  0.00     0.077 C 
ATOM      8  C7  UNL d   1      -0.189  -2.232   0.029  0.00  0.00    -0.001 A 
ENDROOT
TORSDOF 0
ENDMDL
