MODEL 1
REMARK minimizedAffinity -3.26898146
REMARK minimizedRMSD -1
REMARK  0 active torsions:
REMARK  status: ('A' for Active; 'I' for Inactive)
ROOT
ATOM      1  C   UNL d   1       0.228   1.308  -0.076  0.00  0.00     0.077 C 
ATOM      2  C1  UNL d   1      -0.012  -0.172  -0.114  0.00  0.00    -0.074 A 
ATOM      3  C2  UNL d   1      -0.905  -0.778   0.776  0.00  0.00    -0.005 A 
ATOM      4  C3  UNL d   1      -1.125  -2.155   0.723  0.00  0.00     0.006 A 
ATOM      5  C4  UNL d   1      -0.457  -2.937  -0.220  0.00  0.00    -0.005 A 
ATOM      6  C5  UNL d   1       0.438  -2.348  -1.119  0.00  0.00    -0.074 A 
ATOM      7  C6  UNL d   1       1.157  -3.173  -2.144  0.00  0.00     0.077 C 
ATOM      8  C7  UNL d   1       0.649  -0.964  -1.063  0.00  0.00    -0.001 A 
ENDROOT
TORSDOF 0
ENDMDL
