MODEL 1
REMARK minimizedAffinity -5.25508642
REMARK minimizedRMSD -1
REMARK  0 active torsions:
REMARK  status: ('A' for Active; 'I' for Inactive)
ROOT
ATOM      1  C   UNL d   1       0.356  -3.192  -2.816  0.00  0.00     0.077 C 
ATOM      2  C1  UNL d   1       0.032  -2.365  -1.608  0.00  0.00    -0.074 A 
ATOM      3  C2  UNL d   1      -0.604  -2.931  -0.498  0.00  0.00    -0.005 A 
ATOM      4  C3  UNL d   1      -0.890  -2.151   0.622  0.00  0.00     0.006 A 
ATOM      5  C4  UNL d   1      -0.544  -0.800   0.644  0.00  0.00    -0.005 A 
ATOM      6  C5  UNL d   1       0.093  -0.216  -0.456  0.00  0.00    -0.074 A 
ATOM      7  C6  UNL d   1       0.480   1.232  -0.444  0.00  0.00     0.077 C 
ATOM      8  C7  UNL d   1       0.383  -1.008  -1.575  0.00  0.00    -0.001 A 
ENDROOT
TORSDOF 0
ENDMDL
