MODEL 1
REMARK minimizedAffinity -2.65130258
REMARK minimizedRMSD -1
REMARK  0 active torsions:
REMARK  status: ('A' for Active; 'I' for Inactive)
ROOT
ATOM      1  O1  BZF d   1      -0.929  -1.197   3.269  0.00  0.00    -0.204 OA
ATOM      2  C2  BZF d   1      -2.162  -0.594   3.423  0.00  0.00     0.174 A 
ATOM      3  C3  BZF d   1      -2.459   0.168   2.350  0.00  0.00    -0.012 A 
ATOM      4  C3A BZF d   1      -1.383  -0.040   1.431  0.00  0.00    -0.107 A 
ATOM      5  C4  BZF d   1      -1.113   0.432   0.178  0.00  0.00     0.055 A 
ATOM      6  C5  BZF d   1       0.060   0.093  -0.417  0.00  0.00    -0.016 A 
ATOM      7  C6  BZF d   1       0.988  -0.711   0.212  0.00  0.00     0.022 A 
ATOM      8  C7  BZF d   1       0.763  -1.208   1.453  0.00  0.00     0.029 A 
ATOM      9  C7A BZF d   1      -0.436  -0.893   2.044  0.00  0.00     0.058 A 
ENDROOT
TORSDOF 0
ENDMDL
