MODEL 1
REMARK minimizedAffinity -2.62936592
REMARK minimizedRMSD -1
REMARK  0 active torsions:
REMARK  status: ('A' for Active; 'I' for Inactive)
ROOT
ATOM      1  O1  BZF d   1      -1.246   0.364  -0.637  0.00  0.00    -0.204 OA
ATOM      2  C2  BZF d   1      -1.689   0.391   0.671  0.00  0.00     0.174 A 
ATOM      3  C3  BZF d   1      -0.831  -0.263   1.480  0.00  0.00    -0.012 A 
ATOM      4  C3A BZF d   1       0.261  -0.647   0.639  0.00  0.00    -0.107 A 
ATOM      5  C4  BZF d   1       1.432  -1.312   0.866  0.00  0.00     0.055 A 
ATOM      6  C5  BZF d   1       2.248  -1.591  -0.184  0.00  0.00    -0.016 A 
ATOM      7  C6  BZF d   1       1.922  -1.224  -1.474  0.00  0.00     0.022 A 
ATOM      8  C7  BZF d   1       0.773  -0.559  -1.747  0.00  0.00     0.029 A 
ATOM      9  C7A BZF d   1      -0.037  -0.247  -0.684  0.00  0.00     0.058 A 
ENDROOT
TORSDOF 0
ENDMDL
