MODEL 1
REMARK minimizedAffinity -3.1879189
REMARK minimizedRMSD -1
REMARK  0 active torsions:
REMARK  status: ('A' for Active; 'I' for Inactive)
ROOT
ATOM      1  O1  BZF d   1      -1.224   0.938  -0.354  0.00  0.00    -0.204 OA
ATOM      2  C2  BZF d   1      -1.814   0.795   0.887  0.00  0.00     0.174 A 
ATOM      3  C3  BZF d   1      -1.163  -0.130   1.622  0.00  0.00    -0.012 A 
ATOM      4  C3A BZF d   1      -0.045  -0.527   0.822  0.00  0.00    -0.107 A 
ATOM      5  C4  BZF d   1       0.981  -1.407   1.015  0.00  0.00     0.055 A 
ATOM      6  C5  BZF d   1       1.869  -1.617   0.008  0.00  0.00    -0.016 A 
ATOM      7  C6  BZF d   1       1.757  -0.969  -1.205  0.00  0.00     0.022 A 
ATOM      8  C7  BZF d   1       0.759  -0.084  -1.441  0.00  0.00     0.029 A 
ATOM      9  C7A BZF d   1      -0.121   0.155  -0.414  0.00  0.00     0.058 A 
ENDROOT
TORSDOF 0
ENDMDL
