MODEL 1
REMARK minimizedAffinity -1.18713462
REMARK minimizedRMSD -1
REMARK  0 active torsions:
REMARK  status: ('A' for Active; 'I' for Inactive)
ROOT
ATOM      1  O1  BZF d   1       0.512   0.898   1.039  0.00  0.00    -0.204 OA
ATOM      2  C2  BZF d   1      -0.041   0.793  -0.222  0.00  0.00     0.174 A 
ATOM      3  C3  BZF d   1      -1.349   0.472  -0.145  0.00  0.00    -0.012 A 
ATOM      4  C3A BZF d   1      -1.652   0.461   1.253  0.00  0.00    -0.107 A 
ATOM      5  C4  BZF d   1      -2.794   0.225   1.964  0.00  0.00     0.055 A 
ATOM      6  C5  BZF d   1      -2.737   0.220   3.322  0.00  0.00    -0.016 A 
ATOM      7  C6  BZF d   1      -1.557   0.440   4.000  0.00  0.00     0.022 A 
ATOM      8  C7  BZF d   1      -0.399   0.683   3.338  0.00  0.00     0.029 A 
ATOM      9  C7A BZF d   1      -0.460   0.722   1.966  0.00  0.00     0.058 A 
ENDROOT
TORSDOF 0
ENDMDL
