MODEL 1
REMARK minimizedAffinity 0.350385547
REMARK minimizedRMSD -1
REMARK  0 active torsions:
REMARK  status: ('A' for Active; 'I' for Inactive)
ROOT
ATOM      1  O1  BZF d   1      -0.453   1.179  -0.739  0.00  0.00    -0.204 OA
ATOM      2  C2  BZF d   1      -1.539   0.956   0.086  0.00  0.00     0.174 A 
ATOM      3  C3  BZF d   1      -1.505  -0.292   0.595  0.00  0.00    -0.012 A 
ATOM      4  C3A BZF d   1      -0.276  -0.856   0.128  0.00  0.00    -0.107 A 
ATOM      5  C4  BZF d   1       0.331  -2.066   0.309  0.00  0.00     0.055 A 
ATOM      6  C5  BZF d   1       1.493  -2.327  -0.345  0.00  0.00    -0.016 A 
ATOM      7  C6  BZF d   1       2.072  -1.404  -1.192  0.00  0.00     0.022 A 
ATOM      8  C7  BZF d   1       1.510  -0.189  -1.400  0.00  0.00     0.029 A 
ATOM      9  C7A BZF d   1       0.353   0.090  -0.714  0.00  0.00     0.058 A 
ENDROOT
TORSDOF 0
ENDMDL
