MODEL 1
REMARK minimizedAffinity -3.91647959
REMARK minimizedRMSD -1
REMARK  0 active torsions:
REMARK  status: ('A' for Active; 'I' for Inactive)
ROOT
ATOM      1  O1  BZF d   1      -0.001   0.557   1.664  0.00  0.00    -0.204 OA
ATOM      2  C2  BZF d   1      -1.240   0.783   1.096  0.00  0.00     0.174 A 
ATOM      3  C3  BZF d   1      -1.363   0.110  -0.066  0.00  0.00    -0.012 A 
ATOM      4  C3A BZF d   1      -0.159  -0.654  -0.189  0.00  0.00    -0.107 A 
ATOM      5  C4  BZF d   1       0.303  -1.535  -1.124  0.00  0.00     0.055 A 
ATOM      6  C5  BZF d   1       1.552  -2.052  -0.984  0.00  0.00    -0.016 A 
ATOM      7  C6  BZF d   1       2.367  -1.706   0.074  0.00  0.00     0.022 A 
ATOM      8  C7  BZF d   1       1.951  -0.839   1.029  0.00  0.00     0.029 A 
ATOM      9  C7A BZF d   1       0.676  -0.341   0.909  0.00  0.00     0.058 A 
ENDROOT
TORSDOF 0
ENDMDL
