MODEL 1
REMARK minimizedAffinity 3.04421473
REMARK minimizedRMSD -1
REMARK  0 active torsions:
REMARK  status: ('A' for Active; 'I' for Inactive)
ROOT
ATOM      1  O1  BZF d   1       0.606   1.035   1.294  0.00  0.00    -0.204 OA
ATOM      2  C2  BZF d   1       0.012   1.663   0.216  0.00  0.00     0.174 A 
ATOM      3  C3  BZF d   1      -0.329   0.766  -0.731  0.00  0.00    -0.012 A 
ATOM      4  C3A BZF d   1      -0.007  -0.511  -0.173  0.00  0.00    -0.107 A 
ATOM      5  C4  BZF d   1      -0.130  -1.793  -0.629  0.00  0.00     0.055 A 
ATOM      6  C5  BZF d   1       0.347  -2.813   0.132  0.00  0.00    -0.016 A 
ATOM      7  C6  BZF d   1       0.956  -2.588   1.349  0.00  0.00     0.022 A 
ATOM      8  C7  BZF d   1       1.097  -1.335   1.845  0.00  0.00     0.029 A 
ATOM      9  C7A BZF d   1       0.586  -0.304   1.094  0.00  0.00     0.058 A 
ENDROOT
TORSDOF 0
ENDMDL
