MODEL 1
REMARK minimizedAffinity -3.78525162
REMARK minimizedRMSD -1
REMARK  0 active torsions:
REMARK  status: ('A' for Active; 'I' for Inactive)
ROOT
ATOM      1  O1  BZF d   1      -0.580   1.072  -0.419  0.00  0.00    -0.204 OA
ATOM      2  C2  BZF d   1      -0.818   0.111   0.545  0.00  0.00     0.174 A 
ATOM      3  C3  BZF d   1       0.045  -0.918   0.418  0.00  0.00    -0.012 A 
ATOM      4  C3A BZF d   1       0.933  -0.536  -0.637  0.00  0.00    -0.107 A 
ATOM      5  C4  BZF d   1       2.014  -1.136  -1.217  0.00  0.00     0.055 A 
ATOM      6  C5  BZF d   1       2.617  -0.531  -2.274  0.00  0.00    -0.016 A 
ATOM      7  C6  BZF d   1       2.162   0.670  -2.780  0.00  0.00     0.022 A 
ATOM      8  C7  BZF d   1       1.096   1.305  -2.234  0.00  0.00     0.029 A 
ATOM      9  C7A BZF d   1       0.505   0.712  -1.145  0.00  0.00     0.058 A 
ENDROOT
TORSDOF 0
ENDMDL
