MODEL 1
REMARK minimizedAffinity 0.726809978
REMARK minimizedRMSD -1
REMARK  0 active torsions:
REMARK  status: ('A' for Active; 'I' for Inactive)
ROOT
ATOM      1  O1  BZF d   1       0.768   1.790  -2.156  0.00  0.00    -0.204 OA
ATOM      2  C2  BZF d   1       1.607   1.601  -3.237  0.00  0.00     0.174 A 
ATOM      3  C3  BZF d   1       2.205   0.394  -3.173  0.00  0.00    -0.012 A 
ATOM      4  C3A BZF d   1       1.639  -0.246  -2.025  0.00  0.00    -0.107 A 
ATOM      5  C4  BZF d   1       1.820  -1.471  -1.449  0.00  0.00     0.055 A 
ATOM      6  C5  BZF d   1       1.168  -1.759  -0.292  0.00  0.00    -0.016 A 
ATOM      7  C6  BZF d   1       0.332  -0.846   0.318  0.00  0.00     0.022 A 
ATOM      8  C7  BZF d   1       0.117   0.380  -0.220  0.00  0.00     0.029 A 
ATOM      9  C7A BZF d   1       0.749   0.662  -1.406  0.00  0.00     0.058 A 
ENDROOT
TORSDOF 0
ENDMDL
