MODEL 1
REMARK minimizedAffinity -4.46453953
REMARK minimizedRMSD -1
REMARK  0 active torsions:
REMARK  status: ('A' for Active; 'I' for Inactive)
ROOT
ATOM      1  O1  BZF d   1       0.566   0.451   0.275  0.00  0.00    -0.204 OA
ATOM      2  C2  BZF d   1       0.946  -0.828   0.634  0.00  0.00     0.174 A 
ATOM      3  C3  BZF d   1       1.616  -1.428  -0.370  0.00  0.00    -0.012 A 
ATOM      4  C3A BZF d   1       1.740  -0.430  -1.389  0.00  0.00    -0.107 A 
ATOM      5  C4  BZF d   1       2.321  -0.417  -2.624  0.00  0.00     0.055 A 
ATOM      6  C5  BZF d   1       2.201   0.693  -3.399  0.00  0.00    -0.016 A 
ATOM      7  C6  BZF d   1       1.503   1.804  -2.973  0.00  0.00     0.022 A 
ATOM      8  C7  BZF d   1       0.913   1.839  -1.753  0.00  0.00     0.029 A 
ATOM      9  C7A BZF d   1       1.061   0.732  -0.954  0.00  0.00     0.058 A 
ENDROOT
TORSDOF 0
ENDMDL
