MODEL 1
REMARK minimizedAffinity -4.21481752
REMARK minimizedRMSD -1
REMARK  0 active torsions:
REMARK  status: ('A' for Active; 'I' for Inactive)
ROOT
ATOM      1  O1  BZF d   1      -0.721   0.361   3.758  0.00  0.00    -0.204 OA
ATOM      2  C2  BZF d   1      -1.779   1.242   3.869  0.00  0.00     0.174 A 
ATOM      3  C3  BZF d   1      -2.247   1.584   2.651  0.00  0.00    -0.012 A 
ATOM      4  C3A BZF d   1      -1.491   0.800   1.724  0.00  0.00    -0.107 A 
ATOM      5  C4  BZF d   1      -1.504   0.684   0.363  0.00  0.00     0.055 A 
ATOM      6  C5  BZF d   1      -0.586  -0.116  -0.240  0.00  0.00    -0.016 A 
ATOM      7  C6  BZF d   1       0.362  -0.809   0.485  0.00  0.00     0.022 A 
ATOM      8  C7  BZF d   1       0.411  -0.729   1.837  0.00  0.00     0.029 A 
ATOM      9  C7A BZF d   1      -0.536   0.053   2.452  0.00  0.00     0.058 A 
ENDROOT
TORSDOF 0
ENDMDL
