MODEL 1
REMARK minimizedAffinity -3.57963324
REMARK minimizedRMSD -1
REMARK  0 active torsions:
REMARK  status: ('A' for Active; 'I' for Inactive)
ROOT
ATOM      1  O1  BZF d   1       0.300   1.722  -2.038  0.00  0.00    -0.204 OA
ATOM      2  C2  BZF d   1       1.153   1.615  -3.120  0.00  0.00     0.174 A 
ATOM      3  C3  BZF d   1       1.880   0.482  -3.046  0.00  0.00    -0.012 A 
ATOM      4  C3A BZF d   1       1.390  -0.205  -1.891  0.00  0.00    -0.107 A 
ATOM      5  C4  BZF d   1       1.705  -1.396  -1.303  0.00  0.00     0.055 A 
ATOM      6  C5  BZF d   1       1.090  -1.743  -0.141  0.00  0.00    -0.016 A 
ATOM      7  C6  BZF d   1       0.161  -0.921   0.461  0.00  0.00     0.022 A 
ATOM      8  C7  BZF d   1      -0.188   0.268  -0.087  0.00  0.00     0.029 A 
ATOM      9  C7A BZF d   1       0.407   0.606  -1.278  0.00  0.00     0.058 A 
ENDROOT
TORSDOF 0
ENDMDL
