MODEL 1
REMARK minimizedAffinity -3.19563913
REMARK minimizedRMSD -1
REMARK  0 active torsions:
REMARK  status: ('A' for Active; 'I' for Inactive)
ROOT
ATOM      1  O1  BZF d   1      -0.414  -0.193   3.327  0.00  0.00    -0.204 OA
ATOM      2  C2  BZF d   1      -1.568   0.525   3.573  0.00  0.00     0.174 A 
ATOM      3  C3  BZF d   1      -2.026   1.097   2.440  0.00  0.00    -0.012 A 
ATOM      4  C3A BZF d   1      -1.151   0.636   1.406  0.00  0.00    -0.107 A 
ATOM      5  C4  BZF d   1      -1.100   0.845   0.057  0.00  0.00     0.055 A 
ATOM      6  C5  BZF d   1      -0.076   0.309  -0.656  0.00  0.00    -0.016 A 
ATOM      7  C6  BZF d   1       0.916  -0.436  -0.053  0.00  0.00     0.022 A 
ATOM      8  C7  BZF d   1       0.906  -0.675   1.281  0.00  0.00     0.029 A 
ATOM      9  C7A BZF d   1      -0.146  -0.162   1.999  0.00  0.00     0.058 A 
ENDROOT
TORSDOF 0
ENDMDL
