MODEL 1
REMARK minimizedAffinity -4.90596437
REMARK minimizedRMSD -1
REMARK  0 active torsions:
REMARK  status: ('A' for Active; 'I' for Inactive)
ROOT
ATOM      1  O1  BZF d   1      -1.225   0.377  -0.273  0.00  0.00    -0.204 OA
ATOM      2  C2  BZF d   1      -1.221  -0.698   0.595  0.00  0.00     0.174 A 
ATOM      3  C3  BZF d   1      -0.190  -1.525   0.327  0.00  0.00    -0.012 A 
ATOM      4  C3A BZF d   1       0.546  -0.882  -0.717  0.00  0.00    -0.107 A 
ATOM      5  C4  BZF d   1       1.684  -1.205  -1.399  0.00  0.00     0.055 A 
ATOM      6  C5  BZF d   1       2.099  -0.398  -2.411  0.00  0.00    -0.016 A 
ATOM      7  C6  BZF d   1       1.399   0.734  -2.771  0.00  0.00     0.022 A 
ATOM      8  C7  BZF d   1       0.267   1.098  -2.120  0.00  0.00     0.029 A 
ATOM      9  C7A BZF d   1      -0.137   0.303  -1.076  0.00  0.00     0.058 A 
ENDROOT
TORSDOF 0
ENDMDL
