MODEL 1
REMARK minimizedAffinity -2.6073544
REMARK minimizedRMSD -1
REMARK  0 active torsions:
REMARK  status: ('A' for Active; 'I' for Inactive)
ROOT
ATOM      1  O1  BZF d   1      -3.145   0.796   2.162  0.00  0.00    -0.204 OA
ATOM      2  C2  BZF d   1      -2.675   0.947   3.452  0.00  0.00     0.174 A 
ATOM      3  C3  BZF d   1      -1.353   0.686   3.514  0.00  0.00    -0.012 A 
ATOM      4  C3A BZF d   1      -0.955   0.440   2.162  0.00  0.00    -0.107 A 
ATOM      5  C4  BZF d   1       0.242   0.140   1.575  0.00  0.00     0.055 A 
ATOM      6  C5  BZF d   1       0.278  -0.112   0.240  0.00  0.00    -0.016 A 
ATOM      7  C6  BZF d   1      -0.862  -0.078  -0.536  0.00  0.00     0.022 A 
ATOM      8  C7  BZF d   1      -2.070   0.220  -0.000  0.00  0.00     0.029 A 
ATOM      9  C7A BZF d   1      -2.105   0.507   1.342  0.00  0.00     0.058 A 
ENDROOT
TORSDOF 0
ENDMDL
