MODEL 1
REMARK minimizedAffinity -1.43888068
REMARK minimizedRMSD -1
REMARK  0 active torsions:
REMARK  status: ('A' for Active; 'I' for Inactive)
ROOT
ATOM      1  O1  BZF d   1       0.094   1.239   0.703  0.00  0.00    -0.204 OA
ATOM      2  C2  BZF d   1      -0.169   0.453  -0.402  0.00  0.00     0.174 A 
ATOM      3  C3  BZF d   1      -1.283  -0.282  -0.211  0.00  0.00    -0.012 A 
ATOM      4  C3A BZF d   1      -1.797   0.135   1.058  0.00  0.00    -0.107 A 
ATOM      5  C4  BZF d   1      -2.894  -0.221   1.789  0.00  0.00     0.055 A 
ATOM      6  C5  BZF d   1      -3.069   0.321   3.023  0.00  0.00    -0.016 A 
ATOM      7  C6  BZF d   1      -2.166   1.217   3.557  0.00  0.00     0.022 A 
ATOM      8  C7  BZF d   1      -1.065   1.603   2.868  0.00  0.00     0.029 A 
ATOM      9  C7A BZF d   1      -0.902   1.082   1.607  0.00  0.00     0.058 A 
ENDROOT
TORSDOF 0
ENDMDL
