MODEL 1
REMARK minimizedAffinity -2.42404222
REMARK minimizedRMSD -1
REMARK  0 active torsions:
REMARK  status: ('A' for Active; 'I' for Inactive)
ROOT
ATOM      1  O1  BZF d   1       1.048  -0.741  -2.024  0.00  0.00    -0.204 OA
ATOM      2  C2  BZF d   1       1.581  -1.928  -1.558  0.00  0.00     0.174 A 
ATOM      3  C3  BZF d   1       1.182  -2.166  -0.291  0.00  0.00    -0.012 A 
ATOM      4  C3A BZF d   1       0.275  -1.105   0.023  0.00  0.00    -0.107 A 
ATOM      5  C4  BZF d   1      -0.464  -0.799   1.130  0.00  0.00     0.055 A 
ATOM      6  C5  BZF d   1      -1.193   0.347   1.142  0.00  0.00    -0.016 A 
ATOM      7  C6  BZF d   1      -1.202   1.213   0.067  0.00  0.00     0.022 A 
ATOM      8  C7  BZF d   1      -0.489   0.949  -1.055  0.00  0.00     0.029 A 
ATOM      9  C7A BZF d   1       0.223  -0.225  -1.082  0.00  0.00     0.058 A 
ENDROOT
TORSDOF 0
ENDMDL
