MODEL 1
REMARK minimizedAffinity 6.09084177
REMARK minimizedRMSD -1
REMARK  0 active torsions:
REMARK  status: ('A' for Active; 'I' for Inactive)
ROOT
ATOM      1  O1  BZF d   1       3.453  -2.038  -0.130  0.00  0.00    -0.204 OA
ATOM      2  C2  BZF d   1       3.251  -1.119  -1.142  0.00  0.00     0.174 A 
ATOM      3  C3  BZF d   1       1.981  -1.175  -1.593  0.00  0.00    -0.012 A 
ATOM      4  C3A BZF d   1       1.325  -2.128  -0.752  0.00  0.00    -0.107 A 
ATOM      5  C4  BZF d   1       0.047  -2.606  -0.693  0.00  0.00     0.055 A 
ATOM      6  C5  BZF d   1      -0.252  -3.587   0.199  0.00  0.00    -0.016 A 
ATOM      7  C6  BZF d   1       0.703  -4.116   1.043  0.00  0.00     0.022 A 
ATOM      8  C7  BZF d   1       1.983  -3.671   1.025  0.00  0.00     0.029 A 
ATOM      9  C7A BZF d   1       2.280  -2.657   0.147  0.00  0.00     0.058 A 
ENDROOT
TORSDOF 0
ENDMDL
