MODEL 1
REMARK minimizedAffinity -5.30459642
REMARK minimizedRMSD -1
REMARK  0 active torsions:
REMARK  status: ('A' for Active; 'I' for Inactive)
ROOT
ATOM      1  C1  DEN d   1       0.169  -2.175   1.827  0.00  0.00     0.130 A 
ATOM      2  C2  DEN d   1       1.445  -2.585   2.406  0.00  0.00    -0.031 A 
ATOM      3  C3  DEN d   1       2.443  -1.541   2.095  0.00  0.00     0.027 A 
ATOM      4  C4  DEN d   1       2.136   0.659   0.785  0.00  0.00     0.027 A 
ATOM      5  C5  DEN d   1       1.235   1.435   0.090  0.00  0.00    -0.003 A 
ATOM      6  C6  DEN d   1      -0.065   1.050  -0.102  0.00  0.00     0.001 A 
ATOM      7  C7  DEN d   1      -0.514  -0.123   0.446  0.00  0.00     0.017 A 
ATOM      8  C8  DEN d   1       0.391  -0.915   1.141  0.00  0.00    -0.094 A 
ATOM      9  C9  DEN d   1       1.698  -0.502   1.334  0.00  0.00    -0.072 A 
ENDROOT
TORSDOF 0
ENDMDL
