MODEL 1
REMARK minimizedAffinity -5.33760452
REMARK minimizedRMSD -1
REMARK  0 active torsions:
REMARK  status: ('A' for Active; 'I' for Inactive)
ROOT
ATOM      1  C1  DEN d   1      -0.896  -1.499   0.144  0.00  0.00     0.130 A 
ATOM      2  C2  DEN d   1      -2.016  -0.563   0.094  0.00  0.00    -0.031 A 
ATOM      3  C3  DEN d   1      -1.466   0.808   0.103  0.00  0.00     0.027 A 
ATOM      4  C4  DEN d   1       0.997   1.568   0.186  0.00  0.00     0.027 A 
ATOM      5  C5  DEN d   1       2.303   1.136   0.250  0.00  0.00    -0.003 A 
ATOM      6  C6  DEN d   1       2.631  -0.192   0.317  0.00  0.00     0.001 A 
ATOM      7  C7  DEN d   1       1.641  -1.138   0.276  0.00  0.00     0.017 A 
ATOM      8  C8  DEN d   1       0.321  -0.711   0.219  0.00  0.00    -0.094 A 
ATOM      9  C9  DEN d   1       0.011   0.636   0.139  0.00  0.00    -0.072 A 
ENDROOT
TORSDOF 0
ENDMDL
