MODEL 1
REMARK minimizedAffinity -5.9034853
REMARK minimizedRMSD -1
REMARK  0 active torsions:
REMARK  status: ('A' for Active; 'I' for Inactive)
ROOT
ATOM      1  C1  DEN d   1      -0.670  -0.241   0.203  0.00  0.00     0.130 A 
ATOM      2  C2  DEN d   1      -0.501   1.025  -0.506  0.00  0.00    -0.031 A 
ATOM      3  C3  DEN d   1       0.922   1.411  -0.416  0.00  0.00     0.027 A 
ATOM      4  C4  DEN d   1       2.869   0.175   0.739  0.00  0.00     0.027 A 
ATOM      5  C5  DEN d   1       3.212  -0.933   1.481  0.00  0.00    -0.003 A 
ATOM      6  C6  DEN d   1       2.287  -1.863   1.875  0.00  0.00     0.001 A 
ATOM      7  C7  DEN d   1       0.979  -1.725   1.490  0.00  0.00     0.017 A 
ATOM      8  C8  DEN d   1       0.624  -0.607   0.748  0.00  0.00    -0.094 A 
ATOM      9  C9  DEN d   1       1.577   0.316   0.349  0.00  0.00    -0.072 A 
ENDROOT
TORSDOF 0
ENDMDL
