MODEL 1
REMARK minimizedAffinity -1.0310744
REMARK minimizedRMSD -1
REMARK  0 active torsions:
REMARK  status: ('A' for Active; 'I' for Inactive)
ROOT
ATOM      1  C1  DEN d   1       2.248  -1.381   0.164  0.00  0.00     0.130 A 
ATOM      2  C2  DEN d   1       3.305  -0.591   0.789  0.00  0.00    -0.031 A 
ATOM      3  C3  DEN d   1       2.792   0.779   0.991  0.00  0.00     0.027 A 
ATOM      4  C4  DEN d   1       0.475   1.747   0.403  0.00  0.00     0.027 A 
ATOM      5  C5  DEN d   1      -0.752   1.462  -0.153  0.00  0.00    -0.003 A 
ATOM      6  C6  DEN d   1      -1.051   0.229  -0.669  0.00  0.00     0.001 A 
ATOM      7  C7  DEN d   1      -0.126  -0.779  -0.599  0.00  0.00     0.017 A 
ATOM      8  C8  DEN d   1       1.116  -0.497  -0.046  0.00  0.00    -0.094 A 
ATOM      9  C9  DEN d   1       1.395   0.752   0.481  0.00  0.00    -0.072 A 
ENDROOT
TORSDOF 0
ENDMDL
