MODEL 1
REMARK minimizedAffinity -5.8015008
REMARK minimizedRMSD -1
REMARK  0 active torsions:
REMARK  status: ('A' for Active; 'I' for Inactive)
ROOT
ATOM      1  C1  DEN d   1      -0.295   1.420  -0.169  0.00  0.00     0.130 A 
ATOM      2  C2  DEN d   1      -1.479   0.567  -0.117  0.00  0.00    -0.031 A 
ATOM      3  C3  DEN d   1      -1.039  -0.805   0.205  0.00  0.00     0.027 A 
ATOM      4  C4  DEN d   1       1.347  -1.686   0.631  0.00  0.00     0.027 A 
ATOM      5  C5  DEN d   1       2.679  -1.339   0.685  0.00  0.00    -0.003 A 
ATOM      6  C6  DEN d   1       3.113  -0.066   0.427  0.00  0.00     0.001 A 
ATOM      7  C7  DEN d   1       2.201   0.918   0.147  0.00  0.00     0.017 A 
ATOM      8  C8  DEN d   1       0.857   0.574   0.083  0.00  0.00    -0.094 A 
ATOM      9  C9  DEN d   1       0.438  -0.716   0.360  0.00  0.00    -0.072 A 
ENDROOT
TORSDOF 0
ENDMDL
