MODEL 1
REMARK minimizedAffinity -4.00062513
REMARK minimizedRMSD -1
REMARK  0 active torsions:
REMARK  status: ('A' for Active; 'I' for Inactive)
ROOT
ATOM      1  C1  DEN d   1       2.612   1.069   1.431  0.00  0.00     0.130 A 
ATOM      2  C2  DEN d   1       3.545   0.013   1.047  0.00  0.00    -0.031 A 
ATOM      3  C3  DEN d   1       2.816  -0.954   0.202  0.00  0.00     0.027 A 
ATOM      4  C4  DEN d   1       0.349  -0.915  -0.550  0.00  0.00     0.027 A 
ATOM      5  C5  DEN d   1      -0.840  -0.224  -0.465  0.00  0.00    -0.003 A 
ATOM      6  C6  DEN d   1      -0.969   0.919   0.278  0.00  0.00     0.001 A 
ATOM      7  C7  DEN d   1       0.122   1.430   0.932  0.00  0.00     0.017 A 
ATOM      8  C8  DEN d   1       1.321   0.735   0.857  0.00  0.00    -0.094 A 
ATOM      9  C9  DEN d   1       1.434  -0.412   0.090  0.00  0.00    -0.072 A 
ENDROOT
TORSDOF 0
ENDMDL
