MODEL 1
REMARK minimizedAffinity -3.4199481
REMARK minimizedRMSD -1
REMARK  0 active torsions:
REMARK  status: ('A' for Active; 'I' for Inactive)
ROOT
ATOM      1  C1  DEN d   1      -0.470   1.252  -0.012  0.00  0.00     0.130 A 
ATOM      2  C2  DEN d   1      -1.402   0.216  -0.449  0.00  0.00    -0.031 A 
ATOM      3  C3  DEN d   1      -0.670  -1.066  -0.498  0.00  0.00     0.027 A 
ATOM      4  C4  DEN d   1       1.803  -1.544   0.060  0.00  0.00     0.027 A 
ATOM      5  C5  DEN d   1       2.992  -0.979   0.463  0.00  0.00    -0.003 A 
ATOM      6  C6  DEN d   1       3.118   0.364   0.702  0.00  0.00     0.001 A 
ATOM      7  C7  DEN d   1       2.025   1.180   0.583  0.00  0.00     0.017 A 
ATOM      8  C8  DEN d   1       0.824   0.619   0.169  0.00  0.00    -0.094 A 
ATOM      9  C9  DEN d   1       0.714  -0.743  -0.056  0.00  0.00    -0.072 A 
ENDROOT
TORSDOF 0
ENDMDL
