MODEL 1
REMARK minimizedAffinity -3.69133186
REMARK minimizedRMSD -1
REMARK  0 active torsions:
REMARK  status: ('A' for Active; 'I' for Inactive)
ROOT
ATOM      1  C1  DEN d   1      -0.847  -0.686  -0.385  0.00  0.00     0.130 A 
ATOM      2  C2  DEN d   1      -1.245   0.719  -0.386  0.00  0.00    -0.031 A 
ATOM      3  C3  DEN d   1      -0.093   1.520   0.078  0.00  0.00     0.027 A 
ATOM      4  C4  DEN d   1       2.255   0.724   0.787  0.00  0.00     0.027 A 
ATOM      5  C5  DEN d   1       3.060  -0.379   0.965  0.00  0.00    -0.003 A 
ATOM      6  C6  DEN d   1       2.613  -1.654   0.740  0.00  0.00     0.001 A 
ATOM      7  C7  DEN d   1       1.338  -1.854   0.281  0.00  0.00     0.017 A 
ATOM      8  C8  DEN d   1       0.518  -0.747   0.106  0.00  0.00    -0.094 A 
ATOM      9  C9  DEN d   1       0.993   0.534   0.327  0.00  0.00    -0.072 A 
ENDROOT
TORSDOF 0
ENDMDL
