MODEL 1
REMARK minimizedAffinity 1.74483156
REMARK minimizedRMSD -1
REMARK  0 active torsions:
REMARK  status: ('A' for Active; 'I' for Inactive)
ROOT
ATOM      1  C4' PXY d   1       2.480  -1.595   2.354  0.00  0.00     0.077 C 
ATOM      2  C1' PXY d   1      -2.326  -4.347   0.697  0.00  0.00     0.077 C 
ATOM      3  C1  PXY d   1      -1.073  -3.614   1.134  0.00  0.00    -0.082 A 
ATOM      4  C2  PXY d   1       0.108  -4.019   0.695  0.00  0.00     0.003 A 
ATOM      5  C3  PXY d   1       1.254  -3.388   1.105  0.00  0.00     0.003 A 
ATOM      6  C4  PXY d   1       1.187  -2.299   1.932  0.00  0.00    -0.082 A 
ATOM      7  C5  PXY d   1      -0.015  -1.873   2.376  0.00  0.00     0.003 A 
ATOM      8  C6  PXY d   1      -1.163  -2.553   1.980  0.00  0.00     0.003 A 
ENDROOT
TORSDOF 0
ENDMDL
