MODEL 1
REMARK minimizedAffinity 7.25706816
REMARK minimizedRMSD -1
REMARK  0 active torsions:
REMARK  status: ('A' for Active; 'I' for Inactive)
ROOT
ATOM      1  C4' PXY d   1       1.547   1.650  -2.380  0.00  0.00     0.077 C 
ATOM      2  C1' PXY d   1       0.370   6.000  -6.000  0.00  0.00     0.077 C 
ATOM      3  C1  PXY d   1       0.691   4.862  -5.052  0.00  0.00    -0.082 A 
ATOM      4  C2  PXY d   1      -0.165   3.862  -4.916  0.00  0.00     0.003 A 
ATOM      5  C3  PXY d   1       0.096   2.840  -4.039  0.00  0.00     0.003 A 
ATOM      6  C4  PXY d   1       1.268   2.815  -3.333  0.00  0.00    -0.082 A 
ATOM      7  C5  PXY d   1       2.151   3.827  -3.473  0.00  0.00     0.003 A 
ATOM      8  C6  PXY d   1       1.850   4.875  -4.338  0.00  0.00     0.003 A 
ENDROOT
TORSDOF 0
ENDMDL
