MODEL 1
REMARK minimizedAffinity -0.974630535
REMARK minimizedRMSD -1
REMARK  0 active torsions:
REMARK  status: ('A' for Active; 'I' for Inactive)
ROOT
ATOM      1  C4' PXY d   1      -5.994   0.762  -5.766  0.00  0.00     0.077 C 
ATOM      2  C1' PXY d   1      -5.983   1.088   0.005  0.00  0.00     0.077 C 
ATOM      3  C1  PXY d   1      -5.981   0.991  -1.508  0.00  0.00    -0.082 A 
ATOM      4  C2  PXY d   1      -5.969   2.096  -2.235  0.00  0.00     0.003 A 
ATOM      5  C3  PXY d   1      -5.999   2.027  -3.604  0.00  0.00     0.003 A 
ATOM      6  C4  PXY d   1      -5.988   0.812  -4.236  0.00  0.00    -0.082 A 
ATOM      7  C5  PXY d   1      -5.989  -0.320  -3.502  0.00  0.00     0.003 A 
ATOM      8  C6  PXY d   1      -6.000  -0.228  -2.113  0.00  0.00     0.003 A 
ENDROOT
TORSDOF 0
ENDMDL
