MODEL 1
REMARK minimizedAffinity 6.54539108
REMARK minimizedRMSD -1
REMARK  0 active torsions:
REMARK  status: ('A' for Active; 'I' for Inactive)
ROOT
ATOM      1  C4' PXY d   1      -1.931   5.320  -5.998  0.00  0.00     0.077 C 
ATOM      2  C1' PXY d   1       2.627   3.652  -2.858  0.00  0.00     0.077 C 
ATOM      3  C1  PXY d   1       1.438   4.101  -3.684  0.00  0.00    -0.082 A 
ATOM      4  C2  PXY d   1       0.238   3.605  -3.427  0.00  0.00     0.003 A 
ATOM      5  C3  PXY d   1      -0.843   3.976  -4.185  0.00  0.00     0.003 A 
ATOM      6  C4  PXY d   1      -0.704   4.903  -5.183  0.00  0.00    -0.082 A 
ATOM      7  C5  PXY d   1       0.515   5.422  -5.445  0.00  0.00     0.003 A 
ATOM      8  C6  PXY d   1       1.607   5.001  -4.690  0.00  0.00     0.003 A 
ENDROOT
TORSDOF 0
ENDMDL
