MODEL 1
REMARK minimizedAffinity -1.1526202
REMARK minimizedRMSD -1
REMARK  0 active torsions:
REMARK  status: ('A' for Active; 'I' for Inactive)
ROOT
ATOM      1  C4' PXY d   1      -5.997  -6.000  -5.998  0.00  0.00     0.077 C 
ATOM      2  C1' PXY d   1      -0.931  -5.090  -3.367  0.00  0.00     0.077 C 
ATOM      3  C1  PXY d   1      -2.265  -5.331  -4.045  0.00  0.00    -0.082 A 
ATOM      4  C2  PXY d   1      -2.295  -5.736  -5.304  0.00  0.00     0.003 A 
ATOM      5  C3  PXY d   1      -3.493  -5.927  -5.943  0.00  0.00     0.003 A 
ATOM      6  C4  PXY d   1      -4.672  -5.754  -5.270  0.00  0.00    -0.082 A 
ATOM      7  C5  PXY d   1      -4.650  -5.351  -3.982  0.00  0.00     0.003 A 
ATOM      8  C6  PXY d   1      -3.424  -5.122  -3.364  0.00  0.00     0.003 A 
ENDROOT
TORSDOF 0
ENDMDL
