MODEL 1
REMARK minimizedAffinity 4.50487947
REMARK minimizedRMSD -1
REMARK  0 active torsions:
REMARK  status: ('A' for Active; 'I' for Inactive)
ROOT
ATOM      1  C4' PXY d   1       2.769   4.115  -3.302  0.00  0.00     0.077 C 
ATOM      2  C1' PXY d   1      -2.023   5.897  -6.000  0.00  0.00     0.077 C 
ATOM      3  C1  PXY d   1      -0.771   5.435  -5.281  0.00  0.00    -0.082 A 
ATOM      4  C2  PXY d   1       0.349   5.260  -5.964  0.00  0.00     0.003 A 
ATOM      5  C3  PXY d   1       1.482   4.811  -5.336  0.00  0.00     0.003 A 
ATOM      6  C4  PXY d   1       1.483   4.590  -3.984  0.00  0.00    -0.082 A 
ATOM      7  C5  PXY d   1       0.348   4.776  -3.279  0.00  0.00     0.003 A 
ATOM      8  C6  PXY d   1      -0.803   5.193  -3.942  0.00  0.00     0.003 A 
ENDROOT
TORSDOF 0
ENDMDL
