MODEL 1
REMARK minimizedAffinity 7.34742069
REMARK minimizedRMSD -1
REMARK  0 active torsions:
REMARK  status: ('A' for Active; 'I' for Inactive)
ROOT
ATOM      1  C4' PXY d   1       2.701   3.769  -3.289  0.00  0.00     0.077 C 
ATOM      2  C1' PXY d   1      -2.139   5.400  -5.996  0.00  0.00     0.077 C 
ATOM      3  C1  PXY d   1      -0.875   4.975  -5.275  0.00  0.00    -0.082 A 
ATOM      4  C2  PXY d   1       0.278   4.969  -5.924  0.00  0.00     0.003 A 
ATOM      5  C3  PXY d   1       1.425   4.558  -5.296  0.00  0.00     0.003 A 
ATOM      6  C4  PXY d   1       1.401   4.199  -3.974  0.00  0.00    -0.082 A 
ATOM      7  C5  PXY d   1       0.230   4.213  -3.302  0.00  0.00     0.003 A 
ATOM      8  C6  PXY d   1      -0.930   4.595  -3.970  0.00  0.00     0.003 A 
ENDROOT
TORSDOF 0
ENDMDL
