MODEL 1
REMARK minimizedAffinity 1.4589169
REMARK minimizedRMSD -1
REMARK  0 active torsions:
REMARK  status: ('A' for Active; 'I' for Inactive)
ROOT
ATOM      1  C4' PXY d   1       1.387   1.911  -1.962  0.00  0.00     0.077 C 
ATOM      2  C1' PXY d   1       0.748   5.999  -5.999  0.00  0.00     0.077 C 
ATOM      3  C1  PXY d   1       0.929   4.928  -4.942  0.00  0.00    -0.082 A 
ATOM      4  C2  PXY d   1      -0.040   4.054  -4.724  0.00  0.00     0.003 A 
ATOM      5  C3  PXY d   1       0.094   3.098  -3.750  0.00  0.00     0.003 A 
ATOM      6  C4  PXY d   1       1.252   3.004  -3.026  0.00  0.00    -0.082 A 
ATOM      7  C5  PXY d   1       2.250   3.886  -3.250  0.00  0.00     0.003 A 
ATOM      8  C6  PXY d   1       2.078   4.874  -4.215  0.00  0.00     0.003 A 
ENDROOT
TORSDOF 0
ENDMDL
