MODEL 1
REMARK minimizedAffinity 8.51305199
REMARK minimizedRMSD -1
REMARK  0 active torsions:
REMARK  status: ('A' for Active; 'I' for Inactive)
ROOT
ATOM      1  C4' PXY d   1      -2.046   6.000  -6.000  0.00  0.00     0.077 C 
ATOM      2  C1' PXY d   1       2.841   4.001  -3.646  0.00  0.00     0.077 C 
ATOM      3  C1  PXY d   1       1.552   4.517  -4.256  0.00  0.00    -0.082 A 
ATOM      4  C2  PXY d   1       1.577   5.092  -5.447  0.00  0.00     0.003 A 
ATOM      5  C3  PXY d   1       0.426   5.593  -6.000  0.00  0.00     0.003 A 
ATOM      6  C4  PXY d   1      -0.771   5.456  -5.350  0.00  0.00    -0.082 A 
ATOM      7  C5  PXY d   1      -0.806   4.860  -4.139  0.00  0.00     0.003 A 
ATOM      8  C6  PXY d   1       0.380   4.396  -3.577  0.00  0.00     0.003 A 
ENDROOT
TORSDOF 0
ENDMDL
