MODEL 1
REMARK minimizedAffinity 12.8145618
REMARK minimizedRMSD -1
REMARK  0 active torsions:
REMARK  status: ('A' for Active; 'I' for Inactive)
ROOT
ATOM      1  C4' PXY d   1      -5.955   3.032  -5.994  0.00  0.00     0.077 C 
ATOM      2  C1' PXY d   1      -5.991  -2.111  -3.355  0.00  0.00     0.077 C 
ATOM      3  C1  PXY d   1      -5.987  -0.757  -4.036  0.00  0.00    -0.082 A 
ATOM      4  C2  PXY d   1      -5.977  -0.690  -5.358  0.00  0.00     0.003 A 
ATOM      5  C3  PXY d   1      -5.941   0.526  -5.990  0.00  0.00     0.003 A 
ATOM      6  C4  PXY d   1      -5.969   1.686  -5.263  0.00  0.00    -0.082 A 
ATOM      7  C5  PXY d   1      -5.990   1.626  -3.915  0.00  0.00     0.003 A 
ATOM      8  C6  PXY d   1      -5.985   0.382  -3.291  0.00  0.00     0.003 A 
ENDROOT
TORSDOF 0
ENDMDL
