MODEL 1
REMARK minimizedAffinity 2.45011139
REMARK minimizedRMSD -1
REMARK  0 active torsions:
REMARK  status: ('A' for Active; 'I' for Inactive)
ROOT
ATOM      1  C4' PXY d   1       1.507   2.824  -1.135  0.00  0.00     0.077 C 
ATOM      2  C1' PXY d   1      -0.611   5.117  -6.000  0.00  0.00     0.077 C 
ATOM      3  C1  PXY d   1      -0.044   4.520  -4.727  0.00  0.00    -0.082 A 
ATOM      4  C2  PXY d   1      -0.662   3.503  -4.149  0.00  0.00     0.003 A 
ATOM      5  C3  PXY d   1      -0.181   2.972  -2.981  0.00  0.00     0.003 A 
ATOM      6  C4  PXY d   1       0.976   3.452  -2.426  0.00  0.00    -0.082 A 
ATOM      7  C5  PXY d   1       1.618   4.482  -3.015  0.00  0.00     0.003 A 
ATOM      8  C6  PXY d   1       1.090   5.035  -4.179  0.00  0.00     0.003 A 
ENDROOT
TORSDOF 0
ENDMDL
