MODEL 1
REMARK minimizedAffinity 1.87123144
REMARK minimizedRMSD -1
REMARK  0 active torsions:
REMARK  status: ('A' for Active; 'I' for Inactive)
ROOT
ATOM      1  C4' PXY d   1      -0.257  -5.564  -4.992  0.00  0.00     0.077 C 
ATOM      2  C1' PXY d   1      -6.000  -5.999  -4.504  0.00  0.00     0.077 C 
ATOM      3  C1  PXY d   1      -4.494  -5.892  -4.643  0.00  0.00    -0.082 A 
ATOM      4  C2  PXY d   1      -3.751  -5.688  -3.568  0.00  0.00     0.003 A 
ATOM      5  C3  PXY d   1      -2.390  -5.557  -3.680  0.00  0.00     0.003 A 
ATOM      6  C4  PXY d   1      -1.780  -5.688  -4.898  0.00  0.00    -0.082 A 
ATOM      7  C5  PXY d   1      -2.530  -5.907  -5.998  0.00  0.00     0.003 A 
ATOM      8  C6  PXY d   1      -3.913  -5.996  -5.869  0.00  0.00     0.003 A 
ENDROOT
TORSDOF 0
ENDMDL
