MODEL 1
REMARK minimizedAffinity 4.94617033
REMARK minimizedRMSD -1
REMARK  0 active torsions:
REMARK  status: ('A' for Active; 'I' for Inactive)
ROOT
ATOM      1  C4' PXY d   1       1.701   2.048  -1.878  0.00  0.00     0.077 C 
ATOM      2  C1' PXY d   1       0.731   5.984  -5.999  0.00  0.00     0.077 C 
ATOM      3  C1  PXY d   1       0.998   4.950  -4.923  0.00  0.00    -0.082 A 
ATOM      4  C2  PXY d   1      -0.015   4.291  -4.383  0.00  0.00     0.003 A 
ATOM      5  C3  PXY d   1       0.205   3.376  -3.386  0.00  0.00     0.003 A 
ATOM      6  C4  PXY d   1       1.479   3.093  -2.975  0.00  0.00    -0.082 A 
ATOM      7  C5  PXY d   1       2.519   3.753  -3.528  0.00  0.00     0.003 A 
ATOM      8  C6  PXY d   1       2.271   4.708  -4.509  0.00  0.00     0.003 A 
ENDROOT
TORSDOF 0
ENDMDL
