MODEL 1
REMARK minimizedAffinity 6.18163347
REMARK minimizedRMSD -1
REMARK  0 active torsions:
REMARK  status: ('A' for Active; 'I' for Inactive)
ROOT
ATOM      1  C4' PXY d   1       1.870   2.555  -1.889  0.00  0.00     0.077 C 
ATOM      2  C1' PXY d   1      -0.293   5.999  -5.997  0.00  0.00     0.077 C 
ATOM      3  C1  PXY d   1       0.286   5.100  -4.923  0.00  0.00    -0.082 A 
ATOM      4  C2  PXY d   1      -0.392   4.036  -4.524  0.00  0.00     0.003 A 
ATOM      5  C3  PXY d   1       0.102   3.230  -3.531  0.00  0.00     0.003 A 
ATOM      6  C4  PXY d   1       1.328   3.486  -2.978  0.00  0.00    -0.082 A 
ATOM      7  C5  PXY d   1       2.031   4.563  -3.386  0.00  0.00     0.003 A 
ATOM      8  C6  PXY d   1       1.493   5.392  -4.367  0.00  0.00     0.003 A 
ENDROOT
TORSDOF 0
ENDMDL
