MODEL 1
REMARK minimizedAffinity 7.15437984
REMARK minimizedRMSD -1
REMARK  0 active torsions:
REMARK  status: ('A' for Active; 'I' for Inactive)
ROOT
ATOM      1  C4' PXY d   1      -5.969  -5.999   5.997  0.00  0.00     0.077 C 
ATOM      2  C1' PXY d   1      -3.498  -3.129   1.629  0.00  0.00     0.077 C 
ATOM      3  C1  PXY d   1      -4.137  -3.877   2.783  0.00  0.00    -0.082 A 
ATOM      4  C2  PXY d   1      -4.895  -4.934   2.538  0.00  0.00     0.003 A 
ATOM      5  C3  PXY d   1      -5.506  -5.603   3.567  0.00  0.00     0.003 A 
ATOM      6  C4  PXY d   1      -5.296  -5.219   4.864  0.00  0.00    -0.082 A 
ATOM      7  C5  PXY d   1      -4.515  -4.149   5.123  0.00  0.00     0.003 A 
ATOM      8  C6  PXY d   1      -3.937  -3.458   4.062  0.00  0.00     0.003 A 
ENDROOT
TORSDOF 0
ENDMDL
