MODEL 1
REMARK minimizedAffinity 4.61025858
REMARK minimizedRMSD -1
REMARK  0 active torsions:
REMARK  status: ('A' for Active; 'I' for Inactive)
ROOT
ATOM      1  C4' PXY d   1       3.392  -0.447   1.463  0.00  0.00     0.077 C 
ATOM      2  C1' PXY d   1       0.781   2.812  -2.533  0.00  0.00     0.077 C 
ATOM      3  C1  PXY d   1       1.469   1.949  -1.495  0.00  0.00    -0.082 A 
ATOM      4  C2  PXY d   1       1.106   2.038  -0.225  0.00  0.00     0.003 A 
ATOM      5  C3  PXY d   1       1.740   1.288   0.732  0.00  0.00     0.003 A 
ATOM      6  C4  PXY d   1       2.719   0.398   0.379  0.00  0.00    -0.082 A 
ATOM      7  C5  PXY d   1       3.087   0.293  -0.916  0.00  0.00     0.003 A 
ATOM      8  C6  PXY d   1       2.460   1.094  -1.866  0.00  0.00     0.003 A 
ENDROOT
TORSDOF 0
ENDMDL
