MODEL 1
REMARK minimizedAffinity 9.0735569
REMARK minimizedRMSD -1
REMARK  0 active torsions:
REMARK  status: ('A' for Active; 'I' for Inactive)
ROOT
ATOM      1  C4' PXY d   1      -1.899   6.000  -6.000  0.00  0.00     0.077 C 
ATOM      2  C1' PXY d   1       2.751   3.924  -3.266  0.00  0.00     0.077 C 
ATOM      3  C1  PXY d   1       1.539   4.473  -3.992  0.00  0.00    -0.082 A 
ATOM      4  C2  PXY d   1       0.428   4.719  -3.317  0.00  0.00     0.003 A 
ATOM      5  C3  PXY d   1      -0.687   5.185  -3.964  0.00  0.00     0.003 A 
ATOM      6  C4  PXY d   1      -0.648   5.454  -5.306  0.00  0.00    -0.082 A 
ATOM      7  C5  PXY d   1       0.485   5.216  -6.000  0.00  0.00     0.003 A 
ATOM      8  C6  PXY d   1       1.594   4.704  -5.332  0.00  0.00     0.003 A 
ENDROOT
TORSDOF 0
ENDMDL
