MODEL 1
REMARK minimizedAffinity 10.1431656
REMARK minimizedRMSD -1
REMARK  0 active torsions:
REMARK  status: ('A' for Active; 'I' for Inactive)
ROOT
ATOM      1  C4' PXY d   1       1.833   1.484   0.995  0.00  0.00     0.077 C 
ATOM      2  C1' PXY d   1       3.419  -3.095   4.147  0.00  0.00     0.077 C 
ATOM      3  C1  PXY d   1       3.015  -1.889   3.321  0.00  0.00    -0.082 A 
ATOM      4  C2  PXY d   1       1.749  -1.506   3.299  0.00  0.00     0.003 A 
ATOM      5  C3  PXY d   1       1.361  -0.437   2.532  0.00  0.00     0.003 A 
ATOM      6  C4  PXY d   1       2.288   0.279   1.823  0.00  0.00    -0.082 A 
ATOM      7  C5  PXY d   1       3.583  -0.099   1.849  0.00  0.00     0.003 A 
ATOM      8  C6  PXY d   1       3.950  -1.212   2.601  0.00  0.00     0.003 A 
ENDROOT
TORSDOF 0
ENDMDL
