MODEL 1
REMARK minimizedAffinity 6.71436501
REMARK minimizedRMSD -1
REMARK  0 active torsions:
REMARK  status: ('A' for Active; 'I' for Inactive)
ROOT
ATOM      1  C1  DEN d   1      -2.855   1.646  -1.926  0.00  0.00     0.130 A 
ATOM      2  C2  DEN d   1      -3.458   2.738  -2.684  0.00  0.00    -0.031 A 
ATOM      3  C3  DEN d   1      -2.382   3.433  -3.419  0.00  0.00     0.027 A 
ATOM      4  C4  DEN d   1       0.146   2.922  -3.460  0.00  0.00     0.027 A 
ATOM      5  C5  DEN d   1       1.133   2.098  -2.966  0.00  0.00    -0.003 A 
ATOM      6  C6  DEN d   1       0.867   1.095  -2.072  0.00  0.00     0.001 A 
ATOM      7  C7  DEN d   1      -0.425   0.861  -1.678  0.00  0.00     0.017 A 
ATOM      8  C8  DEN d   1      -1.424   1.693  -2.166  0.00  0.00    -0.094 A 
ATOM      9  C9  DEN d   1      -1.136   2.694  -3.079  0.00  0.00    -0.072 A 
ENDROOT
TORSDOF 0
ENDMDL
