MODEL 1
REMARK minimizedAffinity 7.46293449
REMARK minimizedRMSD -1
REMARK  0 active torsions:
REMARK  status: ('A' for Active; 'I' for Inactive)
ROOT
ATOM      1  C1  DEN d   1       1.335  -1.169   2.774  0.00  0.00     0.130 A 
ATOM      2  C2  DEN d   1       0.449  -0.991   1.627  0.00  0.00    -0.031 A 
ATOM      3  C3  DEN d   1       0.592  -2.171   0.751  0.00  0.00     0.027 A 
ATOM      4  C4  DEN d   1       2.089  -4.249   1.060  0.00  0.00     0.027 A 
ATOM      5  C5  DEN d   1       3.026  -4.846   1.874  0.00  0.00    -0.003 A 
ATOM      6  C6  DEN d   1       3.487  -4.249   3.018  0.00  0.00     0.001 A 
ATOM      7  C7  DEN d   1       2.977  -3.038   3.404  0.00  0.00     0.017 A 
ATOM      8  C8  DEN d   1       2.038  -2.426   2.584  0.00  0.00    -0.094 A 
ATOM      9  C9  DEN d   1       1.576  -3.051   1.439  0.00  0.00    -0.072 A 
ENDROOT
TORSDOF 0
ENDMDL
