MODEL 1
REMARK minimizedAffinity 4.52109337
REMARK minimizedRMSD -1
REMARK  0 active torsions:
REMARK  status: ('A' for Active; 'I' for Inactive)
ROOT
ATOM      1  C1  DEN d   1      -2.960   0.580  -2.099  0.00  0.00     0.130 A 
ATOM      2  C2  DEN d   1      -2.039  -0.500  -1.756  0.00  0.00    -0.031 A 
ATOM      3  C3  DEN d   1      -0.664   0.036  -1.817  0.00  0.00     0.027 A 
ATOM      4  C4  DEN d   1       0.123   2.421  -2.402  0.00  0.00     0.027 A 
ATOM      5  C5  DEN d   1      -0.293   3.681  -2.774  0.00  0.00    -0.003 A 
ATOM      6  C6  DEN d   1      -1.613   3.983  -2.979  0.00  0.00     0.001 A 
ATOM      7  C7  DEN d   1      -2.569   3.026  -2.768  0.00  0.00     0.017 A 
ATOM      8  C8  DEN d   1      -2.158   1.752  -2.400  0.00  0.00    -0.094 A 
ATOM      9  C9  DEN d   1      -0.819   1.469  -2.186  0.00  0.00    -0.072 A 
ENDROOT
TORSDOF 0
ENDMDL
