MODEL 1
REMARK minimizedAffinity 8.67835331
REMARK minimizedRMSD -1
REMARK  0 active torsions:
REMARK  status: ('A' for Active; 'I' for Inactive)
ROOT
ATOM      1  C1  DEN d   1      -0.002  -2.085   3.193  0.00  0.00     0.130 A 
ATOM      2  C2  DEN d   1      -1.361  -1.955   2.674  0.00  0.00    -0.031 A 
ATOM      3  C3  DEN d   1      -1.281  -1.867   1.202  0.00  0.00     0.027 A 
ATOM      4  C4  DEN d   1       0.803  -1.923  -0.316  0.00  0.00     0.027 A 
ATOM      5  C5  DEN d   1       2.178  -2.009  -0.332  0.00  0.00    -0.003 A 
ATOM      6  C6  DEN d   1       2.918  -2.091   0.817  0.00  0.00     0.001 A 
ATOM      7  C7  DEN d   1       2.285  -2.135   2.031  0.00  0.00     0.017 A 
ATOM      8  C8  DEN d   1       0.899  -2.041   2.056  0.00  0.00    -0.094 A 
ATOM      9  C9  DEN d   1       0.168  -1.971   0.882  0.00  0.00    -0.072 A 
ENDROOT
TORSDOF 0
ENDMDL
