MODEL 1
REMARK minimizedAffinity 9.67776585
REMARK minimizedRMSD -1
REMARK  0 active torsions:
REMARK  status: ('A' for Active; 'I' for Inactive)
ROOT
ATOM      1  C1  DEN d   1       2.224   0.765  -1.039  0.00  0.00     0.130 A 
ATOM      2  C2  DEN d   1       1.191   1.201  -1.974  0.00  0.00    -0.031 A 
ATOM      3  C3  DEN d   1       1.690   0.972  -3.345  0.00  0.00     0.027 A 
ATOM      4  C4  DEN d   1       3.949  -0.013  -4.106  0.00  0.00     0.027 A 
ATOM      5  C5  DEN d   1       5.156  -0.517  -3.675  0.00  0.00    -0.003 A 
ATOM      6  C6  DEN d   1       5.481  -0.597  -2.347  0.00  0.00     0.001 A 
ATOM      7  C7  DEN d   1       4.571  -0.208  -1.400  0.00  0.00     0.017 A 
ATOM      8  C8  DEN d   1       3.354   0.308  -1.828  0.00  0.00    -0.094 A 
ATOM      9  C9  DEN d   1       3.039   0.369  -3.174  0.00  0.00    -0.072 A 
ENDROOT
TORSDOF 0
ENDMDL
