MODEL 1
REMARK minimizedAffinity -1.15595961
REMARK minimizedRMSD -1
REMARK  1 active torsions:
REMARK  status: ('A' for Active; 'I' for Inactive)
REMARK    1  A    between atoms: C1_2  and  C2_3 
ROOT
ATOM      1  C2  UNL d   1      -4.117   0.217  -5.652  0.00  0.00    -0.081 A 
ATOM      2  C3  UNL d   1      -2.901   0.817  -5.302  0.00  0.00     0.006 A 
ATOM      3  C4  UNL d   1      -2.775   2.208  -5.290  0.00  0.00     0.002 A 
ATOM      4  C5  UNL d   1      -3.864   3.022  -5.620  0.00  0.00    -0.080 A 
ATOM      5  C6  UNL d   1      -3.751   4.517  -5.582  0.00  0.00     0.076 C 
ATOM      6  C7  UNL d   1      -5.074   2.423  -5.987  0.00  0.00     0.002 A 
ATOM      7  C8  UNL d   1      -5.200   1.032  -6.000  0.00  0.00     0.006 A 
ENDROOT
BRANCH   1   8
ATOM      8  C1  UNL d   1      -4.274  -1.281  -5.603  0.00  0.00     0.054 C 
ATOM      9  C   UNL d   1      -5.593  -1.678  -4.955  0.00  0.00     0.018 C 
ENDBRANCH   1   8
TORSDOF 1
ENDMDL
