MODEL 1
REMARK minimizedAffinity -4.6499157
REMARK minimizedRMSD -1
REMARK  1 active torsions:
REMARK  status: ('A' for Active; 'I' for Inactive)
REMARK    1  A    between atoms: C1_2  and  C2_3 
ROOT
ATOM      1  C2  UNL d   1       2.612  -0.337  -1.053  0.00  0.00    -0.081 A 
ATOM      2  C3  UNL d   1       3.883   0.143  -1.392  0.00  0.00     0.006 A 
ATOM      3  C4  UNL d   1       4.815  -0.696  -2.007  0.00  0.00     0.002 A 
ATOM      4  C5  UNL d   1       4.489  -2.025  -2.300  0.00  0.00    -0.080 A 
ATOM      5  C6  UNL d   1       5.470  -2.928  -2.987  0.00  0.00     0.076 C 
ATOM      6  C7  UNL d   1       3.226  -2.509  -1.945  0.00  0.00     0.002 A 
ATOM      7  C8  UNL d   1       2.294  -1.671  -1.329  0.00  0.00     0.006 A 
ENDROOT
BRANCH   1   8
ATOM      8  C1  UNL d   1       1.582   0.583  -0.448  0.00  0.00     0.054 C 
ATOM      9  C   UNL d   1       0.185  -0.014  -0.540  0.00  0.00     0.018 C 
ENDBRANCH   1   8
TORSDOF 1
ENDMDL
