MODEL 1
REMARK minimizedAffinity 2.41677952
REMARK minimizedRMSD -1
REMARK  1 active torsions:
REMARK  status: ('A' for Active; 'I' for Inactive)
REMARK    1  A    between atoms: C1_2  and  C2_3 
ROOT
ATOM      1  C2  UNL d   1      -4.454   2.319  -5.596  0.00  0.00    -0.081 A 
ATOM      2  C3  UNL d   1      -3.090   2.013  -5.511  0.00  0.00     0.006 A 
ATOM      3  C4  UNL d   1      -2.129   3.017  -5.651  0.00  0.00     0.002 A 
ATOM      4  C5  UNL d   1      -2.515   4.344  -5.870  0.00  0.00    -0.080 A 
ATOM      5  C6  UNL d   1      -1.494   5.436  -5.992  0.00  0.00     0.076 C 
ATOM      6  C7  UNL d   1      -3.877   4.647  -5.972  0.00  0.00     0.002 A 
ATOM      7  C8  UNL d   1      -4.838   3.643  -5.833  0.00  0.00     0.006 A 
ENDROOT
BRANCH   1   8
ATOM      8  C1  UNL d   1      -5.494   1.250  -5.381  0.00  0.00     0.054 C 
ATOM      9  C   UNL d   1      -4.866  -0.039  -4.869  0.00  0.00     0.018 C 
ENDBRANCH   1   8
TORSDOF 1
ENDMDL
