MODEL 1
REMARK minimizedAffinity -2.42962146
REMARK minimizedRMSD -1
REMARK  1 active torsions:
REMARK  status: ('A' for Active; 'I' for Inactive)
REMARK    1  A    between atoms: C1_2  and  C2_3 
ROOT
ATOM      1  C2  UNL d   1      -0.429  -1.127  -1.868  0.00  0.00    -0.081 A 
ATOM      2  C3  UNL d   1       0.372   0.002  -2.081  0.00  0.00     0.006 A 
ATOM      3  C4  UNL d   1       0.842   0.749  -0.999  0.00  0.00     0.002 A 
ATOM      4  C5  UNL d   1       0.528   0.376   0.312  0.00  0.00    -0.080 A 
ATOM      5  C6  UNL d   1       1.052   1.153   1.484  0.00  0.00     0.076 C 
ATOM      6  C7  UNL d   1      -0.287  -0.741   0.524  0.00  0.00     0.002 A 
ATOM      7  C8  UNL d   1      -0.758  -1.489  -0.557  0.00  0.00     0.006 A 
ENDROOT
BRANCH   1   8
ATOM      8  C1  UNL d   1      -0.885  -1.973  -3.030  0.00  0.00     0.054 C 
ATOM      9  C   UNL d   1      -1.982  -1.278  -3.824  0.00  0.00     0.018 C 
ENDBRANCH   1   8
TORSDOF 1
ENDMDL
